REMARK SMILES Cc1c(Cl)cccc1NC(=O)C[C@H](C(=O)OCCOCCOC(=O)c1ccc(-c2c3nc(c(-c4ccccc4)c4ccc([nH]4)c(-c4ccccc4)c4nc(c(-c5ccccc5)c5ccc2[nH]5)C=C4)C=C3)cc1)[C@H](C)c1ccccc1
REMARK SMILES IDX 18 1 17 2 16 3 14 4 15 5 13 6 12 7 10 8 9 9 11 11 8 12 1 13
REMARK SMILES IDX 2 14 3 15 4 16 5 17 7 18 6 19 73 20 74 21 75 22 76 23 80 24
REMARK SMILES IDX 77 25 79 26 78 27 19 28 20 29 21 30 22 31 23 32 24 33 25 34
REMARK SMILES IDX 26 35 72 36 27 37 71 38 28 39 29 40 30 41 65 42 31 43 70 44
REMARK SMILES IDX 64 45 66 46 32 47 69 48 63 49 62 50 33 52 55 53 40 54 54 55
REMARK SMILES IDX 41 56 44 57 53 58 67 59 42 60 43 61 52 63 68 64 45 65 34 66
REMARK SMILES IDX 35 67 39 68 36 69 38 70 37 71 56 72 57 73 61 74 58 75 60 76
REMARK SMILES IDX 59 77 46 78 47 79 51 80 48 81 50 82 49 83
REMARK H PARENT 9 10 66 51 44 62
REMARK Flexibility Score: inf
ROOT
ATOM      1  C   UNL     1      -8.544  -1.326   2.214  1.00  0.00     0.202 C 
ENDROOT
BRANCH   1   2
ATOM      2  C   UNL     1      -7.915  -2.242   1.152  1.00  0.00     0.261 C 
BRANCH   2   3
ATOM      3  O   UNL     1      -6.972  -1.524   0.316  1.00  0.00    -0.463 OA
BRANCH   3   4
ATOM      4  C   UNL     1      -7.230  -1.458  -1.022  1.00  0.00     0.310 C 
ATOM      5  O   UNL     1      -8.216  -1.946  -1.557  1.00  0.00    -0.252 OA
BRANCH   4   6
ATOM      6  C   UNL     1      -6.174  -0.633  -1.779  1.00  0.00     0.116 C 
BRANCH   6   7
ATOM      7  C   UNL     1      -6.339   0.838  -1.347  1.00  0.00     0.116 C 
BRANCH   7   8
ATOM      8  C   UNL     1      -5.232   1.859  -1.358  1.00  0.00     0.225 C 
ATOM      9  N   UNL     1      -4.385   2.086  -0.313  1.00  0.00    -0.326 N 
ATOM     10  H   UNL     1      -3.901   2.942  -0.376  1.00  0.00     0.169 HD
ATOM     11  O   UNL     1      -5.084   2.571  -2.358  1.00  0.00    -0.275 OA
BRANCH   9  12
ATOM     12  C   UNL     1      -4.064   1.338   0.840  1.00  0.00     0.045 A 
ATOM     13  C   UNL     1      -1.600   2.027   0.566  1.00  0.00     0.048 C 
ATOM     14  C   UNL     1      -2.712   1.279   1.263  1.00  0.00    -0.009 A 
ATOM     15  C   UNL     1      -2.361   0.357   2.276  1.00  0.00     0.046 A 
ATOM     16  Cl  UNL     1      -0.729   0.170   2.821  1.00  0.00    -0.084 Cl
ATOM     17  C   UNL     1      -3.308  -0.493   2.842  1.00  0.00     0.021 A 
ATOM     18  C   UNL     1      -5.003   0.535   1.488  1.00  0.00     0.026 A 
ATOM     19  C   UNL     1      -4.631  -0.398   2.454  1.00  0.00     0.004 A 
ENDBRANCH   9  12
ENDBRANCH   7   8
ENDBRANCH   6   7
BRANCH   6  20
ATOM     20  C   UNL     1      -4.843  -1.439  -1.782  1.00  0.00     0.031 C 
ATOM     21  C   UNL     1      -3.502  -0.719  -1.688  1.00  0.00     0.013 C 
BRANCH  20  22
ATOM     22  C   UNL     1      -4.773  -2.312  -3.040  1.00  0.00    -0.044 A 
ATOM     23  C   UNL     1      -5.088  -3.674  -2.973  1.00  0.00     0.004 A 
ATOM     24  C   UNL     1      -4.349  -1.773  -4.269  1.00  0.00     0.004 A 
ATOM     25  C   UNL     1      -4.920  -4.488  -4.093  1.00  0.00     0.000 A 
ATOM     26  C   UNL     1      -4.162  -2.593  -5.379  1.00  0.00     0.000 A 
ATOM     27  C   UNL     1      -4.439  -3.953  -5.288  1.00  0.00     0.000 A 
ENDBRANCH  20  22
ENDBRANCH   6  20
ENDBRANCH   4   6
ENDBRANCH   3   4
ENDBRANCH   2   3
ENDBRANCH   1   2
BRANCH   1  28
ATOM     28  O   UNL     1      -9.662  -0.548   1.783  1.00  0.00    -0.374 OA
BRANCH  28  29
ATOM     29  C   UNL     1      -9.376   0.564   0.942  1.00  0.00     0.202 C 
BRANCH  29  30
ATOM     30  C   UNL     1      -9.023   1.875   1.662  1.00  0.00     0.261 C 
BRANCH  30  31
ATOM     31  O   UNL     1      -7.881   1.749   2.533  1.00  0.00    -0.460 OA
BRANCH  31  32
ATOM     32  C   UNL     1      -8.182   1.638   3.849  1.00  0.00     0.338 C 
ATOM     33  O   UNL     1      -9.293   1.698   4.356  1.00  0.00    -0.246 OA
BRANCH  32  34
ATOM     34  C   UNL     1      -6.989   1.256   4.633  1.00  0.00     0.060 A 
ATOM     35  C   UNL     1      -7.128   0.181   5.519  1.00  0.00     0.016 A 
ATOM     36  C   UNL     1      -5.781   1.957   4.568  1.00  0.00     0.016 A 
ATOM     37  C   UNL     1      -6.089  -0.158   6.384  1.00  0.00     0.010 A 
ATOM     38  C   UNL     1      -4.730   1.603   5.428  1.00  0.00     0.010 A 
ATOM     39  C   UNL     1      -4.894   0.574   6.376  1.00  0.00    -0.014 A 
BRANCH  39  40
ATOM     40  C   UNL     1      -3.903   0.364   7.468  1.00  0.00     0.031 A 
ATOM     41  C   UNL     1      -3.783   1.400   8.557  1.00  0.00     0.074 A 
ATOM     42  C   UNL     1      -3.167  -0.761   7.546  1.00  0.00     0.049 A 
ATOM     43  N   UNL     1      -3.012   1.408   9.616  1.00  0.00    -0.248 NA
ATOM     44  C   UNL     1      -4.652   2.582   8.439  1.00  0.00     0.031 C 
ATOM     45  C   UNL     1      -3.220  -1.877   6.603  1.00  0.00     0.029 A 
ATOM     46  N   UNL     1      -2.232  -1.153   8.474  1.00  0.00    -0.354 N 
ATOM     47  C   UNL     1      -3.298   2.594  10.283  1.00  0.00     0.074 A 
ATOM     48  C   UNL     1      -4.280   3.299   9.488  1.00  0.00     0.031 C 
ATOM     49  C   UNL     1      -2.352  -2.825   6.997  1.00  0.00     0.029 A 
ATOM     50  C   UNL     1      -1.665  -2.376   8.206  1.00  0.00     0.049 A 
ATOM     51  H   UNL     1      -1.990  -0.608   9.258  1.00  0.00     0.167 HD
ATOM     52  C   UNL     1      -2.802   3.055  11.456  1.00  0.00     0.031 A 
ATOM     53  C   UNL     1      -0.696  -3.055   8.853  1.00  0.00     0.031 A 
ATOM     54  C   UNL     1      -1.820   2.367  12.252  1.00  0.00     0.049 A 
ATOM     55  C   UNL     1      -0.093  -2.479  10.108  1.00  0.00     0.074 A 
ATOM     56  C   UNL     1      -1.274   2.750  13.465  1.00  0.00     0.029 A 
ATOM     57  N   UNL     1      -1.230   1.161  11.910  1.00  0.00    -0.354 N 
ATOM     58  N   UNL     1      -0.398  -1.373  10.742  1.00  0.00    -0.248 NA
ATOM     59  C   UNL     1       0.982  -3.257  10.743  1.00  0.00     0.031 C 
ATOM     60  C   UNL     1      -0.302   1.810  13.822  1.00  0.00     0.029 A 
ATOM     61  C   UNL     1      -0.297   0.804  12.870  1.00  0.00     0.049 A 
ATOM     62  H   UNL     1      -1.442   0.636  11.104  1.00  0.00     0.167 HD
ATOM     63  C   UNL     1       0.424  -1.338  11.863  1.00  0.00     0.074 A 
ATOM     64  C   UNL     1       1.227  -2.542  11.832  1.00  0.00     0.031 C 
ATOM     65  C   UNL     1       0.502  -0.393  12.833  1.00  0.00     0.031 A 
BRANCH  52  66
ATOM     66  C   UNL     1      -3.290   4.397  11.933  1.00  0.00    -0.014 A 
ATOM     67  C   UNL     1      -4.606   4.583  12.385  1.00  0.00     0.009 A 
ATOM     68  C   UNL     1      -2.406   5.487  11.956  1.00  0.00     0.009 A 
ATOM     69  C   UNL     1      -5.037   5.841  12.811  1.00  0.00     0.001 A 
ATOM     70  C   UNL     1      -2.829   6.736  12.414  1.00  0.00     0.001 A 
ATOM     71  C   UNL     1      -4.147   6.915  12.830  1.00  0.00     0.000 A 
ENDBRANCH  52  66
BRANCH  53  72
ATOM     72  C   UNL     1      -0.217  -4.359   8.320  1.00  0.00    -0.014 A 
ATOM     73  C   UNL     1      -0.450  -5.553   9.019  1.00  0.00     0.009 A 
ATOM     74  C   UNL     1       0.506  -4.410   7.117  1.00  0.00     0.009 A 
ATOM     75  C   UNL     1       0.052  -6.766   8.538  1.00  0.00     0.001 A 
ATOM     76  C   UNL     1       0.979  -5.627   6.622  1.00  0.00     0.001 A 
ATOM     77  C   UNL     1       0.760  -6.802   7.338  1.00  0.00     0.000 A 
ENDBRANCH  53  72
BRANCH  65  78
ATOM     78  C   UNL     1       1.464  -0.637  13.966  1.00  0.00    -0.014 A 
ATOM     79  C   UNL     1       2.853  -0.578  13.776  1.00  0.00     0.009 A 
ATOM     80  C   UNL     1       0.967  -0.886  15.255  1.00  0.00     0.009 A 
ATOM     81  C   UNL     1       3.724  -0.801  14.846  1.00  0.00     0.001 A 
ATOM     82  C   UNL     1       1.838  -1.075  16.330  1.00  0.00     0.001 A 
ATOM     83  C   UNL     1       3.216  -1.043  16.122  1.00  0.00     0.000 A 
ENDBRANCH  65  78
ENDBRANCH  39  40
ENDBRANCH  32  34
ENDBRANCH  31  32
ENDBRANCH  30  31
ENDBRANCH  29  30
ENDBRANCH  28  29
ENDBRANCH   1  28
TORSDOF 19
