REMARK SMILES COc1cc([C@@H]2CC(=O)Nc3c(C(=O)OCCOCCOC(=O)c4ccc(-c5c6nc(c(-c7ccccc7)c7ccc([nH]7)c(-c7ccccc7)c7nc(c(-c8ccccc8)c8ccc5[nH]8)C=C7)C=C6)cc4)cn(-c4ccc(F)cc4)c32)c(OC)c2c1OCO2
REMARK SMILES IDX 18 1 17 2 16 3 15 4 13 5 14 6 12 7 6 8 7 9 81 10 8 11 11 12
REMARK SMILES IDX 73 13 9 14 10 15 72 16 5 18 3 19 4 20 86 21 85 22 87 23
REMARK SMILES IDX 82 24 89 25 88 26 2 27 1 28 83 29 84 30 74 31 75 32 80 33
REMARK SMILES IDX 76 34 79 35 77 36 78 37 19 38 20 39 21 40 22 41 23 42 24 43
REMARK SMILES IDX 25 44 71 45 26 46 70 47 27 48 28 49 29 50 64 51 30 52 69 53
REMARK SMILES IDX 63 54 65 55 31 56 68 57 62 58 61 59 32 61 54 62 39 63 53 64
REMARK SMILES IDX 40 65 43 66 52 67 66 68 41 69 42 70 51 72 67 73 44 74 33 75
REMARK SMILES IDX 34 76 38 77 35 78 37 79 36 80 55 81 56 82 60 83 57 84 59 85
REMARK SMILES IDX 58 86 45 87 46 88 50 89 47 90 49 91 48 92
REMARK H PARENT 10 17 65 60 43 71
REMARK Flexibility Score: inf
ROOT
ATOM      1  O   UNL     1      -1.119   6.482 -10.581  1.00  0.00    -0.374 OA
ENDROOT
BRANCH   1   2
ATOM      2  C   UNL     1      -0.027   5.781 -11.173  1.00  0.00     0.202 C 
BRANCH   2   3
ATOM      3  C   UNL     1       1.091   5.277 -10.256  1.00  0.00     0.261 C 
BRANCH   3   4
ATOM      4  O   UNL     1       0.641   4.249  -9.361  1.00  0.00    -0.460 OA
BRANCH   4   5
ATOM      5  C   UNL     1       0.406   4.671  -8.089  1.00  0.00     0.341 C 
ATOM      6  O   UNL     1       0.658   5.802  -7.667  1.00  0.00    -0.246 OA
BRANCH   5   7
ATOM      7  C   UNL     1      -0.293   3.689  -7.285  1.00  0.00     0.102 A 
ATOM      8  C   UNL     1      -0.702   0.392  -5.707  1.00  0.00     0.082 C 
ATOM      9  C   UNL     1      -0.532  -0.524  -6.931  1.00  0.00     0.115 C 
ATOM     10  C   UNL     1      -0.827   1.811  -6.170  1.00  0.00     0.055 A 
ATOM     11  C   UNL     1       0.297   0.056  -8.074  1.00  0.00     0.225 C 
ATOM     12  C   UNL     1      -0.286   2.280  -7.346  1.00  0.00     0.078 A 
ATOM     13  N   UNL     1      -1.445   2.866  -5.535  1.00  0.00    -0.317 N 
ATOM     14  O   UNL     1       0.877  -0.673  -8.880  1.00  0.00    -0.275 OA
ATOM     15  N   UNL     1       0.287   1.419  -8.253  1.00  0.00    -0.324 N 
ATOM     16  C   UNL     1      -1.135   4.012  -6.229  1.00  0.00     0.109 A 
ATOM     17  H   UNL     1       0.705   1.794  -9.061  1.00  0.00     0.170 HD
BRANCH   8  18
ATOM     18  C   UNL     1       0.414   0.202  -4.663  1.00  0.00     0.012 A 
ATOM     19  C   UNL     1       0.952  -0.425  -2.347  1.00  0.00     0.165 A 
ATOM     20  C   UNL     1       0.048  -0.357  -3.410  1.00  0.00     0.059 A 
ATOM     21  C   UNL     1       2.254  -0.029  -2.581  1.00  0.00     0.211 A 
ATOM     22  C   UNL     1       2.647   0.469  -3.806  1.00  0.00     0.211 A 
ATOM     23  O   UNL     1       3.287  -0.080  -1.693  1.00  0.00    -0.449 OA
ATOM     24  C   UNL     1       1.757   0.609  -4.862  1.00  0.00     0.168 A 
ATOM     25  O   UNL     1       3.971   0.799  -3.808  1.00  0.00    -0.449 OA
ATOM     26  C   UNL     1       4.383   0.363  -2.506  1.00  0.00     0.468 C 
BRANCH  19  27
ATOM     27  O   UNL     1       0.468  -0.904  -1.164  1.00  0.00    -0.493 OA
ATOM     28  C   UNL     1       0.834  -0.108  -0.037  1.00  0.00     0.278 C 
ENDBRANCH  19  27
BRANCH  24  29
ATOM     29  O   UNL     1       2.063   1.119  -6.085  1.00  0.00    -0.492 OA
ATOM     30  C   UNL     1       3.389   1.525  -6.382  1.00  0.00     0.278 C 
ENDBRANCH  24  29
ENDBRANCH   8  18
BRANCH  13  31
ATOM     31  C   UNL     1      -2.203   2.841  -4.349  1.00  0.00     0.046 A 
ATOM     32  C   UNL     1      -1.585   2.478  -3.151  1.00  0.00     0.029 A 
ATOM     33  C   UNL     1      -3.556   3.195  -4.383  1.00  0.00     0.029 A 
ATOM     34  C   UNL     1      -2.343   2.382  -1.987  1.00  0.00     0.041 A 
ATOM     35  C   UNL     1      -4.309   3.097  -3.211  1.00  0.00     0.041 A 
ATOM     36  C   UNL     1      -3.700   2.679  -2.030  1.00  0.00     0.123 A 
ATOM     37  F   UNL     1      -4.431   2.567  -0.913  1.00  0.00    -0.207 F 
ENDBRANCH  13  31
ENDBRANCH   5   7
ENDBRANCH   4   5
ENDBRANCH   3   4
ENDBRANCH   2   3
ENDBRANCH   1   2
BRANCH   1  38
ATOM     38  C   UNL     1      -2.084   5.784  -9.806  1.00  0.00     0.202 C 
BRANCH  38  39
ATOM     39  C   UNL     1      -3.030   4.818 -10.500  1.00  0.00     0.261 C 
BRANCH  39  40
ATOM     40  O   UNL     1      -2.359   3.785 -11.206  1.00  0.00    -0.460 OA
BRANCH  40  41
ATOM     41  C   UNL     1      -2.348   3.971 -12.544  1.00  0.00     0.338 C 
ATOM     42  O   UNL     1      -2.494   5.027 -13.145  1.00  0.00    -0.246 OA
BRANCH  41  43
ATOM     43  C   UNL     1      -2.310   2.665 -13.203  1.00  0.00     0.060 A 
ATOM     44  C   UNL     1      -2.271   2.662 -14.599  1.00  0.00     0.016 A 
ATOM     45  C   UNL     1      -2.574   1.501 -12.466  1.00  0.00     0.016 A 
ATOM     46  C   UNL     1      -2.674   1.524 -15.262  1.00  0.00     0.010 A 
ATOM     47  C   UNL     1      -2.988   0.370 -13.130  1.00  0.00     0.010 A 
ATOM     48  C   UNL     1      -3.104   0.418 -14.515  1.00  0.00    -0.014 A 
BRANCH  48  49
ATOM     49  C   UNL     1      -3.532  -0.766 -15.228  1.00  0.00     0.031 A 
ATOM     50  C   UNL     1      -2.402  -1.442 -15.896  1.00  0.00     0.074 A 
ATOM     51  C   UNL     1      -4.794  -1.237 -15.204  1.00  0.00     0.049 A 
ATOM     52  N   UNL     1      -2.160  -1.462 -17.162  1.00  0.00    -0.248 NA
ATOM     53  C   UNL     1      -1.315  -1.982 -15.063  1.00  0.00     0.031 C 
ATOM     54  C   UNL     1      -5.915  -0.769 -14.381  1.00  0.00     0.029 A 
ATOM     55  N   UNL     1      -5.323  -2.308 -15.859  1.00  0.00    -0.354 N 
ATOM     56  C   UNL     1      -1.007  -2.223 -17.305  1.00  0.00     0.074 A 
ATOM     57  C   UNL     1      -0.428  -2.339 -15.993  1.00  0.00     0.031 C 
ATOM     58  C   UNL     1      -6.913  -1.683 -14.421  1.00  0.00     0.029 A 
ATOM     59  C   UNL     1      -6.566  -2.714 -15.385  1.00  0.00     0.049 A 
ATOM     60  H   UNL     1      -4.864  -2.757 -16.605  1.00  0.00     0.167 HD
ATOM     61  C   UNL     1      -0.817  -2.963 -18.430  1.00  0.00     0.031 A 
ATOM     62  C   UNL     1      -7.247  -3.824 -15.759  1.00  0.00     0.031 A 
ATOM     63  C   UNL     1      -1.728  -2.567 -19.473  1.00  0.00     0.049 A 
ATOM     64  C   UNL     1      -6.746  -4.220 -17.090  1.00  0.00     0.074 A 
ATOM     65  C   UNL     1      -1.856  -1.514 -20.350  1.00  0.00     0.029 A 
ATOM     66  N   UNL     1      -2.949  -3.188 -19.394  1.00  0.00    -0.354 N 
ATOM     67  N   UNL     1      -6.963  -3.514 -18.160  1.00  0.00    -0.248 NA
ATOM     68  C   UNL     1      -5.696  -5.225 -17.203  1.00  0.00     0.031 C 
ATOM     69  C   UNL     1      -3.250  -1.407 -20.637  1.00  0.00     0.029 A 
ATOM     70  C   UNL     1      -3.928  -2.426 -19.969  1.00  0.00     0.049 A 
ATOM     71  H   UNL     1      -3.100  -4.067 -18.978  1.00  0.00     0.167 HD
ATOM     72  C   UNL     1      -5.804  -3.657 -18.896  1.00  0.00     0.074 A 
ATOM     73  C   UNL     1      -5.158  -4.853 -18.369  1.00  0.00     0.031 C 
ATOM     74  C   UNL     1      -5.322  -2.618 -19.635  1.00  0.00     0.031 A 
BRANCH  61  75
ATOM     75  C   UNL     1      -0.247  -4.364 -18.399  1.00  0.00    -0.014 A 
ATOM     76  C   UNL     1      -0.126  -5.060 -19.616  1.00  0.00     0.009 A 
ATOM     77  C   UNL     1      -0.126  -5.129 -17.222  1.00  0.00     0.009 A 
ATOM     78  C   UNL     1       0.040  -6.450 -19.648  1.00  0.00     0.001 A 
ATOM     79  C   UNL     1       0.072  -6.512 -17.250  1.00  0.00     0.001 A 
ATOM     80  C   UNL     1       0.131  -7.176 -18.465  1.00  0.00     0.000 A 
ENDBRANCH  61  75
BRANCH  62  81
ATOM     81  C   UNL     1      -8.202  -4.681 -15.029  1.00  0.00    -0.014 A 
ATOM     82  C   UNL     1      -9.124  -5.484 -15.724  1.00  0.00     0.009 A 
ATOM     83  C   UNL     1      -7.988  -4.954 -13.668  1.00  0.00     0.009 A 
ATOM     84  C   UNL     1      -9.764  -6.559 -15.093  1.00  0.00     0.001 A 
ATOM     85  C   UNL     1      -8.625  -6.031 -13.039  1.00  0.00     0.001 A 
ATOM     86  C   UNL     1      -9.498  -6.845 -13.756  1.00  0.00     0.000 A 
ENDBRANCH  62  81
BRANCH  74  87
ATOM     87  C   UNL     1      -6.282  -1.510 -19.965  1.00  0.00    -0.014 A 
ATOM     88  C   UNL     1      -6.820  -0.635 -19.005  1.00  0.00     0.009 A 
ATOM     89  C   UNL     1      -6.599  -1.303 -21.314  1.00  0.00     0.009 A 
ATOM     90  C   UNL     1      -7.673   0.404 -19.390  1.00  0.00     0.001 A 
ATOM     91  C   UNL     1      -7.433  -0.255 -21.699  1.00  0.00     0.001 A 
ATOM     92  C   UNL     1      -7.975   0.595 -20.737  1.00  0.00     0.000 A 
ENDBRANCH  74  87
ENDBRANCH  48  49
ENDBRANCH  41  43
ENDBRANCH  40  41
ENDBRANCH  39  40
ENDBRANCH  38  39
ENDBRANCH   1  38
TORSDOF 18
