REMARK SMILES O=C(OCCOCCOC(=O)[C@H]1C[C@H](O)CN1C(=O)/C=C/c1c(F)cccc1Cl)c1ccc(-c2c3nc(c(-c4ccccc4)c4ccc([nH]4)c(-c4ccccc4)c4nc(c(-c5ccccc5)c5ccc2[nH]5)C=C4)C=C3)cc1
REMARK SMILES IDX 7 1 6 2 5 3 4 4 3 5 2 6 1 7 30 8 31 9 77 10 32 11 76 12
REMARK SMILES IDX 33 13 34 14 35 15 70 16 36 17 75 18 69 19 71 20 37 21 74 22
REMARK SMILES IDX 68 23 67 24 38 26 60 27 45 28 59 29 46 30 49 31 58 32 72 33
REMARK SMILES IDX 47 34 48 35 57 37 73 38 50 39 39 40 40 41 44 42 41 43 43 44
REMARK SMILES IDX 42 45 61 46 62 47 66 48 63 49 65 50 64 51 51 52 52 53 56 54
REMARK SMILES IDX 53 55 55 56 54 57 8 58 9 59 10 60 11 61 12 62 13 63 17 64
REMARK SMILES IDX 14 65 16 66 18 67 19 68 20 69 21 70 22 71 23 72 28 73 24 74
REMARK SMILES IDX 25 75 27 76 29 77 26 78 15 79
REMARK H PARENT 71 25 49 36 15 80
REMARK Flexibility Score: inf
ROOT
ATOM      1  C   UNL     1       2.629   1.864  -1.196  1.00  0.00     0.202 C 
ENDROOT
BRANCH   1   2
ATOM      2  O   UNL     1       3.865   1.330  -0.721  1.00  0.00    -0.374 OA
BRANCH   2   3
ATOM      3  C   UNL     1       4.236   0.073  -1.286  1.00  0.00     0.202 C 
BRANCH   3   4
ATOM      4  C   UNL     1       3.874  -1.157  -0.447  1.00  0.00     0.261 C 
BRANCH   4   5
ATOM      5  O   UNL     1       2.484  -1.132  -0.084  1.00  0.00    -0.460 OA
BRANCH   5   6
ATOM      6  C   UNL     1       1.934  -0.630   1.047  1.00  0.00     0.338 C 
ATOM      7  O   UNL     1       0.715  -0.702   1.191  1.00  0.00    -0.246 OA
BRANCH   6   8
ATOM      8  C   UNL     1       2.731  -0.009   2.149  1.00  0.00     0.060 A 
ATOM      9  C   UNL     1       3.995   0.556   1.994  1.00  0.00     0.016 A 
ATOM     10  C   UNL     1       2.138   0.069   3.421  1.00  0.00     0.016 A 
ATOM     11  C   UNL     1       4.665   1.162   3.029  1.00  0.00     0.010 A 
ATOM     12  C   UNL     1       2.803   0.689   4.487  1.00  0.00     0.010 A 
ATOM     13  C   UNL     1       4.073   1.231   4.279  1.00  0.00    -0.014 A 
BRANCH  13  14
ATOM     14  C   UNL     1       4.944   1.744   5.339  1.00  0.00     0.031 A 
ATOM     15  C   UNL     1       5.679   0.742   6.169  1.00  0.00     0.074 A 
ATOM     16  C   UNL     1       5.268   3.049   5.328  1.00  0.00     0.049 A 
ATOM     17  N   UNL     1       6.556   0.938   7.112  1.00  0.00    -0.248 NA
ATOM     18  C   UNL     1       5.415  -0.678   5.869  1.00  0.00     0.031 C 
ATOM     19  C   UNL     1       4.750   4.039   4.376  1.00  0.00     0.029 A 
ATOM     20  N   UNL     1       6.169   3.748   6.079  1.00  0.00    -0.354 N 
ATOM     21  C   UNL     1       6.911  -0.330   7.552  1.00  0.00     0.074 A 
ATOM     22  C   UNL     1       6.179  -1.289   6.759  1.00  0.00     0.031 C 
ATOM     23  C   UNL     1       5.381   5.207   4.573  1.00  0.00     0.029 A 
ATOM     24  C   UNL     1       6.277   5.067   5.712  1.00  0.00     0.049 A 
ATOM     25  H   UNL     1       6.690   3.346   6.811  1.00  0.00     0.167 HD
ATOM     26  C   UNL     1       7.757  -0.648   8.556  1.00  0.00     0.031 A 
ATOM     27  C   UNL     1       7.004   6.050   6.271  1.00  0.00     0.031 A 
ATOM     28  C   UNL     1       8.456   0.344   9.323  1.00  0.00     0.049 A 
ATOM     29  C   UNL     1       7.834   5.689   7.471  1.00  0.00     0.074 A 
ATOM     30  C   UNL     1       9.256   0.181  10.436  1.00  0.00     0.029 A 
ATOM     31  N   UNL     1       8.431   1.704   9.035  1.00  0.00    -0.354 N 
ATOM     32  N   UNL     1       8.067   4.503   7.985  1.00  0.00    -0.248 NA
ATOM     33  C   UNL     1       8.475   6.797   8.186  1.00  0.00     0.031 C 
ATOM     34  C   UNL     1       9.675   1.451  10.851  1.00  0.00     0.029 A 
ATOM     35  C   UNL     1       9.184   2.397   9.962  1.00  0.00     0.049 A 
ATOM     36  H   UNL     1       7.947   2.112   8.281  1.00  0.00     0.167 HD
ATOM     37  C   UNL     1       8.889   4.718   9.080  1.00  0.00     0.074 A 
ATOM     38  C   UNL     1       9.133   6.148   9.136  1.00  0.00     0.031 C 
ATOM     39  C   UNL     1       9.392   3.824   9.967  1.00  0.00     0.031 A 
BRANCH  26  40
ATOM     40  C   UNL     1       7.835  -2.098   8.933  1.00  0.00    -0.014 A 
ATOM     41  C   UNL     1       8.489  -3.046   8.129  1.00  0.00     0.009 A 
ATOM     42  C   UNL     1       7.160  -2.535  10.084  1.00  0.00     0.009 A 
ATOM     43  C   UNL     1       8.425  -4.406   8.448  1.00  0.00     0.001 A 
ATOM     44  C   UNL     1       7.119  -3.890  10.413  1.00  0.00     0.001 A 
ATOM     45  C   UNL     1       7.740  -4.826   9.588  1.00  0.00     0.000 A 
ENDBRANCH  26  40
BRANCH  27  46
ATOM     46  C   UNL     1       6.909   7.447   5.770  1.00  0.00    -0.014 A 
ATOM     47  C   UNL     1       8.025   8.107   5.237  1.00  0.00     0.009 A 
ATOM     48  C   UNL     1       5.688   8.141   5.838  1.00  0.00     0.009 A 
ATOM     49  C   UNL     1       7.925   9.432   4.801  1.00  0.00     0.001 A 
ATOM     50  C   UNL     1       5.582   9.454   5.373  1.00  0.00     0.001 A 
ATOM     51  C   UNL     1       6.704  10.102   4.865  1.00  0.00     0.000 A 
ENDBRANCH  27  46
BRANCH  39  52
ATOM     52  C   UNL     1      10.280   4.380  11.039  1.00  0.00    -0.014 A 
ATOM     53  C   UNL     1       9.751   5.103  12.118  1.00  0.00     0.009 A 
ATOM     54  C   UNL     1      11.661   4.138  10.980  1.00  0.00     0.009 A 
ATOM     55  C   UNL     1      10.598   5.604  13.105  1.00  0.00     0.001 A 
ATOM     56  C   UNL     1      12.500   4.616  11.984  1.00  0.00     0.001 A 
ATOM     57  C   UNL     1      11.970   5.356  13.040  1.00  0.00     0.000 A 
ENDBRANCH  39  52
ENDBRANCH  13  14
ENDBRANCH   6   8
ENDBRANCH   5   6
ENDBRANCH   4   5
ENDBRANCH   3   4
ENDBRANCH   2   3
ENDBRANCH   1   2
BRANCH   1  58
ATOM     58  C   UNL     1       2.883   2.867  -2.316  1.00  0.00     0.261 C 
BRANCH  58  59
ATOM     59  O   UNL     1       3.345   2.176  -3.489  1.00  0.00    -0.462 OA
BRANCH  59  60
ATOM     60  C   UNL     1       4.694   2.094  -3.683  1.00  0.00     0.329 C 
ATOM     61  O   UNL     1       5.545   2.546  -2.925  1.00  0.00    -0.250 OA
BRANCH  60  62
ATOM     62  C   UNL     1       5.039   1.256  -4.930  1.00  0.00     0.198 C 
ATOM     63  C   UNL     1       5.651  -0.095  -4.556  1.00  0.00     0.071 C 
ATOM     64  N   UNL     1       3.874   0.915  -5.745  1.00  0.00    -0.323 N 
ATOM     65  C   UNL     1       4.495  -1.094  -4.633  1.00  0.00     0.136 C 
ATOM     66  C   UNL     1       3.542  -0.501  -5.664  1.00  0.00     0.152 C 
BRANCH  64  67
ATOM     67  C   UNL     1       3.213   1.938  -6.379  1.00  0.00     0.247 C 
ATOM     68  O   UNL     1       3.634   3.094  -6.365  1.00  0.00    -0.270 OA
BRANCH  67  69
ATOM     69  C   UNL     1       1.887   1.692  -6.978  1.00  0.00     0.072 C 
ATOM     70  C   UNL     1       1.604   0.665  -7.788  1.00  0.00     0.018 C 
BRANCH  70  71
ATOM     71  C   UNL     1       0.314   0.549  -8.472  1.00  0.00     0.029 A 
ATOM     72  C   UNL     1      -0.013   1.481  -9.464  1.00  0.00     0.131 A 
ATOM     73  C   UNL     1      -0.579  -0.503  -8.227  1.00  0.00     0.051 A 
ATOM     74  F   UNL     1       0.816   2.503  -9.730  1.00  0.00    -0.206 F 
ATOM     75  C   UNL     1      -1.178   1.367 -10.215  1.00  0.00     0.040 A 
ATOM     76  C   UNL     1      -1.755  -0.622  -8.978  1.00  0.00     0.021 A 
ATOM     77  Cl  UNL     1      -0.276  -1.689  -7.005  1.00  0.00    -0.084 Cl
ATOM     78  C   UNL     1      -2.048   0.307  -9.978  1.00  0.00     0.005 A 
ENDBRANCH  70  71
ENDBRANCH  67  69
ENDBRANCH  64  67
BRANCH  65  79
ATOM     79  O   UNL     1       4.962  -2.392  -4.966  1.00  0.00    -0.391 OA
ATOM     80  H   UNL     1       5.433  -2.358  -5.814  1.00  0.00     0.211 HD
ENDBRANCH  65  79
ENDBRANCH  60  62
ENDBRANCH  59  60
ENDBRANCH  58  59
ENDBRANCH   1  58
TORSDOF 18
