REMARK SMILES CSc1nc2nnc(C(=O)OCCOCCOC(=O)c3ccc(-c4c5nc(c(-c6ccccc6)c6ccc([nH]6)c(-c6ccccc6)c6nc(c(-c7ccccc7)c7ccc4[nH]7)C=C6)C=C5)cc3)c(O)n2n1
REMARK SMILES IDX 15 1 14 2 13 3 12 4 11 5 9 6 10 7 8 8 3 9 4 10 71 11 5 12
REMARK SMILES IDX 70 13 6 14 68 15 7 16 2 17 1 18 69 19 16 21 17 22 18 23
REMARK SMILES IDX 19 24 20 25 21 26 67 27 22 28 66 29 23 30 24 31 25 32 60 33
REMARK SMILES IDX 26 34 65 35 59 36 61 37 27 38 64 39 58 40 57 41 28 43 50 44
REMARK SMILES IDX 35 45 49 46 36 47 39 48 48 49 62 50 37 51 38 52 47 54 63 55
REMARK SMILES IDX 40 56 29 57 30 58 34 59 31 60 33 61 32 62 51 63 52 64 56 65
REMARK SMILES IDX 53 66 55 67 54 68 41 69 42 70 46 71 43 72 45 73 44 74
REMARK H PARENT 69 20 61 42 39 53
REMARK Flexibility Score: inf
ROOT
ATOM      1  C   UNL     1       6.827   6.142   0.133  1.00  0.00     0.202 C 
ENDROOT
BRANCH   1   2
ATOM      2  O   UNL     1       7.835   6.880  -0.545  1.00  0.00    -0.374 OA
BRANCH   2   3
ATOM      3  C   UNL     1       7.587   8.210  -0.997  1.00  0.00     0.202 C 
BRANCH   3   4
ATOM      4  C   UNL     1       6.637   8.428  -2.180  1.00  0.00     0.261 C 
BRANCH   4   5
ATOM      5  O   UNL     1       5.311   7.917  -1.961  1.00  0.00    -0.458 OA
BRANCH   5   6
ATOM      6  C   UNL     1       5.070   6.733  -2.577  1.00  0.00     0.364 C 
ATOM      7  O   UNL     1       5.862   6.111  -3.276  1.00  0.00    -0.244 OA
BRANCH   6   8
ATOM      8  C   UNL     1       3.800   6.123  -2.117  1.00  0.00     0.232 A 
ATOM      9  C   UNL     1       0.949   2.995  -1.178  1.00  0.00     0.210 A 
ATOM     10  N   UNL     1       0.412   4.248  -1.243  1.00  0.00    -0.182 NA
ATOM     11  N   UNL     1       2.276   2.937  -1.268  1.00  0.00    -0.134 NA
ATOM     12  C   UNL     1       1.460   5.020  -1.440  1.00  0.00     0.275 A 
ATOM     13  N   UNL     1       2.599   4.228  -1.516  1.00  0.00    -0.159 N 
ATOM     14  N   UNL     1       1.563   6.373  -1.618  1.00  0.00    -0.108 NA
ATOM     15  C   UNL     1       3.820   4.794  -1.875  1.00  0.00     0.251 A 
ATOM     16  N   UNL     1       2.670   6.899  -1.936  1.00  0.00    -0.134 NA
BRANCH   9  17
ATOM     17  S   UNL     1      -0.042   1.564  -1.119  1.00  0.00    -0.088 SA
ATOM     18  C   UNL     1       0.937   0.496  -0.046  1.00  0.00     0.094 C 
ENDBRANCH   9  17
BRANCH  15  19
ATOM     19  O   UNL     1       4.936   3.973  -1.976  1.00  0.00    -0.491 OA
ATOM     20  H   UNL     1       5.766   4.337  -2.216  1.00  0.00     0.295 HD
ENDBRANCH  15  19
ENDBRANCH   6   8
ENDBRANCH   5   6
ENDBRANCH   4   5
ENDBRANCH   3   4
ENDBRANCH   2   3
ENDBRANCH   1   2
BRANCH   1  21
ATOM     21  C   UNL     1       6.378   6.570   1.519  1.00  0.00     0.261 C 
BRANCH  21  22
ATOM     22  O   UNL     1       5.945   7.917   1.545  1.00  0.00    -0.460 OA
BRANCH  22  23
ATOM     23  C   UNL     1       6.878   8.764   2.039  1.00  0.00     0.338 C 
ATOM     24  O   UNL     1       8.066   8.550   2.190  1.00  0.00    -0.246 OA
BRANCH  23  25
ATOM     25  C   UNL     1       6.192   9.956   2.541  1.00  0.00     0.060 A 
ATOM     26  C   UNL     1       7.000  10.896   3.180  1.00  0.00     0.016 A 
ATOM     27  C   UNL     1       4.798   9.932   2.689  1.00  0.00     0.016 A 
ATOM     28  C   UNL     1       6.436  11.649   4.179  1.00  0.00     0.010 A 
ATOM     29  C   UNL     1       4.242  10.664   3.704  1.00  0.00     0.010 A 
ATOM     30  C   UNL     1       5.089  11.436   4.492  1.00  0.00    -0.014 A 
BRANCH  30  31
ATOM     31  C   UNL     1       4.532  12.160   5.607  1.00  0.00     0.031 A 
ATOM     32  C   UNL     1       4.279  13.569   5.256  1.00  0.00     0.074 A 
ATOM     33  C   UNL     1       4.205  11.571   6.769  1.00  0.00     0.049 A 
ATOM     34  N   UNL     1       4.970  14.595   5.622  1.00  0.00    -0.248 NA
ATOM     35  C   UNL     1       3.297  13.841   4.192  1.00  0.00     0.031 C 
ATOM     36  C   UNL     1       4.167  10.142   7.092  1.00  0.00     0.029 A 
ATOM     37  N   UNL     1       3.723  12.149   7.898  1.00  0.00    -0.354 N 
ATOM     38  C   UNL     1       4.351  15.676   5.012  1.00  0.00     0.074 A 
ATOM     39  C   UNL     1       3.519  15.136   3.969  1.00  0.00     0.031 C 
ATOM     40  C   UNL     1       3.460   9.965   8.235  1.00  0.00     0.029 A 
ATOM     41  C   UNL     1       3.120  11.267   8.785  1.00  0.00     0.049 A 
ATOM     42  H   UNL     1       3.795  13.115   8.074  1.00  0.00     0.167 HD
ATOM     43  C   UNL     1       4.290  16.881   5.638  1.00  0.00     0.031 A 
ATOM     44  C   UNL     1       2.341  11.612   9.842  1.00  0.00     0.031 A 
ATOM     45  C   UNL     1       5.257  16.975   6.703  1.00  0.00     0.049 A 
ATOM     46  C   UNL     1       2.623  13.036  10.149  1.00  0.00     0.074 A 
ATOM     47  C   UNL     1       6.631  16.874   6.780  1.00  0.00     0.029 A 
ATOM     48  N   UNL     1       4.786  16.787   7.981  1.00  0.00    -0.354 N 
ATOM     49  N   UNL     1       3.760  13.456  10.623  1.00  0.00    -0.248 NA
ATOM     50  C   UNL     1       1.805  14.049   9.498  1.00  0.00     0.031 C 
ATOM     51  C   UNL     1       6.886  16.192   8.006  1.00  0.00     0.029 A 
ATOM     52  C   UNL     1       5.665  15.975   8.648  1.00  0.00     0.049 A 
ATOM     53  H   UNL     1       3.959  17.171   8.353  1.00  0.00     0.167 HD
ATOM     54  C   UNL     1       4.004  14.643   9.949  1.00  0.00     0.074 A 
ATOM     55  C   UNL     1       2.721  15.010   9.349  1.00  0.00     0.031 C 
ATOM     56  C   UNL     1       5.281  15.053   9.695  1.00  0.00     0.031 A 
BRANCH  43  57
ATOM     57  C   UNL     1       3.047  17.735   5.598  1.00  0.00    -0.014 A 
ATOM     58  C   UNL     1       3.073  18.985   6.235  1.00  0.00     0.009 A 
ATOM     59  C   UNL     1       1.780  17.250   5.212  1.00  0.00     0.009 A 
ATOM     60  C   UNL     1       1.890  19.676   6.522  1.00  0.00     0.001 A 
ATOM     61  C   UNL     1       0.603  17.956   5.455  1.00  0.00     0.001 A 
ATOM     62  C   UNL     1       0.657  19.160   6.136  1.00  0.00     0.000 A 
ENDBRANCH  43  57
BRANCH  44  63
ATOM     63  C   UNL     1       1.145  10.931  10.391  1.00  0.00    -0.014 A 
ATOM     64  C   UNL     1       0.605  11.333  11.626  1.00  0.00     0.009 A 
ATOM     65  C   UNL     1       0.355  10.103   9.574  1.00  0.00     0.009 A 
ATOM     66  C   UNL     1      -0.696  10.969  12.000  1.00  0.00     0.001 A 
ATOM     67  C   UNL     1      -0.942   9.735   9.950  1.00  0.00     0.001 A 
ATOM     68  C   UNL     1      -1.475  10.185  11.154  1.00  0.00     0.000 A 
ENDBRANCH  44  63
BRANCH  56  69
ATOM     69  C   UNL     1       6.408  14.324  10.387  1.00  0.00    -0.014 A 
ATOM     70  C   UNL     1       6.699  12.964  10.173  1.00  0.00     0.009 A 
ATOM     71  C   UNL     1       7.305  15.083  11.153  1.00  0.00     0.009 A 
ATOM     72  C   UNL     1       7.847  12.383  10.724  1.00  0.00     0.001 A 
ATOM     73  C   UNL     1       8.460  14.508  11.685  1.00  0.00     0.001 A 
ATOM     74  C   UNL     1       8.730  13.158  11.473  1.00  0.00     0.000 A 
ENDBRANCH  56  69
ENDBRANCH  30  31
ENDBRANCH  23  25
ENDBRANCH  22  23
ENDBRANCH  21  22
ENDBRANCH   1  21
TORSDOF 16
