REMARK SMILES O=C(OCCOCCOC(=O)c1ccc(-n2cc(CSc3nc4ccccc4c(=O)n3-c3ccccc3)nn2)cc1)c1ccc(-c2c3nc(c(-c4ccccc4)c4ccc([nH]4)c(-c4ccccc4)c4nc(c(-c5ccccc5)c5ccc2[nH]5)C=C4)C=C3)cc1
REMARK SMILES IDX 7 1 6 2 5 3 4 4 3 5 2 6 1 7 42 8 43 9 89 10 44 11 88 12
REMARK SMILES IDX 45 13 46 14 47 15 82 16 48 17 87 18 81 19 83 20 49 21 86 22
REMARK SMILES IDX 80 23 79 24 50 26 72 27 57 28 71 29 58 30 61 31 70 32 84 33
REMARK SMILES IDX 59 34 60 35 69 37 85 38 62 39 51 40 52 41 56 42 53 43 55 44
REMARK SMILES IDX 54 45 73 46 74 47 78 48 75 49 77 50 76 51 63 52 64 53 68 54
REMARK SMILES IDX 65 55 67 56 66 57 8 58 9 59 10 60 11 61 12 62 13 63 41 64
REMARK SMILES IDX 14 65 40 66 15 67 16 68 17 69 39 70 18 71 38 72 19 73 20 74
REMARK SMILES IDX 21 75 22 76 31 77 23 78 29 79 24 80 28 81 30 82 25 83 27 84
REMARK SMILES IDX 26 85 32 86 33 87 37 88 34 89 36 90 35 91
REMARK H PARENT 83 25 61 36
REMARK Flexibility Score: inf
ROOT
ATOM      1  C   UNL     1       3.126   1.481   1.511  1.00  0.00     0.202 C 
ENDROOT
BRANCH   1   2
ATOM      2  O   UNL     1       4.233   0.705   1.020  1.00  0.00    -0.374 OA
BRANCH   2   3
ATOM      3  C   UNL     1       4.783   1.103  -0.231  1.00  0.00     0.202 C 
BRANCH   3   4
ATOM      4  C   UNL     1       4.556   0.183  -1.430  1.00  0.00     0.261 C 
BRANCH   4   5
ATOM      5  O   UNL     1       3.183   0.089  -1.856  1.00  0.00    -0.460 OA
BRANCH   5   6
ATOM      6  C   UNL     1       2.146  -0.132  -1.018  1.00  0.00     0.338 C 
ATOM      7  O   UNL     1       1.136   0.564  -1.063  1.00  0.00    -0.246 OA
BRANCH   6   8
ATOM      8  C   UNL     1       2.128  -1.414  -0.267  1.00  0.00     0.060 A 
ATOM      9  C   UNL     1       3.255  -2.196  -0.020  1.00  0.00     0.016 A 
ATOM     10  C   UNL     1       0.862  -1.909   0.077  1.00  0.00     0.016 A 
ATOM     11  C   UNL     1       3.116  -3.536   0.254  1.00  0.00     0.010 A 
ATOM     12  C   UNL     1       0.717  -3.235   0.438  1.00  0.00     0.010 A 
ATOM     13  C   UNL     1       1.837  -4.061   0.395  1.00  0.00    -0.014 A 
BRANCH  13  14
ATOM     14  C   UNL     1       1.736  -5.501   0.522  1.00  0.00     0.031 A 
ATOM     15  C   UNL     1       2.436  -6.075   1.702  1.00  0.00     0.074 A 
ATOM     16  C   UNL     1       1.000  -6.216  -0.348  1.00  0.00     0.049 A 
ATOM     17  N   UNL     1       3.320  -7.019   1.737  1.00  0.00    -0.248 NA
ATOM     18  C   UNL     1       2.199  -5.421   3.000  1.00  0.00     0.031 C 
ATOM     19  C   UNL     1       0.098  -5.712  -1.390  1.00  0.00     0.029 A 
ATOM     20  N   UNL     1       0.786  -7.557  -0.380  1.00  0.00    -0.354 N 
ATOM     21  C   UNL     1       3.628  -7.197   3.084  1.00  0.00     0.074 A 
ATOM     22  C   UNL     1       3.020  -6.102   3.796  1.00  0.00     0.031 C 
ATOM     23  C   UNL     1      -0.762  -6.692  -1.738  1.00  0.00     0.029 A 
ATOM     24  C   UNL     1      -0.376  -7.912  -1.049  1.00  0.00     0.049 A 
ATOM     25  H   UNL     1       1.395  -8.212   0.031  1.00  0.00     0.167 HD
ATOM     26  C   UNL     1       4.153  -8.359   3.557  1.00  0.00     0.031 A 
ATOM     27  C   UNL     1      -1.034  -9.091  -0.947  1.00  0.00     0.031 A 
ATOM     28  C   UNL     1       4.811  -9.114   2.527  1.00  0.00     0.049 A 
ATOM     29  C   UNL     1      -0.097 -10.082  -0.369  1.00  0.00     0.074 A 
ATOM     30  C   UNL     1       5.891  -8.890   1.697  1.00  0.00     0.029 A 
ATOM     31  N   UNL     1       4.135 -10.178   1.982  1.00  0.00    -0.354 N 
ATOM     32  N   UNL     1       0.956 -10.525  -0.994  1.00  0.00    -0.248 NA
ATOM     33  C   UNL     1      -0.076 -10.244   1.078  1.00  0.00     0.031 C 
ATOM     34  C   UNL     1       5.535  -9.499   0.459  1.00  0.00     0.029 A 
ATOM     35  C   UNL     1       4.286 -10.101   0.623  1.00  0.00     0.049 A 
ATOM     36  H   UNL     1       3.634 -10.867   2.476  1.00  0.00     0.167 HD
ATOM     37  C   UNL     1       1.936 -10.619  -0.016  1.00  0.00     0.074 A 
ATOM     38  C   UNL     1       1.216 -10.537   1.253  1.00  0.00     0.031 C 
ATOM     39  C   UNL     1       3.259 -10.466  -0.325  1.00  0.00     0.031 A 
BRANCH  26  40
ATOM     40  C   UNL     1       3.669  -8.991   4.841  1.00  0.00    -0.014 A 
ATOM     41  C   UNL     1       4.220 -10.223   5.239  1.00  0.00     0.009 A 
ATOM     42  C   UNL     1       2.494  -8.583   5.504  1.00  0.00     0.009 A 
ATOM     43  C   UNL     1       3.571 -11.041   6.172  1.00  0.00     0.001 A 
ATOM     44  C   UNL     1       1.867  -9.378   6.465  1.00  0.00     0.001 A 
ATOM     45  C   UNL     1       2.388 -10.624   6.773  1.00  0.00     0.000 A 
ENDBRANCH  26  40
BRANCH  27  46
ATOM     46  C   UNL     1      -2.497  -9.297  -0.994  1.00  0.00    -0.014 A 
ATOM     47  C   UNL     1      -3.038 -10.570  -1.220  1.00  0.00     0.009 A 
ATOM     48  C   UNL     1      -3.373  -8.277  -0.573  1.00  0.00     0.009 A 
ATOM     49  C   UNL     1      -4.402 -10.816  -1.011  1.00  0.00     0.001 A 
ATOM     50  C   UNL     1      -4.734  -8.520  -0.371  1.00  0.00     0.001 A 
ATOM     51  C   UNL     1      -5.247  -9.795  -0.578  1.00  0.00     0.000 A 
ENDBRANCH  27  46
BRANCH  39  52
ATOM     52  C   UNL     1       3.637 -10.386  -1.783  1.00  0.00    -0.014 A 
ATOM     53  C   UNL     1       3.187  -9.355  -2.628  1.00  0.00     0.009 A 
ATOM     54  C   UNL     1       4.605 -11.272  -2.275  1.00  0.00     0.009 A 
ATOM     55  C   UNL     1       3.668  -9.235  -3.935  1.00  0.00     0.001 A 
ATOM     56  C   UNL     1       5.101 -11.140  -3.575  1.00  0.00     0.001 A 
ATOM     57  C   UNL     1       4.629 -10.126  -4.406  1.00  0.00     0.000 A 
ENDBRANCH  39  52
ENDBRANCH  13  14
ENDBRANCH   6   8
ENDBRANCH   5   6
ENDBRANCH   4   5
ENDBRANCH   3   4
ENDBRANCH   2   3
ENDBRANCH   1   2
BRANCH   1  58
ATOM     58  C   UNL     1       3.342   2.967   1.851  1.00  0.00     0.261 C 
BRANCH  58  59
ATOM     59  O   UNL     1       3.537   3.773   0.673  1.00  0.00    -0.460 OA
BRANCH  59  60
ATOM     60  C   UNL     1       4.813   4.205   0.460  1.00  0.00     0.338 C 
ATOM     61  O   UNL     1       5.748   4.106   1.212  1.00  0.00    -0.246 OA
BRANCH  60  62
ATOM     62  C   UNL     1       4.952   4.571  -0.977  1.00  0.00     0.060 A 
ATOM     63  C   UNL     1       6.065   4.064  -1.670  1.00  0.00     0.018 A 
ATOM     64  C   UNL     1       3.996   5.338  -1.644  1.00  0.00     0.018 A 
ATOM     65  C   UNL     1       6.245   4.349  -3.025  1.00  0.00     0.029 A 
ATOM     66  C   UNL     1       4.155   5.600  -3.007  1.00  0.00     0.029 A 
ATOM     67  C   UNL     1       5.288   5.119  -3.688  1.00  0.00     0.066 A 
BRANCH  67  68
ATOM     68  N   UNL     1       5.497   5.522  -5.024  1.00  0.00    -0.220 N 
ATOM     69  C   UNL     1       6.639   6.126  -5.524  1.00  0.00     0.141 A 
ATOM     70  N   UNL     1       4.482   5.670  -5.894  1.00  0.00    -0.062 NA
ATOM     71  C   UNL     1       6.187   6.868  -6.594  1.00  0.00     0.093 A 
ATOM     72  N   UNL     1       4.904   6.443  -6.878  1.00  0.00    -0.134 NA
BRANCH  71  73
ATOM     73  C   UNL     1       6.596   8.116  -7.286  1.00  0.00     0.138 C 
BRANCH  73  74
ATOM     74  S   UNL     1       8.200   8.829  -7.525  1.00  0.00    -0.081 SA
BRANCH  74  75
ATOM     75  C   UNL     1       9.454   8.230  -6.494  1.00  0.00     0.176 A 
ATOM     76  N   UNL     1      10.564   8.103  -7.161  1.00  0.00    -0.223 NA
ATOM     77  N   UNL     1       9.367   7.929  -5.142  1.00  0.00    -0.255 N 
ATOM     78  C   UNL     1      11.675   7.545  -6.532  1.00  0.00     0.079 A 
ATOM     79  C   UNL     1      10.196   6.864  -4.745  1.00  0.00     0.266 A 
ATOM     80  C   UNL     1      12.944   7.645  -7.102  1.00  0.00     0.029 A 
ATOM     81  C   UNL     1      11.511   6.779  -5.392  1.00  0.00     0.066 A 
ATOM     82  O   UNL     1       9.895   5.969  -3.955  1.00  0.00    -0.268 OA
ATOM     83  C   UNL     1      14.014   6.922  -6.563  1.00  0.00     0.002 A 
ATOM     84  C   UNL     1      12.553   6.008  -4.873  1.00  0.00     0.016 A 
ATOM     85  C   UNL     1      13.810   6.076  -5.471  1.00  0.00     0.001 A 
BRANCH  77  86
ATOM     86  C   UNL     1       8.473   8.508  -4.149  1.00  0.00     0.051 A 
ATOM     87  C   UNL     1       8.607   8.158  -2.788  1.00  0.00     0.027 A 
ATOM     88  C   UNL     1       7.466   9.439  -4.425  1.00  0.00     0.027 A 
ATOM     89  C   UNL     1       7.676   8.537  -1.815  1.00  0.00     0.002 A 
ATOM     90  C   UNL     1       6.492   9.780  -3.473  1.00  0.00     0.002 A 
ATOM     91  C   UNL     1       6.581   9.303  -2.174  1.00  0.00     0.000 A 
ENDBRANCH  77  86
ENDBRANCH  74  75
ENDBRANCH  73  74
ENDBRANCH  71  73
ENDBRANCH  67  68
ENDBRANCH  60  62
ENDBRANCH  59  60
ENDBRANCH  58  59
ENDBRANCH   1  58
TORSDOF 19
