REMARK SMILES CC(C)(C)OC(=O)Nc1ccc(-c2cccc(Cl)c2C(=O)OCCOCCOC(=O)c2ccc(-c3c4nc(c(-c5ccccc5)c5ccc([nH]5)c(-c5ccccc5)c5nc(c(-c6ccccc6)c6ccc3[nH]6)C=C5)C=C4)cc2)cc1
REMARK SMILES IDX 24 1 23 2 22 3 20 4 21 5 19 6 13 7 14 8 15 9 17 10 16 11
REMARK SMILES IDX 18 12 12 13 9 14 10 15 80 16 11 17 79 18 8 19 6 20 7 21 5 23
REMARK SMILES IDX 2 24 1 25 3 26 4 27 25 28 26 29 27 30 28 31 29 32 30 33
REMARK SMILES IDX 31 34 32 35 78 36 33 37 77 38 34 39 35 40 36 41 71 42 37 43
REMARK SMILES IDX 76 44 70 45 72 46 38 47 75 48 69 49 68 50 39 52 61 53 46 54
REMARK SMILES IDX 60 55 47 56 50 57 59 58 73 59 48 60 49 61 58 63 74 64 51 65
REMARK SMILES IDX 40 66 41 67 45 68 42 69 44 70 43 71 62 72 63 73 67 74 64 75
REMARK SMILES IDX 66 76 65 77 52 78 53 79 57 80 54 81 56 82 55 83
REMARK H PARENT 8 22 72 51 50 62
REMARK Flexibility Score: inf
ROOT
ATOM      1  C   UNL     1       7.748  -4.866   4.292  1.00  0.00     0.202 C 
ENDROOT
BRANCH   1   2
ATOM      2  C   UNL     1       7.276  -4.295   2.955  1.00  0.00     0.261 C 
BRANCH   2   3
ATOM      3  O   UNL     1       6.316  -5.175   2.355  1.00  0.00    -0.460 OA
BRANCH   3   4
ATOM      4  C   UNL     1       6.438  -5.334   1.018  1.00  0.00     0.340 C 
ATOM      5  O   UNL     1       7.141  -4.679   0.267  1.00  0.00    -0.246 OA
BRANCH   4   6
ATOM      6  C   UNL     1       5.616  -6.477   0.567  1.00  0.00     0.086 A 
ATOM      7  C   UNL     1       4.216  -6.506   0.761  1.00  0.00    -0.002 A 
ATOM      8  C   UNL     1       3.490  -7.548   0.145  1.00  0.00     0.010 A 
ATOM      9  C   UNL     1       4.123  -8.556  -0.581  1.00  0.00     0.002 A 
ATOM     10  C   UNL     1       6.256  -7.524  -0.119  1.00  0.00     0.056 A 
ATOM     11  C   UNL     1       5.508  -8.559  -0.687  1.00  0.00     0.021 A 
ATOM     12  Cl  UNL     1       7.979  -7.656  -0.235  1.00  0.00    -0.083 Cl
BRANCH   7  13
ATOM     13  C   UNL     1       3.470  -5.529   1.577  1.00  0.00    -0.017 A 
ATOM     14  C   UNL     1       1.928  -3.703   3.090  1.00  0.00     0.044 A 
ATOM     15  C   UNL     1       1.871  -5.065   3.374  1.00  0.00     0.027 A 
ATOM     16  C   UNL     1       2.821  -3.254   2.115  1.00  0.00     0.027 A 
ATOM     17  C   UNL     1       2.628  -5.967   2.619  1.00  0.00     0.011 A 
ATOM     18  C   UNL     1       3.564  -4.154   1.350  1.00  0.00     0.011 A 
BRANCH  14  19
ATOM     19  N   UNL     1       1.065  -2.843   3.791  1.00  0.00    -0.291 N 
ATOM     20  C   UNL     1       0.582  -1.623   3.386  1.00  0.00     0.412 C 
ATOM     21  O   UNL     1      -0.112  -0.934   4.124  1.00  0.00    -0.224 OA
ATOM     22  H   UNL     1       0.773  -3.152   4.679  1.00  0.00     0.173 HD
BRANCH  20  23
ATOM     23  O   UNL     1       0.875  -1.335   2.098  1.00  0.00    -0.444 OA
BRANCH  23  24
ATOM     24  C   UNL     1       0.438  -0.127   1.440  1.00  0.00     0.106 C 
ATOM     25  C   UNL     1       0.994  -0.241   0.013  1.00  0.00     0.056 C 
ATOM     26  C   UNL     1       1.059   1.095   2.111  1.00  0.00     0.056 C 
ATOM     27  C   UNL     1      -1.088  -0.054   1.376  1.00  0.00     0.056 C 
ENDBRANCH  23  24
ENDBRANCH  20  23
ENDBRANCH  14  19
ENDBRANCH   7  13
ENDBRANCH   4   6
ENDBRANCH   3   4
ENDBRANCH   2   3
ENDBRANCH   1   2
BRANCH   1  28
ATOM     28  O   UNL     1       8.377  -6.147   4.265  1.00  0.00    -0.374 OA
BRANCH  28  29
ATOM     29  C   UNL     1       7.589  -7.277   3.898  1.00  0.00     0.202 C 
BRANCH  29  30
ATOM     30  C   UNL     1       6.555  -7.794   4.910  1.00  0.00     0.261 C 
BRANCH  30  31
ATOM     31  O   UNL     1       5.629  -6.799   5.378  1.00  0.00    -0.460 OA
BRANCH  31  32
ATOM     32  C   UNL     1       5.847  -6.395   6.654  1.00  0.00     0.338 C 
ATOM     33  O   UNL     1       6.696  -6.805   7.428  1.00  0.00    -0.246 OA
BRANCH  32  34
ATOM     34  C   UNL     1       4.990  -5.242   6.984  1.00  0.00     0.060 A 
ATOM     35  C   UNL     1       5.625  -4.052   7.358  1.00  0.00     0.016 A 
ATOM     36  C   UNL     1       3.600  -5.355   7.044  1.00  0.00     0.016 A 
ATOM     37  C   UNL     1       4.872  -2.980   7.829  1.00  0.00     0.010 A 
ATOM     38  C   UNL     1       2.845  -4.278   7.526  1.00  0.00     0.010 A 
ATOM     39  C   UNL     1       3.480  -3.096   7.949  1.00  0.00    -0.014 A 
BRANCH  39  40
ATOM     40  C   UNL     1       2.724  -2.008   8.616  1.00  0.00     0.031 A 
ATOM     41  C   UNL     1       2.283  -2.169  10.046  1.00  0.00     0.074 A 
ATOM     42  C   UNL     1       2.492  -0.852   7.969  1.00  0.00     0.049 A 
ATOM     43  N   UNL     1       1.660  -1.317  10.823  1.00  0.00    -0.248 NA
ATOM     44  C   UNL     1       2.579  -3.460  10.685  1.00  0.00     0.031 C 
ATOM     45  C   UNL     1       2.882  -0.559   6.589  1.00  0.00     0.029 A 
ATOM     46  N   UNL     1       1.877   0.296   8.397  1.00  0.00    -0.354 N 
ATOM     47  C   UNL     1       1.490  -1.967  12.040  1.00  0.00     0.074 A 
ATOM     48  C   UNL     1       2.040  -3.298  11.885  1.00  0.00     0.031 C 
ATOM     49  C   UNL     1       2.502   0.694   6.287  1.00  0.00     0.029 A 
ATOM     50  C   UNL     1       1.827   1.280   7.441  1.00  0.00     0.049 A 
ATOM     51  H   UNL     1       1.507   0.405   9.303  1.00  0.00     0.167 HD
ATOM     52  C   UNL     1       0.936  -1.499  13.185  1.00  0.00     0.031 A 
ATOM     53  C   UNL     1       1.288   2.512   7.490  1.00  0.00     0.031 A 
ATOM     54  C   UNL     1       0.367  -0.184  13.336  1.00  0.00     0.049 A 
ATOM     55  C   UNL     1       0.623   2.985   8.752  1.00  0.00     0.074 A 
ATOM     56  C   UNL     1      -0.206   0.386  14.461  1.00  0.00     0.029 A 
ATOM     57  N   UNL     1       0.290   0.764  12.327  1.00  0.00    -0.354 N 
ATOM     58  N   UNL     1       0.488   2.368   9.900  1.00  0.00    -0.248 NA
ATOM     59  C   UNL     1       0.042   4.335   8.718  1.00  0.00     0.031 C 
ATOM     60  C   UNL     1      -0.684   1.656  14.115  1.00  0.00     0.029 A 
ATOM     61  C   UNL     1      -0.347   1.903  12.795  1.00  0.00     0.049 A 
ATOM     62  H   UNL     1       0.636   0.646  11.414  1.00  0.00     0.167 HD
ATOM     63  C   UNL     1      -0.183   3.258  10.729  1.00  0.00     0.074 A 
ATOM     64  C   UNL     1      -0.399   4.467   9.960  1.00  0.00     0.031 C 
ATOM     65  C   UNL     1      -0.586   3.089  12.013  1.00  0.00     0.031 A 
BRANCH  52  66
ATOM     66  C   UNL     1       0.890  -2.436  14.362  1.00  0.00    -0.014 A 
ATOM     67  C   UNL     1       2.059  -2.809  15.046  1.00  0.00     0.009 A 
ATOM     68  C   UNL     1      -0.344  -2.931  14.812  1.00  0.00     0.009 A 
ATOM     69  C   UNL     1       1.995  -3.690  16.129  1.00  0.00     0.001 A 
ATOM     70  C   UNL     1      -0.408  -3.787  15.914  1.00  0.00     0.001 A 
ATOM     71  C   UNL     1       0.762  -4.174  16.564  1.00  0.00     0.000 A 
ENDBRANCH  52  66
BRANCH  53  72
ATOM     72  C   UNL     1       1.324   3.392   6.296  1.00  0.00    -0.014 A 
ATOM     73  C   UNL     1       2.175   4.505   6.246  1.00  0.00     0.009 A 
ATOM     74  C   UNL     1       0.468   3.139   5.215  1.00  0.00     0.009 A 
ATOM     75  C   UNL     1       2.158   5.357   5.138  1.00  0.00     0.001 A 
ATOM     76  C   UNL     1       0.466   3.982   4.103  1.00  0.00     0.001 A 
ATOM     77  C   UNL     1       1.308   5.091   4.065  1.00  0.00     0.000 A 
ENDBRANCH  53  72
BRANCH  65  78
ATOM     78  C   UNL     1      -1.288   4.251  12.662  1.00  0.00    -0.014 A 
ATOM     79  C   UNL     1      -2.577   4.640  12.264  1.00  0.00     0.009 A 
ATOM     80  C   UNL     1      -0.646   4.972  13.681  1.00  0.00     0.009 A 
ATOM     81  C   UNL     1      -3.187   5.758  12.838  1.00  0.00     0.001 A 
ATOM     82  C   UNL     1      -1.271   6.068  14.276  1.00  0.00     0.001 A 
ATOM     83  C   UNL     1      -2.534   6.469  13.845  1.00  0.00     0.000 A 
ENDBRANCH  65  78
ENDBRANCH  39  40
ENDBRANCH  32  34
ENDBRANCH  31  32
ENDBRANCH  30  31
ENDBRANCH  29  30
ENDBRANCH  28  29
ENDBRANCH   1  28
TORSDOF 18
