REMARK SMILES O=C(OCCOCCOC(=O)c1c(S(=O)(=O)N2CCO[C@@H](CCO)C2)sc2c1CC[NH2+]C2)c1ccc(-c2c3nc(c(-c4ccccc4)c4ccc([nH]4)c(-c4ccccc4)c4nc(c(-c5ccccc5)c5ccc2[nH]5)C=C4)C=C3)cc1
REMARK SMILES IDX 7 1 6 2 5 3 4 4 3 5 2 6 1 7 33 8 34 9 80 10 35 11 79 12
REMARK SMILES IDX 36 13 37 14 38 15 73 16 39 17 78 18 72 19 74 20 40 21 77 22
REMARK SMILES IDX 71 23 70 24 41 26 63 27 48 28 62 29 49 30 52 31 61 32 75 33
REMARK SMILES IDX 50 34 51 35 60 37 76 38 53 39 42 40 43 41 47 42 44 43 46 44
REMARK SMILES IDX 45 45 64 46 65 47 69 48 66 49 68 50 67 51 54 52 55 53 59 54
REMARK SMILES IDX 56 55 58 56 57 57 8 58 9 59 10 60 11 61 12 62 13 63 28 64
REMARK SMILES IDX 26 65 27 66 29 67 32 68 30 69 31 70 14 73 15 74 16 75 17 76
REMARK SMILES IDX 18 77 25 78 19 79 21 80 20 81 22 82 23 83 24 84
REMARK H PARENT 74 25 52 36 31 71 31 72 24 85
REMARK Flexibility Score: inf
ROOT
ATOM      1  C   UNL     1       2.996   1.456  -1.704  1.00  0.00     0.202 C 
ENDROOT
BRANCH   1   2
ATOM      2  O   UNL     1       3.917   1.077  -0.662  1.00  0.00    -0.374 OA
BRANCH   2   3
ATOM      3  C   UNL     1       4.558  -0.181  -0.826  1.00  0.00     0.202 C 
BRANCH   3   4
ATOM      4  C   UNL     1       4.179  -1.324   0.117  1.00  0.00     0.261 C 
BRANCH   4   5
ATOM      5  O   UNL     1       2.786  -1.669   0.058  1.00  0.00    -0.460 OA
BRANCH   5   6
ATOM      6  C   UNL     1       1.794  -0.764   0.231  1.00  0.00     0.338 C 
ATOM      7  O   UNL     1       0.813  -0.750  -0.506  1.00  0.00    -0.246 OA
BRANCH   6   8
ATOM      8  C   UNL     1       1.759  -0.037   1.521  1.00  0.00     0.060 A 
ATOM      9  C   UNL     1       2.886   0.308   2.267  1.00  0.00     0.016 A 
ATOM     10  C   UNL     1       0.484   0.193   2.054  1.00  0.00     0.016 A 
ATOM     11  C   UNL     1       2.764   0.573   3.611  1.00  0.00     0.010 A 
ATOM     12  C   UNL     1       0.350   0.558   3.379  1.00  0.00     0.010 A 
ATOM     13  C   UNL     1       1.492   0.632   4.171  1.00  0.00    -0.014 A 
BRANCH  13  14
ATOM     14  C   UNL     1       1.426   0.858   5.603  1.00  0.00     0.031 A 
ATOM     15  C   UNL     1       2.055   2.121   6.062  1.00  0.00     0.074 A 
ATOM     16  C   UNL     1       0.767   0.022   6.423  1.00  0.00     0.049 A 
ATOM     17  N   UNL     1       2.991   2.279   6.939  1.00  0.00    -0.248 NA
ATOM     18  C   UNL     1       1.667   3.355   5.359  1.00  0.00     0.031 C 
ATOM     19  C   UNL     1      -0.092  -1.104   6.045  1.00  0.00     0.029 A 
ATOM     20  N   UNL     1       0.604   0.103   7.772  1.00  0.00    -0.354 N 
ATOM     21  C   UNL     1       3.181   3.655   7.038  1.00  0.00     0.074 A 
ATOM     22  C   UNL     1       2.459   4.250   5.942  1.00  0.00     0.031 C 
ATOM     23  C   UNL     1      -0.888  -1.413   7.090  1.00  0.00     0.029 A 
ATOM     24  C   UNL     1      -0.504  -0.594   8.227  1.00  0.00     0.049 A 
ATOM     25  H   UNL     1       1.211   0.606   8.363  1.00  0.00     0.167 HD
ATOM     26  C   UNL     1       3.681   4.226   8.167  1.00  0.00     0.031 A 
ATOM     27  C   UNL     1      -1.129  -0.428   9.416  1.00  0.00     0.031 A 
ATOM     28  C   UNL     1       4.437   3.292   8.960  1.00  0.00     0.049 A 
ATOM     29  C   UNL     1      -0.204   0.282  10.328  1.00  0.00     0.074 A 
ATOM     30  C   UNL     1       5.541   2.492   8.742  1.00  0.00     0.029 A 
ATOM     31  N   UNL     1       3.861   2.825  10.116  1.00  0.00    -0.354 N 
ATOM     32  N   UNL     1       0.874  -0.252  10.826  1.00  0.00    -0.248 NA
ATOM     33  C   UNL     1      -0.258   1.736  10.381  1.00  0.00     0.031 C 
ATOM     34  C   UNL     1       5.304   1.312   9.508  1.00  0.00     0.029 A 
ATOM     35  C   UNL     1       4.089   1.477  10.173  1.00  0.00     0.049 A 
ATOM     36  H   UNL     1       3.373   3.362  10.782  1.00  0.00     0.167 HD
ATOM     37  C   UNL     1       1.802   0.779  10.847  1.00  0.00     0.074 A 
ATOM     38  C   UNL     1       1.015   1.999  10.688  1.00  0.00     0.031 C 
ATOM     39  C   UNL     1       3.137   0.526  10.699  1.00  0.00     0.031 A 
BRANCH  26  40
ATOM     40  C   UNL     1       3.063   5.474   8.763  1.00  0.00    -0.014 A 
ATOM     41  C   UNL     1       3.581   5.967   9.975  1.00  0.00     0.009 A 
ATOM     42  C   UNL     1       1.810   5.981   8.363  1.00  0.00     0.009 A 
ATOM     43  C   UNL     1       2.827   6.815  10.795  1.00  0.00     0.001 A 
ATOM     44  C   UNL     1       1.077   6.864   9.156  1.00  0.00     0.001 A 
ATOM     45  C   UNL     1       1.568   7.250  10.393  1.00  0.00     0.000 A 
ENDBRANCH  26  40
BRANCH  27  46
ATOM     46  C   UNL     1      -2.566  -0.604   9.709  1.00  0.00    -0.014 A 
ATOM     47  C   UNL     1      -3.018  -0.712  11.031  1.00  0.00     0.009 A 
ATOM     48  C   UNL     1      -3.531  -0.436   8.698  1.00  0.00     0.009 A 
ATOM     49  C   UNL     1      -4.384  -0.631  11.330  1.00  0.00     0.001 A 
ATOM     50  C   UNL     1      -4.894  -0.368   8.993  1.00  0.00     0.001 A 
ATOM     51  C   UNL     1      -5.320  -0.452  10.313  1.00  0.00     0.000 A 
ENDBRANCH  27  46
BRANCH  39  52
ATOM     52  C   UNL     1       3.601  -0.904  10.798  1.00  0.00    -0.014 A 
ATOM     53  C   UNL     1       3.142  -1.913   9.933  1.00  0.00     0.009 A 
ATOM     54  C   UNL     1       4.633  -1.215  11.695  1.00  0.00     0.009 A 
ATOM     55  C   UNL     1       3.671  -3.206   9.996  1.00  0.00     0.001 A 
ATOM     56  C   UNL     1       5.177  -2.500  11.742  1.00  0.00     0.001 A 
ATOM     57  C   UNL     1       4.690  -3.497  10.899  1.00  0.00     0.000 A 
ENDBRANCH  39  52
ENDBRANCH  13  14
ENDBRANCH   6   8
ENDBRANCH   5   6
ENDBRANCH   4   5
ENDBRANCH   3   4
ENDBRANCH   2   3
ENDBRANCH   1   2
BRANCH   1  58
ATOM     58  C   UNL     1       3.533   1.622  -3.140  1.00  0.00     0.261 C 
BRANCH  58  59
ATOM     59  O   UNL     1       3.744   0.344  -3.777  1.00  0.00    -0.460 OA
BRANCH  59  60
ATOM     60  C   UNL     1       5.039  -0.068  -3.954  1.00  0.00     0.340 C 
ATOM     61  O   UNL     1       6.017   0.638  -3.802  1.00  0.00    -0.246 OA
BRANCH  60  62
ATOM     62  C   UNL     1       5.111  -1.532  -4.019  1.00  0.00     0.095 A 
ATOM     63  C   UNL     1       4.229  -2.307  -4.763  1.00  0.00     0.150 A 
ATOM     64  C   UNL     1       6.047  -2.382  -3.304  1.00  0.00    -0.007 A 
ATOM     65  S   UNL     1       4.256  -3.927  -4.218  1.00  0.00    -0.120 S 
ATOM     66  C   UNL     1       5.790  -3.716  -3.546  1.00  0.00     0.064 A 
ATOM     67  C   UNL     1       7.150  -2.016  -2.350  1.00  0.00     0.099 C 
ATOM     68  C   UNL     1       6.692  -4.843  -3.164  1.00  0.00     0.308 C 
ATOM     69  C   UNL     1       8.082  -3.213  -2.036  1.00  0.00     0.265 C 
ATOM     70  N   UNL     1       7.396  -4.518  -1.915  1.00  0.00    -0.342 N 
ATOM     71  H   UNL     1       6.722  -4.473  -1.151  1.00  0.00     0.346 HD
ATOM     72  H   UNL     1       8.090  -5.241  -1.728  1.00  0.00     0.346 HD
BRANCH  63  73
ATOM     73  S   UNL     1       3.074  -1.922  -6.060  1.00  0.00     0.253 S 
ATOM     74  O   UNL     1       1.766  -2.051  -5.460  1.00  0.00    -0.206 OA
ATOM     75  O   UNL     1       3.551  -0.651  -6.568  1.00  0.00    -0.206 OA
BRANCH  73  76
ATOM     76  N   UNL     1       3.205  -3.036  -7.326  1.00  0.00    -0.192 NA
ATOM     77  C   UNL     1       2.531  -4.355  -7.280  1.00  0.00     0.131 C 
ATOM     78  C   UNL     1       4.432  -3.046  -8.156  1.00  0.00     0.134 C 
ATOM     79  C   UNL     1       3.503  -5.543  -7.135  1.00  0.00     0.177 C 
ATOM     80  C   UNL     1       5.369  -4.156  -7.664  1.00  0.00     0.135 C 
ATOM     81  O   UNL     1       4.723  -5.427  -7.884  1.00  0.00    -0.375 OA
BRANCH  80  82
ATOM     82  C   UNL     1       6.743  -4.181  -8.339  1.00  0.00     0.061 C 
BRANCH  82  83
ATOM     83  C   UNL     1       7.410  -2.815  -8.435  1.00  0.00     0.159 C 
BRANCH  83  84
ATOM     84  O   UNL     1       7.245  -2.106  -7.214  1.00  0.00    -0.396 OA
ATOM     85  H   UNL     1       6.299  -1.984  -7.036  1.00  0.00     0.210 HD
ENDBRANCH  83  84
ENDBRANCH  82  83
ENDBRANCH  80  82
ENDBRANCH  73  76
ENDBRANCH  63  73
ENDBRANCH  60  62
ENDBRANCH  59  60
ENDBRANCH  58  59
ENDBRANCH   1  58
TORSDOF 19
