REMARK SMILES CC(C)(CC(=O)OCCOCCOC(=O)c1ccc(-c2c3nc(c(-c4ccccc4)c4ccc([nH]4)c(-c4ccccc4)c4nc(c(-c5ccccc5)c5ccc2[nH]5)C=C4)C=C3)cc1)CC(=O)N1CCN(c2nc3ccc(Cl)cc3s2)CC1
REMARK SMILES IDX 9 1 8 2 7 3 5 4 6 5 4 6 2 7 1 8 3 9 64 10 65 11 66 12 67 13
REMARK SMILES IDX 68 14 82 15 69 16 81 17 70 18 71 19 72 20 80 21 73 22 79 23
REMARK SMILES IDX 74 24 78 25 75 26 76 27 77 28 10 29 11 30 12 31 13 32 14 33
REMARK SMILES IDX 15 34 16 35 17 36 63 37 18 38 62 39 19 40 20 41 21 42 56 43
REMARK SMILES IDX 22 44 61 45 55 46 57 47 23 48 60 49 54 50 53 51 24 53 46 54
REMARK SMILES IDX 31 55 45 56 32 57 35 58 44 59 58 60 33 61 34 62 43 64 59 65
REMARK SMILES IDX 36 66 25 67 26 68 30 69 27 70 29 71 28 72 47 73 48 74 52 75
REMARK SMILES IDX 49 76 51 77 50 78 37 79 38 80 42 81 39 82 41 83 40 84
REMARK H PARENT 57 52 35 63
REMARK Flexibility Score: inf
ROOT
ATOM      1  C   UNL     1      -3.087   0.902  -2.211  1.00  0.00     0.202 C 
ENDROOT
BRANCH   1   2
ATOM      2  C   UNL     1      -2.918   1.146  -0.671  1.00  0.00     0.261 C 
BRANCH   2   3
ATOM      3  O   UNL     1      -1.653   0.845  -0.056  1.00  0.00    -0.463 OA
BRANCH   3   4
ATOM      4  C   UNL     1      -1.685   0.071   1.043  1.00  0.00     0.306 C 
ATOM      5  O   UNL     1      -2.711  -0.181   1.671  1.00  0.00    -0.252 OA
BRANCH   4   6
ATOM      6  C   UNL     1      -0.372  -0.587   1.433  1.00  0.00     0.129 C 
BRANCH   6   7
ATOM      7  C   UNL     1       0.958  -0.663   0.621  1.00  0.00    -0.016 C 
ATOM      8  C   UNL     1       1.908   0.472   1.038  1.00  0.00     0.012 C 
ATOM      9  C   UNL     1       1.634  -2.005   1.050  1.00  0.00     0.012 C 
BRANCH   7  10
ATOM     10  C   UNL     1       0.916  -0.720  -0.913  1.00  0.00     0.107 C 
BRANCH  10  11
ATOM     11  C   UNL     1       0.204   0.393  -1.653  1.00  0.00     0.223 C 
ATOM     12  O   UNL     1       0.589   1.556  -1.631  1.00  0.00    -0.275 OA
ATOM     13  N   UNL     1      -0.856  -0.049  -2.422  1.00  0.00    -0.339 N 
ATOM     14  C   UNL     1      -1.470   0.911  -3.946  1.00  0.00     0.141 C 
ATOM     15  C   UNL     1      -1.818  -1.534  -1.814  1.00  0.00     0.141 C 
ATOM     16  C   UNL     1      -3.014   0.211  -4.904  1.00  0.00     0.140 C 
ATOM     17  C   UNL     1      -3.246  -2.217  -2.894  1.00  0.00     0.140 C 
ATOM     18  N   UNL     1      -3.829  -1.333  -4.360  1.00  0.00    -0.345 N 
BRANCH  18  19
ATOM     19  C   UNL     1      -5.185  -1.153  -4.209  1.00  0.00     0.186 A 
ATOM     20  N   UNL     1      -5.698  -0.524  -3.178  1.00  0.00    -0.220 NA
ATOM     21  S   UNL     1      -6.355  -1.871  -5.247  1.00  0.00    -0.097 S 
ATOM     22  C   UNL     1      -7.063  -0.633  -3.140  1.00  0.00     0.084 A 
ATOM     23  C   UNL     1      -7.626  -1.354  -4.190  1.00  0.00     0.058 A 
ATOM     24  C   UNL     1      -7.890  -0.101  -2.132  1.00  0.00     0.031 A 
ATOM     25  C   UNL     1      -9.014  -1.569  -4.263  1.00  0.00     0.042 A 
ATOM     26  C   UNL     1      -9.269  -0.309  -2.190  1.00  0.00     0.023 A 
ATOM     27  C   UNL     1      -9.814  -1.036  -3.243  1.00  0.00     0.042 A 
ATOM     28  Cl  UNL     1     -11.518  -1.291  -3.287  1.00  0.00    -0.084 Cl
ENDBRANCH  18  19
ENDBRANCH  10  11
ENDBRANCH   7  10
ENDBRANCH   6   7
ENDBRANCH   4   6
ENDBRANCH   3   4
ENDBRANCH   2   3
ENDBRANCH   1   2
BRANCH   1  29
ATOM     29  O   UNL     1      -2.663  -0.340  -3.057  1.00  0.00    -0.374 OA
BRANCH  29  30
ATOM     30  C   UNL     1      -1.324  -1.262  -4.073  1.00  0.00     0.202 C 
BRANCH  30  31
ATOM     31  C   UNL     1       0.322  -0.910  -4.569  1.00  0.00     0.261 C 
BRANCH  31  32
ATOM     32  O   UNL     1       1.151   0.200  -4.046  1.00  0.00    -0.460 OA
BRANCH  32  33
ATOM     33  C   UNL     1       1.468   1.269  -4.844  1.00  0.00     0.338 C 
ATOM     34  O   UNL     1       1.315   1.283  -6.061  1.00  0.00    -0.246 OA
BRANCH  33  35
ATOM     35  C   UNL     1       1.743   2.552  -4.089  1.00  0.00     0.060 A 
ATOM     36  C   UNL     1       0.926   3.671  -4.343  1.00  0.00     0.016 A 
ATOM     37  C   UNL     1       2.805   2.718  -3.196  1.00  0.00     0.016 A 
ATOM     38  C   UNL     1       1.175   4.931  -3.746  1.00  0.00     0.010 A 
ATOM     39  C   UNL     1       3.054   3.986  -2.597  1.00  0.00     0.010 A 
ATOM     40  C   UNL     1       2.268   5.123  -2.889  1.00  0.00    -0.014 A 
BRANCH  40  41
ATOM     41  C   UNL     1       2.708   6.518  -2.494  1.00  0.00     0.031 A 
ATOM     42  C   UNL     1       3.888   7.142  -3.220  1.00  0.00     0.074 A 
ATOM     43  C   UNL     1       2.101   7.289  -1.562  1.00  0.00     0.049 A 
ATOM     44  N   UNL     1       4.437   8.327  -3.071  1.00  0.00    -0.248 NA
ATOM     45  C   UNL     1       4.529   6.314  -4.251  1.00  0.00     0.031 C 
ATOM     46  C   UNL     1       0.934   6.922  -0.766  1.00  0.00     0.029 A 
ATOM     47  N   UNL     1       2.404   8.570  -1.126  1.00  0.00    -0.354 N 
ATOM     48  C   UNL     1       5.485   8.381  -3.983  1.00  0.00     0.074 A 
ATOM     49  C   UNL     1       5.519   7.097  -4.652  1.00  0.00     0.031 C 
ATOM     50  C   UNL     1       0.621   7.945   0.055  1.00  0.00     0.029 A 
ATOM     51  C   UNL     1       1.574   9.043  -0.134  1.00  0.00     0.049 A 
ATOM     52  H   UNL     1       3.149   9.097  -1.495  1.00  0.00     0.167 HD
ATOM     53  C   UNL     1       6.340   9.394  -4.270  1.00  0.00     0.031 A 
ATOM     54  C   UNL     1       1.571  10.210   0.553  1.00  0.00     0.031 A 
ATOM     55  C   UNL     1       6.361  10.690  -3.647  1.00  0.00     0.049 A 
ATOM     56  C   UNL     1       2.594  11.294   0.284  1.00  0.00     0.074 A 
ATOM     57  C   UNL     1       7.192  11.764  -3.929  1.00  0.00     0.029 A 
ATOM     58  N   UNL     1       5.532  11.092  -2.617  1.00  0.00    -0.354 N 
ATOM     59  N   UNL     1       3.540  11.340  -0.620  1.00  0.00    -0.248 NA
ATOM     60  C   UNL     1       2.536  12.500   1.137  1.00  0.00     0.031 C 
ATOM     61  C   UNL     1       6.902  12.798  -3.034  1.00  0.00     0.029 A 
ATOM     62  C   UNL     1       5.853  12.386  -2.233  1.00  0.00     0.049 A 
ATOM     63  H   UNL     1       4.821  10.543  -2.216  1.00  0.00     0.167 HD
ATOM     64  C   UNL     1       4.153  12.583  -0.471  1.00  0.00     0.074 A 
ATOM     65  C   UNL     1       3.475  13.269   0.603  1.00  0.00     0.031 C 
ATOM     66  C   UNL     1       5.186  13.102  -1.178  1.00  0.00     0.031 A 
BRANCH  53  67
ATOM     67  C   UNL     1       7.371   9.131  -5.331  1.00  0.00    -0.014 A 
ATOM     68  C   UNL     1       7.016   9.091  -6.688  1.00  0.00     0.009 A 
ATOM     69  C   UNL     1       8.717   8.970  -4.970  1.00  0.00     0.009 A 
ATOM     70  C   UNL     1       7.987   8.858  -7.662  1.00  0.00     0.001 A 
ATOM     71  C   UNL     1       9.690   8.765  -5.949  1.00  0.00     0.001 A 
ATOM     72  C   UNL     1       9.323   8.700  -7.292  1.00  0.00     0.000 A 
ENDBRANCH  53  67
BRANCH  54  73
ATOM     73  C   UNL     1       0.558  10.459   1.621  1.00  0.00    -0.014 A 
ATOM     74  C   UNL     1      -0.442  11.431   1.445  1.00  0.00     0.009 A 
ATOM     75  C   UNL     1       0.655   9.806   2.859  1.00  0.00     0.009 A 
ATOM     76  C   UNL     1      -1.301  11.765   2.497  1.00  0.00     0.001 A 
ATOM     77  C   UNL     1      -0.222  10.123   3.899  1.00  0.00     0.001 A 
ATOM     78  C   UNL     1      -1.191  11.109   3.722  1.00  0.00     0.000 A 
ENDBRANCH  54  73
BRANCH  66  79
ATOM     79  C   UNL     1       5.638  14.506  -0.867  1.00  0.00    -0.014 A 
ATOM     80  C   UNL     1       6.341  14.812   0.308  1.00  0.00     0.009 A 
ATOM     81  C   UNL     1       5.409  15.533  -1.799  1.00  0.00     0.009 A 
ATOM     82  C   UNL     1       6.781  16.117   0.555  1.00  0.00     0.001 A 
ATOM     83  C   UNL     1       5.870  16.831  -1.562  1.00  0.00     0.001 A 
ATOM     84  C   UNL     1       6.550  17.124  -0.382  1.00  0.00     0.000 A 
ENDBRANCH  66  79
ENDBRANCH  40  41
ENDBRANCH  33  35
ENDBRANCH  32  33
ENDBRANCH  31  32
ENDBRANCH  30  31
ENDBRANCH  29  30
ENDBRANCH   1  29
TORSDOF 18
