REMARK SMILES COc1ccc(NC(=O)N[C@@H]2C=C[C@H](C(=O)OCCOCCOC(=O)c3ccc(-c4c5nc(c(-c6ccccc6)c6ccc([nH]6)c(-c6ccccc6)c6nc(c(-c7ccccc7)c7ccc4[nH]7)C=C6)C=C5)cc3)C2)c(C)c1
REMARK SMILES IDX 19 1 18 2 17 3 15 4 16 5 14 6 11 7 12 8 74 9 13 10 10 11
REMARK SMILES IDX 7 12 8 13 9 15 6 17 3 18 4 19 77 20 5 21 75 22 76 23 2 24
REMARK SMILES IDX 1 25 20 26 21 27 22 28 23 29 24 30 25 31 26 32 27 33 73 34
REMARK SMILES IDX 28 35 72 36 29 37 30 38 31 39 66 40 32 41 71 42 65 43 67 44
REMARK SMILES IDX 33 45 70 46 64 47 63 48 34 50 56 51 41 52 55 53 42 54 45 55
REMARK SMILES IDX 54 56 68 57 43 58 44 59 53 61 69 62 46 63 35 64 36 65 40 66
REMARK SMILES IDX 37 67 39 68 38 69 57 70 58 71 62 72 59 73 61 74 60 75 47 76
REMARK SMILES IDX 48 77 52 78 49 79 51 80 50 81
REMARK H PARENT 7 14 10 16 67 49 45 60
REMARK Flexibility Score: inf
ROOT
ATOM      1  C   UNL     1       4.965  -2.059  -0.480  1.00  0.00     0.202 C 
ENDROOT
BRANCH   1   2
ATOM      2  C   UNL     1       3.987  -1.012  -0.759  1.00  0.00     0.261 C 
BRANCH   2   3
ATOM      3  O   UNL     1       4.642  -0.488  -1.866  1.00  0.00    -0.463 OA
BRANCH   3   4
ATOM      4  C   UNL     1       5.191   0.716  -1.717  1.00  0.00     0.312 C 
ATOM      5  O   UNL     1       5.497   1.229  -0.654  1.00  0.00    -0.252 OA
BRANCH   4   6
ATOM      6  C   UNL     1       5.328   1.297  -3.232  1.00  0.00     0.124 C 
ATOM      7  C   UNL     1       4.775   4.402  -3.438  1.00  0.00     0.107 C 
ATOM      8  C   UNL     1       3.941   3.562  -5.036  1.00  0.00    -0.006 C 
ATOM      9  C   UNL     1       5.929   3.112  -2.539  1.00  0.00     0.048 C 
ATOM     10  C   UNL     1       4.025   1.890  -4.929  1.00  0.00    -0.014 C 
BRANCH   7  11
ATOM     11  N   UNL     1       3.627   4.511  -2.107  1.00  0.00    -0.332 N 
ATOM     12  N   UNL     1       2.707   2.098  -1.673  1.00  0.00    -0.308 N 
ATOM     13  C   UNL     1       2.961   3.506  -1.252  1.00  0.00     0.319 C 
ATOM     14  H   UNL     1       2.183   1.543  -1.050  1.00  0.00     0.171 HD
ATOM     15  O   UNL     1       2.619   3.871  -0.124  1.00  0.00    -0.248 OA
ATOM     16  H   UNL     1       3.375   5.437  -1.887  1.00  0.00     0.165 HD
BRANCH  12  17
ATOM     17  C   UNL     1       3.143   1.459  -2.893  1.00  0.00     0.046 A 
ATOM     18  C   UNL     1       5.924   0.969  -5.267  1.00  0.00     0.119 A 
ATOM     19  C   UNL     1       5.699   2.534  -4.507  1.00  0.00     0.048 A 
ATOM     20  C   UNL     1       4.801  -0.238  -4.828  1.00  0.00     0.052 A 
ATOM     21  C   UNL     1       4.096   2.578  -3.260  1.00  0.00     0.030 A 
ATOM     22  C   UNL     1       3.436  -0.011  -3.736  1.00  0.00    -0.024 A 
ATOM     23  C   UNL     1       2.729  -1.358  -3.689  1.00  0.00     0.047 C 
BRANCH  18  24
ATOM     24  O   UNL     1       6.982   0.637  -6.039  1.00  0.00    -0.497 OA
ATOM     25  C   UNL     1       8.090   0.308  -5.201  1.00  0.00     0.278 C 
ENDBRANCH  18  24
ENDBRANCH  12  17
ENDBRANCH   7  11
ENDBRANCH   4   6
ENDBRANCH   3   4
ENDBRANCH   2   3
ENDBRANCH   1   2
BRANCH   1  26
ATOM     26  O   UNL     1       5.779  -1.463   0.508  1.00  0.00    -0.374 OA
BRANCH  26  27
ATOM     27  C   UNL     1       7.128  -1.836   0.369  1.00  0.00     0.202 C 
BRANCH  27  28
ATOM     28  C   UNL     1       7.197  -3.361   0.515  1.00  0.00     0.261 C 
BRANCH  28  29
ATOM     29  O   UNL     1       6.318  -3.751   1.635  1.00  0.00    -0.460 OA
BRANCH  29  30
ATOM     30  C   UNL     1       5.167  -4.457   1.358  1.00  0.00     0.338 C 
ATOM     31  O   UNL     1       5.111  -5.361   0.535  1.00  0.00    -0.246 OA
BRANCH  30  32
ATOM     32  C   UNL     1       3.890  -3.748   1.873  1.00  0.00     0.060 A 
ATOM     33  C   UNL     1       2.626  -4.062   1.304  1.00  0.00     0.016 A 
ATOM     34  C   UNL     1       4.020  -2.485   2.430  1.00  0.00     0.016 A 
ATOM     35  C   UNL     1       1.609  -3.069   1.109  1.00  0.00     0.010 A 
ATOM     36  C   UNL     1       3.068  -1.499   2.111  1.00  0.00     0.010 A 
ATOM     37  C   UNL     1       1.854  -1.732   1.413  1.00  0.00    -0.014 A 
BRANCH  37  38
ATOM     38  C   UNL     1       1.029  -0.506   1.043  1.00  0.00     0.031 A 
ATOM     39  C   UNL     1       0.864   0.514   2.134  1.00  0.00     0.074 A 
ATOM     40  C   UNL     1       0.606  -0.103  -0.205  1.00  0.00     0.049 A 
ATOM     41  N   UNL     1       0.320   1.663   1.968  1.00  0.00    -0.248 NA
ATOM     42  C   UNL     1       1.344   0.359   3.504  1.00  0.00     0.031 C 
ATOM     43  C   UNL     1       0.215   1.258  -0.665  1.00  0.00     0.029 A 
ATOM     44  N   UNL     1       0.585  -0.771  -1.435  1.00  0.00    -0.354 N 
ATOM     45  C   UNL     1       0.581   2.465   3.045  1.00  0.00     0.074 A 
ATOM     46  C   UNL     1       1.243   1.603   3.983  1.00  0.00     0.031 C 
ATOM     47  C   UNL     1      -0.168   1.273  -1.956  1.00  0.00     0.029 A 
ATOM     48  C   UNL     1      -0.291  -0.106  -2.340  1.00  0.00     0.049 A 
ATOM     49  H   UNL     1       1.102  -1.583  -1.644  1.00  0.00     0.167 HD
ATOM     50  C   UNL     1       0.230   3.778   2.966  1.00  0.00     0.031 A 
ATOM     51  C   UNL     1      -1.424  -0.653  -2.865  1.00  0.00     0.031 A 
ATOM     52  C   UNL     1      -0.544   4.040   1.739  1.00  0.00     0.049 A 
ATOM     53  C   UNL     1      -2.586   0.146  -2.296  1.00  0.00     0.074 A 
ATOM     54  C   UNL     1      -0.316   4.764   0.583  1.00  0.00     0.029 A 
ATOM     55  N   UNL     1      -1.657   3.239   1.473  1.00  0.00    -0.354 N 
ATOM     56  N   UNL     1      -2.532   0.710  -1.110  1.00  0.00    -0.248 NA
ATOM     57  C   UNL     1      -3.737   0.596  -3.078  1.00  0.00     0.031 C 
ATOM     58  C   UNL     1      -1.277   4.350  -0.393  1.00  0.00     0.029 A 
ATOM     59  C   UNL     1      -2.117   3.402   0.181  1.00  0.00     0.049 A 
ATOM     60  H   UNL     1      -2.067   2.630   2.129  1.00  0.00     0.167 HD
ATOM     61  C   UNL     1      -3.434   1.736  -1.071  1.00  0.00     0.074 A 
ATOM     62  C   UNL     1      -4.228   1.566  -2.283  1.00  0.00     0.031 C 
ATOM     63  C   UNL     1      -3.389   2.812  -0.227  1.00  0.00     0.031 A 
BRANCH  50  64
ATOM     64  C   UNL     1       0.651   4.861   3.938  1.00  0.00    -0.014 A 
ATOM     65  C   UNL     1       0.381   6.207   3.625  1.00  0.00     0.009 A 
ATOM     66  C   UNL     1       1.335   4.652   5.150  1.00  0.00     0.009 A 
ATOM     67  C   UNL     1       0.781   7.269   4.451  1.00  0.00     0.001 A 
ATOM     68  C   UNL     1       1.737   5.708   5.986  1.00  0.00     0.001 A 
ATOM     69  C   UNL     1       1.461   7.020   5.634  1.00  0.00     0.000 A 
ENDBRANCH  50  64
BRANCH  51  70
ATOM     70  C   UNL     1      -1.265  -2.119  -3.094  1.00  0.00    -0.014 A 
ATOM     71  C   UNL     1      -0.548  -2.535  -4.243  1.00  0.00     0.009 A 
ATOM     72  C   UNL     1      -1.247  -2.958  -1.972  1.00  0.00     0.009 A 
ATOM     73  C   UNL     1       0.323  -3.636  -4.187  1.00  0.00     0.001 A 
ATOM     74  C   UNL     1      -0.347  -4.032  -1.914  1.00  0.00     0.001 A 
ATOM     75  C   UNL     1       0.477  -4.335  -2.995  1.00  0.00     0.000 A 
ENDBRANCH  51  70
BRANCH  63  76
ATOM     76  C   UNL     1      -4.644   3.391   0.375  1.00  0.00    -0.014 A 
ATOM     77  C   UNL     1      -5.934   2.964   0.054  1.00  0.00     0.009 A 
ATOM     78  C   UNL     1      -4.527   4.303   1.452  1.00  0.00     0.009 A 
ATOM     79  C   UNL     1      -7.047   3.449   0.743  1.00  0.00     0.001 A 
ATOM     80  C   UNL     1      -5.626   4.736   2.186  1.00  0.00     0.001 A 
ATOM     81  C   UNL     1      -6.892   4.320   1.817  1.00  0.00     0.000 A 
ENDBRANCH  63  76
ENDBRANCH  37  38
ENDBRANCH  30  32
ENDBRANCH  29  30
ENDBRANCH  28  29
ENDBRANCH  27  28
ENDBRANCH  26  27
ENDBRANCH   1  26
TORSDOF 17
