REMARK SMILES CC(=O)NNC(=O)CSC[C@@H]([NH3+])C(=O)OCCOCCOC(=O)c1ccc(-c2c3nc(c(-c4ccccc4)c4ccc([nH]4)c(-c4ccccc4)c4nc(c(-c5ccccc5)c5ccc2[nH]5)C=C4)C=C3)cc1
REMARK SMILES IDX 16 1 15 2 13 3 14 4 11 5 10 6 9 7 8 8 6 9 5 10 7 12 4 13
REMARK SMILES IDX 1 14 2 15 3 16 12 18 17 22 18 23 19 24 20 25 21 26 22 27
REMARK SMILES IDX 23 28 24 29 25 30 71 31 26 32 70 33 27 34 28 35 29 36 64 37
REMARK SMILES IDX 30 38 69 39 63 40 65 41 31 42 68 43 62 44 61 45 32 47 54 48
REMARK SMILES IDX 39 49 53 50 40 51 43 52 52 53 66 54 41 55 42 56 51 58 67 59
REMARK SMILES IDX 44 60 33 61 34 62 38 63 35 64 37 65 36 66 55 67 56 68 60 69
REMARK SMILES IDX 57 70 59 71 58 72 45 73 46 74 50 75 47 76 49 77 48 78
REMARK H PARENT 5 11 4 17 12 19 12 20 12 21 65 46 43 57
REMARK Flexibility Score: inf
ROOT
ATOM      1  C   UNL     1       7.905   4.603  -4.296  1.00  0.00     0.261 C 
ENDROOT
BRANCH   1   2
ATOM      2  O   UNL     1       6.492   4.357  -4.210  1.00  0.00    -0.459 OA
BRANCH   2   3
ATOM      3  C   UNL     1       5.700   5.305  -4.776  1.00  0.00     0.365 C 
ATOM      4  O   UNL     1       6.104   6.367  -5.246  1.00  0.00    -0.245 OA
BRANCH   3   5
ATOM      5  C   UNL     1       4.210   4.921  -4.829  1.00  0.00     0.301 C 
BRANCH   5   6
ATOM      6  C   UNL     1       3.867   3.595  -4.133  1.00  0.00     0.147 C 
BRANCH   6   7
ATOM      7  S   UNL     1       2.130   3.043  -4.406  1.00  0.00    -0.145 SA
BRANCH   7   8
ATOM      8  C   UNL     1       1.274   3.896  -3.034  1.00  0.00     0.171 C 
BRANCH   8   9
ATOM      9  C   UNL     1       1.861   3.529  -1.685  1.00  0.00     0.248 C 
ATOM     10  N   UNL     1       1.651   2.266  -1.187  1.00  0.00    -0.267 N 
ATOM     11  H   UNL     1       2.022   2.055  -0.300  1.00  0.00     0.191 HD
ATOM     12  O   UNL     1       2.520   4.329  -1.020  1.00  0.00    -0.272 OA
BRANCH  10  13
ATOM     13  N   UNL     1       0.950   1.267  -1.853  1.00  0.00    -0.268 N 
ATOM     14  C   UNL     1       0.905  -0.119   0.181  1.00  0.00     0.116 C 
ATOM     15  C   UNL     1       0.546   0.093  -1.265  1.00  0.00     0.235 C 
ATOM     16  O   UNL     1      -0.069  -0.750  -1.915  1.00  0.00    -0.274 OA
ATOM     17  H   UNL     1       0.730   1.409  -2.803  1.00  0.00     0.191 HD
ENDBRANCH  10  13
ENDBRANCH   8   9
ENDBRANCH   7   8
ENDBRANCH   6   7
ENDBRANCH   5   6
BRANCH   5  18
ATOM     18  N   UNL     1       3.424   6.061  -4.303  1.00  0.00    -0.345 N 
ATOM     19  H   UNL     1       3.681   6.231  -3.330  1.00  0.00     0.345 HD
ATOM     20  H   UNL     1       2.429   5.844  -4.359  1.00  0.00     0.345 HD
ATOM     21  H   UNL     1       3.622   6.895  -4.857  1.00  0.00     0.345 HD
ENDBRANCH   5  18
ENDBRANCH   3   5
ENDBRANCH   2   3
ENDBRANCH   1   2
BRANCH   1  22
ATOM     22  C   UNL     1       8.639   3.437  -4.961  1.00  0.00     0.202 C 
BRANCH  22  23
ATOM     23  O   UNL     1       8.208   3.084  -6.274  1.00  0.00    -0.374 OA
BRANCH  23  24
ATOM     24  C   UNL     1       7.000   2.333  -6.393  1.00  0.00     0.202 C 
BRANCH  24  25
ATOM     25  C   UNL     1       7.059   0.859  -5.969  1.00  0.00     0.261 C 
BRANCH  25  26
ATOM     26  O   UNL     1       7.287   0.701  -4.555  1.00  0.00    -0.460 OA
BRANCH  26  27
ATOM     27  C   UNL     1       8.436   0.058  -4.237  1.00  0.00     0.338 C 
ATOM     28  O   UNL     1       9.232  -0.461  -5.008  1.00  0.00    -0.246 OA
BRANCH  27  29
ATOM     29  C   UNL     1       8.733   0.203  -2.800  1.00  0.00     0.060 A 
ATOM     30  C   UNL     1       9.981   0.738  -2.453  1.00  0.00     0.016 A 
ATOM     31  C   UNL     1       7.867  -0.272  -1.814  1.00  0.00     0.016 A 
ATOM     32  C   UNL     1      10.391   0.747  -1.122  1.00  0.00     0.010 A 
ATOM     33  C   UNL     1       8.284  -0.269  -0.476  1.00  0.00     0.010 A 
ATOM     34  C   UNL     1       9.564   0.203  -0.130  1.00  0.00    -0.014 A 
BRANCH  34  35
ATOM     35  C   UNL     1      10.115  -0.006   1.232  1.00  0.00     0.031 A 
ATOM     36  C   UNL     1      10.645  -1.365   1.607  1.00  0.00     0.074 A 
ATOM     37  C   UNL     1      10.209   1.014   2.103  1.00  0.00     0.049 A 
ATOM     38  N   UNL     1      11.203  -1.758   2.724  1.00  0.00    -0.248 NA
ATOM     39  C   UNL     1      10.535  -2.419   0.585  1.00  0.00     0.031 C 
ATOM     40  C   UNL     1       9.777   2.387   1.850  1.00  0.00     0.029 A 
ATOM     41  N   UNL     1      10.710   1.047   3.381  1.00  0.00    -0.354 N 
ATOM     42  C   UNL     1      11.517  -3.098   2.538  1.00  0.00     0.074 A 
ATOM     43  C   UNL     1      11.054  -3.462   1.216  1.00  0.00     0.031 C 
ATOM     44  C   UNL     1      10.033   3.131   2.940  1.00  0.00     0.029 A 
ATOM     45  C   UNL     1      10.624   2.283   3.973  1.00  0.00     0.049 A 
ATOM     46  H   UNL     1      11.094   0.260   3.830  1.00  0.00     0.167 HD
ATOM     47  C   UNL     1      12.146  -3.950   3.383  1.00  0.00     0.031 A 
ATOM     48  C   UNL     1      10.973   2.682   5.212  1.00  0.00     0.031 A 
ATOM     49  C   UNL     1      12.592  -3.603   4.705  1.00  0.00     0.049 A 
ATOM     50  C   UNL     1      11.595   1.694   6.162  1.00  0.00     0.074 A 
ATOM     51  C   UNL     1      13.232  -4.402   5.638  1.00  0.00     0.029 A 
ATOM     52  N   UNL     1      12.441  -2.354   5.285  1.00  0.00    -0.354 N 
ATOM     53  N   UNL     1      11.902   0.435   5.965  1.00  0.00    -0.248 NA
ATOM     54  C   UNL     1      11.929   2.191   7.506  1.00  0.00     0.031 C 
ATOM     55  C   UNL     1      13.427  -3.646   6.800  1.00  0.00     0.029 A 
ATOM     56  C   UNL     1      12.956  -2.364   6.570  1.00  0.00     0.049 A 
ATOM     57  H   UNL     1      12.028  -1.574   4.847  1.00  0.00     0.167 HD
ATOM     58  C   UNL     1      12.489  -0.002   7.147  1.00  0.00     0.074 A 
ATOM     59  C   UNL     1      12.509   1.130   8.050  1.00  0.00     0.031 C 
ATOM     60  C   UNL     1      12.969  -1.231   7.457  1.00  0.00     0.031 A 
BRANCH  47  61
ATOM     61  C   UNL     1      12.367  -5.356   2.903  1.00  0.00    -0.014 A 
ATOM     62  C   UNL     1      13.337  -5.645   1.930  1.00  0.00     0.009 A 
ATOM     63  C   UNL     1      11.618  -6.409   3.451  1.00  0.00     0.009 A 
ATOM     64  C   UNL     1      13.531  -6.958   1.494  1.00  0.00     0.001 A 
ATOM     65  C   UNL     1      11.832  -7.723   3.031  1.00  0.00     0.001 A 
ATOM     66  C   UNL     1      12.781  -7.995   2.047  1.00  0.00     0.000 A 
ENDBRANCH  47  61
BRANCH  48  67
ATOM     67  C   UNL     1      10.728   4.083   5.641  1.00  0.00    -0.014 A 
ATOM     68  C   UNL     1      11.797   4.966   5.858  1.00  0.00     0.009 A 
ATOM     69  C   UNL     1       9.418   4.534   5.869  1.00  0.00     0.009 A 
ATOM     70  C   UNL     1      11.560   6.262   6.322  1.00  0.00     0.001 A 
ATOM     71  C   UNL     1       9.183   5.839   6.306  1.00  0.00     0.001 A 
ATOM     72  C   UNL     1      10.255   6.698   6.542  1.00  0.00     0.000 A 
ENDBRANCH  48  67
BRANCH  60  73
ATOM     73  C   UNL     1      13.588  -1.404   8.815  1.00  0.00    -0.014 A 
ATOM     74  C   UNL     1      12.799  -1.451   9.975  1.00  0.00     0.009 A 
ATOM     75  C   UNL     1      14.979  -1.555   8.931  1.00  0.00     0.009 A 
ATOM     76  C   UNL     1      13.396  -1.609  11.227  1.00  0.00     0.001 A 
ATOM     77  C   UNL     1      15.570  -1.740  10.181  1.00  0.00     0.001 A 
ATOM     78  C   UNL     1      14.779  -1.757  11.329  1.00  0.00     0.000 A 
ENDBRANCH  60  73
ENDBRANCH  34  35
ENDBRANCH  27  29
ENDBRANCH  26  27
ENDBRANCH  25  26
ENDBRANCH  24  25
ENDBRANCH  23  24
ENDBRANCH  22  23
ENDBRANCH   1  22
TORSDOF 20
