REMARK SMILES CCN(C(=O)C[NH2+][C@](C)(CC)C(=O)OCCOCCOC(=O)c1ccc(-c2c3nc(c(-c4ccccc4)c4ccc([nH]4)c(-c4ccccc4)c4nc(c(-c5ccccc5)c5ccc2[nH]5)C=C4)C=C3)cc1)C1CC1
REMARK SMILES IDX 15 1 14 2 12 3 13 4 8 5 9 6 7 7 6 10 4 11 5 12 3 13 2 14
REMARK SMILES IDX 1 15 71 16 72 17 73 18 10 19 11 20 16 21 17 22 18 23 19 24
REMARK SMILES IDX 20 25 21 26 22 27 23 28 24 29 70 30 25 31 69 32 26 33 27 34
REMARK SMILES IDX 28 35 63 36 29 37 68 38 62 39 64 40 30 41 67 42 61 43 60 44
REMARK SMILES IDX 31 46 53 47 38 48 52 49 39 50 42 51 51 52 65 53 40 54 41 55
REMARK SMILES IDX 50 57 66 58 43 59 32 60 33 61 37 62 34 63 36 64 35 65 54 66
REMARK SMILES IDX 55 67 59 68 56 69 58 70 57 71 44 72 45 73 49 74 46 75 48 76
REMARK SMILES IDX 47 77
REMARK H PARENT 7 8 7 9 64 45 42 56
REMARK Flexibility Score: inf
ROOT
ATOM      1  C   UNL     1      -4.695   0.208   3.023  1.00  0.00     0.261 C 
ENDROOT
BRANCH   1   2
ATOM      2  O   UNL     1      -4.454   0.662   1.681  1.00  0.00    -0.459 OA
BRANCH   2   3
ATOM      3  C   UNL     1      -3.403   1.526   1.558  1.00  0.00     0.367 C 
ATOM      4  O   UNL     1      -2.615   1.778   2.465  1.00  0.00    -0.245 OA
BRANCH   3   5
ATOM      5  C   UNL     1      -3.406   2.279   0.199  1.00  0.00     0.191 C 
ATOM      6  C   UNL     1      -1.942   2.676  -0.090  1.00  0.00     0.092 C 
BRANCH   5   7
ATOM      7  N   UNL     1      -4.162   3.570   0.273  1.00  0.00    -0.325 N 
ATOM      8  H   UNL     1      -3.488   4.332   0.200  1.00  0.00     0.347 HD
ATOM      9  H   UNL     1      -4.838   3.539  -0.490  1.00  0.00     0.347 HD
BRANCH   7  10
ATOM     10  C   UNL     1      -4.951   3.781   1.497  1.00  0.00     0.362 C 
BRANCH  10  11
ATOM     11  C   UNL     1      -5.669   5.134   1.462  1.00  0.00     0.277 C 
ATOM     12  O   UNL     1      -6.904   5.144   1.517  1.00  0.00    -0.268 OA
BRANCH  11  13
ATOM     13  N   UNL     1      -4.899   6.300   1.412  1.00  0.00    -0.335 N 
BRANCH  13  14
ATOM     14  C   UNL     1      -3.429   6.321   1.490  1.00  0.00     0.116 C 
ATOM     15  C   UNL     1      -2.758   6.589   0.151  1.00  0.00     0.027 C 
ENDBRANCH  13  14
BRANCH  13  16
ATOM     16  C   UNL     1      -5.553   7.592   1.460  1.00  0.00     0.085 C 
ATOM     17  C   UNL     1      -5.498   8.547   0.294  1.00  0.00     0.027 C 
ATOM     18  C   UNL     1      -6.799   7.920   0.677  1.00  0.00     0.027 C 
ENDBRANCH  13  16
ENDBRANCH  11  13
ENDBRANCH  10  11
ENDBRANCH   7  10
ENDBRANCH   5   7
BRANCH   5  19
ATOM     19  C   UNL     1      -3.978   1.477  -0.999  1.00  0.00     0.077 C 
ATOM     20  C   UNL     1      -3.257   0.189  -1.371  1.00  0.00     0.011 C 
ENDBRANCH   5  19
ENDBRANCH   3   5
ENDBRANCH   2   3
ENDBRANCH   1   2
BRANCH   1  21
ATOM     21  C   UNL     1      -4.179  -1.199   3.337  1.00  0.00     0.202 C 
BRANCH  21  22
ATOM     22  O   UNL     1      -2.805  -1.467   3.090  1.00  0.00    -0.374 OA
BRANCH  22  23
ATOM     23  C   UNL     1      -2.397  -1.664   1.737  1.00  0.00     0.202 C 
BRANCH  23  24
ATOM     24  C   UNL     1      -2.977  -2.889   1.021  1.00  0.00     0.261 C 
BRANCH  24  25
ATOM     25  O   UNL     1      -4.383  -2.724   0.739  1.00  0.00    -0.460 OA
BRANCH  25  26
ATOM     26  C   UNL     1      -5.153  -3.777   1.092  1.00  0.00     0.338 C 
ATOM     27  O   UNL     1      -4.774  -4.869   1.500  1.00  0.00    -0.246 OA
BRANCH  26  28
ATOM     28  C   UNL     1      -6.577  -3.404   1.095  1.00  0.00     0.060 A 
ATOM     29  C   UNL     1      -7.266  -3.503   2.311  1.00  0.00     0.016 A 
ATOM     30  C   UNL     1      -7.262  -3.116  -0.087  1.00  0.00     0.016 A 
ATOM     31  C   UNL     1      -8.653  -3.388   2.338  1.00  0.00     0.010 A 
ATOM     32  C   UNL     1      -8.658  -3.006  -0.059  1.00  0.00     0.010 A 
ATOM     33  C   UNL     1      -9.363  -3.192   1.145  1.00  0.00    -0.014 A 
BRANCH  33  34
ATOM     34  C   UNL     1     -10.837  -3.375   1.149  1.00  0.00     0.031 A 
ATOM     35  C   UNL     1     -11.408  -4.704   0.726  1.00  0.00     0.074 A 
ATOM     36  C   UNL     1     -11.657  -2.407   1.595  1.00  0.00     0.049 A 
ATOM     37  N   UNL     1     -12.657  -5.094   0.682  1.00  0.00    -0.248 NA
ATOM     38  C   UNL     1     -10.442  -5.731   0.303  1.00  0.00     0.031 C 
ATOM     39  C   UNL     1     -11.233  -1.097   2.084  1.00  0.00     0.029 A 
ATOM     40  N   UNL     1     -13.024  -2.388   1.715  1.00  0.00    -0.354 N 
ATOM     41  C   UNL     1     -12.626  -6.410   0.237  1.00  0.00     0.074 A 
ATOM     42  C   UNL     1     -11.240  -6.741  -0.011  1.00  0.00     0.031 C 
ATOM     43  C   UNL     1     -12.322  -0.397   2.450  1.00  0.00     0.029 A 
ATOM     44  C   UNL     1     -13.517  -1.200   2.197  1.00  0.00     0.049 A 
ATOM     45  H   UNL     1     -13.597  -3.152   1.477  1.00  0.00     0.167 HD
ATOM     46  C   UNL     1     -13.655  -7.274   0.061  1.00  0.00     0.031 A 
ATOM     47  C   UNL     1     -14.788  -0.802   2.398  1.00  0.00     0.031 A 
ATOM     48  C   UNL     1     -15.037  -6.951   0.287  1.00  0.00     0.049 A 
ATOM     49  C   UNL     1     -15.921  -1.750   2.107  1.00  0.00     0.074 A 
ATOM     50  C   UNL     1     -16.150  -7.758   0.123  1.00  0.00     0.029 A 
ATOM     51  N   UNL     1     -15.496  -5.719   0.724  1.00  0.00    -0.354 N 
ATOM     52  N   UNL     1     -15.875  -2.994   1.697  1.00  0.00    -0.248 NA
ATOM     53  C   UNL     1     -17.284  -1.237   2.317  1.00  0.00     0.031 C 
ATOM     54  C   UNL     1     -17.288  -6.999   0.419  1.00  0.00     0.029 A 
ATOM     55  C   UNL     1     -16.877  -5.737   0.816  1.00  0.00     0.049 A 
ATOM     56  H   UNL     1     -14.925  -4.946   0.938  1.00  0.00     0.167 HD
ATOM     57  C   UNL     1     -17.196  -3.419   1.625  1.00  0.00     0.074 A 
ATOM     58  C   UNL     1     -18.020  -2.307   2.048  1.00  0.00     0.031 C 
ATOM     59  C   UNL     1     -17.684  -4.624   1.241  1.00  0.00     0.031 A 
BRANCH  46  60
ATOM     60  C   UNL     1     -13.319  -8.656  -0.422  1.00  0.00    -0.014 A 
ATOM     61  C   UNL     1     -12.724  -9.597   0.433  1.00  0.00     0.009 A 
ATOM     62  C   UNL     1     -13.633  -9.032  -1.737  1.00  0.00     0.009 A 
ATOM     63  C   UNL     1     -12.427 -10.881  -0.029  1.00  0.00     0.001 A 
ATOM     64  C   UNL     1     -13.356 -10.324  -2.188  1.00  0.00     0.001 A 
ATOM     65  C   UNL     1     -12.746 -11.244  -1.336  1.00  0.00     0.000 A 
ENDBRANCH  46  60
BRANCH  47  66
ATOM     66  C   UNL     1     -15.070   0.577   2.875  1.00  0.00    -0.014 A 
ATOM     67  C   UNL     1     -15.588   0.804   4.159  1.00  0.00     0.009 A 
ATOM     68  C   UNL     1     -14.855   1.675   2.026  1.00  0.00     0.009 A 
ATOM     69  C   UNL     1     -15.911   2.099   4.572  1.00  0.00     0.001 A 
ATOM     70  C   UNL     1     -15.152   2.970   2.451  1.00  0.00     0.001 A 
ATOM     71  C   UNL     1     -15.690   3.180   3.720  1.00  0.00     0.000 A 
ENDBRANCH  47  66
BRANCH  59  72
ATOM     72  C   UNL     1     -19.173  -4.814   1.295  1.00  0.00    -0.014 A 
ATOM     73  C   UNL     1     -20.018  -4.215   0.347  1.00  0.00     0.009 A 
ATOM     74  C   UNL     1     -19.734  -5.636   2.285  1.00  0.00     0.009 A 
ATOM     75  C   UNL     1     -21.399  -4.412   0.410  1.00  0.00     0.001 A 
ATOM     76  C   UNL     1     -21.113  -5.851   2.329  1.00  0.00     0.001 A 
ATOM     77  C   UNL     1     -21.944  -5.232   1.398  1.00  0.00     0.000 A 
ENDBRANCH  59  72
ENDBRANCH  33  34
ENDBRANCH  26  28
ENDBRANCH  25  26
ENDBRANCH  24  25
ENDBRANCH  23  24
ENDBRANCH  22  23
ENDBRANCH  21  22
ENDBRANCH   1  21
TORSDOF 21
