REMARK SMILES Cc1cccc(CN(C)c2ccc(C(=O)OCCOCCOC(=O)c3ccc(-c4c5nc(c(-c6ccccc6)c6ccc([nH]6)c(-c6ccccc6)c6nc(c(-c7ccccc7)c7ccc4[nH]7)C=C6)C=C5)cc3)cc2C)n1
REMARK SMILES IDX 18 1 17 2 16 3 14 4 15 5 13 6 10 7 11 8 74 9 12 10 73 11
REMARK SMILES IDX 75 12 8 13 9 14 7 15 6 16 1 17 2 18 3 19 76 20 4 21 5 22
REMARK SMILES IDX 19 23 20 24 21 25 22 26 23 27 24 28 25 29 26 30 72 31 27 32
REMARK SMILES IDX 71 33 28 34 29 35 30 36 65 37 31 38 70 39 64 40 66 41 32 42
REMARK SMILES IDX 69 43 63 44 62 45 33 47 55 48 40 49 54 50 41 51 44 52 53 53
REMARK SMILES IDX 67 54 42 55 43 56 52 58 68 59 45 60 34 61 35 62 39 63 36 64
REMARK SMILES IDX 38 65 37 66 56 67 57 68 61 69 58 70 60 71 59 72 46 73 47 74
REMARK SMILES IDX 51 75 48 76 50 77 49 78
REMARK H PARENT 66 46 44 57
REMARK Flexibility Score: inf
ROOT
ATOM      1  C   UNL     1       0.287   0.429   6.939  1.00  0.00     0.202 C 
ENDROOT
BRANCH   1   2
ATOM      2  C   UNL     1      -0.936  -0.402   6.747  1.00  0.00     0.261 C 
BRANCH   2   3
ATOM      3  O   UNL     1      -1.724   0.064   5.649  1.00  0.00    -0.460 OA
BRANCH   3   4
ATOM      4  C   UNL     1      -2.385   1.254   5.736  1.00  0.00     0.338 C 
ATOM      5  O   UNL     1      -2.925   1.756   6.693  1.00  0.00    -0.246 OA
BRANCH   4   6
ATOM      6  C   UNL     1      -2.172   1.904   4.429  1.00  0.00     0.060 A 
ATOM      7  C   UNL     1      -1.448   3.167   2.020  1.00  0.00     0.040 A 
ATOM      8  C   UNL     1      -1.046   1.872   2.339  1.00  0.00     0.027 A 
ATOM      9  C   UNL     1      -2.119   3.896   3.024  1.00  0.00    -0.027 A 
ATOM     10  C   UNL     1      -1.475   1.209   3.456  1.00  0.00     0.018 A 
ATOM     11  C   UNL     1      -2.471   3.253   4.234  1.00  0.00     0.021 A 
ATOM     12  C   UNL     1      -2.389   5.371   2.924  1.00  0.00     0.046 C 
BRANCH   7  13
ATOM     13  N   UNL     1      -1.167   3.640   0.744  1.00  0.00    -0.368 N 
ATOM     14  C   UNL     1      -0.077   4.591   0.615  1.00  0.00     0.144 C 
BRANCH  13  15
ATOM     15  C   UNL     1      -1.548   2.821  -0.443  1.00  0.00     0.172 C 
BRANCH  15  16
ATOM     16  C   UNL     1      -0.940   1.413  -0.551  1.00  0.00     0.060 A 
ATOM     17  C   UNL     1       2.440  -0.036  -0.218  1.00  0.00     0.067 C 
ATOM     18  C   UNL     1       0.951   0.045  -0.393  1.00  0.00     0.038 A 
ATOM     19  C   UNL     1       0.170  -1.098  -0.249  1.00  0.00     0.023 A 
ATOM     20  N   UNL     1       0.420   1.286  -0.569  1.00  0.00    -0.256 NA
ATOM     21  C   UNL     1      -1.213  -0.970  -0.294  1.00  0.00     0.004 A 
ATOM     22  C   UNL     1      -1.777   0.295  -0.442  1.00  0.00     0.026 A 
ENDBRANCH  15  16
ENDBRANCH  13  15
ENDBRANCH   7  13
ENDBRANCH   4   6
ENDBRANCH   3   4
ENDBRANCH   2   3
ENDBRANCH   1   2
BRANCH   1  23
ATOM     23  O   UNL     1      -0.170   1.634   7.528  1.00  0.00    -0.374 OA
BRANCH  23  24
ATOM     24  C   UNL     1       0.840   2.545   7.902  1.00  0.00     0.202 C 
BRANCH  24  25
ATOM     25  C   UNL     1       1.833   1.946   8.909  1.00  0.00     0.261 C 
BRANCH  25  26
ATOM     26  O   UNL     1       1.127   1.541  10.104  1.00  0.00    -0.460 OA
BRANCH  26  27
ATOM     27  C   UNL     1       0.916   0.204  10.278  1.00  0.00     0.338 C 
ATOM     28  O   UNL     1       1.752  -0.671  10.120  1.00  0.00    -0.246 OA
BRANCH  27  29
ATOM     29  C   UNL     1      -0.551  -0.065  10.393  1.00  0.00     0.060 A 
ATOM     30  C   UNL     1      -1.044  -1.384  10.306  1.00  0.00     0.016 A 
ATOM     31  C   UNL     1      -1.420   1.005  10.213  1.00  0.00     0.016 A 
ATOM     32  C   UNL     1      -2.358  -1.625   9.863  1.00  0.00     0.010 A 
ATOM     33  C   UNL     1      -2.659   0.760   9.664  1.00  0.00     0.010 A 
ATOM     34  C   UNL     1      -3.134  -0.547   9.447  1.00  0.00    -0.014 A 
BRANCH  34  35
ATOM     35  C   UNL     1      -4.369  -0.609   8.649  1.00  0.00     0.031 A 
ATOM     36  C   UNL     1      -5.572   0.048   9.194  1.00  0.00     0.074 A 
ATOM     37  C   UNL     1      -4.367  -0.965   7.338  1.00  0.00     0.049 A 
ATOM     38  N   UNL     1      -6.753  -0.127   8.717  1.00  0.00    -0.248 NA
ATOM     39  C   UNL     1      -5.565   0.934  10.355  1.00  0.00     0.031 C 
ATOM     40  C   UNL     1      -5.298  -0.568   6.274  1.00  0.00     0.029 A 
ATOM     41  N   UNL     1      -3.466  -1.774   6.650  1.00  0.00    -0.354 N 
ATOM     42  C   UNL     1      -7.544   0.877   9.216  1.00  0.00     0.074 A 
ATOM     43  C   UNL     1      -6.808   1.416  10.329  1.00  0.00     0.031 C 
ATOM     44  C   UNL     1      -5.089  -1.323   5.179  1.00  0.00     0.029 A 
ATOM     45  C   UNL     1      -4.096  -2.322   5.527  1.00  0.00     0.049 A 
ATOM     46  H   UNL     1      -2.531  -1.936   6.913  1.00  0.00     0.167 HD
ATOM     47  C   UNL     1      -8.659   1.227   8.517  1.00  0.00     0.031 A 
ATOM     48  C   UNL     1      -4.144  -3.670   5.369  1.00  0.00     0.031 A 
ATOM     49  C   UNL     1      -8.826   0.377   7.323  1.00  0.00     0.049 A 
ATOM     50  C   UNL     1      -5.580  -4.087   5.504  1.00  0.00     0.074 A 
ATOM     51  C   UNL     1      -8.687   0.601   5.963  1.00  0.00     0.029 A 
ATOM     52  N   UNL     1      -8.840  -1.011   7.476  1.00  0.00    -0.354 N 
ATOM     53  N   UNL     1      -6.491  -3.300   6.012  1.00  0.00    -0.248 NA
ATOM     54  C   UNL     1      -6.140  -5.335   5.016  1.00  0.00     0.031 C 
ATOM     55  C   UNL     1      -8.608  -0.668   5.310  1.00  0.00     0.029 A 
ATOM     56  C   UNL     1      -8.732  -1.667   6.264  1.00  0.00     0.049 A 
ATOM     57  H   UNL     1      -8.918  -1.469   8.345  1.00  0.00     0.167 HD
ATOM     58  C   UNL     1      -7.728  -3.832   5.840  1.00  0.00     0.074 A 
ATOM     59  C   UNL     1      -7.452  -5.135   5.250  1.00  0.00     0.031 C 
ATOM     60  C   UNL     1      -8.848  -3.133   6.194  1.00  0.00     0.031 A 
BRANCH  47  61
ATOM     61  C   UNL     1      -9.470   2.478   8.786  1.00  0.00    -0.014 A 
ATOM     62  C   UNL     1     -10.421   2.905   7.843  1.00  0.00     0.009 A 
ATOM     63  C   UNL     1      -9.350   3.294   9.928  1.00  0.00     0.009 A 
ATOM     64  C   UNL     1     -11.168   4.083   8.013  1.00  0.00     0.001 A 
ATOM     65  C   UNL     1     -10.076   4.481  10.100  1.00  0.00     0.001 A 
ATOM     66  C   UNL     1     -10.988   4.877   9.138  1.00  0.00     0.000 A 
ENDBRANCH  47  61
BRANCH  48  67
ATOM     67  C   UNL     1      -2.888  -4.322   5.867  1.00  0.00    -0.014 A 
ATOM     68  C   UNL     1      -1.717  -4.120   5.093  1.00  0.00     0.009 A 
ATOM     69  C   UNL     1      -2.721  -4.611   7.231  1.00  0.00     0.009 A 
ATOM     70  C   UNL     1      -0.449  -4.053   5.690  1.00  0.00     0.001 A 
ATOM     71  C   UNL     1      -1.448  -4.536   7.824  1.00  0.00     0.001 A 
ATOM     72  C   UNL     1      -0.322  -4.217   7.065  1.00  0.00     0.000 A 
ENDBRANCH  48  67
BRANCH  60  73
ATOM     73  C   UNL     1     -10.192  -3.751   6.503  1.00  0.00    -0.014 A 
ATOM     74  C   UNL     1     -10.493  -5.110   6.389  1.00  0.00     0.009 A 
ATOM     75  C   UNL     1     -11.201  -2.939   7.073  1.00  0.00     0.009 A 
ATOM     76  C   UNL     1     -11.720  -5.630   6.817  1.00  0.00     0.001 A 
ATOM     77  C   UNL     1     -12.404  -3.457   7.550  1.00  0.00     0.001 A 
ATOM     78  C   UNL     1     -12.666  -4.808   7.415  1.00  0.00     0.000 A 
ENDBRANCH  60  73
ENDBRANCH  34  35
ENDBRANCH  27  29
ENDBRANCH  26  27
ENDBRANCH  25  26
ENDBRANCH  24  25
ENDBRANCH  23  24
ENDBRANCH   1  23
TORSDOF 17
