REMARK SMILES O=C1C[C@H](c2cn[nH]c2C(=O)OCCOCCOC(=O)c2ccc(-c3c4nc(c(-c5ccccc5)c5ccc([nH]5)c(-c5ccccc5)c5nc(c(-c6ccccc6)c6ccc3[nH]6)C=C5)C=C4)cc2)c2c(-c3cccs3)n[nH]c2N1
REMARK SMILES IDX 15 1 14 2 13 3 12 4 10 5 11 6 9 7 5 8 6 9 7 10 8 11 4 13
REMARK SMILES IDX 1 14 2 15 3 16 79 17 78 18 69 20 77 21 70 22 76 23 71 25
REMARK SMILES IDX 72 26 75 27 73 28 74 29 16 30 17 31 18 32 19 33 20 34 21 35
REMARK SMILES IDX 22 36 68 37 23 38 67 39 24 40 25 41 26 42 61 43 27 44 66 45
REMARK SMILES IDX 60 46 62 47 28 48 65 49 59 50 58 51 29 53 51 54 36 55 50 56
REMARK SMILES IDX 37 57 40 58 49 59 63 60 38 61 39 62 48 64 64 65 41 66 30 67
REMARK SMILES IDX 31 68 35 69 32 70 34 71 33 72 52 73 53 74 57 75 54 76 56 77
REMARK SMILES IDX 55 78 42 79 43 80 47 81 44 82 46 83 45 84
REMARK H PARENT 8 12 79 19 77 24 62 52 40 63
REMARK Flexibility Score: inf
ROOT
ATOM      1  O   UNL     1       5.987  -2.808  -4.258  1.00  0.00    -0.374 OA
ENDROOT
BRANCH   1   2
ATOM      2  C   UNL     1       6.353  -2.995  -2.887  1.00  0.00     0.202 C 
BRANCH   2   3
ATOM      3  C   UNL     1       7.127  -1.851  -2.242  1.00  0.00     0.261 C 
BRANCH   3   4
ATOM      4  O   UNL     1       6.267  -0.720  -1.984  1.00  0.00    -0.459 OA
BRANCH   4   5
ATOM      5  C   UNL     1       6.639   0.435  -2.591  1.00  0.00     0.356 C 
ATOM      6  O   UNL     1       7.603   0.549  -3.336  1.00  0.00    -0.244 OA
BRANCH   5   7
ATOM      7  C   UNL     1       5.661   1.482  -2.434  1.00  0.00     0.147 A 
ATOM      8  C   UNL     1       4.787   1.973  -1.460  1.00  0.00     0.013 A 
ATOM      9  C   UNL     1       4.232   3.132  -2.089  1.00  0.00     0.140 A 
ATOM     10  N   UNL     1       4.646   3.316  -3.336  1.00  0.00    -0.183 NA
ATOM     11  N   UNL     1       5.527   2.332  -3.508  1.00  0.00    -0.271 N 
ATOM     12  H   UNL     1       6.043   2.221  -4.339  1.00  0.00     0.190 HD
BRANCH   8  13
ATOM     13  C   UNL     1       4.474   1.641  -0.007  1.00  0.00     0.069 C 
ATOM     14  O   UNL     1       1.120   0.037   0.093  1.00  0.00    -0.275 OA
ATOM     15  C   UNL     1       2.323   0.192   0.309  1.00  0.00     0.226 C 
ATOM     16  C   UNL     1       2.951   1.576   0.271  1.00  0.00     0.114 C 
ATOM     17  N   UNL     1       3.099  -0.868   0.713  1.00  0.00    -0.311 N 
ATOM     18  C   UNL     1       4.446  -0.708   0.829  1.00  0.00     0.132 A 
ATOM     19  H   UNL     1       2.684  -1.737   0.918  1.00  0.00     0.171 HD
ATOM     20  C   UNL     1       5.135   0.439   0.552  1.00  0.00     0.031 A 
ATOM     21  N   UNL     1       5.360  -1.653   1.176  1.00  0.00    -0.262 N 
ATOM     22  C   UNL     1       6.475   0.126   0.875  1.00  0.00     0.108 A 
ATOM     23  N   UNL     1       6.622  -1.175   1.175  1.00  0.00    -0.173 NA
ATOM     24  H   UNL     1       5.127  -2.582   1.403  1.00  0.00     0.192 HD
BRANCH  22  25
ATOM     25  C   UNL     1       7.619   1.071   0.742  1.00  0.00     0.055 A 
ATOM     26  C   UNL     1       8.749   0.806   0.002  1.00  0.00     0.022 A 
ATOM     27  S   UNL     1       7.630   2.646   1.398  1.00  0.00    -0.142 S 
ATOM     28  C   UNL     1       9.573   1.963  -0.128  1.00  0.00     0.012 A 
ATOM     29  C   UNL     1       9.109   3.015   0.629  1.00  0.00     0.065 A 
ENDBRANCH  22  25
ENDBRANCH   8  13
ENDBRANCH   5   7
ENDBRANCH   4   5
ENDBRANCH   3   4
ENDBRANCH   2   3
ENDBRANCH   1   2
BRANCH   1  30
ATOM     30  C   UNL     1       5.020  -1.816  -4.583  1.00  0.00     0.202 C 
BRANCH  30  31
ATOM     31  C   UNL     1       3.577  -2.152  -4.270  1.00  0.00     0.261 C 
BRANCH  31  32
ATOM     32  O   UNL     1       3.438  -2.591  -2.935  1.00  0.00    -0.460 OA
BRANCH  32  33
ATOM     33  C   UNL     1       3.286  -3.926  -2.775  1.00  0.00     0.338 C 
ATOM     34  O   UNL     1       3.617  -4.823  -3.520  1.00  0.00    -0.246 OA
BRANCH  33  35
ATOM     35  C   UNL     1       2.469  -4.086  -1.571  1.00  0.00     0.060 A 
ATOM     36  C   UNL     1       2.212  -5.364  -1.077  1.00  0.00     0.016 A 
ATOM     37  C   UNL     1       1.757  -2.964  -1.129  1.00  0.00     0.016 A 
ATOM     38  C   UNL     1       1.074  -5.536  -0.316  1.00  0.00     0.010 A 
ATOM     39  C   UNL     1       0.701  -3.118  -0.292  1.00  0.00     0.010 A 
ATOM     40  C   UNL     1       0.286  -4.411  -0.051  1.00  0.00    -0.014 A 
BRANCH  40  41
ATOM     41  C   UNL     1      -1.071  -4.532   0.406  1.00  0.00     0.031 A 
ATOM     42  C   UNL     1      -1.161  -4.863   1.833  1.00  0.00     0.074 A 
ATOM     43  C   UNL     1      -2.099  -4.135  -0.372  1.00  0.00     0.049 A 
ATOM     44  N   UNL     1      -1.416  -6.019   2.339  1.00  0.00    -0.248 NA
ATOM     45  C   UNL     1      -0.675  -3.866   2.801  1.00  0.00     0.031 C 
ATOM     46  C   UNL     1      -2.078  -3.438  -1.666  1.00  0.00     0.029 A 
ATOM     47  N   UNL     1      -3.418  -4.178  -0.086  1.00  0.00    -0.354 N 
ATOM     48  C   UNL     1      -1.364  -5.831   3.711  1.00  0.00     0.074 A 
ATOM     49  C   UNL     1      -0.659  -4.593   3.919  1.00  0.00     0.031 C 
ATOM     50  C   UNL     1      -3.306  -2.922  -1.919  1.00  0.00     0.029 A 
ATOM     51  C   UNL     1      -4.222  -3.390  -0.894  1.00  0.00     0.049 A 
ATOM     52  H   UNL     1      -3.782  -4.729   0.644  1.00  0.00     0.167 HD
ATOM     53  C   UNL     1      -2.173  -6.543   4.540  1.00  0.00     0.031 A 
ATOM     54  C   UNL     1      -5.532  -3.116  -0.674  1.00  0.00     0.031 A 
ATOM     55  C   UNL     1      -2.813  -7.630   3.837  1.00  0.00     0.049 A 
ATOM     56  C   UNL     1      -6.028  -4.130   0.295  1.00  0.00     0.074 A 
ATOM     57  C   UNL     1      -2.360  -8.747   3.164  1.00  0.00     0.029 A 
ATOM     58  N   UNL     1      -4.092  -7.398   3.378  1.00  0.00    -0.354 N 
ATOM     59  N   UNL     1      -6.113  -5.401   0.015  1.00  0.00    -0.248 NA
ATOM     60  C   UNL     1      -5.931  -3.815   1.715  1.00  0.00     0.031 C 
ATOM     61  C   UNL     1      -3.196  -8.847   2.013  1.00  0.00     0.029 A 
ATOM     62  C   UNL     1      -4.168  -7.844   2.082  1.00  0.00     0.049 A 
ATOM     63  H   UNL     1      -4.824  -6.985   3.890  1.00  0.00     0.167 HD
ATOM     64  C   UNL     1      -5.649  -6.053   1.152  1.00  0.00     0.074 A 
ATOM     65  C   UNL     1      -5.638  -5.028   2.197  1.00  0.00     0.031 C 
ATOM     66  C   UNL     1      -5.028  -7.268   1.067  1.00  0.00     0.031 A 
BRANCH  53  67
ATOM     67  C   UNL     1      -2.718  -6.004   5.835  1.00  0.00    -0.014 A 
ATOM     68  C   UNL     1      -3.517  -6.851   6.620  1.00  0.00     0.009 A 
ATOM     69  C   UNL     1      -2.704  -4.641   6.188  1.00  0.00     0.009 A 
ATOM     70  C   UNL     1      -4.319  -6.346   7.649  1.00  0.00     0.001 A 
ATOM     71  C   UNL     1      -3.471  -4.138   7.240  1.00  0.00     0.001 A 
ATOM     72  C   UNL     1      -4.303  -4.988   7.951  1.00  0.00     0.000 A 
ENDBRANCH  53  67
BRANCH  54  73
ATOM     73  C   UNL     1      -6.272  -1.871  -0.977  1.00  0.00    -0.014 A 
ATOM     74  C   UNL     1      -7.673  -1.856  -1.049  1.00  0.00     0.009 A 
ATOM     75  C   UNL     1      -5.608  -0.629  -0.933  1.00  0.00     0.009 A 
ATOM     76  C   UNL     1      -8.383  -0.645  -1.048  1.00  0.00     0.001 A 
ATOM     77  C   UNL     1      -6.316   0.579  -0.930  1.00  0.00     0.001 A 
ATOM     78  C   UNL     1      -7.706   0.570  -0.974  1.00  0.00     0.000 A 
ENDBRANCH  54  73
BRANCH  66  79
ATOM     79  C   UNL     1      -5.029  -7.973  -0.272  1.00  0.00    -0.014 A 
ATOM     80  C   UNL     1      -4.373  -7.469  -1.411  1.00  0.00     0.009 A 
ATOM     81  C   UNL     1      -5.550  -9.273  -0.331  1.00  0.00     0.009 A 
ATOM     82  C   UNL     1      -4.256  -8.241  -2.574  1.00  0.00     0.001 A 
ATOM     83  C   UNL     1      -5.416 -10.050  -1.484  1.00  0.00     0.001 A 
ATOM     84  C   UNL     1      -4.772  -9.534  -2.606  1.00  0.00     0.000 A 
ENDBRANCH  66  79
ENDBRANCH  40  41
ENDBRANCH  33  35
ENDBRANCH  32  33
ENDBRANCH  31  32
ENDBRANCH  30  31
ENDBRANCH   1  30
TORSDOF 16
