REMARK SMILES O=C(OCCOCCOC(=O)c1ccc(-c2c3nc(c(-c4ccccc4)c4ccc([nH]4)c(-c4ccccc4)c4nc(c(-c5ccccc5)c5ccc2[nH]5)C=C4)C=C3)cc1)C1=Cc2c(cc(Cl)c(Cl)c2Cl)O[C@H]1C(F)(F)F
REMARK SMILES IDX 7 1 6 2 5 3 4 4 3 5 2 6 1 7 60 8 61 9 72 10 62 11 71 12
REMARK SMILES IDX 63 13 69 14 64 15 67 16 70 17 65 18 68 19 66 20 73 21 74 22
REMARK SMILES IDX 75 23 76 24 8 25 9 26 10 27 11 28 12 29 13 30 59 31 14 32
REMARK SMILES IDX 58 33 15 34 16 35 17 36 52 37 18 38 57 39 51 40 53 41 19 42
REMARK SMILES IDX 56 43 50 44 49 45 20 47 42 48 27 49 41 50 28 51 31 52 40 53
REMARK SMILES IDX 54 54 29 55 30 56 39 58 55 59 32 60 21 61 22 62 26 63 23 64
REMARK SMILES IDX 25 65 24 66 43 67 44 68 48 69 45 70 47 71 46 72 33 73 34 74
REMARK SMILES IDX 38 75 35 76 37 77 36 78
REMARK H PARENT 53 46 31 57
REMARK Flexibility Score: inf
ROOT
ATOM      1  C   UNL     1       1.609   1.877  -3.126  1.00  0.00     0.202 C 
ENDROOT
BRANCH   1   2
ATOM      2  O   UNL     1       2.290   1.308  -2.010  1.00  0.00    -0.374 OA
BRANCH   2   3
ATOM      3  C   UNL     1       2.380  -0.113  -2.069  1.00  0.00     0.202 C 
BRANCH   3   4
ATOM      4  C   UNL     1       1.917  -0.764  -0.766  1.00  0.00     0.261 C 
BRANCH   4   5
ATOM      5  O   UNL     1       1.511   0.186   0.237  1.00  0.00    -0.460 OA
BRANCH   5   6
ATOM      6  C   UNL     1       2.284   0.910   1.074  1.00  0.00     0.338 C 
ATOM      7  O   UNL     1       1.746   1.527   1.993  1.00  0.00    -0.246 OA
BRANCH   6   8
ATOM      8  C   UNL     1       3.768   0.842   1.065  1.00  0.00     0.087 C 
ATOM      9  C   UNL     1       4.515   0.222   0.148  1.00  0.00     0.029 C 
ATOM     10  C   UNL     1       4.413   1.344   2.341  1.00  0.00     0.316 C 
ATOM     11  C   UNL     1       5.600  -0.605   0.653  1.00  0.00     0.038 A 
ATOM     12  O   UNL     1       5.803   0.912   2.523  1.00  0.00    -0.475 OA
ATOM     13  C   UNL     1       6.187  -0.217   1.854  1.00  0.00     0.131 A 
ATOM     14  C   UNL     1       5.962  -1.832   0.057  1.00  0.00     0.072 A 
ATOM     15  C   UNL     1       7.199  -0.987   2.413  1.00  0.00     0.069 A 
ATOM     16  C   UNL     1       6.937  -2.646   0.652  1.00  0.00     0.079 A 
ATOM     17  Cl  UNL     1       5.134  -2.375  -1.368  1.00  0.00    -0.082 Cl
ATOM     18  C   UNL     1       7.566  -2.202   1.823  1.00  0.00     0.064 A 
ATOM     19  Cl  UNL     1       7.332  -4.195  -0.032  1.00  0.00    -0.081 Cl
ATOM     20  Cl  UNL     1       8.790  -3.128   2.616  1.00  0.00    -0.083 Cl
BRANCH  10  21
ATOM     21  C   UNL     1       4.357   2.897   2.407  1.00  0.00     0.430 C 
ATOM     22  F   UNL     1       3.518   3.452   1.501  1.00  0.00    -0.167 F 
ATOM     23  F   UNL     1       3.967   3.319   3.633  1.00  0.00    -0.167 F 
ATOM     24  F   UNL     1       5.574   3.451   2.168  1.00  0.00    -0.167 F 
ENDBRANCH  10  21
ENDBRANCH   6   8
ENDBRANCH   5   6
ENDBRANCH   4   5
ENDBRANCH   3   4
ENDBRANCH   2   3
ENDBRANCH   1   2
BRANCH   1  25
ATOM     25  C   UNL     1       2.522   2.079  -4.340  1.00  0.00     0.261 C 
BRANCH  25  26
ATOM     26  O   UNL     1       3.115   0.836  -4.768  1.00  0.00    -0.460 OA
BRANCH  26  27
ATOM     27  C   UNL     1       4.459   0.715  -4.569  1.00  0.00     0.338 C 
ATOM     28  O   UNL     1       5.203   1.562  -4.135  1.00  0.00    -0.246 OA
BRANCH  27  29
ATOM     29  C   UNL     1       4.905  -0.682  -4.866  1.00  0.00     0.060 A 
ATOM     30  C   UNL     1       6.179  -1.077  -4.430  1.00  0.00     0.016 A 
ATOM     31  C   UNL     1       4.093  -1.609  -5.528  1.00  0.00     0.016 A 
ATOM     32  C   UNL     1       6.632  -2.388  -4.637  1.00  0.00     0.010 A 
ATOM     33  C   UNL     1       4.548  -2.917  -5.740  1.00  0.00     0.010 A 
ATOM     34  C   UNL     1       5.821  -3.317  -5.298  1.00  0.00    -0.014 A 
BRANCH  34  35
ATOM     35  C   UNL     1       6.318  -4.675  -5.644  1.00  0.00     0.031 A 
ATOM     36  C   UNL     1       6.976  -4.890  -6.978  1.00  0.00     0.074 A 
ATOM     37  C   UNL     1       6.136  -5.725  -4.820  1.00  0.00     0.049 A 
ATOM     38  N   UNL     1       7.388  -6.004  -7.527  1.00  0.00    -0.248 NA
ATOM     39  C   UNL     1       7.192  -3.691  -7.803  1.00  0.00     0.031 C 
ATOM     40  C   UNL     1       5.545  -5.665  -3.487  1.00  0.00     0.029 A 
ATOM     41  N   UNL     1       6.417  -7.059  -5.001  1.00  0.00    -0.354 N 
ATOM     42  C   UNL     1       7.910  -5.643  -8.762  1.00  0.00     0.074 A 
ATOM     43  C   UNL     1       7.745  -4.210  -8.889  1.00  0.00     0.031 C 
ATOM     44  C   UNL     1       5.488  -6.908  -2.975  1.00  0.00     0.029 A 
ATOM     45  C   UNL     1       6.002  -7.857  -3.961  1.00  0.00     0.049 A 
ATOM     46  H   UNL     1       6.873  -7.410  -5.800  1.00  0.00     0.167 HD
ATOM     47  C   UNL     1       8.472  -6.430  -9.709  1.00  0.00     0.031 A 
ATOM     48  C   UNL     1       6.003  -9.200  -3.831  1.00  0.00     0.031 A 
ATOM     49  C   UNL     1       8.610  -7.858  -9.613  1.00  0.00     0.049 A 
ATOM     50  C   UNL     1       6.536 -10.060  -4.950  1.00  0.00     0.074 A 
ATOM     51  C   UNL     1       9.189  -8.727 -10.523  1.00  0.00     0.029 A 
ATOM     52  N   UNL     1       8.146  -8.629  -8.561  1.00  0.00    -0.354 N 
ATOM     53  N   UNL     1       7.085  -9.700  -6.085  1.00  0.00    -0.248 NA
ATOM     54  C   UNL     1       6.446 -11.519  -4.769  1.00  0.00     0.031 C 
ATOM     55  C   UNL     1       9.014 -10.032 -10.052  1.00  0.00     0.029 A 
ATOM     56  C   UNL     1       8.384  -9.969  -8.820  1.00  0.00     0.049 A 
ATOM     57  H   UNL     1       7.713  -8.277  -7.750  1.00  0.00     0.167 HD
ATOM     58  C   UNL     1       7.429 -10.881  -6.733  1.00  0.00     0.074 A 
ATOM     59  C   UNL     1       7.048 -11.969  -5.860  1.00  0.00     0.031 C 
ATOM     60  C   UNL     1       8.007 -11.049  -7.947  1.00  0.00     0.031 A 
BRANCH  47  61
ATOM     61  C   UNL     1       8.949  -5.761 -10.965  1.00  0.00    -0.014 A 
ATOM     62  C   UNL     1      10.117  -4.984 -10.974  1.00  0.00     0.009 A 
ATOM     63  C   UNL     1       8.247  -5.956 -12.164  1.00  0.00     0.009 A 
ATOM     64  C   UNL     1      10.559  -4.394 -12.159  1.00  0.00     0.001 A 
ATOM     65  C   UNL     1       8.705  -5.385 -13.351  1.00  0.00     0.001 A 
ATOM     66  C   UNL     1       9.857  -4.600 -13.347  1.00  0.00     0.000 A 
ENDBRANCH  47  61
BRANCH  48  67
ATOM     67  C   UNL     1       5.432  -9.849  -2.617  1.00  0.00    -0.014 A 
ATOM     68  C   UNL     1       6.250 -10.585  -1.746  1.00  0.00     0.009 A 
ATOM     69  C   UNL     1       4.050  -9.809  -2.373  1.00  0.00     0.009 A 
ATOM     70  C   UNL     1       5.692 -11.304  -0.685  1.00  0.00     0.001 A 
ATOM     71  C   UNL     1       3.498 -10.500  -1.291  1.00  0.00     0.001 A 
ATOM     72  C   UNL     1       4.317 -11.260  -0.459  1.00  0.00     0.000 A 
ENDBRANCH  48  67
BRANCH  60  73
ATOM     73  C   UNL     1       8.293 -12.455  -8.399  1.00  0.00    -0.014 A 
ATOM     74  C   UNL     1       7.259 -13.321  -8.787  1.00  0.00     0.009 A 
ATOM     75  C   UNL     1       9.621 -12.901  -8.492  1.00  0.00     0.009 A 
ATOM     76  C   UNL     1       7.548 -14.614  -9.232  1.00  0.00     0.001 A 
ATOM     77  C   UNL     1       9.909 -14.182  -8.966  1.00  0.00     0.001 A 
ATOM     78  C   UNL     1       8.872 -15.040  -9.327  1.00  0.00     0.000 A 
ENDBRANCH  60  73
ENDBRANCH  34  35
ENDBRANCH  27  29
ENDBRANCH  26  27
ENDBRANCH  25  26
ENDBRANCH   1  25
TORSDOF 15
