REMARK SMILES O=C(OCCOCCOC(=O)[C@H]1CCC[N@@H+]1Cc1ccccc1[N+](=O)[O-])c1ccc(-c2c3nc(c(-c4ccccc4)c4ccc([nH]4)c(-c4ccccc4)c4nc(c(-c5ccccc5)c5ccc2[nH]5)C=C4)C=C3)cc1
REMARK SMILES IDX 7 1 6 2 5 3 4 4 3 5 2 6 1 7 27 8 28 9 74 10 29 11 73 12
REMARK SMILES IDX 30 13 31 14 32 15 67 16 33 17 72 18 66 19 68 20 34 21 71 22
REMARK SMILES IDX 65 23 64 24 35 26 57 27 42 28 56 29 43 30 46 31 55 32 69 33
REMARK SMILES IDX 44 34 45 35 54 37 70 38 47 39 36 40 37 41 41 42 38 43 40 44
REMARK SMILES IDX 39 45 58 46 59 47 63 48 60 49 62 50 61 51 48 52 49 53 53 54
REMARK SMILES IDX 50 55 52 56 51 57 8 58 9 59 10 60 11 61 12 62 13 63 16 64
REMARK SMILES IDX 14 65 15 66 17 68 18 69 19 70 23 71 20 72 22 73 21 74 24 75
REMARK SMILES IDX 25 76 26 77
REMARK H PARENT 68 25 46 36 16 67
REMARK Flexibility Score: inf
ROOT
ATOM      1  C   UNL     1       7.897  -1.937   2.622  1.00  0.00     0.202 C 
ENDROOT
BRANCH   1   2
ATOM      2  O   UNL     1       8.089  -3.331   2.349  1.00  0.00    -0.374 OA
BRANCH   2   3
ATOM      3  C   UNL     1       7.395  -4.228   3.204  1.00  0.00     0.202 C 
BRANCH   3   4
ATOM      4  C   UNL     1       7.829  -4.378   4.675  1.00  0.00     0.261 C 
BRANCH   4   5
ATOM      5  O   UNL     1       8.238  -3.135   5.293  1.00  0.00    -0.460 OA
BRANCH   5   6
ATOM      6  C   UNL     1       9.521  -2.812   5.616  1.00  0.00     0.338 C 
ATOM      7  O   UNL     1       9.788  -1.855   6.339  1.00  0.00    -0.246 OA
BRANCH   6   8
ATOM      8  C   UNL     1      10.604  -3.663   5.088  1.00  0.00     0.060 A 
ATOM      9  C   UNL     1      10.562  -4.048   3.759  1.00  0.00     0.016 A 
ATOM     10  C   UNL     1      11.650  -4.111   5.886  1.00  0.00     0.016 A 
ATOM     11  C   UNL     1      11.300  -5.102   3.297  1.00  0.00     0.010 A 
ATOM     12  C   UNL     1      12.582  -4.999   5.338  1.00  0.00     0.010 A 
ATOM     13  C   UNL     1      12.383  -5.522   4.048  1.00  0.00    -0.014 A 
BRANCH  13  14
ATOM     14  C   UNL     1      13.284  -6.498   3.418  1.00  0.00     0.031 A 
ATOM     15  C   UNL     1      13.475  -7.822   4.073  1.00  0.00     0.074 A 
ATOM     16  C   UNL     1      13.834  -6.204   2.223  1.00  0.00     0.049 A 
ATOM     17  N   UNL     1      14.365  -8.738   3.821  1.00  0.00    -0.248 NA
ATOM     18  C   UNL     1      12.548  -8.154   5.168  1.00  0.00     0.031 C 
ATOM     19  C   UNL     1      13.581  -4.982   1.441  1.00  0.00     0.029 A 
ATOM     20  N   UNL     1      14.694  -6.916   1.434  1.00  0.00    -0.354 N 
ATOM     21  C   UNL     1      14.166  -9.716   4.783  1.00  0.00     0.074 A 
ATOM     22  C   UNL     1      13.052  -9.298   5.604  1.00  0.00     0.031 C 
ATOM     23  C   UNL     1      14.224  -5.059   0.271  1.00  0.00     0.029 A 
ATOM     24  C   UNL     1      15.054  -6.250   0.287  1.00  0.00     0.049 A 
ATOM     25  H   UNL     1      15.022  -7.815   1.665  1.00  0.00     0.167 HD
ATOM     26  C   UNL     1      14.891 -10.842   4.970  1.00  0.00     0.031 A 
ATOM     27  C   UNL     1      16.019  -6.525  -0.606  1.00  0.00     0.031 A 
ATOM     28  C   UNL     1      15.989 -11.201   4.114  1.00  0.00     0.049 A 
ATOM     29  C   UNL     1      16.861  -7.734  -0.340  1.00  0.00     0.074 A 
ATOM     30  C   UNL     1      16.853 -12.274   4.210  1.00  0.00     0.029 A 
ATOM     31  N   UNL     1      16.364 -10.476   2.987  1.00  0.00    -0.354 N 
ATOM     32  N   UNL     1      16.752  -8.609   0.634  1.00  0.00    -0.248 NA
ATOM     33  C   UNL     1      17.970  -7.982  -1.262  1.00  0.00     0.031 C 
ATOM     34  C   UNL     1      17.781 -12.169   3.166  1.00  0.00     0.029 A 
ATOM     35  C   UNL     1      17.460 -11.065   2.387  1.00  0.00     0.049 A 
ATOM     36  H   UNL     1      15.915  -9.662   2.665  1.00  0.00     0.167 HD
ATOM     37  C   UNL     1      17.777  -9.519   0.443  1.00  0.00     0.074 A 
ATOM     38  C   UNL     1      18.482  -9.097  -0.756  1.00  0.00     0.031 C 
ATOM     39  C   UNL     1      18.115 -10.600   1.188  1.00  0.00     0.031 A 
BRANCH  26  40
ATOM     40  C   UNL     1      14.581 -11.648   6.199  1.00  0.00    -0.014 A 
ATOM     41  C   UNL     1      13.384 -12.368   6.338  1.00  0.00     0.009 A 
ATOM     42  C   UNL     1      15.476 -11.608   7.280  1.00  0.00     0.009 A 
ATOM     43  C   UNL     1      13.065 -12.979   7.555  1.00  0.00     0.001 A 
ATOM     44  C   UNL     1      15.169 -12.244   8.483  1.00  0.00     0.001 A 
ATOM     45  C   UNL     1      13.956 -12.915   8.626  1.00  0.00     0.000 A 
ENDBRANCH  26  40
BRANCH  27  46
ATOM     46  C   UNL     1      16.288  -5.581  -1.724  1.00  0.00    -0.014 A 
ATOM     47  C   UNL     1      16.037  -5.945  -3.053  1.00  0.00     0.009 A 
ATOM     48  C   UNL     1      16.744  -4.277  -1.457  1.00  0.00     0.009 A 
ATOM     49  C   UNL     1      16.243  -5.027  -4.089  1.00  0.00     0.001 A 
ATOM     50  C   UNL     1      16.916  -3.352  -2.489  1.00  0.00     0.001 A 
ATOM     51  C   UNL     1      16.672  -3.730  -3.806  1.00  0.00     0.000 A 
ENDBRANCH  27  46
BRANCH  39  52
ATOM     52  C   UNL     1      19.271 -11.412   0.694  1.00  0.00    -0.014 A 
ATOM     53  C   UNL     1      20.592 -10.971   0.861  1.00  0.00     0.009 A 
ATOM     54  C   UNL     1      19.029 -12.668   0.118  1.00  0.00     0.009 A 
ATOM     55  C   UNL     1      21.653 -11.773   0.443  1.00  0.00     0.001 A 
ATOM     56  C   UNL     1      20.092 -13.478  -0.272  1.00  0.00     0.001 A 
ATOM     57  C   UNL     1      21.402 -13.027  -0.114  1.00  0.00     0.000 A 
ENDBRANCH  39  52
ENDBRANCH  13  14
ENDBRANCH   6   8
ENDBRANCH   5   6
ENDBRANCH   4   5
ENDBRANCH   3   4
ENDBRANCH   2   3
ENDBRANCH   1   2
BRANCH   1  58
ATOM     58  C   UNL     1       7.199  -1.262   1.447  1.00  0.00     0.261 C 
BRANCH  58  59
ATOM     59  O   UNL     1       5.808  -1.612   1.508  1.00  0.00    -0.459 OA
BRANCH  59  60
ATOM     60  C   UNL     1       5.468  -2.757   0.862  1.00  0.00     0.365 C 
ATOM     61  O   UNL     1       6.151  -3.296  -0.005  1.00  0.00    -0.245 OA
BRANCH  60  62
ATOM     62  C   UNL     1       4.122  -3.332   1.328  1.00  0.00     0.295 C 
ATOM     63  C   UNL     1       4.280  -4.819   1.662  1.00  0.00     0.083 C 
ATOM     64  N   UNL     1       3.580  -2.695   2.559  1.00  0.00    -0.319 N 
ATOM     65  C   UNL     1       4.096  -4.946   3.171  1.00  0.00     0.068 C 
ATOM     66  C   UNL     1       3.965  -3.523   3.698  1.00  0.00     0.263 C 
ATOM     67  H   UNL     1       3.994  -1.767   2.649  1.00  0.00     0.349 HD
BRANCH  64  68
ATOM     68  C   UNL     1       2.143  -2.375   2.518  1.00  0.00     0.307 C 
BRANCH  68  69
ATOM     69  C   UNL     1       1.222  -3.546   2.225  1.00  0.00     0.084 A 
ATOM     70  C   UNL     1       0.962  -3.853   0.875  1.00  0.00     0.017 A 
ATOM     71  C   UNL     1       0.739  -4.447   3.194  1.00  0.00     0.278 A 
ATOM     72  C   UNL     1       0.378  -5.066   0.507  1.00  0.00     0.001 A 
ATOM     73  C   UNL     1       0.162  -5.673   2.828  1.00  0.00     0.086 A 
ATOM     74  C   UNL     1       0.007  -5.988   1.481  1.00  0.00     0.007 A 
BRANCH  71  75
ATOM     75  N   UNL     1       0.856  -4.178   4.624  1.00  0.00     0.063 N 
ATOM     76  O   UNL     1       1.301  -5.090   5.338  1.00  0.00    -0.258 OA
ATOM     77  O   UNL     1       0.492  -3.068   5.030  1.00  0.00    -0.258 OA
ENDBRANCH  71  75
ENDBRANCH  68  69
ENDBRANCH  64  68
ENDBRANCH  60  62
ENDBRANCH  59  60
ENDBRANCH  58  59
ENDBRANCH   1  58
TORSDOF 17
