REMARK SMILES CC[C@@H]1CCC[C@@](Cc2ccccn2)(C(=O)OCCOCCOC(=O)c2ccc(-c3c4nc(c(-c5ccccc5)c5ccc([nH]5)c(-c5ccccc5)c5nc(c(-c6ccccc6)c6ccc3[nH]6)C=C5)C=C4)cc2)C1
REMARK SMILES IDX 20 1 19 2 18 3 17 4 15 5 16 6 7 7 3 8 4 9 74 10 5 11 6 12
REMARK SMILES IDX 2 13 1 14 8 15 9 16 10 17 14 18 11 19 13 20 12 21 21 22
REMARK SMILES IDX 22 23 23 24 24 25 25 26 26 27 27 28 73 29 28 30 72 31 29 32
REMARK SMILES IDX 30 33 31 34 66 35 32 36 71 37 65 38 67 39 33 40 70 41 64 42
REMARK SMILES IDX 63 43 34 45 56 46 41 47 55 48 42 49 45 50 54 51 68 52 43 53
REMARK SMILES IDX 44 54 53 56 69 57 46 58 35 59 36 60 40 61 37 62 39 63 38 64
REMARK SMILES IDX 57 65 58 66 62 67 59 68 61 69 60 70 47 71 48 72 52 73 49 74
REMARK SMILES IDX 51 75 50 76
REMARK H PARENT 67 44 45 55
REMARK Flexibility Score: inf
ROOT
ATOM      1  O   UNL     1       5.113   1.343   4.122  1.00  0.00    -0.374 OA
ENDROOT
BRANCH   1   2
ATOM      2  C   UNL     1       5.223   2.678   4.608  1.00  0.00     0.202 C 
BRANCH   2   3
ATOM      3  C   UNL     1       4.393   3.748   3.893  1.00  0.00     0.261 C 
BRANCH   3   4
ATOM      4  O   UNL     1       2.966   3.545   3.941  1.00  0.00    -0.463 OA
BRANCH   4   5
ATOM      5  C   UNL     1       2.366   3.385   2.728  1.00  0.00     0.312 C 
ATOM      6  O   UNL     1       2.987   3.274   1.674  1.00  0.00    -0.252 OA
BRANCH   5   7
ATOM      7  C   UNL     1       0.832   3.472   2.760  1.00  0.00     0.074 C 
ATOM      8  C   UNL     1       0.446   0.972   2.266  1.00  0.00    -0.010 C 
ATOM      9  C   UNL     1      -0.335   0.815   3.575  1.00  0.00     0.003 C 
ATOM     10  C   UNL     1       0.287   2.415   1.752  1.00  0.00     0.022 C 
ATOM     11  C   UNL     1       0.132   1.810   4.630  1.00  0.00     0.001 C 
ATOM     12  C   UNL     1       0.157   3.253   4.134  1.00  0.00     0.019 C 
BRANCH   8  13
ATOM     13  C   UNL     1      -0.003  -0.090   1.247  1.00  0.00     0.000 C 
ATOM     14  C   UNL     1       0.825  -0.085  -0.032  1.00  0.00     0.004 C 
ENDBRANCH   8  13
BRANCH   7  15
ATOM     15  C   UNL     1       0.497   4.892   2.205  1.00  0.00     0.075 C 
BRANCH  15  16
ATOM     16  C   UNL     1       0.791   6.030   3.157  1.00  0.00     0.041 A 
ATOM     17  C   UNL     1       2.070   6.570   3.267  1.00  0.00     0.024 A 
ATOM     18  N   UNL     1      -0.241   6.455   3.925  1.00  0.00    -0.261 NA
ATOM     19  C   UNL     1       2.306   7.555   4.222  1.00  0.00     0.003 A 
ATOM     20  C   UNL     1       0.011   7.429   4.827  1.00  0.00     0.111 A 
ATOM     21  C   UNL     1       1.258   7.996   5.019  1.00  0.00     0.020 A 
ENDBRANCH  15  16
ENDBRANCH   7  15
ENDBRANCH   5   7
ENDBRANCH   4   5
ENDBRANCH   3   4
ENDBRANCH   2   3
ENDBRANCH   1   2
BRANCH   1  22
ATOM     22  C   UNL     1       3.887   0.658   4.378  1.00  0.00     0.202 C 
BRANCH  22  23
ATOM     23  C   UNL     1       3.596   0.349   5.849  1.00  0.00     0.261 C 
BRANCH  23  24
ATOM     24  O   UNL     1       3.372   1.561   6.593  1.00  0.00    -0.460 OA
BRANCH  24  25
ATOM     25  C   UNL     1       3.777   1.487   7.880  1.00  0.00     0.338 C 
ATOM     26  O   UNL     1       4.078   0.484   8.504  1.00  0.00    -0.246 OA
BRANCH  25  27
ATOM     27  C   UNL     1       4.002   2.839   8.415  1.00  0.00     0.060 A 
ATOM     28  C   UNL     1       5.327   3.277   8.522  1.00  0.00     0.016 A 
ATOM     29  C   UNL     1       2.958   3.576   8.976  1.00  0.00     0.016 A 
ATOM     30  C   UNL     1       5.621   4.414   9.272  1.00  0.00     0.010 A 
ATOM     31  C   UNL     1       3.256   4.719   9.729  1.00  0.00     0.010 A 
ATOM     32  C   UNL     1       4.594   5.103   9.933  1.00  0.00    -0.014 A 
BRANCH  32  33
ATOM     33  C   UNL     1       4.970   6.067  10.998  1.00  0.00     0.031 A 
ATOM     34  C   UNL     1       5.028   5.586  12.425  1.00  0.00     0.074 A 
ATOM     35  C   UNL     1       5.354   7.320  10.702  1.00  0.00     0.049 A 
ATOM     36  N   UNL     1       5.479   6.201  13.490  1.00  0.00    -0.248 NA
ATOM     37  C   UNL     1       4.516   4.231  12.684  1.00  0.00     0.031 C 
ATOM     38  C   UNL     1       5.365   7.910   9.366  1.00  0.00     0.029 A 
ATOM     39  N   UNL     1       5.832   8.315  11.519  1.00  0.00    -0.354 N 
ATOM     40  C   UNL     1       5.321   5.302  14.538  1.00  0.00     0.074 A 
ATOM     41  C   UNL     1       4.691   4.120  13.992  1.00  0.00     0.031 C 
ATOM     42  C   UNL     1       5.837   9.167   9.452  1.00  0.00     0.029 A 
ATOM     43  C   UNL     1       6.159   9.466  10.848  1.00  0.00     0.049 A 
ATOM     44  H   UNL     1       5.930   8.212  12.493  1.00  0.00     0.167 HD
ATOM     45  C   UNL     1       5.680   5.435  15.837  1.00  0.00     0.031 A 
ATOM     46  C   UNL     1       6.672  10.625  11.302  1.00  0.00     0.031 A 
ATOM     47  C   UNL     1       6.283   6.611  16.401  1.00  0.00     0.049 A 
ATOM     48  C   UNL     1       7.031  10.767  12.756  1.00  0.00     0.074 A 
ATOM     49  C   UNL     1       6.681   6.838  17.708  1.00  0.00     0.029 A 
ATOM     50  N   UNL     1       6.566   7.766  15.690  1.00  0.00    -0.354 N 
ATOM     51  N   UNL     1       6.920   9.892  13.725  1.00  0.00    -0.248 NA
ATOM     52  C   UNL     1       7.612  12.053  13.170  1.00  0.00     0.031 C 
ATOM     53  C   UNL     1       7.171   8.146  17.795  1.00  0.00     0.029 A 
ATOM     54  C   UNL     1       7.118   8.716  16.533  1.00  0.00     0.049 A 
ATOM     55  H   UNL     1       6.400   7.893  14.728  1.00  0.00     0.167 HD
ATOM     56  C   UNL     1       7.435  10.511  14.857  1.00  0.00     0.074 A 
ATOM     57  C   UNL     1       7.873  11.831  14.451  1.00  0.00     0.031 C 
ATOM     58  C   UNL     1       7.541  10.028  16.120  1.00  0.00     0.031 A 
BRANCH  45  59
ATOM     59  C   UNL     1       5.402   4.267  16.740  1.00  0.00    -0.014 A 
ATOM     60  C   UNL     1       6.175   3.096  16.666  1.00  0.00     0.009 A 
ATOM     61  C   UNL     1       4.357   4.336  17.672  1.00  0.00     0.009 A 
ATOM     62  C   UNL     1       5.880   2.003  17.483  1.00  0.00     0.001 A 
ATOM     63  C   UNL     1       4.080   3.249  18.504  1.00  0.00     0.001 A 
ATOM     64  C   UNL     1       4.834   2.081  18.402  1.00  0.00     0.000 A 
ENDBRANCH  45  59
BRANCH  46  65
ATOM     65  C   UNL     1       6.896  11.747  10.357  1.00  0.00    -0.014 A 
ATOM     66  C   UNL     1       8.191  12.089   9.941  1.00  0.00     0.009 A 
ATOM     67  C   UNL     1       5.805  12.480   9.865  1.00  0.00     0.009 A 
ATOM     68  C   UNL     1       8.390  13.156   9.062  1.00  0.00     0.001 A 
ATOM     69  C   UNL     1       6.006  13.533   8.970  1.00  0.00     0.001 A 
ATOM     70  C   UNL     1       7.298  13.873   8.574  1.00  0.00     0.000 A 
ENDBRANCH  46  65
BRANCH  58  71
ATOM     71  C   UNL     1       8.172  10.924  17.148  1.00  0.00    -0.014 A 
ATOM     72  C   UNL     1       7.484  12.030  17.670  1.00  0.00     0.009 A 
ATOM     73  C   UNL     1       9.462  10.638  17.622  1.00  0.00     0.009 A 
ATOM     74  C   UNL     1       8.091  12.854  18.621  1.00  0.00     0.001 A 
ATOM     75  C   UNL     1      10.057  11.450  18.590  1.00  0.00     0.001 A 
ATOM     76  C   UNL     1       9.375  12.562  19.081  1.00  0.00     0.000 A 
ENDBRANCH  58  71
ENDBRANCH  32  33
ENDBRANCH  25  27
ENDBRANCH  24  25
ENDBRANCH  23  24
ENDBRANCH  22  23
ENDBRANCH   1  22
TORSDOF 17
