REMARK SMILES CC(C)CSc1cc2c(cc1Cl)C=C(C(=O)OCCOCCOC(=O)c1ccc(-c3c4nc(c(-c5ccccc5)c5ccc([nH]5)c(-c5ccccc5)c5nc(c(-c6ccccc6)c6ccc3[nH]6)C=C5)C=C4)cc1)[C@@H](C(F)(F)F)O2
REMARK SMILES IDX 19 1 18 2 17 3 15 4 16 5 14 6 6 7 7 8 11 9 8 10 10 11 12 12
REMARK SMILES IDX 9 13 79 14 13 15 74 16 5 17 4 18 2 19 1 20 3 21 75 22 76 23
REMARK SMILES IDX 77 24 78 25 20 26 21 27 22 28 23 29 24 30 25 31 26 32 27 33
REMARK SMILES IDX 73 34 28 35 72 36 29 37 30 38 31 39 66 40 32 41 71 42 65 43
REMARK SMILES IDX 67 44 33 45 70 46 64 47 63 48 34 50 56 51 41 52 55 53 42 54
REMARK SMILES IDX 45 55 54 56 68 57 43 58 44 59 53 61 69 62 46 63 35 64 36 65
REMARK SMILES IDX 40 66 37 67 39 68 38 69 57 70 58 71 62 72 59 73 61 74 60 75
REMARK SMILES IDX 47 76 48 77 52 78 49 79 51 80 50 81
REMARK H PARENT 67 49 45 60
REMARK Flexibility Score: inf
ROOT
ATOM      1  C   UNL     1       0.376  10.363   0.742  1.00  0.00     0.202 C 
ENDROOT
BRANCH   1   2
ATOM      2  C   UNL     1       0.310  10.001  -0.748  1.00  0.00     0.261 C 
BRANCH   2   3
ATOM      3  O   UNL     1      -0.386   8.767  -0.992  1.00  0.00    -0.460 OA
BRANCH   3   4
ATOM      4  C   UNL     1       0.374   7.802  -1.564  1.00  0.00     0.338 C 
ATOM      5  O   UNL     1       1.499   7.919  -2.020  1.00  0.00    -0.246 OA
BRANCH   4   6
ATOM      6  C   UNL     1      -0.287   6.497  -1.409  1.00  0.00     0.087 C 
ATOM      7  C   UNL     1      -0.984   1.570  -0.632  1.00  0.00     0.030 A 
ATOM      8  C   UNL     1      -1.637   2.573  -1.390  1.00  0.00     0.063 A 
ATOM      9  C   UNL     1      -0.030   2.005   0.301  1.00  0.00     0.055 A 
ATOM     10  C   UNL     1      -1.265   3.918  -1.323  1.00  0.00     0.129 A 
ATOM     11  C   UNL     1       0.398   3.342   0.306  1.00  0.00     0.033 A 
ATOM     12  Cl  UNL     1       0.679   1.050   1.544  1.00  0.00    -0.083 Cl
ATOM     13  C   UNL     1      -0.184   4.284  -0.538  1.00  0.00     0.019 A 
ATOM     14  O   UNL     1      -1.974   4.797  -2.091  1.00  0.00    -0.475 OA
ATOM     15  C   UNL     1       0.378   5.612  -0.658  1.00  0.00     0.027 C 
ATOM     16  C   UNL     1      -1.595   6.207  -2.086  1.00  0.00     0.316 C 
BRANCH   7  17
ATOM     17  S   UNL     1      -1.460  -0.079  -1.167  1.00  0.00    -0.124 SA
BRANCH  17  18
ATOM     18  C   UNL     1      -0.866  -1.318   0.029  1.00  0.00     0.078 C 
BRANCH  18  19
ATOM     19  C   UNL     1       0.405  -2.102  -0.367  1.00  0.00    -0.007 C 
ATOM     20  C   UNL     1       1.681  -1.282  -0.558  1.00  0.00     0.008 C 
ATOM     21  C   UNL     1       0.659  -3.183   0.693  1.00  0.00     0.008 C 
ENDBRANCH  18  19
ENDBRANCH  17  18
ENDBRANCH   7  17
BRANCH  16  22
ATOM     22  C   UNL     1      -1.637   6.693  -3.542  1.00  0.00     0.430 C 
ATOM     23  F   UNL     1      -2.841   6.434  -4.106  1.00  0.00    -0.167 F 
ATOM     24  F   UNL     1      -1.450   8.031  -3.629  1.00  0.00    -0.167 F 
ATOM     25  F   UNL     1      -0.693   6.095  -4.301  1.00  0.00    -0.167 F 
ENDBRANCH  16  22
ENDBRANCH   4   6
ENDBRANCH   3   4
ENDBRANCH   2   3
ENDBRANCH   1   2
BRANCH   1  26
ATOM     26  O   UNL     1       0.879   9.386   1.647  1.00  0.00    -0.374 OA
BRANCH  26  27
ATOM     27  C   UNL     1       0.076   8.241   1.930  1.00  0.00     0.202 C 
BRANCH  27  28
ATOM     28  C   UNL     1      -1.268   8.435   2.644  1.00  0.00     0.261 C 
BRANCH  28  29
ATOM     29  O   UNL     1      -2.225   9.148   1.841  1.00  0.00    -0.460 OA
BRANCH  29  30
ATOM     30  C   UNL     1      -2.616  10.346   2.346  1.00  0.00     0.338 C 
ATOM     31  O   UNL     1      -2.277  10.857   3.397  1.00  0.00    -0.246 OA
BRANCH  30  32
ATOM     32  C   UNL     1      -3.387  11.067   1.319  1.00  0.00     0.060 A 
ATOM     33  C   UNL     1      -4.625  10.591   0.888  1.00  0.00     0.016 A 
ATOM     34  C   UNL     1      -2.877  12.278   0.835  1.00  0.00     0.016 A 
ATOM     35  C   UNL     1      -5.365  11.348  -0.022  1.00  0.00     0.010 A 
ATOM     36  C   UNL     1      -3.612  13.027  -0.080  1.00  0.00     0.010 A 
ATOM     37  C   UNL     1      -4.872  12.578  -0.498  1.00  0.00    -0.014 A 
BRANCH  37  38
ATOM     38  C   UNL     1      -5.732  13.468  -1.312  1.00  0.00     0.031 A 
ATOM     39  C   UNL     1      -5.514  13.636  -2.784  1.00  0.00     0.074 A 
ATOM     40  C   UNL     1      -6.703  14.159  -0.684  1.00  0.00     0.049 A 
ATOM     41  N   UNL     1      -6.210  14.345  -3.635  1.00  0.00    -0.248 NA
ATOM     42  C   UNL     1      -4.374  12.924  -3.380  1.00  0.00     0.031 C 
ATOM     43  C   UNL     1      -6.983  14.091   0.751  1.00  0.00     0.029 A 
ATOM     44  N   UNL     1      -7.634  15.045  -1.165  1.00  0.00    -0.354 N 
ATOM     45  C   UNL     1      -5.609  14.151  -4.871  1.00  0.00     0.074 A 
ATOM     46  C   UNL     1      -4.462  13.295  -4.652  1.00  0.00     0.031 C 
ATOM     47  C   UNL     1      -8.035  14.874   1.029  1.00  0.00     0.029 A 
ATOM     48  C   UNL     1      -8.479  15.532  -0.197  1.00  0.00     0.049 A 
ATOM     49  H   UNL     1      -7.691  15.306  -2.112  1.00  0.00     0.167 HD
ATOM     50  C   UNL     1      -5.996  14.632  -6.076  1.00  0.00     0.031 A 
ATOM     51  C   UNL     1      -9.498  16.409  -0.282  1.00  0.00     0.031 A 
ATOM     52  C   UNL     1      -7.129  15.500  -6.275  1.00  0.00     0.049 A 
ATOM     53  C   UNL     1      -9.862  16.979  -1.624  1.00  0.00     0.074 A 
ATOM     54  C   UNL     1      -7.624  15.998  -7.468  1.00  0.00     0.029 A 
ATOM     55  N   UNL     1      -7.931  16.010  -5.265  1.00  0.00    -0.354 N 
ATOM     56  N   UNL     1      -9.341  16.715  -2.797  1.00  0.00    -0.248 NA
ATOM     57  C   UNL     1     -10.957  17.959  -1.660  1.00  0.00     0.031 C 
ATOM     58  C   UNL     1      -8.671  16.872  -7.175  1.00  0.00     0.029 A 
ATOM     59  C   UNL     1      -8.886  16.854  -5.806  1.00  0.00     0.049 A 
ATOM     60  H   UNL     1      -7.835  15.803  -4.308  1.00  0.00     0.167 HD
ATOM     61  C   UNL     1     -10.054  17.478  -3.712  1.00  0.00     0.074 A 
ATOM     62  C   UNL     1     -11.061  18.200  -2.961  1.00  0.00     0.031 C 
ATOM     63  C   UNL     1      -9.884  17.572  -5.053  1.00  0.00     0.031 A 
BRANCH  50  64
ATOM     64  C   UNL     1      -5.213  14.231  -7.296  1.00  0.00    -0.014 A 
ATOM     65  C   UNL     1      -4.512  15.202  -8.030  1.00  0.00     0.009 A 
ATOM     66  C   UNL     1      -5.292  12.924  -7.803  1.00  0.00     0.009 A 
ATOM     67  C   UNL     1      -3.932  14.881  -9.259  1.00  0.00     0.001 A 
ATOM     68  C   UNL     1      -4.685  12.599  -9.018  1.00  0.00     0.001 A 
ATOM     69  C   UNL     1      -4.019  13.580  -9.752  1.00  0.00     0.000 A 
ENDBRANCH  50  64
BRANCH  51  70
ATOM     70  C   UNL     1     -10.256  16.769   0.947  1.00  0.00    -0.014 A 
ATOM     71  C   UNL     1      -9.635  17.476   1.991  1.00  0.00     0.009 A 
ATOM     72  C   UNL     1     -11.588  16.360   1.107  1.00  0.00     0.009 A 
ATOM     73  C   UNL     1     -10.320  17.738   3.179  1.00  0.00     0.001 A 
ATOM     74  C   UNL     1     -12.283  16.655   2.283  1.00  0.00     0.001 A 
ATOM     75  C   UNL     1     -11.645  17.332   3.322  1.00  0.00     0.000 A 
ENDBRANCH  51  70
BRANCH  63  76
ATOM     76  C   UNL     1     -10.796  18.488  -5.823  1.00  0.00    -0.014 A 
ATOM     77  C   UNL     1     -11.701  17.952  -6.754  1.00  0.00     0.009 A 
ATOM     78  C   UNL     1     -10.664  19.882  -5.731  1.00  0.00     0.009 A 
ATOM     79  C   UNL     1     -12.430  18.790  -7.599  1.00  0.00     0.001 A 
ATOM     80  C   UNL     1     -11.420  20.719  -6.554  1.00  0.00     0.001 A 
ATOM     81  C   UNL     1     -12.290  20.173  -7.497  1.00  0.00     0.000 A 
ENDBRANCH  63  76
ENDBRANCH  37  38
ENDBRANCH  30  32
ENDBRANCH  29  30
ENDBRANCH  28  29
ENDBRANCH  27  28
ENDBRANCH  26  27
ENDBRANCH   1  26
TORSDOF 18
