REMARK SMILES COCC[C@H](NC(=O)c1ccc(Br)nc1)C(=O)OCCOCCOC(=O)c1ccc(-c2c3nc(c(-c4ccccc4)c4ccc([nH]4)c(-c4ccccc4)c4nc(c(-c5ccccc5)c5ccc2[nH]5)C=C4)C=C3)cc1
REMARK SMILES IDX 20 1 19 2 18 3 16 4 17 5 5 6 4 7 3 8 2 9 1 10 6 11 7 12 8 14
REMARK SMILES IDX 9 15 10 16 15 17 11 18 14 19 12 20 13 21 21 22 22 23 23 24
REMARK SMILES IDX 24 25 25 26 26 27 27 28 28 29 74 30 29 31 73 32 30 33 31 34
REMARK SMILES IDX 32 35 67 36 33 37 72 38 66 39 68 40 34 41 71 42 65 43 64 44
REMARK SMILES IDX 35 46 57 47 42 48 56 49 43 50 46 51 55 52 69 53 44 54 45 55
REMARK SMILES IDX 54 57 70 58 47 59 36 60 37 61 41 62 38 63 40 64 39 65 58 66
REMARK SMILES IDX 59 67 63 68 60 69 62 70 61 71 48 72 49 73 53 74 50 75 52 76
REMARK SMILES IDX 51 77
REMARK H PARENT 6 13 68 45 46 56
REMARK Flexibility Score: inf
ROOT
ATOM      1  C   UNL     1      -1.251  -4.697   4.093  1.00  0.00     0.202 C 
ENDROOT
BRANCH   1   2
ATOM      2  C   UNL     1       0.258  -4.464   4.242  1.00  0.00     0.261 C 
BRANCH   2   3
ATOM      3  O   UNL     1       0.709  -3.175   3.808  1.00  0.00    -0.462 OA
BRANCH   3   4
ATOM      4  C   UNL     1       1.147  -3.163   2.515  1.00  0.00     0.328 C 
ATOM      5  O   UNL     1       1.131  -4.136   1.769  1.00  0.00    -0.250 OA
BRANCH   4   6
ATOM      6  C   UNL     1       1.726  -1.802   2.095  1.00  0.00     0.194 C 
BRANCH   6   7
ATOM      7  C   UNL     1       3.210  -2.050   1.789  1.00  0.00     0.065 C 
BRANCH   7   8
ATOM      8  C   UNL     1       3.445  -2.748   0.443  1.00  0.00     0.162 C 
BRANCH   8   9
ATOM      9  O   UNL     1       2.849  -2.036  -0.641  1.00  0.00    -0.385 OA
ATOM     10  C   UNL     1       1.658  -2.621  -1.161  1.00  0.00     0.194 C 
ENDBRANCH   8   9
ENDBRANCH   7   8
ENDBRANCH   6   7
BRANCH   6  11
ATOM     11  N   UNL     1       1.471  -0.722   3.067  1.00  0.00    -0.338 N 
ATOM     12  C   UNL     1       1.696   0.632   2.944  1.00  0.00     0.253 C 
ATOM     13  H   UNL     1       1.085  -1.009   3.926  1.00  0.00     0.164 HD
ATOM     14  O   UNL     1       1.238   1.423   3.761  1.00  0.00    -0.269 OA
BRANCH  12  15
ATOM     15  C   UNL     1       2.594   1.125   1.888  1.00  0.00     0.058 A 
ATOM     16  C   UNL     1       2.347   0.965   0.527  1.00  0.00     0.018 A 
ATOM     17  C   UNL     1       3.829   1.620   2.286  1.00  0.00     0.126 A 
ATOM     18  C   UNL     1       3.389   1.194  -0.375  1.00  0.00     0.037 A 
ATOM     19  N   UNL     1       4.851   1.857   1.430  1.00  0.00    -0.249 NA
ATOM     20  C   UNL     1       4.620   1.607   0.121  1.00  0.00     0.106 A 
ATOM     21  Br  UNL     1       6.087   1.752  -1.071  1.00  0.00    -0.029 Br
ENDBRANCH  12  15
ENDBRANCH   6  11
ENDBRANCH   4   6
ENDBRANCH   3   4
ENDBRANCH   2   3
ENDBRANCH   1   2
BRANCH   1  22
ATOM     22  O   UNL     1      -1.893  -4.203   2.926  1.00  0.00    -0.374 OA
BRANCH  22  23
ATOM     23  C   UNL     1      -2.094  -2.796   2.788  1.00  0.00     0.202 C 
BRANCH  23  24
ATOM     24  C   UNL     1      -2.835  -2.055   3.905  1.00  0.00     0.261 C 
BRANCH  24  25
ATOM     25  O   UNL     1      -2.061  -1.998   5.119  1.00  0.00    -0.460 OA
BRANCH  25  26
ATOM     26  C   UNL     1      -2.713  -2.439   6.221  1.00  0.00     0.338 C 
ATOM     27  O   UNL     1      -3.870  -2.829   6.293  1.00  0.00    -0.246 OA
BRANCH  26  28
ATOM     28  C   UNL     1      -1.778  -2.575   7.347  1.00  0.00     0.060 A 
ATOM     29  C   UNL     1      -1.588  -3.854   7.887  1.00  0.00     0.016 A 
ATOM     30  C   UNL     1      -1.211  -1.453   7.950  1.00  0.00     0.016 A 
ATOM     31  C   UNL     1      -0.867  -4.009   9.068  1.00  0.00     0.010 A 
ATOM     32  C   UNL     1      -0.498  -1.609   9.143  1.00  0.00     0.010 A 
ATOM     33  C   UNL     1      -0.356  -2.882   9.726  1.00  0.00    -0.014 A 
BRANCH  33  34
ATOM     34  C   UNL     1       0.189  -3.023  11.096  1.00  0.00     0.031 A 
ATOM     35  C   UNL     1      -0.697  -2.714  12.271  1.00  0.00     0.074 A 
ATOM     36  C   UNL     1       1.446  -3.456  11.292  1.00  0.00     0.049 A 
ATOM     37  N   UNL     1      -0.422  -2.758  13.550  1.00  0.00    -0.248 NA
ATOM     38  C   UNL     1      -2.078  -2.305  11.964  1.00  0.00     0.031 C 
ATOM     39  C   UNL     1       2.385  -3.836  10.238  1.00  0.00     0.029 A 
ATOM     40  N   UNL     1       2.147  -3.647  12.456  1.00  0.00    -0.354 N 
ATOM     41  C   UNL     1      -1.590  -2.377  14.199  1.00  0.00     0.074 A 
ATOM     42  C   UNL     1      -2.568  -2.083  13.175  1.00  0.00     0.031 C 
ATOM     43  C   UNL     1       3.545  -4.211  10.805  1.00  0.00     0.029 A 
ATOM     44  C   UNL     1       3.438  -4.066  12.255  1.00  0.00     0.049 A 
ATOM     45  H   UNL     1       1.760  -3.498  13.349  1.00  0.00     0.167 HD
ATOM     46  C   UNL     1      -1.829  -2.285  15.529  1.00  0.00     0.031 A 
ATOM     47  C   UNL     1       4.427  -4.288  13.141  1.00  0.00     0.031 A 
ATOM     48  C   UNL     1      -0.852  -2.559  16.549  1.00  0.00     0.049 A 
ATOM     49  C   UNL     1       4.163  -4.095  14.610  1.00  0.00     0.074 A 
ATOM     50  C   UNL     1      -1.001  -2.501  17.924  1.00  0.00     0.029 A 
ATOM     51  N   UNL     1       0.459  -2.933  16.303  1.00  0.00    -0.354 N 
ATOM     52  N   UNL     1       3.049  -3.756  15.212  1.00  0.00    -0.248 NA
ATOM     53  C   UNL     1       5.294  -4.322  15.521  1.00  0.00     0.031 C 
ATOM     54  C   UNL     1       0.236  -2.792  18.509  1.00  0.00     0.029 A 
ATOM     55  C   UNL     1       1.139  -3.083  17.499  1.00  0.00     0.049 A 
ATOM     56  H   UNL     1       0.849  -3.071  15.409  1.00  0.00     0.167 HD
ATOM     57  C   UNL     1       3.337  -3.754  16.571  1.00  0.00     0.074 A 
ATOM     58  C   UNL     1       4.727  -4.138  16.705  1.00  0.00     0.031 C 
ATOM     59  C   UNL     1       2.523  -3.463  17.615  1.00  0.00     0.031 A 
BRANCH  46  60
ATOM     60  C   UNL     1      -3.197  -1.832  15.953  1.00  0.00    -0.014 A 
ATOM     61  C   UNL     1      -4.313  -2.675  15.834  1.00  0.00     0.009 A 
ATOM     62  C   UNL     1      -3.366  -0.552  16.504  1.00  0.00     0.009 A 
ATOM     63  C   UNL     1      -5.578  -2.231  16.228  1.00  0.00     0.001 A 
ATOM     64  C   UNL     1      -4.627  -0.121  16.920  1.00  0.00     0.001 A 
ATOM     65  C   UNL     1      -5.733  -0.957  16.774  1.00  0.00     0.000 A 
ENDBRANCH  46  60
BRANCH  47  66
ATOM     66  C   UNL     1       5.772  -4.700  12.664  1.00  0.00    -0.014 A 
ATOM     67  C   UNL     1       6.248  -5.998  12.900  1.00  0.00     0.009 A 
ATOM     68  C   UNL     1       6.593  -3.789  11.981  1.00  0.00     0.009 A 
ATOM     69  C   UNL     1       7.529  -6.368  12.482  1.00  0.00     0.001 A 
ATOM     70  C   UNL     1       7.862  -4.170  11.540  1.00  0.00     0.001 A 
ATOM     71  C   UNL     1       8.332  -5.456  11.799  1.00  0.00     0.000 A 
ENDBRANCH  47  66
BRANCH  59  72
ATOM     72  C   UNL     1       3.105  -3.583  18.995  1.00  0.00    -0.014 A 
ATOM     73  C   UNL     1       4.016  -2.636  19.487  1.00  0.00     0.009 A 
ATOM     74  C   UNL     1       2.703  -4.639  19.829  1.00  0.00     0.009 A 
ATOM     75  C   UNL     1       4.536  -2.762  20.777  1.00  0.00     0.001 A 
ATOM     76  C   UNL     1       3.205  -4.747  21.126  1.00  0.00     0.001 A 
ATOM     77  C   UNL     1       4.127  -3.814  21.596  1.00  0.00     0.000 A 
ENDBRANCH  59  72
ENDBRANCH  33  34
ENDBRANCH  26  28
ENDBRANCH  25  26
ENDBRANCH  24  25
ENDBRANCH  23  24
ENDBRANCH  22  23
ENDBRANCH   1  22
TORSDOF 19
