REMARK SMILES COc1cc(OC)nc(Oc2ccccc2C(=O)NCC(=O)OCCOCCOC(=O)c2ccc(-c3c4nc(c(-c5ccccc5)c5ccc([nH]5)c(-c5ccccc5)c5nc(c(-c6ccccc6)c6ccc3[nH]6)C=C5)C=C4)cc2)n1
REMARK SMILES IDX 24 1 23 2 21 3 22 4 20 5 19 6 17 7 18 8 16 10 11 11 12 12
REMARK SMILES IDX 13 13 15 14 14 15 10 16 9 17 3 18 4 19 80 20 5 21 8 22 2 23
REMARK SMILES IDX 1 24 6 25 7 26 25 27 26 28 27 29 28 30 29 31 30 32 31 33
REMARK SMILES IDX 32 34 33 35 79 36 34 37 78 38 35 39 36 40 37 41 72 42 38 43
REMARK SMILES IDX 77 44 71 45 73 46 39 47 76 48 70 49 69 50 40 52 62 53 47 54
REMARK SMILES IDX 61 55 48 56 51 57 60 58 74 59 49 60 50 61 59 63 75 64 52 65
REMARK SMILES IDX 41 66 42 67 46 68 43 69 45 70 44 71 63 72 64 73 68 74 65 75
REMARK SMILES IDX 67 76 66 77 53 78 54 79 58 80 55 81 57 82 56 83
REMARK H PARENT 19 9 73 51 51 62
REMARK Flexibility Score: inf
ROOT
ATOM      1  C   UNL     1      -2.554   0.576   4.850  1.00  0.00     0.261 C 
ENDROOT
BRANCH   1   2
ATOM      2  O   UNL     1      -1.619  -0.455   5.211  1.00  0.00    -0.462 OA
BRANCH   2   3
ATOM      3  C   UNL     1      -1.895  -1.655   4.641  1.00  0.00     0.325 C 
ATOM      4  O   UNL     1      -2.922  -1.911   4.016  1.00  0.00    -0.250 OA
BRANCH   3   5
ATOM      5  C   UNL     1      -0.727  -2.616   4.634  1.00  0.00     0.239 C 
BRANCH   5   6
ATOM      6  N   UNL     1       0.439  -2.614   5.494  1.00  0.00    -0.341 N 
ATOM      7  C   UNL     1       1.253  -3.705   5.746  1.00  0.00     0.255 C 
ATOM      8  O   UNL     1       2.356  -3.524   6.258  1.00  0.00    -0.269 OA
ATOM      9  H   UNL     1       0.672  -1.765   5.936  1.00  0.00     0.164 HD
BRANCH   7  10
ATOM     10  C   UNL     1       0.714  -5.095   5.630  1.00  0.00     0.082 A 
ATOM     11  C   UNL     1       0.143  -5.729   4.514  1.00  0.00     0.143 A 
ATOM     12  C   UNL     1      -0.598  -6.912   4.720  1.00  0.00     0.048 A 
ATOM     13  C   UNL     1      -0.709  -7.504   5.977  1.00  0.00     0.004 A 
ATOM     14  C   UNL     1       0.664  -5.751   6.881  1.00  0.00     0.018 A 
ATOM     15  C   UNL     1      -0.044  -6.942   7.055  1.00  0.00     0.001 A 
BRANCH  11  16
ATOM     16  O   UNL     1       0.042  -5.323   3.206  1.00  0.00    -0.423 OA
BRANCH  16  17
ATOM     17  C   UNL     1       0.948  -4.471   2.619  1.00  0.00     0.328 A 
ATOM     18  C   UNL     1       1.168  -2.628   1.288  1.00  0.00     0.223 A 
ATOM     19  C   UNL     1       2.524  -2.620   1.500  1.00  0.00     0.137 A 
ATOM     20  N   UNL     1       0.379  -3.576   1.801  1.00  0.00    -0.159 NA
ATOM     21  C   UNL     1       3.023  -3.638   2.293  1.00  0.00     0.223 A 
ATOM     22  N   UNL     1       2.247  -4.563   2.883  1.00  0.00    -0.159 NA
BRANCH  18  23
ATOM     23  O   UNL     1       0.446  -1.659   0.660  1.00  0.00    -0.481 OA
ATOM     24  C   UNL     1       1.130  -0.704  -0.132  1.00  0.00     0.280 C 
ENDBRANCH  18  23
BRANCH  21  25
ATOM     25  O   UNL     1       4.344  -3.790   2.608  1.00  0.00    -0.481 OA
ATOM     26  C   UNL     1       5.283  -3.109   1.790  1.00  0.00     0.280 C 
ENDBRANCH  21  25
ENDBRANCH  16  17
ENDBRANCH  11  16
ENDBRANCH   7  10
ENDBRANCH   5   6
ENDBRANCH   3   5
ENDBRANCH   2   3
ENDBRANCH   1   2
BRANCH   1  27
ATOM     27  C   UNL     1      -1.869   1.858   4.367  1.00  0.00     0.202 C 
BRANCH  27  28
ATOM     28  O   UNL     1      -0.959   1.735   3.278  1.00  0.00    -0.374 OA
BRANCH  28  29
ATOM     29  C   UNL     1       0.247   0.999   3.486  1.00  0.00     0.202 C 
BRANCH  29  30
ATOM     30  C   UNL     1       1.168   1.449   4.632  1.00  0.00     0.261 C 
BRANCH  30  31
ATOM     31  O   UNL     1       0.608   1.170   5.931  1.00  0.00    -0.460 OA
BRANCH  31  32
ATOM     32  C   UNL     1       0.511   2.230   6.762  1.00  0.00     0.338 C 
ATOM     33  O   UNL     1       0.920   3.378   6.556  1.00  0.00    -0.246 OA
BRANCH  32  34
ATOM     34  C   UNL     1      -0.337   1.909   7.915  1.00  0.00     0.060 A 
ATOM     35  C   UNL     1      -1.585   2.538   8.015  1.00  0.00     0.016 A 
ATOM     36  C   UNL     1       0.138   1.108   8.953  1.00  0.00     0.016 A 
ATOM     37  C   UNL     1      -2.355   2.389   9.166  1.00  0.00     0.010 A 
ATOM     38  C   UNL     1      -0.625   0.976  10.119  1.00  0.00     0.010 A 
ATOM     39  C   UNL     1      -1.858   1.642  10.242  1.00  0.00    -0.014 A 
BRANCH  39  40
ATOM     40  C   UNL     1      -2.566   1.699  11.541  1.00  0.00     0.031 A 
ATOM     41  C   UNL     1      -2.116   2.695  12.574  1.00  0.00     0.074 A 
ATOM     42  C   UNL     1      -3.626   0.908  11.781  1.00  0.00     0.049 A 
ATOM     43  N   UNL     1      -2.598   2.925  13.769  1.00  0.00    -0.248 NA
ATOM     44  C   UNL     1      -0.976   3.551  12.208  1.00  0.00     0.031 C 
ATOM     45  C   UNL     1      -4.187  -0.061  10.841  1.00  0.00     0.029 A 
ATOM     46  N   UNL     1      -4.419   0.800  12.895  1.00  0.00    -0.354 N 
ATOM     47  C   UNL     1      -1.818   3.946  14.298  1.00  0.00     0.074 A 
ATOM     48  C   UNL     1      -0.819   4.276  13.305  1.00  0.00     0.031 C 
ATOM     49  C   UNL     1      -5.232  -0.674  11.424  1.00  0.00     0.029 A 
ATOM     50  C   UNL     1      -5.394  -0.160  12.782  1.00  0.00     0.049 A 
ATOM     51  H   UNL     1      -4.301   1.357  13.698  1.00  0.00     0.167 HD
ATOM     52  C   UNL     1      -1.924   4.554  15.503  1.00  0.00     0.031 A 
ATOM     53  C   UNL     1      -6.301  -0.587  13.681  1.00  0.00     0.031 A 
ATOM     54  C   UNL     1      -2.904   4.213  16.499  1.00  0.00     0.049 A 
ATOM     55  C   UNL     1      -6.350   0.052  15.042  1.00  0.00     0.074 A 
ATOM     56  C   UNL     1      -3.101   4.780  17.746  1.00  0.00     0.029 A 
ATOM     57  N   UNL     1      -3.845   3.204  16.364  1.00  0.00    -0.354 N 
ATOM     58  N   UNL     1      -5.626   1.036  15.520  1.00  0.00    -0.248 NA
ATOM     59  C   UNL     1      -7.348  -0.474  15.985  1.00  0.00     0.031 C 
ATOM     60  C   UNL     1      -4.127   4.078  18.387  1.00  0.00     0.029 A 
ATOM     61  C   UNL     1      -4.605   3.111  17.517  1.00  0.00     0.049 A 
ATOM     62  H   UNL     1      -3.955   2.638  15.567  1.00  0.00     0.167 HD
ATOM     63  C   UNL     1      -6.095   1.261  16.809  1.00  0.00     0.074 A 
ATOM     64  C   UNL     1      -7.175   0.321  17.032  1.00  0.00     0.031 C 
ATOM     65  C   UNL     1      -5.671   2.166  17.724  1.00  0.00     0.031 A 
BRANCH  52  66
ATOM     66  C   UNL     1      -0.921   5.625  15.824  1.00  0.00    -0.014 A 
ATOM     67  C   UNL     1      -0.979   6.887  15.212  1.00  0.00     0.009 A 
ATOM     68  C   UNL     1       0.085   5.373  16.770  1.00  0.00     0.009 A 
ATOM     69  C   UNL     1      -0.028   7.864  15.518  1.00  0.00     0.001 A 
ATOM     70  C   UNL     1       1.019   6.359  17.091  1.00  0.00     0.001 A 
ATOM     71  C   UNL     1       0.967   7.600  16.459  1.00  0.00     0.000 A 
ENDBRANCH  52  66
BRANCH  53  72
ATOM     72  C   UNL     1      -7.222  -1.699  13.332  1.00  0.00    -0.014 A 
ATOM     73  C   UNL     1      -8.591  -1.465  13.140  1.00  0.00     0.009 A 
ATOM     74  C   UNL     1      -6.731  -3.008  13.198  1.00  0.00     0.009 A 
ATOM     75  C   UNL     1      -9.454  -2.523  12.841  1.00  0.00     0.001 A 
ATOM     76  C   UNL     1      -7.590  -4.059  12.873  1.00  0.00     0.001 A 
ATOM     77  C   UNL     1      -8.952  -3.817  12.703  1.00  0.00     0.000 A 
ENDBRANCH  53  72
BRANCH  65  78
ATOM     78  C   UNL     1      -6.394   2.202  19.041  1.00  0.00    -0.014 A 
ATOM     79  C   UNL     1      -6.206   1.197  20.002  1.00  0.00     0.009 A 
ATOM     80  C   UNL     1      -7.241   3.281  19.340  1.00  0.00     0.009 A 
ATOM     81  C   UNL     1      -6.878   1.256  21.225  1.00  0.00     0.001 A 
ATOM     82  C   UNL     1      -7.890   3.351  20.573  1.00  0.00     0.001 A 
ATOM     83  C   UNL     1      -7.715   2.335  21.511  1.00  0.00     0.000 A 
ENDBRANCH  65  78
ENDBRANCH  39  40
ENDBRANCH  32  34
ENDBRANCH  31  32
ENDBRANCH  30  31
ENDBRANCH  29  30
ENDBRANCH  28  29
ENDBRANCH  27  28
ENDBRANCH   1  27
TORSDOF 20
