REMARK SMILES Cc1ccccc1C(=O)Nc1cc(C(=O)OCCOCCOC(=O)c2ccc(-c3c4nc(c(-c5ccccc5)c5ccc([nH]5)c(-c5ccccc5)c5nc(c(-c6ccccc6)c6ccc3[nH]6)C=C5)C=C4)cc2)ccc1N1CC[NH+](CC(=O)Nc2ccc(F)cc2)CC1
REMARK SMILES IDX 18 1 17 2 16 3 14 4 15 5 13 6 11 7 12 8 75 9 74 10 73 11
REMARK SMILES IDX 10 12 8 13 9 14 7 16 1 17 2 18 3 19 4 20 6 21 5 22 76 23
REMARK SMILES IDX 77 24 92 25 78 26 91 27 79 28 80 30 81 31 82 32 83 33 84 35
REMARK SMILES IDX 85 36 90 37 86 38 89 39 87 40 88 41 19 42 20 43 21 44 22 45
REMARK SMILES IDX 23 46 24 47 25 48 26 49 72 50 27 51 71 52 28 53 29 54 30 55
REMARK SMILES IDX 65 56 31 57 70 58 64 59 66 60 32 61 69 62 63 63 62 64 33 66
REMARK SMILES IDX 55 67 40 68 54 69 41 70 44 71 53 72 67 73 42 74 43 75 52 77
REMARK SMILES IDX 68 78 45 79 34 80 35 81 39 82 36 83 38 84 37 85 56 86 57 87
REMARK SMILES IDX 61 88 58 89 60 90 59 91 46 92 47 93 51 94 48 95 50 96 49 97
REMARK H PARENT 10 15 79 29 83 34 66 65 44 76
REMARK Flexibility Score: inf
ROOT
ATOM      1  C   UNL     1       3.431  -1.230  -3.960  1.00  0.00     0.202 C 
ENDROOT
BRANCH   1   2
ATOM      2  C   UNL     1       2.206  -1.555  -3.154  1.00  0.00     0.261 C 
BRANCH   2   3
ATOM      3  O   UNL     1       2.342  -1.757  -1.725  1.00  0.00    -0.460 OA
BRANCH   3   4
ATOM      4  C   UNL     1       3.559  -1.988  -1.178  1.00  0.00     0.338 C 
ATOM      5  O   UNL     1       3.916  -3.058  -0.700  1.00  0.00    -0.246 OA
BRANCH   4   6
ATOM      6  C   UNL     1       4.269  -0.713  -0.924  1.00  0.00     0.062 A 
ATOM      7  C   UNL     1       4.020   1.637  -0.573  1.00  0.00     0.065 A 
ATOM      8  C   UNL     1       3.571   0.465  -1.132  1.00  0.00     0.044 A 
ATOM      9  C   UNL     1       5.266   1.734   0.108  1.00  0.00     0.061 A 
ATOM     10  C   UNL     1       6.022   0.549   0.188  1.00  0.00     0.029 A 
ATOM     11  C   UNL     1       5.511  -0.675  -0.285  1.00  0.00     0.018 A 
BRANCH   7  12
ATOM     12  N   UNL     1       3.119   2.697  -0.611  1.00  0.00    -0.320 N 
ATOM     13  C   UNL     1       1.822   2.754  -0.121  1.00  0.00     0.255 C 
ATOM     14  O   UNL     1       1.285   3.867  -0.209  1.00  0.00    -0.269 OA
ATOM     15  H   UNL     1       3.446   3.518  -1.044  1.00  0.00     0.170 HD
BRANCH  13  16
ATOM     16  C   UNL     1       1.034   1.651   0.582  1.00  0.00     0.043 A 
ATOM     17  C   UNL     1       2.797   0.234   1.938  1.00  0.00     0.045 C 
ATOM     18  C   UNL     1       1.432   0.579   1.422  1.00  0.00    -0.038 A 
ATOM     19  C   UNL     1       0.447  -0.290   1.959  1.00  0.00     0.004 A 
ATOM     20  C   UNL     1      -0.910  -0.035   1.829  1.00  0.00     0.000 A 
ATOM     21  C   UNL     1      -0.363   1.863   0.462  1.00  0.00     0.014 A 
ATOM     22  C   UNL     1      -1.317   1.061   1.097  1.00  0.00     0.001 A 
ENDBRANCH  13  16
ENDBRANCH   7  12
BRANCH   9  23
ATOM     23  N   UNL     1       5.616   2.892   0.816  1.00  0.00    -0.359 N 
ATOM     24  C   UNL     1       6.949   3.074   1.457  1.00  0.00     0.178 C 
ATOM     25  C   UNL     1       4.563   3.444   1.677  1.00  0.00     0.178 C 
ATOM     26  C   UNL     1       7.105   4.506   2.097  1.00  0.00     0.284 C 
ATOM     27  C   UNL     1       4.790   4.941   1.836  1.00  0.00     0.284 C 
ATOM     28  N   UNL     1       5.924   5.157   2.716  1.00  0.00    -0.324 N 
ATOM     29  H   UNL     1       6.195   6.137   2.795  1.00  0.00     0.348 HD
BRANCH  28  30
ATOM     30  C   UNL     1       5.597   4.925   4.147  1.00  0.00     0.364 C 
BRANCH  30  31
ATOM     31  C   UNL     1       5.323   3.504   4.658  1.00  0.00     0.279 C 
ATOM     32  O   UNL     1       6.284   2.732   4.813  1.00  0.00    -0.268 OA
ATOM     33  N   UNL     1       4.108   3.006   5.061  1.00  0.00    -0.321 N 
ATOM     34  H   UNL     1       4.245   2.254   5.682  1.00  0.00     0.170 HD
BRANCH  33  35
ATOM     35  C   UNL     1       2.720   3.226   4.870  1.00  0.00     0.041 A 
ATOM     36  C   UNL     1       1.854   2.443   5.659  1.00  0.00     0.029 A 
ATOM     37  C   UNL     1       2.122   4.027   3.902  1.00  0.00     0.029 A 
ATOM     38  C   UNL     1       0.462   2.455   5.475  1.00  0.00     0.041 A 
ATOM     39  C   UNL     1       0.733   4.003   3.669  1.00  0.00     0.041 A 
ATOM     40  C   UNL     1      -0.088   3.224   4.464  1.00  0.00     0.123 A 
ATOM     41  F   UNL     1      -1.411   3.216   4.258  1.00  0.00    -0.207 F 
ENDBRANCH  33  35
ENDBRANCH  30  31
ENDBRANCH  28  30
ENDBRANCH   9  23
ENDBRANCH   4   6
ENDBRANCH   3   4
ENDBRANCH   2   3
ENDBRANCH   1   2
BRANCH   1  42
ATOM     42  O   UNL     1       4.387  -2.241  -3.696  1.00  0.00    -0.374 OA
BRANCH  42  43
ATOM     43  C   UNL     1       5.651  -2.047  -4.303  1.00  0.00     0.202 C 
BRANCH  43  44
ATOM     44  C   UNL     1       5.563  -1.993  -5.833  1.00  0.00     0.261 C 
BRANCH  44  45
ATOM     45  O   UNL     1       5.052  -3.250  -6.327  1.00  0.00    -0.460 OA
BRANCH  45  46
ATOM     46  C   UNL     1       3.747  -3.244  -6.739  1.00  0.00     0.338 C 
ATOM     47  O   UNL     1       3.250  -2.436  -7.484  1.00  0.00    -0.246 OA
BRANCH  46  48
ATOM     48  C   UNL     1       2.955  -4.198  -5.897  1.00  0.00     0.060 A 
ATOM     49  C   UNL     1       1.548  -4.192  -5.972  1.00  0.00     0.016 A 
ATOM     50  C   UNL     1       3.587  -4.798  -4.814  1.00  0.00     0.016 A 
ATOM     51  C   UNL     1       0.782  -4.628  -4.880  1.00  0.00     0.010 A 
ATOM     52  C   UNL     1       2.836  -5.091  -3.698  1.00  0.00     0.010 A 
ATOM     53  C   UNL     1       1.435  -4.980  -3.704  1.00  0.00    -0.014 A 
BRANCH  53  54
ATOM     54  C   UNL     1       0.838  -5.165  -2.377  1.00  0.00     0.031 A 
ATOM     55  C   UNL     1       1.134  -6.443  -1.689  1.00  0.00     0.074 A 
ATOM     56  C   UNL     1       0.385  -4.108  -1.655  1.00  0.00     0.049 A 
ATOM     57  N   UNL     1       0.847  -6.676  -0.464  1.00  0.00    -0.248 NA
ATOM     58  C   UNL     1       1.825  -7.569  -2.315  1.00  0.00     0.031 C 
ATOM     59  C   UNL     1       0.283  -3.977  -0.202  1.00  0.00     0.029 A 
ATOM     60  N   UNL     1      -0.169  -2.898  -2.091  1.00  0.00    -0.354 N 
ATOM     61  C   UNL     1       1.571  -7.759  -0.046  1.00  0.00     0.074 A 
ATOM     62  C   UNL     1       2.122  -8.323  -1.250  1.00  0.00     0.031 C 
ATOM     63  C   UNL     1      -0.608  -3.022   0.102  1.00  0.00     0.029 A 
ATOM     64  C   UNL     1      -1.148  -2.540  -1.151  1.00  0.00     0.049 A 
ATOM     65  H   UNL     1       0.080  -2.396  -2.900  1.00  0.00     0.167 HD
ATOM     66  C   UNL     1       1.667  -7.954   1.298  1.00  0.00     0.031 A 
ATOM     67  C   UNL     1      -2.454  -2.447  -1.502  1.00  0.00     0.031 A 
ATOM     68  C   UNL     1       0.699  -7.097   2.009  1.00  0.00     0.049 A 
ATOM     69  C   UNL     1      -3.183  -3.479  -0.689  1.00  0.00     0.074 A 
ATOM     70  C   UNL     1       0.794  -5.986   2.828  1.00  0.00     0.029 A 
ATOM     71  N   UNL     1      -0.640  -7.163   1.604  1.00  0.00    -0.354 N 
ATOM     72  N   UNL     1      -2.640  -4.622  -0.332  1.00  0.00    -0.248 NA
ATOM     73  C   UNL     1      -4.402  -3.167   0.049  1.00  0.00     0.031 C 
ATOM     74  C   UNL     1      -0.481  -5.328   2.812  1.00  0.00     0.029 A 
ATOM     75  C   UNL     1      -1.350  -6.044   1.996  1.00  0.00     0.049 A 
ATOM     76  H   UNL     1      -1.029  -7.915   1.102  1.00  0.00     0.167 HD
ATOM     77  C   UNL     1      -3.269  -5.055   0.805  1.00  0.00     0.074 A 
ATOM     78  C   UNL     1      -4.409  -4.155   0.959  1.00  0.00     0.031 C 
ATOM     79  C   UNL     1      -2.784  -5.946   1.723  1.00  0.00     0.031 A 
BRANCH  66  80
ATOM     80  C   UNL     1       2.710  -8.818   1.969  1.00  0.00    -0.014 A 
ATOM     81  C   UNL     1       2.812  -8.826   3.372  1.00  0.00     0.009 A 
ATOM     82  C   UNL     1       3.666  -9.596   1.287  1.00  0.00     0.009 A 
ATOM     83  C   UNL     1       3.793  -9.573   4.045  1.00  0.00     0.001 A 
ATOM     84  C   UNL     1       4.639 -10.358   1.952  1.00  0.00     0.001 A 
ATOM     85  C   UNL     1       4.702 -10.348   3.335  1.00  0.00     0.000 A 
ENDBRANCH  66  80
BRANCH  67  86
ATOM     86  C   UNL     1      -2.605  -1.889  -2.881  1.00  0.00    -0.014 A 
ATOM     87  C   UNL     1      -2.268  -0.515  -3.002  1.00  0.00     0.009 A 
ATOM     88  C   UNL     1      -2.456  -2.690  -4.025  1.00  0.00     0.009 A 
ATOM     89  C   UNL     1      -1.615  -0.017  -4.138  1.00  0.00     0.001 A 
ATOM     90  C   UNL     1      -1.819  -2.176  -5.173  1.00  0.00     0.001 A 
ATOM     91  C   UNL     1      -1.349  -0.862  -5.207  1.00  0.00     0.000 A 
ENDBRANCH  67  86
BRANCH  79  92
ATOM     92  C   UNL     1      -3.714  -6.852   2.490  1.00  0.00    -0.014 A 
ATOM     93  C   UNL     1      -5.081  -6.970   2.203  1.00  0.00     0.009 A 
ATOM     94  C   UNL     1      -3.172  -7.782   3.403  1.00  0.00     0.009 A 
ATOM     95  C   UNL     1      -5.873  -7.936   2.825  1.00  0.00     0.001 A 
ATOM     96  C   UNL     1      -3.946  -8.788   3.977  1.00  0.00     0.001 A 
ATOM     97  C   UNL     1      -5.302  -8.855   3.697  1.00  0.00     0.000 A 
ENDBRANCH  79  92
ENDBRANCH  53  54
ENDBRANCH  46  48
ENDBRANCH  45  46
ENDBRANCH  44  45
ENDBRANCH  43  44
ENDBRANCH  42  43
ENDBRANCH   1  42
TORSDOF 20
