REMARK SMILES CCc1cc(OC(F)(F)F)cc2c1O[C@H](C(F)(F)F)C(C(=O)OCCOCCOC(=O)c1ccc(-c3c4nc(c(-c5ccccc5)c5ccc([nH]5)c(-c5ccccc5)c5nc(c(-c6ccccc6)c6ccc3[nH]6)C=C5)C=C4)cc1)=C2
REMARK SMILES IDX 26 1 25 2 24 3 23 4 21 5 22 6 20 7 3 8 4 9 13 10 5 11 12 12
REMARK SMILES IDX 14 13 11 14 80 15 15 16 2 17 1 18 6 19 7 20 8 21 9 22 10 23
REMARK SMILES IDX 16 24 17 25 18 26 19 27 27 28 28 29 29 30 30 31 31 32 32 33
REMARK SMILES IDX 33 34 79 35 34 36 78 37 35 38 36 39 37 40 72 41 38 42 77 43
REMARK SMILES IDX 71 44 73 45 39 46 76 47 70 48 69 49 40 51 62 52 47 53 61 54
REMARK SMILES IDX 48 55 51 56 60 57 74 58 49 59 50 60 59 62 75 63 52 64 41 65
REMARK SMILES IDX 42 66 46 67 43 68 45 69 44 70 63 71 64 72 68 73 65 74 67 75
REMARK SMILES IDX 66 76 53 77 54 78 58 79 55 80 57 81 56 82
REMARK H PARENT 73 50 51 61
REMARK Flexibility Score: inf
ROOT
ATOM      1  O   UNL     1       8.005  -2.574  -5.570  1.00  0.00    -0.374 OA
ENDROOT
BRANCH   1   2
ATOM      2  C   UNL     1       8.418  -3.654  -4.734  1.00  0.00     0.202 C 
BRANCH   2   3
ATOM      3  C   UNL     1       8.160  -3.486  -3.234  1.00  0.00     0.261 C 
BRANCH   3   4
ATOM      4  O   UNL     1       6.754  -3.550  -2.925  1.00  0.00    -0.460 OA
BRANCH   4   5
ATOM      5  C   UNL     1       6.198  -2.369  -2.567  1.00  0.00     0.338 C 
ATOM      6  O   UNL     1       6.786  -1.306  -2.438  1.00  0.00    -0.246 OA
BRANCH   5   7
ATOM      7  C   UNL     1       4.728  -2.458  -2.455  1.00  0.00     0.087 C 
ATOM      8  C   UNL     1       0.743  -1.928  -1.371  1.00  0.00    -0.002 A 
ATOM      9  C   UNL     1      -0.090  -3.043  -1.211  1.00  0.00     0.054 A 
ATOM     10  C   UNL     1       2.080  -2.135  -1.725  1.00  0.00     0.131 A 
ATOM     11  C   UNL     1       0.410  -4.337  -1.388  1.00  0.00     0.130 A 
ATOM     12  C   UNL     1       2.610  -3.423  -1.887  1.00  0.00     0.021 A 
ATOM     13  O   UNL     1       2.857  -1.014  -1.844  1.00  0.00    -0.475 OA
ATOM     14  C   UNL     1       1.761  -4.521  -1.729  1.00  0.00     0.058 A 
ATOM     15  C   UNL     1       4.055  -3.569  -2.111  1.00  0.00     0.027 C 
ATOM     16  C   UNL     1       4.002  -1.157  -2.706  1.00  0.00     0.316 C 
BRANCH   8  17
ATOM     17  C   UNL     1       0.213  -0.532  -1.135  1.00  0.00     0.036 C 
ATOM     18  C   UNL     1       0.694   0.044   0.192  1.00  0.00     0.009 C 
ENDBRANCH   8  17
BRANCH  11  19
ATOM     19  O   UNL     1      -0.306  -5.494  -1.246  1.00  0.00    -0.406 OA
BRANCH  19  20
ATOM     20  C   UNL     1      -1.611  -5.394  -0.695  1.00  0.00     0.573 C 
ATOM     21  F   UNL     1      -1.586  -4.794   0.515  1.00  0.00    -0.132 F 
ATOM     22  F   UNL     1      -2.436  -4.715  -1.519  1.00  0.00    -0.132 F 
ATOM     23  F   UNL     1      -2.111  -6.639  -0.533  1.00  0.00    -0.132 F 
ENDBRANCH  19  20
ENDBRANCH  11  19
BRANCH  16  24
ATOM     24  C   UNL     1       3.612  -0.968  -4.183  1.00  0.00     0.430 C 
ATOM     25  F   UNL     1       4.671  -0.559  -4.921  1.00  0.00    -0.167 F 
ATOM     26  F   UNL     1       3.156  -2.108  -4.756  1.00  0.00    -0.167 F 
ATOM     27  F   UNL     1       2.647  -0.031  -4.336  1.00  0.00    -0.167 F 
ENDBRANCH  16  24
ENDBRANCH   5   7
ENDBRANCH   4   5
ENDBRANCH   3   4
ENDBRANCH   2   3
ENDBRANCH   1   2
BRANCH   1  28
ATOM     28  C   UNL     1       6.620  -2.499  -5.901  1.00  0.00     0.202 C 
BRANCH  28  29
ATOM     29  C   UNL     1       6.135  -3.384  -7.053  1.00  0.00     0.261 C 
BRANCH  29  30
ATOM     30  O   UNL     1       6.311  -4.780  -6.764  1.00  0.00    -0.460 OA
BRANCH  30  31
ATOM     31  C   UNL     1       7.326  -5.366  -7.438  1.00  0.00     0.338 C 
ATOM     32  O   UNL     1       8.021  -4.870  -8.315  1.00  0.00    -0.246 OA
BRANCH  31  33
ATOM     33  C   UNL     1       7.626  -6.682  -6.848  1.00  0.00     0.060 A 
ATOM     34  C   UNL     1       8.963  -6.955  -6.537  1.00  0.00     0.016 A 
ATOM     35  C   UNL     1       6.638  -7.651  -6.656  1.00  0.00     0.016 A 
ATOM     36  C   UNL     1       9.329  -8.219  -6.084  1.00  0.00     0.010 A 
ATOM     37  C   UNL     1       7.008  -8.923  -6.208  1.00  0.00     0.010 A 
ATOM     38  C   UNL     1       8.359  -9.222  -5.956  1.00  0.00    -0.014 A 
BRANCH  38  39
ATOM     39  C   UNL     1       8.787 -10.615  -5.692  1.00  0.00     0.031 A 
ATOM     40  C   UNL     1       8.898 -11.576  -6.844  1.00  0.00     0.074 A 
ATOM     41  C   UNL     1       9.112 -11.009  -4.448  1.00  0.00     0.049 A 
ATOM     42  N   UNL     1       9.253 -12.835  -6.840  1.00  0.00    -0.248 NA
ATOM     43  C   UNL     1       8.565 -11.047  -8.177  1.00  0.00     0.031 C 
ATOM     44  C   UNL     1       9.088 -10.161  -3.257  1.00  0.00     0.029 A 
ATOM     45  N   UNL     1       9.530 -12.231  -3.984  1.00  0.00    -0.354 N 
ATOM     46  C   UNL     1       9.181 -13.250  -8.164  1.00  0.00     0.074 A 
ATOM     47  C   UNL     1       8.724 -12.118  -8.941  1.00  0.00     0.031 C 
ATOM     48  C   UNL     1       9.471 -10.891  -2.196  1.00  0.00     0.029 A 
ATOM     49  C   UNL     1       9.739 -12.261  -2.628  1.00  0.00     0.049 A 
ATOM     50  H   UNL     1       9.666 -13.011  -4.569  1.00  0.00     0.167 HD
ATOM     51  C   UNL     1       9.477 -14.463  -8.688  1.00  0.00     0.031 A 
ATOM     52  C   UNL     1      10.090 -13.283  -1.825  1.00  0.00     0.031 A 
ATOM     53  C   UNL     1       9.924 -15.592  -7.918  1.00  0.00     0.049 A 
ATOM     54  C   UNL     1      10.341 -14.641  -2.424  1.00  0.00     0.074 A 
ATOM     55  C   UNL     1      10.266 -16.857  -8.362  1.00  0.00     0.029 A 
ATOM     56  N   UNL     1      10.082 -15.593  -6.542  1.00  0.00    -0.354 N 
ATOM     57  N   UNL     1      10.301 -15.011  -3.682  1.00  0.00    -0.248 NA
ATOM     58  C   UNL     1      10.692 -15.721  -1.491  1.00  0.00     0.031 C 
ATOM     59  C   UNL     1      10.582 -17.640  -7.247  1.00  0.00     0.029 A 
ATOM     60  C   UNL     1      10.490 -16.845  -6.116  1.00  0.00     0.049 A 
ATOM     61  H   UNL     1       9.928 -14.818  -5.954  1.00  0.00     0.167 HD
ATOM     62  C   UNL     1      10.650 -16.355  -3.692  1.00  0.00     0.074 A 
ATOM     63  C   UNL     1      10.912 -16.733  -2.319  1.00  0.00     0.031 C 
ATOM     64  C   UNL     1      10.748 -17.203  -4.746  1.00  0.00     0.031 A 
BRANCH  51  65
ATOM     65  C   UNL     1       9.295 -14.641 -10.169  1.00  0.00    -0.014 A 
ATOM     66  C   UNL     1      10.186 -14.064 -11.087  1.00  0.00     0.009 A 
ATOM     67  C   UNL     1       8.243 -15.436 -10.649  1.00  0.00     0.009 A 
ATOM     68  C   UNL     1      10.011 -14.260 -12.459  1.00  0.00     0.001 A 
ATOM     69  C   UNL     1       8.085 -15.650 -12.019  1.00  0.00     0.001 A 
ATOM     70  C   UNL     1       8.964 -15.056 -12.923  1.00  0.00     0.000 A 
ENDBRANCH  51  65
BRANCH  52  71
ATOM     71  C   UNL     1      10.208 -13.075  -0.358  1.00  0.00    -0.014 A 
ATOM     72  C   UNL     1      11.459 -13.128   0.275  1.00  0.00     0.009 A 
ATOM     73  C   UNL     1       9.062 -12.854   0.421  1.00  0.00     0.009 A 
ATOM     74  C   UNL     1      11.556 -12.992   1.662  1.00  0.00     0.001 A 
ATOM     75  C   UNL     1       9.164 -12.691   1.804  1.00  0.00     0.001 A 
ATOM     76  C   UNL     1      10.409 -12.771   2.424  1.00  0.00     0.000 A 
ENDBRANCH  52  71
BRANCH  64  77
ATOM     77  C   UNL     1      11.190 -18.610  -4.458  1.00  0.00    -0.014 A 
ATOM     78  C   UNL     1      10.335 -19.530  -3.833  1.00  0.00     0.009 A 
ATOM     79  C   UNL     1      12.469 -19.031  -4.857  1.00  0.00     0.009 A 
ATOM     80  C   UNL     1      10.765 -20.835  -3.582  1.00  0.00     0.001 A 
ATOM     81  C   UNL     1      12.885 -20.343  -4.632  1.00  0.00     0.001 A 
ATOM     82  C   UNL     1      12.037 -21.241  -3.986  1.00  0.00     0.000 A 
ENDBRANCH  64  77
ENDBRANCH  38  39
ENDBRANCH  31  33
ENDBRANCH  30  31
ENDBRANCH  29  30
ENDBRANCH  28  29
ENDBRANCH   1  28
TORSDOF 18
