REMARK SMILES CC1=C([C@@H](NC(=O)c2cc3c(s2)CCCCC3)C(=O)OCCOCCOC(=O)c2ccc(-c3c4nc(c(-c5ccccc5)c5ccc([nH]5)c(-c5ccccc5)c5nc(c(-c6ccccc6)c6ccc3[nH]6)C=C5)C=C4)cc2)[C@H](C)N=N1
REMARK SMILES IDX 21 1 20 2 18 3 19 4 4 5 3 6 1 7 2 8 80 9 77 10 79 11 78 12
REMARK SMILES IDX 5 13 6 14 7 16 8 17 9 18 12 19 10 20 11 21 17 22 13 24 14 25
REMARK SMILES IDX 15 26 16 27 22 29 23 30 24 31 25 32 26 33 27 34 28 35 29 36
REMARK SMILES IDX 30 37 76 38 31 39 75 40 32 41 33 42 34 43 69 44 35 45 74 46
REMARK SMILES IDX 68 47 70 48 36 49 73 50 67 51 66 52 37 54 59 55 44 56 58 57
REMARK SMILES IDX 45 58 48 59 57 60 71 61 46 62 47 63 56 65 72 66 49 67 38 68
REMARK SMILES IDX 39 69 43 70 40 71 42 72 41 73 60 74 61 75 65 76 62 77 64 78
REMARK SMILES IDX 63 79 50 80 51 81 55 82 52 83 54 84 53 85
REMARK H PARENT 5 15 70 53 48 64
REMARK Flexibility Score: 80.00
ROOT
ATOM      1  C   UNL     1      -4.128  -1.369  -2.596  1.00  0.00     0.261 C 
ENDROOT
BRANCH   1   2
ATOM      2  O   UNL     1      -2.709  -1.290  -2.443  1.00  0.00    -0.461 OA
BRANCH   2   3
ATOM      3  C   UNL     1      -2.180  -0.057  -2.675  1.00  0.00     0.333 C 
ATOM      4  O   UNL     1      -2.813   0.989  -2.575  1.00  0.00    -0.249 OA
BRANCH   3   5
ATOM      5  C   UNL     1      -0.703  -0.080  -3.127  1.00  0.00     0.223 C 
BRANCH   5   6
ATOM      6  C   UNL     1       0.087  -1.102  -2.360  1.00  0.00     0.012 C 
ATOM      7  C   UNL     1       0.781   0.149  -0.236  1.00  0.00     0.069 C 
ATOM      8  C   UNL     1       0.697  -1.008  -1.171  1.00  0.00     0.064 C 
ATOM      9  N   UNL     1       1.327  -2.173  -0.812  1.00  0.00    -0.160 NA
ATOM     10  C   UNL     1       0.410  -2.481  -2.849  1.00  0.00     0.156 C 
ATOM     11  N   UNL     1       1.187  -3.045  -1.711  1.00  0.00    -0.181 NA
ATOM     12  C   UNL     1      -0.762  -3.401  -3.137  1.00  0.00     0.040 C 
ENDBRANCH   5   6
BRANCH   5  13
ATOM     13  N   UNL     1      -0.340  -0.214  -4.544  1.00  0.00    -0.334 N 
ATOM     14  C   UNL     1      -0.972   0.143  -5.713  1.00  0.00     0.262 C 
ATOM     15  H   UNL     1       0.532  -0.647  -4.686  1.00  0.00     0.165 HD
ATOM     16  O   UNL     1      -0.269   0.214  -6.720  1.00  0.00    -0.268 OA
BRANCH  14  17
ATOM     17  C   UNL     1      -2.407   0.239  -5.752  1.00  0.00     0.092 A 
ATOM     18  C   UNL     1      -3.308  -0.714  -6.174  1.00  0.00     0.029 A 
ATOM     19  S   UNL     1      -3.208   1.707  -5.454  1.00  0.00    -0.135 S 
ATOM     20  C   UNL     1      -4.686  -0.360  -5.899  1.00  0.00    -0.033 A 
ATOM     21  C   UNL     1      -4.728   0.887  -5.287  1.00  0.00     0.009 A 
BRANCH  20  22
ATOM     22  C   UNL     1      -5.772  -1.376  -6.127  1.00  0.00     0.037 CG0
ATOM     23  G   UNL     1      -7.247  -1.014  -5.986  1.00  0.00     0.000 G0
ENDBRANCH  20  22
BRANCH  21  24
ATOM     24  C   UNL     1      -5.781   1.602  -4.489  1.00  0.00     0.047 C 
BRANCH  24  25
ATOM     25  C   UNL     1      -7.169   0.986  -4.470  1.00  0.00     0.006 C 
BRANCH  25  26
ATOM     26  C   UNL     1      -7.627   0.449  -5.817  1.00  0.00     0.001 C 
BRANCH  26  27
ATOM     27  C   UNL     1      -7.247  -1.014  -5.986  1.00  0.00     0.005 CG0
ATOM     28  G   UNL     1      -5.772  -1.376  -6.127  1.00  0.00     0.000 G0
ENDBRANCH  26  27
ENDBRANCH  25  26
ENDBRANCH  24  25
ENDBRANCH  21  24
ENDBRANCH  14  17
ENDBRANCH   5  13
ENDBRANCH   3   5
ENDBRANCH   2   3
ENDBRANCH   1   2
BRANCH   1  29
ATOM     29  C   UNL     1      -5.049  -1.044  -1.422  1.00  0.00     0.202 C 
BRANCH  29  30
ATOM     30  O   UNL     1      -4.745   0.038  -0.560  1.00  0.00    -0.374 OA
BRANCH  30  31
ATOM     31  C   UNL     1      -3.618  -0.053   0.306  1.00  0.00     0.202 C 
BRANCH  31  32
ATOM     32  C   UNL     1      -3.664  -1.130   1.378  1.00  0.00     0.261 C 
BRANCH  32  33
ATOM     33  O   UNL     1      -3.453  -2.399   0.770  1.00  0.00    -0.460 OA
BRANCH  33  34
ATOM     34  C   UNL     1      -4.490  -3.254   0.781  1.00  0.00     0.338 C 
ATOM     35  O   UNL     1      -5.613  -3.063   1.241  1.00  0.00    -0.246 OA
BRANCH  34  36
ATOM     36  C   UNL     1      -4.052  -4.512   0.174  1.00  0.00     0.060 A 
ATOM     37  C   UNL     1      -4.958  -5.574   0.202  1.00  0.00     0.016 A 
ATOM     38  C   UNL     1      -2.693  -4.698  -0.125  1.00  0.00     0.016 A 
ATOM     39  C   UNL     1      -4.446  -6.849   0.239  1.00  0.00     0.010 A 
ATOM     40  C   UNL     1      -2.184  -5.969  -0.111  1.00  0.00     0.010 A 
ATOM     41  C   UNL     1      -3.057  -6.999   0.217  1.00  0.00    -0.014 A 
BRANCH  41  42
ATOM     42  C   UNL     1      -2.509  -8.223   0.747  1.00  0.00     0.031 A 
ATOM     43  C   UNL     1      -2.445  -9.339  -0.199  1.00  0.00     0.074 A 
ATOM     44  C   UNL     1      -2.002  -8.277   1.992  1.00  0.00     0.049 A 
ATOM     45  N   UNL     1      -3.173 -10.402  -0.207  1.00  0.00    -0.248 NA
ATOM     46  C   UNL     1      -1.548  -9.190  -1.350  1.00  0.00     0.031 C 
ATOM     47  C   UNL     1      -1.706  -7.161   2.898  1.00  0.00     0.029 A 
ATOM     48  N   UNL     1      -1.529  -9.358   2.663  1.00  0.00    -0.354 N 
ATOM     49  C   UNL     1      -2.686 -11.162  -1.259  1.00  0.00     0.074 A 
ATOM     50  C   UNL     1      -1.845 -10.289  -2.041  1.00  0.00     0.031 C 
ATOM     51  C   UNL     1      -0.903  -7.603   3.892  1.00  0.00     0.029 A 
ATOM     52  C   UNL     1      -0.750  -9.043   3.763  1.00  0.00     0.049 A 
ATOM     53  H   UNL     1      -1.723 -10.284   2.391  1.00  0.00     0.167 HD
ATOM     54  C   UNL     1      -2.775 -12.518  -1.251  1.00  0.00     0.031 A 
ATOM     55  C   UNL     1       0.024  -9.904   4.464  1.00  0.00     0.031 A 
ATOM     56  C   UNL     1      -3.706 -12.997  -0.262  1.00  0.00     0.049 A 
ATOM     57  C   UNL     1      -0.440 -11.279   4.161  1.00  0.00     0.074 A 
ATOM     58  C   UNL     1      -5.051 -12.805  -0.013  1.00  0.00     0.029 A 
ATOM     59  N   UNL     1      -3.178 -13.520   0.896  1.00  0.00    -0.354 N 
ATOM     60  N   UNL     1      -1.583 -11.761   4.556  1.00  0.00    -0.248 NA
ATOM     61  C   UNL     1       0.189 -12.001   3.064  1.00  0.00     0.031 C 
ATOM     62  C   UNL     1      -5.175 -12.805   1.407  1.00  0.00     0.029 A 
ATOM     63  C   UNL     1      -3.909 -13.033   1.950  1.00  0.00     0.049 A 
ATOM     64  H   UNL     1      -2.412 -14.135   0.957  1.00  0.00     0.167 HD
ATOM     65  C   UNL     1      -2.019 -12.554   3.504  1.00  0.00     0.074 A 
ATOM     66  C   UNL     1      -0.834 -12.771   2.680  1.00  0.00     0.031 C 
ATOM     67  C   UNL     1      -3.352 -12.714   3.249  1.00  0.00     0.031 A 
BRANCH  54  68
ATOM     68  C   UNL     1      -1.711 -13.399  -1.849  1.00  0.00    -0.014 A 
ATOM     69  C   UNL     1      -1.939 -14.782  -1.919  1.00  0.00     0.009 A 
ATOM     70  C   UNL     1      -0.397 -12.958  -2.107  1.00  0.00     0.009 A 
ATOM     71  C   UNL     1      -0.894 -15.675  -2.186  1.00  0.00     0.001 A 
ATOM     72  C   UNL     1       0.635 -13.840  -2.425  1.00  0.00     0.001 A 
ATOM     73  C   UNL     1       0.391 -15.204  -2.438  1.00  0.00     0.000 A 
ENDBRANCH  54  68
BRANCH  55  74
ATOM     74  C   UNL     1       1.287  -9.628   5.176  1.00  0.00    -0.014 A 
ATOM     75  C   UNL     1       1.791 -10.539   6.116  1.00  0.00     0.009 A 
ATOM     76  C   UNL     1       2.134  -8.587   4.751  1.00  0.00     0.009 A 
ATOM     77  C   UNL     1       3.107 -10.432   6.584  1.00  0.00     0.001 A 
ATOM     78  C   UNL     1       3.444  -8.475   5.224  1.00  0.00     0.001 A 
ATOM     79  C   UNL     1       3.936  -9.409   6.129  1.00  0.00     0.000 A 
ENDBRANCH  55  74
BRANCH  67  80
ATOM     80  C   UNL     1      -4.327 -12.246   4.303  1.00  0.00    -0.014 A 
ATOM     81  C   UNL     1      -4.406 -10.908   4.728  1.00  0.00     0.009 A 
ATOM     82  C   UNL     1      -5.286 -13.152   4.783  1.00  0.00     0.009 A 
ATOM     83  C   UNL     1      -5.389 -10.498   5.635  1.00  0.00     0.001 A 
ATOM     84  C   UNL     1      -6.282 -12.737   5.671  1.00  0.00     0.001 A 
ATOM     85  C   UNL     1      -6.329 -11.413   6.102  1.00  0.00     0.000 A 
ENDBRANCH  67  80
ENDBRANCH  41  42
ENDBRANCH  34  36
ENDBRANCH  33  34
ENDBRANCH  32  33
ENDBRANCH  31  32
ENDBRANCH  30  31
ENDBRANCH  29  30
ENDBRANCH   1  29
TORSDOF 17
