REMARK SMILES COc1nc2c(cc1C(=O)NCc1ccc(C(=O)OCCOCCOC(=O)c3ccc(-c4c5nc(c(-c6ccccc6)c6ccc([nH]6)c(-c6ccccc6)c6nc(c(-c7ccccc7)c7ccc4[nH]7)C=C6)C=C5)cc3)s1)CCC2
REMARK SMILES IDX 21 1 20 2 19 3 17 4 18 5 16 6 13 7 14 8 76 9 15 10 12 11
REMARK SMILES IDX 11 12 9 13 10 14 8 16 3 17 4 18 5 19 7 20 6 21 79 22 77 23
REMARK SMILES IDX 78 24 2 25 1 26 22 27 23 28 24 29 25 30 26 31 27 32 28 33
REMARK SMILES IDX 29 34 75 35 30 36 74 37 31 38 32 39 33 40 68 41 34 42 73 43
REMARK SMILES IDX 67 44 69 45 35 46 72 47 66 48 65 49 36 51 58 52 43 53 57 54
REMARK SMILES IDX 44 55 47 56 56 57 70 58 45 59 46 60 55 62 71 63 48 64 37 65
REMARK SMILES IDX 38 66 42 67 39 68 41 69 40 70 59 71 60 72 64 73 61 74 63 75
REMARK SMILES IDX 62 76 49 77 50 78 54 79 51 80 53 81 52 82
REMARK H PARENT 11 15 69 50 47 61
REMARK Flexibility Score: inf
ROOT
ATOM      1  C   UNL     1       2.055   8.313   3.816  1.00  0.00     0.202 C 
ENDROOT
BRANCH   1   2
ATOM      2  C   UNL     1       0.595   7.854   3.788  1.00  0.00     0.261 C 
BRANCH   2   3
ATOM      3  O   UNL     1       0.540   6.426   3.912  1.00  0.00    -0.459 OA
BRANCH   3   4
ATOM      4  C   UNL     1       0.067   5.768   2.810  1.00  0.00     0.348 C 
ATOM      5  O   UNL     1      -0.569   6.285   1.914  1.00  0.00    -0.245 OA
BRANCH   4   6
ATOM      6  C   UNL     1       0.557   4.401   2.842  1.00  0.00     0.112 A 
ATOM      7  C   UNL     1       1.251   2.146   2.130  1.00  0.00     0.025 A 
ATOM      8  C   UNL     1       1.454   2.344   3.479  1.00  0.00     0.018 A 
ATOM      9  S   UNL     1       0.676   3.557   1.360  1.00  0.00    -0.131 S 
ATOM     10  C   UNL     1       1.036   3.642   3.894  1.00  0.00     0.028 A 
BRANCH   7  11
ATOM     11  C   UNL     1       1.278   0.869   1.373  1.00  0.00     0.163 C 
BRANCH  11  12
ATOM     12  N   UNL     1       2.591   0.280   1.285  1.00  0.00    -0.347 N 
ATOM     13  C   UNL     1       2.929  -1.053   1.242  1.00  0.00     0.257 C 
ATOM     14  O   UNL     1       4.098  -1.350   0.992  1.00  0.00    -0.269 OA
ATOM     15  H   UNL     1       3.343   0.914   1.252  1.00  0.00     0.164 HD
BRANCH  13  16
ATOM     16  C   UNL     1       1.982  -2.146   1.589  1.00  0.00     0.102 A 
ATOM     17  C   UNL     1       0.628  -2.230   1.233  1.00  0.00     0.226 A 
ATOM     18  N   UNL     1      -0.239  -3.146   1.736  1.00  0.00    -0.218 NA
ATOM     19  C   UNL     1       0.299  -4.069   2.545  1.00  0.00     0.048 A 
ATOM     20  C   UNL     1       2.513  -3.199   2.354  1.00  0.00     0.025 A 
ATOM     21  C   UNL     1       1.652  -4.170   2.827  1.00  0.00    -0.025 A 
ATOM     22  C   UNL     1      -0.483  -5.147   3.240  1.00  0.00     0.057 C 
ATOM     23  C   UNL     1       1.944  -5.406   3.608  1.00  0.00     0.038 C 
ATOM     24  C   UNL     1       0.567  -5.703   4.217  1.00  0.00     0.011 C 
BRANCH  17  25
ATOM     25  O   UNL     1       0.023  -1.341   0.386  1.00  0.00    -0.480 OA
ATOM     26  C   UNL     1       0.346  -1.620  -0.970  1.00  0.00     0.280 C 
ENDBRANCH  17  25
ENDBRANCH  13  16
ENDBRANCH  11  12
ENDBRANCH   7  11
ENDBRANCH   4   6
ENDBRANCH   3   4
ENDBRANCH   2   3
ENDBRANCH   1   2
BRANCH   1  27
ATOM     27  O   UNL     1       2.826   7.947   2.671  1.00  0.00    -0.374 OA
BRANCH  27  28
ATOM     28  C   UNL     1       3.425   6.648   2.673  1.00  0.00     0.202 C 
BRANCH  28  29
ATOM     29  C   UNL     1       4.676   6.491   3.544  1.00  0.00     0.261 C 
BRANCH  29  30
ATOM     30  O   UNL     1       4.318   6.375   4.935  1.00  0.00    -0.460 OA
BRANCH  30  31
ATOM     31  C   UNL     1       4.784   7.361   5.736  1.00  0.00     0.338 C 
ATOM     32  O   UNL     1       5.529   8.277   5.437  1.00  0.00    -0.246 OA
BRANCH  31  33
ATOM     33  C   UNL     1       4.094   7.294   7.035  1.00  0.00     0.060 A 
ATOM     34  C   UNL     1       3.293   8.382   7.402  1.00  0.00     0.016 A 
ATOM     35  C   UNL     1       4.302   6.230   7.915  1.00  0.00     0.016 A 
ATOM     36  C   UNL     1       2.722   8.428   8.670  1.00  0.00     0.010 A 
ATOM     37  C   UNL     1       3.749   6.289   9.197  1.00  0.00     0.010 A 
ATOM     38  C   UNL     1       2.986   7.404   9.588  1.00  0.00    -0.014 A 
BRANCH  38  39
ATOM     39  C   UNL     1       2.600   7.593  11.003  1.00  0.00     0.031 A 
ATOM     40  C   UNL     1       3.580   8.245  11.938  1.00  0.00     0.074 A 
ATOM     41  C   UNL     1       1.379   7.241  11.438  1.00  0.00     0.049 A 
ATOM     42  N   UNL     1       3.446   8.527  13.208  1.00  0.00    -0.248 NA
ATOM     43  C   UNL     1       4.877   8.643  11.364  1.00  0.00     0.031 C 
ATOM     44  C   UNL     1       0.322   6.660  10.613  1.00  0.00     0.029 A 
ATOM     45  N   UNL     1       0.822   7.335  12.688  1.00  0.00    -0.354 N 
ATOM     46  C   UNL     1       4.633   9.144  13.581  1.00  0.00     0.074 A 
ATOM     47  C   UNL     1       5.486   9.176  12.414  1.00  0.00     0.031 C 
ATOM     48  C   UNL     1      -0.762   6.452  11.381  1.00  0.00     0.029 A 
ATOM     49  C   UNL     1      -0.465   6.862  12.753  1.00  0.00     0.049 A 
ATOM     50  H   UNL     1       1.299   7.707  13.465  1.00  0.00     0.167 HD
ATOM     51  C   UNL     1       4.977   9.646  14.788  1.00  0.00     0.031 A 
ATOM     52  C   UNL     1      -1.303   6.761  13.802  1.00  0.00     0.031 A 
ATOM     53  C   UNL     1       4.142   9.600  15.954  1.00  0.00     0.049 A 
ATOM     54  C   UNL     1      -0.857   7.230  15.159  1.00  0.00     0.074 A 
ATOM     55  C   UNL     1       4.412  10.081  17.223  1.00  0.00     0.029 A 
ATOM     56  N   UNL     1       2.879   9.034  15.995  1.00  0.00    -0.354 N 
ATOM     57  N   UNL     1       0.269   7.807  15.500  1.00  0.00    -0.248 NA
ATOM     58  C   UNL     1      -1.793   7.030  16.276  1.00  0.00     0.031 C 
ATOM     59  C   UNL     1       3.325   9.769  18.044  1.00  0.00     0.029 A 
ATOM     60  C   UNL     1       2.365   9.132  17.275  1.00  0.00     0.049 A 
ATOM     61  H   UNL     1       2.416   8.625  15.228  1.00  0.00     0.167 HD
ATOM     62  C   UNL     1       0.172   8.054  16.863  1.00  0.00     0.074 A 
ATOM     63  C   UNL     1      -1.123   7.567  17.289  1.00  0.00     0.031 C 
ATOM     64  C   UNL     1       1.077   8.638  17.684  1.00  0.00     0.031 A 
BRANCH  51  65
ATOM     65  C   UNL     1       6.329  10.280  14.918  1.00  0.00    -0.014 A 
ATOM     66  C   UNL     1       6.559  11.581  14.446  1.00  0.00     0.009 A 
ATOM     67  C   UNL     1       7.359   9.599  15.583  1.00  0.00     0.009 A 
ATOM     68  C   UNL     1       7.804  12.186  14.632  1.00  0.00     0.001 A 
ATOM     69  C   UNL     1       8.597  10.213  15.781  1.00  0.00     0.001 A 
ATOM     70  C   UNL     1       8.818  11.504  15.304  1.00  0.00     0.000 A 
ENDBRANCH  51  65
BRANCH  52  71
ATOM     71  C   UNL     1      -2.655   6.183  13.602  1.00  0.00    -0.014 A 
ATOM     72  C   UNL     1      -3.784   7.012  13.566  1.00  0.00     0.009 A 
ATOM     73  C   UNL     1      -2.815   4.801  13.411  1.00  0.00     0.009 A 
ATOM     74  C   UNL     1      -5.051   6.468  13.344  1.00  0.00     0.001 A 
ATOM     75  C   UNL     1      -4.081   4.263  13.173  1.00  0.00     0.001 A 
ATOM     76  C   UNL     1      -5.198   5.096  13.141  1.00  0.00     0.000 A 
ENDBRANCH  52  71
BRANCH  64  77
ATOM     77  C   UNL     1       0.717   8.800  19.131  1.00  0.00    -0.014 A 
ATOM     78  C   UNL     1       0.843   7.728  20.025  1.00  0.00     0.009 A 
ATOM     79  C   UNL     1       0.376  10.069  19.625  1.00  0.00     0.009 A 
ATOM     80  C   UNL     1       0.635   7.925  21.391  1.00  0.00     0.001 A 
ATOM     81  C   UNL     1       0.185  10.266  20.993  1.00  0.00     0.001 A 
ATOM     82  C   UNL     1       0.316   9.194  21.874  1.00  0.00     0.000 A 
ENDBRANCH  64  77
ENDBRANCH  38  39
ENDBRANCH  31  33
ENDBRANCH  30  31
ENDBRANCH  29  30
ENDBRANCH  28  29
ENDBRANCH  27  28
ENDBRANCH   1  27
TORSDOF 18
