REMARK SMILES O=C(CCn1cc(/C=C\C(=O)c2ccc(F)cc2)c(-c2cccc(Cl)c2)n1)OCCOCCOC(=O)c1ccc(-c2c3nc(c(-c4ccccc4)c4ccc([nH]4)c(-c4ccccc4)c4nc(c(-c5ccccc5)c5ccc2[nH]5)C=C4)C=C3)cc1
REMARK SMILES IDX 29 1 28 2 2 3 1 4 3 5 4 6 5 7 6 8 27 9 7 10 19 11 8 12 9 13
REMARK SMILES IDX 10 14 11 15 12 16 13 17 18 18 14 19 17 20 15 21 16 22 20 23
REMARK SMILES IDX 21 24 26 25 22 26 24 27 23 28 25 29 30 30 31 31 32 32 33 33
REMARK SMILES IDX 34 34 35 35 36 36 37 37 38 38 84 39 39 40 83 41 40 42 41 43
REMARK SMILES IDX 42 44 77 45 43 46 82 47 76 48 78 49 44 50 81 51 75 52 74 53
REMARK SMILES IDX 45 55 67 56 52 57 66 58 53 59 56 60 65 61 79 62 54 63 55 64
REMARK SMILES IDX 64 66 80 67 57 68 46 69 47 70 51 71 48 72 50 73 49 74 68 75
REMARK SMILES IDX 69 76 73 77 70 78 72 79 71 80 58 81 59 82 63 83 60 84 62 85
REMARK SMILES IDX 61 86
REMARK H PARENT 78 54 56 65
REMARK Flexibility Score: inf
ROOT
ATOM      1  C   UNL     1       3.192   0.781   0.906  1.00  0.00     0.261 C 
ENDROOT
BRANCH   1   2
ATOM      2  O   UNL     1       1.914   0.552   0.333  1.00  0.00    -0.463 OA
BRANCH   2   3
ATOM      3  C   UNL     1       1.750   0.463  -1.005  1.00  0.00     0.307 C 
ATOM      4  O   UNL     1       0.700   0.855  -1.510  1.00  0.00    -0.252 OA
BRANCH   3   5
ATOM      5  C   UNL     1       2.780  -0.248  -1.846  1.00  0.00     0.146 C 
BRANCH   5   6
ATOM      6  C   UNL     1       3.741   0.644  -2.614  1.00  0.00     0.156 C 
BRANCH   6   7
ATOM      7  N   UNL     1       4.816   1.205  -1.812  1.00  0.00    -0.271 N 
ATOM      8  C   UNL     1       5.077   2.525  -1.574  1.00  0.00     0.117 A 
ATOM      9  N   UNL     1       5.595   0.378  -1.100  1.00  0.00    -0.172 NA
ATOM     10  C   UNL     1       6.064   2.561  -0.605  1.00  0.00     0.021 A 
ATOM     11  C   UNL     1       6.363   1.177  -0.343  1.00  0.00     0.100 A 
BRANCH  10  12
ATOM     12  C   UNL     1       6.570   3.774  -0.023  1.00  0.00     0.016 C 
ATOM     13  C   UNL     1       7.686   4.061   0.684  1.00  0.00     0.053 C 
BRANCH  13  14
ATOM     14  C   UNL     1       8.899   3.295   1.201  1.00  0.00     0.185 C 
ATOM     15  O   UNL     1       9.856   3.923   1.639  1.00  0.00    -0.289 OA
BRANCH  14  16
ATOM     16  C   UNL     1       8.908   1.750   1.104  1.00  0.00     0.022 A 
ATOM     17  C   UNL     1       8.890   1.506  -0.701  1.00  0.00     0.015 A 
ATOM     18  C   UNL     1       8.389   0.156   2.242  1.00  0.00     0.015 A 
ATOM     19  C   UNL     1       8.322  -0.053  -1.334  1.00  0.00     0.040 A 
ATOM     20  C   UNL     1       7.827  -1.345   1.448  1.00  0.00     0.040 A 
ATOM     21  C   UNL     1       7.793  -1.382  -0.287  1.00  0.00     0.123 A 
ATOM     22  F   UNL     1       7.322  -2.494  -0.874  1.00  0.00    -0.207 F 
ENDBRANCH  14  16
ENDBRANCH  13  14
ENDBRANCH  10  12
BRANCH  11  23
ATOM     23  C   UNL     1       7.403   0.677   0.712  1.00  0.00     0.004 A 
ATOM     24  C   UNL     1       9.300  -0.031   0.629  1.00  0.00     0.010 A 
ATOM     25  C   UNL     1       6.986   1.679   2.184  1.00  0.00     0.031 A 
ATOM     26  C   UNL     1      10.474   0.447   1.896  1.00  0.00     0.002 A 
ATOM     27  C   UNL     1       8.262   2.060   3.340  1.00  0.00     0.041 A 
ATOM     28  C   UNL     1       9.923   1.483   3.184  1.00  0.00     0.020 A 
ATOM     29  Cl  UNL     1       7.864   3.002   4.728  1.00  0.00    -0.084 Cl
ENDBRANCH  11  23
ENDBRANCH   6   7
ENDBRANCH   5   6
ENDBRANCH   3   5
ENDBRANCH   2   3
ENDBRANCH   1   2
BRANCH   1  30
ATOM     30  C   UNL     1       4.001  -0.449   1.288  1.00  0.00     0.202 C 
BRANCH  30  31
ATOM     31  O   UNL     1       3.804  -1.720   0.695  1.00  0.00    -0.374 OA
BRANCH  31  32
ATOM     32  C   UNL     1       2.558  -2.382   0.852  1.00  0.00     0.202 C 
BRANCH  32  33
ATOM     33  C   UNL     1       2.313  -3.062   2.191  1.00  0.00     0.261 C 
BRANCH  33  34
ATOM     34  O   UNL     1       2.598  -2.181   3.263  1.00  0.00    -0.460 OA
BRANCH  34  35
ATOM     35  C   UNL     1       3.891  -2.179   3.679  1.00  0.00     0.338 C 
ATOM     36  O   UNL     1       4.776  -2.959   3.381  1.00  0.00    -0.246 OA
BRANCH  35  37
ATOM     37  C   UNL     1       4.064  -0.991   4.565  1.00  0.00     0.060 A 
ATOM     38  C   UNL     1       5.130  -1.108   5.433  1.00  0.00     0.016 A 
ATOM     39  C   UNL     1       2.903  -0.320   4.948  1.00  0.00     0.016 A 
ATOM     40  C   UNL     1       4.771  -1.316   6.738  1.00  0.00     0.010 A 
ATOM     41  C   UNL     1       2.591  -0.386   6.270  1.00  0.00     0.010 A 
ATOM     42  C   UNL     1       3.426  -1.143   7.085  1.00  0.00    -0.014 A 
BRANCH  42  43
ATOM     43  C   UNL     1       2.958  -1.455   8.417  1.00  0.00     0.031 A 
ATOM     44  C   UNL     1       3.419  -0.340   9.281  1.00  0.00     0.074 A 
ATOM     45  C   UNL     1       2.190  -2.526   8.739  1.00  0.00     0.049 A 
ATOM     46  N   UNL     1       4.558  -0.317   9.896  1.00  0.00    -0.248 NA
ATOM     47  C   UNL     1       2.830   1.008   9.096  1.00  0.00     0.031 C 
ATOM     48  C   UNL     1       1.598  -3.587   7.907  1.00  0.00     0.029 A 
ATOM     49  N   UNL     1       1.723  -2.869   9.978  1.00  0.00    -0.354 N 
ATOM     50  C   UNL     1       4.630   0.954  10.446  1.00  0.00     0.074 A 
ATOM     51  C   UNL     1       3.782   1.775   9.634  1.00  0.00     0.031 C 
ATOM     52  C   UNL     1       0.655  -4.267   8.617  1.00  0.00     0.029 A 
ATOM     53  C   UNL     1       0.672  -3.803   9.990  1.00  0.00     0.049 A 
ATOM     54  H   UNL     1       2.097  -2.487  10.805  1.00  0.00     0.167 HD
ATOM     55  C   UNL     1       4.942   1.087  11.765  1.00  0.00     0.031 A 
ATOM     56  C   UNL     1      -0.102  -4.108  11.077  1.00  0.00     0.031 A 
ATOM     57  C   UNL     1       5.551  -0.131  12.252  1.00  0.00     0.049 A 
ATOM     58  C   UNL     1       0.677  -3.686  12.275  1.00  0.00     0.074 A 
ATOM     59  C   UNL     1       6.683  -0.852  11.934  1.00  0.00     0.029 A 
ATOM     60  N   UNL     1       4.686  -1.004  12.868  1.00  0.00    -0.354 N 
ATOM     61  N   UNL     1       1.796  -4.269  12.608  1.00  0.00    -0.248 NA
ATOM     62  C   UNL     1       0.540  -2.291  12.677  1.00  0.00     0.031 C 
ATOM     63  C   UNL     1       6.277  -2.219  11.990  1.00  0.00     0.029 A 
ATOM     64  C   UNL     1       4.970  -2.282  12.475  1.00  0.00     0.049 A 
ATOM     65  H   UNL     1       3.973  -0.749  13.496  1.00  0.00     0.167 HD
ATOM     66  C   UNL     1       2.680  -3.220  12.816  1.00  0.00     0.074 A 
ATOM     67  C   UNL     1       1.837  -2.016  12.860  1.00  0.00     0.031 C 
ATOM     68  C   UNL     1       4.018  -3.365  12.575  1.00  0.00     0.031 A 
BRANCH  55  69
ATOM     69  C   UNL     1       4.169   2.003  12.694  1.00  0.00    -0.014 A 
ATOM     70  C   UNL     1       4.495   1.956  14.060  1.00  0.00     0.009 A 
ATOM     71  C   UNL     1       2.966   2.659  12.362  1.00  0.00     0.009 A 
ATOM     72  C   UNL     1       3.616   2.436  15.037  1.00  0.00     0.001 A 
ATOM     73  C   UNL     1       2.098   3.166  13.332  1.00  0.00     0.001 A 
ATOM     74  C   UNL     1       2.411   3.026  14.673  1.00  0.00     0.000 A 
ENDBRANCH  55  69
BRANCH  56  75
ATOM     75  C   UNL     1      -1.579  -4.318  11.161  1.00  0.00    -0.014 A 
ATOM     76  C   UNL     1      -2.212  -4.815  12.322  1.00  0.00     0.009 A 
ATOM     77  C   UNL     1      -2.409  -3.726  10.193  1.00  0.00     0.009 A 
ATOM     78  C   UNL     1      -3.606  -4.701  12.505  1.00  0.00     0.001 A 
ATOM     79  C   UNL     1      -3.794  -3.602  10.380  1.00  0.00     0.001 A 
ATOM     80  C   UNL     1      -4.393  -4.080  11.540  1.00  0.00     0.000 A 
ENDBRANCH  56  75
BRANCH  68  81
ATOM     81  C   UNL     1       4.550  -4.746  12.273  1.00  0.00    -0.014 A 
ATOM     82  C   UNL     1       4.269  -5.485  11.107  1.00  0.00     0.009 A 
ATOM     83  C   UNL     1       5.522  -5.239  13.152  1.00  0.00     0.009 A 
ATOM     84  C   UNL     1       4.927  -6.699  10.859  1.00  0.00     0.001 A 
ATOM     85  C   UNL     1       6.191  -6.434  12.895  1.00  0.00     0.001 A 
ATOM     86  C   UNL     1       5.887  -7.171  11.754  1.00  0.00     0.000 A 
ENDBRANCH  68  81
ENDBRANCH  42  43
ENDBRANCH  35  37
ENDBRANCH  34  35
ENDBRANCH  33  34
ENDBRANCH  32  33
ENDBRANCH  31  32
ENDBRANCH  30  31
ENDBRANCH   1  30
TORSDOF 20
