REMARK SMILES CCc1n[nH]c(C(=O)N(C)[C@H]2COC[C@H]2C(=O)OCCOCCOC(=O)c2ccc(-c3c4nc(c(-c5ccccc5)c5ccc([nH]5)c(-c5ccccc5)c5nc(c(-c6ccccc6)c6ccc3[nH]6)C=C5)C=C4)cc2)n1
REMARK SMILES IDX 20 1 19 2 18 3 16 4 17 5 15 6 11 7 12 8 13 9 14 10 9 11
REMARK SMILES IDX 10 12 7 13 8 14 6 15 3 16 4 17 75 18 5 19 2 21 1 22 21 23
REMARK SMILES IDX 22 24 23 25 24 26 25 27 26 28 27 29 28 30 74 31 29 32 73 33
REMARK SMILES IDX 30 34 31 35 32 36 67 37 33 38 72 39 66 40 68 41 34 42 71 43
REMARK SMILES IDX 65 44 64 45 35 47 57 48 42 49 56 50 43 51 46 52 55 53 69 54
REMARK SMILES IDX 44 55 45 56 54 58 70 59 47 60 36 61 37 62 41 63 38 64 40 65
REMARK SMILES IDX 39 66 58 67 59 68 63 69 60 70 62 71 61 72 48 73 49 74 53 75
REMARK SMILES IDX 50 76 52 77 51 78
REMARK H PARENT 5 20 68 46 46 57
REMARK Flexibility Score: inf
ROOT
ATOM      1  C   UNL     1       3.285   7.188   6.589  1.00  0.00     0.202 C 
ENDROOT
BRANCH   1   2
ATOM      2  C   UNL     1       2.640   8.383   5.894  1.00  0.00     0.261 C 
BRANCH   2   3
ATOM      3  O   UNL     1       1.657   7.984   4.913  1.00  0.00    -0.463 OA
BRANCH   3   4
ATOM      4  C   UNL     1       2.125   8.007   3.648  1.00  0.00     0.313 C 
ATOM      5  O   UNL     1       3.272   8.333   3.349  1.00  0.00    -0.252 OA
BRANCH   4   6
ATOM      6  C   UNL     1       1.132   7.695   2.571  1.00  0.00     0.150 C 
ATOM      7  C   UNL     1       0.051   6.608   2.505  1.00  0.00     0.127 C 
ATOM      8  C   UNL     1      -0.679   7.135   1.245  1.00  0.00     0.186 C 
ATOM      9  O   UNL     1      -0.638   8.576   1.282  1.00  0.00    -0.378 OA
ATOM     10  C   UNL     1       0.455   8.968   2.122  1.00  0.00     0.177 C 
BRANCH   7  11
ATOM     11  N   UNL     1      -0.833   6.342   3.676  1.00  0.00    -0.333 N 
ATOM     12  C   UNL     1      -2.113   7.069   3.746  1.00  0.00     0.147 C 
BRANCH  11  13
ATOM     13  C   UNL     1      -0.613   5.155   4.469  1.00  0.00     0.291 C 
ATOM     14  O   UNL     1       0.033   4.216   4.004  1.00  0.00    -0.265 OA
BRANCH  13  15
ATOM     15  C   UNL     1      -1.085   5.181   5.878  1.00  0.00     0.214 A 
ATOM     16  C   UNL     1      -1.631   6.745   8.275  1.00  0.00     0.151 A 
ATOM     17  N   UNL     1      -0.997   5.033   8.914  1.00  0.00    -0.158 NA
ATOM     18  N   UNL     1      -1.546   6.579   6.431  1.00  0.00    -0.207 NA
ATOM     19  N   UNL     1      -0.777   4.027   7.289  1.00  0.00    -0.255 N 
ATOM     20  H   UNL     1      -0.543   3.073   7.221  1.00  0.00     0.192 HD
BRANCH  16  21
ATOM     21  C   UNL     1      -3.005   7.673   8.420  1.00  0.00     0.076 C 
ATOM     22  C   UNL     1      -4.240   7.268   7.569  1.00  0.00     0.012 C 
ENDBRANCH  16  21
ENDBRANCH  13  15
ENDBRANCH  11  13
ENDBRANCH   7  11
ENDBRANCH   4   6
ENDBRANCH   3   4
ENDBRANCH   2   3
ENDBRANCH   1   2
BRANCH   1  23
ATOM     23  O   UNL     1       4.085   6.288   5.832  1.00  0.00    -0.374 OA
BRANCH  23  24
ATOM     24  C   UNL     1       3.460   5.319   4.990  1.00  0.00     0.202 C 
BRANCH  24  25
ATOM     25  C   UNL     1       2.734   4.155   5.664  1.00  0.00     0.261 C 
BRANCH  25  26
ATOM     26  O   UNL     1       1.450   4.635   6.101  1.00  0.00    -0.460 OA
BRANCH  26  27
ATOM     27  C   UNL     1       1.286   4.982   7.387  1.00  0.00     0.338 C 
ATOM     28  O   UNL     1       2.099   4.713   8.259  1.00  0.00    -0.246 OA
BRANCH  27  29
ATOM     29  C   UNL     1      -0.182   5.831   7.610  1.00  0.00     0.060 A 
ATOM     30  C   UNL     1       0.446   6.646   9.030  1.00  0.00     0.016 A 
ATOM     31  C   UNL     1      -2.186   5.159   7.668  1.00  0.00     0.016 A 
ATOM     32  C   UNL     1      -0.469   6.722  10.372  1.00  0.00     0.010 A 
ATOM     33  C   UNL     1      -2.971   5.303   9.281  1.00  0.00     0.010 A 
ATOM     34  C   UNL     1      -2.061   6.151  10.519  1.00  0.00    -0.014 A 
BRANCH  34  35
ATOM     35  C   UNL     1      -2.787   6.768  11.677  1.00  0.00     0.031 A 
ATOM     36  C   UNL     1      -3.585   5.851  12.515  1.00  0.00     0.074 A 
ATOM     37  C   UNL     1      -2.869   8.118  11.823  1.00  0.00     0.049 A 
ATOM     38  N   UNL     1      -4.552   6.128  13.340  1.00  0.00    -0.248 NA
ATOM     39  C   UNL     1      -3.293   4.421  12.340  1.00  0.00     0.031 C 
ATOM     40  C   UNL     1      -2.150   9.141  11.040  1.00  0.00     0.029 A 
ATOM     41  N   UNL     1      -3.703   8.884  12.610  1.00  0.00    -0.354 N 
ATOM     42  C   UNL     1      -5.011   4.894  13.763  1.00  0.00     0.074 A 
ATOM     43  C   UNL     1      -4.298   3.884  13.009  1.00  0.00     0.031 C 
ATOM     44  C   UNL     1      -2.646  10.359  11.297  1.00  0.00     0.029 A 
ATOM     45  C   UNL     1      -3.692  10.229  12.292  1.00  0.00     0.049 A 
ATOM     46  H   UNL     1      -4.257   8.507  13.331  1.00  0.00     0.167 HD
ATOM     47  C   UNL     1      -5.909   4.635  14.737  1.00  0.00     0.031 A 
ATOM     48  C   UNL     1      -4.448  11.250  12.738  1.00  0.00     0.031 A 
ATOM     49  C   UNL     1      -6.587   5.665  15.472  1.00  0.00     0.049 A 
ATOM     50  C   UNL     1      -5.461  10.945  13.802  1.00  0.00     0.074 A 
ATOM     51  C   UNL     1      -7.453   5.536  16.539  1.00  0.00     0.029 A 
ATOM     52  N   UNL     1      -6.468   7.024  15.208  1.00  0.00    -0.354 N 
ATOM     53  N   UNL     1      -5.819   9.778  14.282  1.00  0.00    -0.248 NA
ATOM     54  C   UNL     1      -6.136  12.091  14.421  1.00  0.00     0.031 C 
ATOM     55  C   UNL     1      -7.906   6.815  16.882  1.00  0.00     0.029 A 
ATOM     56  C   UNL     1      -7.263   7.746  16.079  1.00  0.00     0.049 A 
ATOM     57  H   UNL     1      -5.901   7.416  14.504  1.00  0.00     0.167 HD
ATOM     58  C   UNL     1      -6.719  10.049  15.300  1.00  0.00     0.074 A 
ATOM     59  C   UNL     1      -6.846  11.493  15.367  1.00  0.00     0.031 C 
ATOM     60  C   UNL     1      -7.372   9.185  16.116  1.00  0.00     0.031 A 
BRANCH  47  61
ATOM     61  C   UNL     1      -6.167   3.186  15.030  1.00  0.00    -0.014 A 
ATOM     62  C   UNL     1      -5.135   2.343  15.482  1.00  0.00     0.009 A 
ATOM     63  C   UNL     1      -7.432   2.637  14.787  1.00  0.00     0.009 A 
ATOM     64  C   UNL     1      -5.341   0.969  15.600  1.00  0.00     0.001 A 
ATOM     65  C   UNL     1      -7.650   1.269  14.954  1.00  0.00     0.001 A 
ATOM     66  C   UNL     1      -6.600   0.434  15.338  1.00  0.00     0.000 A 
ENDBRANCH  47  61
BRANCH  48  67
ATOM     67  C   UNL     1      -4.236  12.646  12.252  1.00  0.00    -0.014 A 
ATOM     68  C   UNL     1      -3.634  13.602  13.088  1.00  0.00     0.009 A 
ATOM     69  C   UNL     1      -4.637  13.044  10.967  1.00  0.00     0.009 A 
ATOM     70  C   UNL     1      -3.479  14.927  12.669  1.00  0.00     0.001 A 
ATOM     71  C   UNL     1      -4.454  14.365  10.538  1.00  0.00     0.001 A 
ATOM     72  C   UNL     1      -3.887  15.308  11.393  1.00  0.00     0.000 A 
ENDBRANCH  48  67
BRANCH  60  73
ATOM     73  C   UNL     1      -8.240   9.787  17.183  1.00  0.00    -0.014 A 
ATOM     74  C   UNL     1      -9.430  10.462  16.870  1.00  0.00     0.009 A 
ATOM     75  C   UNL     1      -7.874   9.635  18.530  1.00  0.00     0.009 A 
ATOM     76  C   UNL     1     -10.215  11.008  17.886  1.00  0.00     0.001 A 
ATOM     77  C   UNL     1      -8.684  10.142  19.544  1.00  0.00     0.001 A 
ATOM     78  C   UNL     1      -9.846  10.839  19.221  1.00  0.00     0.000 A 
ENDBRANCH  60  73
ENDBRANCH  34  35
ENDBRANCH  27  29
ENDBRANCH  26  27
ENDBRANCH  25  26
ENDBRANCH  24  25
ENDBRANCH  23  24
ENDBRANCH   1  23
TORSDOF 18
