REMARK SMILES C=CCN(CC(=O)OCCOCCOC(=O)c1ccc(-c2c3nc(c(-c4ccccc4)c4ccc([nH]4)c(-c4ccccc4)c4nc(c(-c5ccccc5)c5ccc2[nH]5)C=C4)C=C3)cc1)C(=O)N(C)[C@H]1CCC[N@H+](C)C1
REMARK SMILES IDX 10 1 9 2 8 3 6 4 7 5 5 6 4 7 3 8 2 9 1 10 65 11 66 12 67 13
REMARK SMILES IDX 68 14 69 15 70 16 75 17 71 18 73 19 72 20 74 21 11 23 12 24
REMARK SMILES IDX 13 25 14 26 15 27 16 28 17 29 18 30 64 31 19 32 63 33 20 34
REMARK SMILES IDX 21 35 22 36 57 37 23 38 62 39 56 40 58 41 24 42 61 43 55 44
REMARK SMILES IDX 54 45 25 47 47 48 32 49 46 50 33 51 36 52 45 53 59 54 34 55
REMARK SMILES IDX 35 56 44 58 60 59 37 60 26 61 27 62 31 63 28 64 30 65 29 66
REMARK SMILES IDX 48 67 49 68 53 69 50 70 52 71 51 72 38 73 39 74 43 75 40 76
REMARK SMILES IDX 42 77 41 78
REMARK H PARENT 73 22 58 46 36 57
REMARK Flexibility Score: inf
ROOT
ATOM      1  C   UNL     1       1.588   0.119   5.826  1.00  0.00     0.202 C 
ENDROOT
BRANCH   1   2
ATOM      2  C   UNL     1       2.181  -0.812   6.894  1.00  0.00     0.261 C 
BRANCH   2   3
ATOM      3  O   UNL     1       2.082  -2.210   6.536  1.00  0.00    -0.462 OA
BRANCH   3   4
ATOM      4  C   UNL     1       1.726  -3.057   7.543  1.00  0.00     0.325 C 
ATOM      5  O   UNL     1       1.554  -2.710   8.708  1.00  0.00    -0.250 OA
BRANCH   4   6
ATOM      6  C   UNL     1       1.582  -4.526   7.115  1.00  0.00     0.244 C 
BRANCH   6   7
ATOM      7  N   UNL     1       1.723  -4.829   5.685  1.00  0.00    -0.310 N 
BRANCH   7   8
ATOM      8  C   UNL     1       3.058  -5.314   5.315  1.00  0.00     0.149 C 
BRANCH   8   9
ATOM      9  C   UNL     1       2.999  -6.816   5.215  1.00  0.00    -0.013 C 
ATOM     10  C   UNL     1       3.316  -7.508   4.111  1.00  0.00     0.006 C 
ENDBRANCH   8   9
ENDBRANCH   7   8
BRANCH   7  11
ATOM     11  C   UNL     1       0.825  -4.700   4.633  1.00  0.00     0.321 C 
ATOM     12  O   UNL     1       1.300  -4.673   3.493  1.00  0.00    -0.248 OA
BRANCH  11  13
ATOM     13  N   UNL     1      -0.551  -4.626   4.822  1.00  0.00    -0.319 N 
ATOM     14  C   UNL     1      -1.219  -4.455   6.104  1.00  0.00     0.149 C 
BRANCH  13  15
ATOM     15  C   UNL     1      -1.524  -4.732   3.664  1.00  0.00     0.141 C 
ATOM     16  C   UNL     1      -1.010  -4.951   2.222  1.00  0.00     0.037 C 
ATOM     17  C   UNL     1      -2.649  -5.787   3.894  1.00  0.00     0.287 C 
ATOM     18  C   UNL     1      -0.613  -6.405   1.953  1.00  0.00     0.064 C 
ATOM     19  N   UNL     1      -2.155  -7.162   3.747  1.00  0.00    -0.336 N 
ATOM     20  C   UNL     1      -1.712  -7.388   2.363  1.00  0.00     0.262 C 
ATOM     21  C   UNL     1      -3.192  -8.118   4.124  1.00  0.00     0.332 C 
ATOM     22  H   UNL     1      -1.358  -7.298   4.370  1.00  0.00     0.347 HD
ENDBRANCH  13  15
ENDBRANCH  11  13
ENDBRANCH   7  11
ENDBRANCH   6   7
ENDBRANCH   4   6
ENDBRANCH   3   4
ENDBRANCH   2   3
ENDBRANCH   1   2
BRANCH   1  23
ATOM     23  O   UNL     1       0.162   0.091   5.700  1.00  0.00    -0.374 OA
BRANCH  23  24
ATOM     24  C   UNL     1      -0.400  -1.105   5.164  1.00  0.00     0.202 C 
BRANCH  24  25
ATOM     25  C   UNL     1      -0.313  -1.251   3.647  1.00  0.00     0.261 C 
BRANCH  25  26
ATOM     26  O   UNL     1       1.027  -1.129   3.180  1.00  0.00    -0.460 OA
BRANCH  26  27
ATOM     27  C   UNL     1       1.158  -0.334   2.099  1.00  0.00     0.338 C 
ATOM     28  O   UNL     1       0.287   0.167   1.413  1.00  0.00    -0.246 OA
BRANCH  27  29
ATOM     29  C   UNL     1       2.575   0.001   1.970  1.00  0.00     0.060 A 
ATOM     30  C   UNL     1       2.952   1.315   2.258  1.00  0.00     0.016 A 
ATOM     31  C   UNL     1       3.494  -0.946   1.514  1.00  0.00     0.016 A 
ATOM     32  C   UNL     1       4.260   1.711   2.022  1.00  0.00     0.010 A 
ATOM     33  C   UNL     1       4.807  -0.545   1.277  1.00  0.00     0.010 A 
ATOM     34  C   UNL     1       5.178   0.794   1.490  1.00  0.00    -0.014 A 
BRANCH  34  35
ATOM     35  C   UNL     1       6.476   1.299   1.002  1.00  0.00     0.031 A 
ATOM     36  C   UNL     1       6.614   1.622  -0.458  1.00  0.00     0.074 A 
ATOM     37  C   UNL     1       7.476   1.531   1.867  1.00  0.00     0.049 A 
ATOM     38  N   UNL     1       7.631   2.139  -1.097  1.00  0.00    -0.248 NA
ATOM     39  C   UNL     1       5.449   1.331  -1.311  1.00  0.00     0.031 C 
ATOM     40  C   UNL     1       7.419   1.288   3.308  1.00  0.00     0.029 A 
ATOM     41  N   UNL     1       8.730   2.038   1.657  1.00  0.00    -0.354 N 
ATOM     42  C   UNL     1       7.224   2.245  -2.421  1.00  0.00     0.074 A 
ATOM     43  C   UNL     1       5.887   1.703  -2.505  1.00  0.00     0.031 C 
ATOM     44  C   UNL     1       8.589   1.656   3.857  1.00  0.00     0.029 A 
ATOM     45  C   UNL     1       9.479   2.135   2.803  1.00  0.00     0.049 A 
ATOM     46  H   UNL     1       9.063   2.307   0.771  1.00  0.00     0.167 HD
ATOM     47  C   UNL     1       7.903   2.762  -3.471  1.00  0.00     0.031 A 
ATOM     48  C   UNL     1      10.745   2.559   2.972  1.00  0.00     0.031 A 
ATOM     49  C   UNL     1       9.244   3.271  -3.381  1.00  0.00     0.049 A 
ATOM     50  C   UNL     1      11.508   3.050   1.772  1.00  0.00     0.074 A 
ATOM     51  C   UNL     1      10.037   3.802  -4.381  1.00  0.00     0.029 A 
ATOM     52  N   UNL     1       9.991   3.301  -2.213  1.00  0.00    -0.354 N 
ATOM     53  N   UNL     1      11.106   3.168   0.528  1.00  0.00    -0.248 NA
ATOM     54  C   UNL     1      12.895   3.476   2.000  1.00  0.00     0.031 C 
ATOM     55  C   UNL     1      11.284   4.112  -3.826  1.00  0.00     0.029 A 
ATOM     56  C   UNL     1      11.246   3.822  -2.470  1.00  0.00     0.049 A 
ATOM     57  H   UNL     1       9.675   2.997  -1.332  1.00  0.00     0.167 HD
ATOM     58  C   UNL     1      12.180   3.705  -0.169  1.00  0.00     0.074 A 
ATOM     59  C   UNL     1      13.244   3.904   0.795  1.00  0.00     0.031 C 
ATOM     60  C   UNL     1      12.282   4.006  -1.487  1.00  0.00     0.031 A 
BRANCH  47  61
ATOM     61  C   UNL     1       7.208   2.770  -4.803  1.00  0.00    -0.014 A 
ATOM     62  C   UNL     1       6.142   3.647  -5.061  1.00  0.00     0.009 A 
ATOM     63  C   UNL     1       7.629   1.896  -5.818  1.00  0.00     0.009 A 
ATOM     64  C   UNL     1       5.491   3.625  -6.297  1.00  0.00     0.001 A 
ATOM     65  C   UNL     1       6.992   1.895  -7.060  1.00  0.00     0.001 A 
ATOM     66  C   UNL     1       5.919   2.752  -7.296  1.00  0.00     0.000 A 
ENDBRANCH  47  61
BRANCH  48  67
ATOM     67  C   UNL     1      11.371   2.529   4.319  1.00  0.00    -0.014 A 
ATOM     68  C   UNL     1      11.681   3.717   4.996  1.00  0.00     0.009 A 
ATOM     69  C   UNL     1      11.674   1.302   4.931  1.00  0.00     0.009 A 
ATOM     70  C   UNL     1      12.305   3.678   6.246  1.00  0.00     0.001 A 
ATOM     71  C   UNL     1      12.273   1.265   6.193  1.00  0.00     0.001 A 
ATOM     72  C   UNL     1      12.597   2.454   6.844  1.00  0.00     0.000 A 
ENDBRANCH  48  67
BRANCH  60  73
ATOM     73  C   UNL     1      13.577   4.610  -1.948  1.00  0.00    -0.014 A 
ATOM     74  C   UNL     1      14.739   3.833  -2.068  1.00  0.00     0.009 A 
ATOM     75  C   UNL     1      13.620   5.967  -2.306  1.00  0.00     0.009 A 
ATOM     76  C   UNL     1      15.929   4.413  -2.509  1.00  0.00     0.001 A 
ATOM     77  C   UNL     1      14.805   6.536  -2.773  1.00  0.00     0.001 A 
ATOM     78  C   UNL     1      15.960   5.761  -2.865  1.00  0.00     0.000 A 
ENDBRANCH  60  73
ENDBRANCH  34  35
ENDBRANCH  27  29
ENDBRANCH  26  27
ENDBRANCH  25  26
ENDBRANCH  24  25
ENDBRANCH  23  24
ENDBRANCH   1  23
TORSDOF 20
