REMARK SMILES C[C@H](C(=O)Nc1ccc(C(F)(F)F)cc1)n1nc(C(=O)OCCOCCOC(=O)c2ccc(-c3c4nc(c(-c5ccccc5)c5ccc([nH]5)c(-c5ccccc5)c5nc(c(-c6ccccc6)c6ccc3[nH]6)C=C5)C=C4)cc2)c2ccccc2c1=O
REMARK SMILES IDX 23 1 22 2 21 3 19 4 20 5 18 6 16 7 17 8 84 9 83 10 85 11
REMARK SMILES IDX 78 12 82 13 79 14 81 15 80 16 2 17 1 18 3 19 4 20 5 21 6 23
REMARK SMILES IDX 7 24 15 25 8 26 14 27 9 28 10 29 11 30 12 31 13 32 24 33
REMARK SMILES IDX 25 34 26 35 27 36 28 37 29 38 30 39 31 40 77 41 32 42 76 43
REMARK SMILES IDX 33 44 34 45 35 46 70 47 36 48 75 49 69 50 71 51 37 52 74 53
REMARK SMILES IDX 68 54 67 55 38 57 60 58 45 59 59 60 46 61 49 62 58 63 72 64
REMARK SMILES IDX 47 65 48 66 57 68 73 69 50 70 39 71 40 72 44 73 41 74 43 75
REMARK SMILES IDX 42 76 61 77 62 78 66 79 63 80 65 81 64 82 51 83 52 84 56 85
REMARK SMILES IDX 53 86 55 87 54 88
REMARK H PARENT 5 22 71 56 49 67
REMARK Flexibility Score: inf
ROOT
ATOM      1  C   UNL     1      -5.854  -2.953   3.422  1.00  0.00     0.202 C 
ENDROOT
BRANCH   1   2
ATOM      2  C   UNL     1      -5.152  -2.835   2.068  1.00  0.00     0.261 C 
BRANCH   2   3
ATOM      3  O   UNL     1      -4.179  -1.778   2.034  1.00  0.00    -0.458 OA
BRANCH   3   4
ATOM      4  C   UNL     1      -4.441  -0.806   1.142  1.00  0.00     0.359 C 
ATOM      5  O   UNL     1      -5.410  -0.722   0.407  1.00  0.00    -0.244 OA
BRANCH   4   6
ATOM      6  C   UNL     1      -3.326   0.230   1.062  1.00  0.00     0.176 A 
ATOM      7  N   UNL     1      -1.091   0.601   0.632  1.00  0.00    -0.216 N 
ATOM      8  N   UNL     1      -2.105  -0.204   1.117  1.00  0.00    -0.161 NA
ATOM      9  C   UNL     1      -1.313   1.837   0.025  1.00  0.00     0.275 A 
ATOM     10  C   UNL     1      -2.698   2.352   0.072  1.00  0.00     0.051 A 
ATOM     11  O   UNL     1      -0.445   2.518  -0.509  1.00  0.00    -0.267 OA
ATOM     12  C   UNL     1      -3.676   1.611   0.720  1.00  0.00     0.022 A 
ATOM     13  C   UNL     1      -3.028   3.591  -0.486  1.00  0.00     0.014 A 
ATOM     14  C   UNL     1      -4.941   2.160   0.959  1.00  0.00     0.011 A 
ATOM     15  C   UNL     1      -4.312   4.114  -0.312  1.00  0.00     0.001 A 
ATOM     16  C   UNL     1      -5.253   3.418   0.446  1.00  0.00     0.001 A 
BRANCH   7  17
ATOM     17  C   UNL     1       0.269   0.052   0.781  1.00  0.00     0.197 C 
ATOM     18  C   UNL     1       1.069   0.874   1.798  1.00  0.00     0.044 C 
BRANCH  17  19
ATOM     19  C   UNL     1       1.067  -0.138  -0.535  1.00  0.00     0.249 C 
ATOM     20  O   UNL     1       1.970   0.643  -0.864  1.00  0.00    -0.272 OA
ATOM     21  N   UNL     1       0.931  -1.255  -1.323  1.00  0.00    -0.324 N 
ATOM     22  H   UNL     1       1.592  -1.316  -2.050  1.00  0.00     0.170 HD
BRANCH  21  23
ATOM     23  C   UNL     1       0.027  -2.322  -1.282  1.00  0.00     0.041 A 
ATOM     24  C   UNL     1       0.501  -3.600  -1.578  1.00  0.00     0.027 A 
ATOM     25  C   UNL     1      -1.328  -2.158  -1.034  1.00  0.00     0.027 A 
ATOM     26  C   UNL     1      -0.345  -4.712  -1.475  1.00  0.00     0.015 A 
ATOM     27  C   UNL     1      -2.180  -3.259  -0.920  1.00  0.00     0.015 A 
ATOM     28  C   UNL     1      -1.687  -4.555  -1.101  1.00  0.00     0.056 A 
BRANCH  28  29
ATOM     29  C   UNL     1      -2.597  -5.747  -0.944  1.00  0.00     0.416 C 
ATOM     30  F   UNL     1      -3.179  -6.119  -2.116  1.00  0.00    -0.166 F 
ATOM     31  F   UNL     1      -1.950  -6.850  -0.475  1.00  0.00    -0.166 F 
ATOM     32  F   UNL     1      -3.621  -5.522  -0.070  1.00  0.00    -0.166 F 
ENDBRANCH  28  29
ENDBRANCH  21  23
ENDBRANCH  17  19
ENDBRANCH   7  17
ENDBRANCH   4   6
ENDBRANCH   3   4
ENDBRANCH   2   3
ENDBRANCH   1   2
BRANCH   1  33
ATOM     33  O   UNL     1      -6.622  -1.837   3.862  1.00  0.00    -0.374 OA
BRANCH  33  34
ATOM     34  C   UNL     1      -5.955  -0.609   4.132  1.00  0.00     0.202 C 
BRANCH  34  35
ATOM     35  C   UNL     1      -4.924  -0.568   5.269  1.00  0.00     0.261 C 
BRANCH  35  36
ATOM     36  O   UNL     1      -3.830  -1.486   5.096  1.00  0.00    -0.460 OA
BRANCH  36  37
ATOM     37  C   UNL     1      -3.723  -2.416   6.077  1.00  0.00     0.338 C 
ATOM     38  O   UNL     1      -4.425  -2.535   7.066  1.00  0.00    -0.246 OA
BRANCH  37  39
ATOM     39  C   UNL     1      -2.686  -3.409   5.752  1.00  0.00     0.060 A 
ATOM     40  C   UNL     1      -3.096  -4.725   5.507  1.00  0.00     0.016 A 
ATOM     41  C   UNL     1      -1.332  -3.096   5.887  1.00  0.00     0.016 A 
ATOM     42  C   UNL     1      -2.152  -5.747   5.445  1.00  0.00     0.010 A 
ATOM     43  C   UNL     1      -0.387  -4.127   5.839  1.00  0.00     0.010 A 
ATOM     44  C   UNL     1      -0.798  -5.460   5.661  1.00  0.00    -0.014 A 
BRANCH  44  45
ATOM     45  C   UNL     1       0.150  -6.581   5.860  1.00  0.00     0.031 A 
ATOM     46  C   UNL     1       0.464  -7.037   7.260  1.00  0.00     0.074 A 
ATOM     47  C   UNL     1       0.677  -7.226   4.806  1.00  0.00     0.049 A 
ATOM     48  N   UNL     1       1.231  -8.020   7.658  1.00  0.00    -0.248 NA
ATOM     49  C   UNL     1      -0.179  -6.292   8.355  1.00  0.00     0.031 C 
ATOM     50  C   UNL     1       0.411  -6.914   3.403  1.00  0.00     0.029 A 
ATOM     51  N   UNL     1       1.543  -8.289   4.760  1.00  0.00    -0.354 N 
ATOM     52  C   UNL     1       1.163  -8.013   9.046  1.00  0.00     0.074 A 
ATOM     53  C   UNL     1       0.301  -6.913   9.422  1.00  0.00     0.031 C 
ATOM     54  C   UNL     1       1.101  -7.770   2.631  1.00  0.00     0.029 A 
ATOM     55  C   UNL     1       1.874  -8.670   3.485  1.00  0.00     0.049 A 
ATOM     56  H   UNL     1       1.893  -8.735   5.565  1.00  0.00     0.167 HD
ATOM     57  C   UNL     1       1.758  -8.850   9.928  1.00  0.00     0.031 A 
ATOM     58  C   UNL     1       2.714  -9.631   3.056  1.00  0.00     0.031 A 
ATOM     59  C   UNL     1       2.629  -9.933   9.561  1.00  0.00     0.049 A 
ATOM     60  C   UNL     1       3.429 -10.494   4.058  1.00  0.00     0.074 A 
ATOM     61  C   UNL     1       3.271 -10.843  10.384  1.00  0.00     0.029 A 
ATOM     62  N   UNL     1       2.988 -10.247   8.260  1.00  0.00    -0.354 N 
ATOM     63  N   UNL     1       3.338 -10.491   5.366  1.00  0.00    -0.248 NA
ATOM     64  C   UNL     1       4.360 -11.498   3.521  1.00  0.00     0.031 C 
ATOM     65  C   UNL     1       4.057 -11.677   9.582  1.00  0.00     0.029 A 
ATOM     66  C   UNL     1       3.866 -11.317   8.258  1.00  0.00     0.049 A 
ATOM     67  H   UNL     1       2.666  -9.778   7.457  1.00  0.00     0.167 HD
ATOM     68  C   UNL     1       4.182 -11.503   5.807  1.00  0.00     0.074 A 
ATOM     69  C   UNL     1       4.766 -12.106   4.627  1.00  0.00     0.031 C 
ATOM     70  C   UNL     1       4.446 -11.899   7.076  1.00  0.00     0.031 A 
BRANCH  57  71
ATOM     71  C   UNL     1       1.508  -8.599  11.388  1.00  0.00    -0.014 A 
ATOM     72  C   UNL     1       0.277  -8.921  11.981  1.00  0.00     0.009 A 
ATOM     73  C   UNL     1       2.526  -8.053  12.185  1.00  0.00     0.009 A 
ATOM     74  C   UNL     1       0.062  -8.673  13.339  1.00  0.00     0.001 A 
ATOM     75  C   UNL     1       2.315  -7.827  13.546  1.00  0.00     0.001 A 
ATOM     76  C   UNL     1       1.081  -8.129  14.120  1.00  0.00     0.000 A 
ENDBRANCH  57  71
BRANCH  58  77
ATOM     77  C   UNL     1       2.939  -9.816   1.600  1.00  0.00    -0.014 A 
ATOM     78  C   UNL     1       2.422 -10.936   0.933  1.00  0.00     0.009 A 
ATOM     79  C   UNL     1       3.682  -8.872   0.874  1.00  0.00     0.009 A 
ATOM     80  C   UNL     1       2.659 -11.114  -0.432  1.00  0.00     0.001 A 
ATOM     81  C   UNL     1       3.897  -9.042  -0.495  1.00  0.00     0.001 A 
ATOM     82  C   UNL     1       3.392 -10.166  -1.145  1.00  0.00     0.000 A 
ENDBRANCH  58  77
BRANCH  70  83
ATOM     83  C   UNL     1       5.394 -13.050   7.252  1.00  0.00    -0.014 A 
ATOM     84  C   UNL     1       6.776 -12.885   7.074  1.00  0.00     0.009 A 
ATOM     85  C   UNL     1       4.901 -14.306   7.638  1.00  0.00     0.009 A 
ATOM     86  C   UNL     1       7.644 -13.965   7.252  1.00  0.00     0.001 A 
ATOM     87  C   UNL     1       5.773 -15.377   7.837  1.00  0.00     0.001 A 
ATOM     88  C   UNL     1       7.142 -15.208   7.636  1.00  0.00     0.000 A 
ENDBRANCH  70  83
ENDBRANCH  44  45
ENDBRANCH  37  39
ENDBRANCH  36  37
ENDBRANCH  35  36
ENDBRANCH  34  35
ENDBRANCH  33  34
ENDBRANCH   1  33
TORSDOF 18
