REMARK SMILES O=C(OCCOCCOC(=O)[C@@H]1[C@@H](C(=O)Nc2cccc([N+](=O)[O-])c2)[C@@H]2C=C[C@H]1O2)c1ccc(-c2c3nc(c(-c4ccccc4)c4ccc([nH]4)c(-c4ccccc4)c4nc(c(-c5ccccc5)c5ccc2[nH]5)C=C4)C=C3)cc1
REMARK SMILES IDX 7 1 6 2 5 3 4 4 3 5 2 6 1 7 31 8 32 9 78 10 33 11 77 12
REMARK SMILES IDX 34 13 35 14 36 15 71 16 37 17 76 18 70 19 72 20 38 21 75 22
REMARK SMILES IDX 69 23 68 24 39 26 61 27 46 28 60 29 47 30 50 31 59 32 73 33
REMARK SMILES IDX 48 34 49 35 58 37 74 38 51 39 40 40 41 41 45 42 42 43 44 44
REMARK SMILES IDX 43 45 62 46 63 47 67 48 64 49 66 50 65 51 52 52 53 53 57 54
REMARK SMILES IDX 54 55 56 56 55 57 8 58 9 59 10 60 11 61 12 62 13 63 29 64
REMARK SMILES IDX 26 65 28 66 30 67 27 68 14 69 15 70 16 71 17 73 18 74 25 75
REMARK SMILES IDX 19 76 21 77 20 78 22 79 23 80 24 81
REMARK H PARENT 72 25 50 36 16 72
REMARK Flexibility Score: inf
ROOT
ATOM      1  C   UNL     1       3.366  -1.411   1.323  1.00  0.00     0.202 C 
ENDROOT
BRANCH   1   2
ATOM      2  O   UNL     1       4.603  -0.745   1.046  1.00  0.00    -0.374 OA
BRANCH   2   3
ATOM      3  C   UNL     1       4.621   0.681   1.028  1.00  0.00     0.202 C 
BRANCH   3   4
ATOM      4  C   UNL     1       4.040   1.414  -0.178  1.00  0.00     0.261 C 
BRANCH   4   5
ATOM      5  O   UNL     1       2.632   1.144  -0.292  1.00  0.00    -0.460 OA
BRANCH   5   6
ATOM      6  C   UNL     1       2.037   0.527  -1.341  1.00  0.00     0.338 C 
ATOM      7  O   UNL     1       0.818   0.562  -1.469  1.00  0.00    -0.246 OA
BRANCH   6   8
ATOM      8  C   UNL     1       2.840  -0.266  -2.307  1.00  0.00     0.060 A 
ATOM      9  C   UNL     1       3.958  -0.988  -1.901  1.00  0.00     0.016 A 
ATOM     10  C   UNL     1       2.410  -0.404  -3.626  1.00  0.00     0.016 A 
ATOM     11  C   UNL     1       4.659  -1.817  -2.727  1.00  0.00     0.010 A 
ATOM     12  C   UNL     1       3.078  -1.289  -4.478  1.00  0.00     0.010 A 
ATOM     13  C   UNL     1       4.179  -2.016  -4.003  1.00  0.00    -0.014 A 
BRANCH  13  14
ATOM     14  C   UNL     1       4.939  -2.974  -4.796  1.00  0.00     0.031 A 
ATOM     15  C   UNL     1       5.887  -2.430  -5.799  1.00  0.00     0.074 A 
ATOM     16  C   UNL     1       4.893  -4.274  -4.450  1.00  0.00     0.049 A 
ATOM     17  N   UNL     1       6.560  -3.067  -6.710  1.00  0.00    -0.248 NA
ATOM     18  C   UNL     1       6.120  -0.974  -5.768  1.00  0.00     0.031 C 
ATOM     19  C   UNL     1       4.156  -4.826  -3.302  1.00  0.00     0.029 A 
ATOM     20  N   UNL     1       5.503  -5.362  -5.000  1.00  0.00    -0.354 N 
ATOM     21  C   UNL     1       7.235  -2.082  -7.414  1.00  0.00     0.074 A 
ATOM     22  C   UNL     1       6.933  -0.812  -6.800  1.00  0.00     0.031 C 
ATOM     23  C   UNL     1       4.357  -6.152  -3.245  1.00  0.00     0.029 A 
ATOM     24  C   UNL     1       5.138  -6.547  -4.406  1.00  0.00     0.049 A 
ATOM     25  H   UNL     1       6.141  -5.306  -5.749  1.00  0.00     0.167 HD
ATOM     26  C   UNL     1       7.997  -2.256  -8.513  1.00  0.00     0.031 A 
ATOM     27  C   UNL     1       5.350  -7.806  -4.825  1.00  0.00     0.031 A 
ATOM     28  C   UNL     1       8.247  -3.554  -9.070  1.00  0.00     0.049 A 
ATOM     29  C   UNL     1       6.091  -7.962  -6.126  1.00  0.00     0.074 A 
ATOM     30  C   UNL     1       8.941  -3.887 -10.213  1.00  0.00     0.029 A 
ATOM     31  N   UNL     1       7.793  -4.741  -8.504  1.00  0.00    -0.354 N 
ATOM     32  N   UNL     1       6.659  -7.035  -6.864  1.00  0.00    -0.248 NA
ATOM     33  C   UNL     1       6.190  -9.317  -6.673  1.00  0.00     0.031 C 
ATOM     34  C   UNL     1       8.848  -5.273 -10.376  1.00  0.00     0.029 A 
ATOM     35  C   UNL     1       8.155  -5.809  -9.297  1.00  0.00     0.049 A 
ATOM     36  H   UNL     1       7.288  -4.808  -7.661  1.00  0.00     0.167 HD
ATOM     37  C   UNL     1       7.190  -7.694  -7.960  1.00  0.00     0.074 A 
ATOM     38  C   UNL     1       6.903  -9.104  -7.770  1.00  0.00     0.031 C 
ATOM     39  C   UNL     1       7.842  -7.192  -9.038  1.00  0.00     0.031 A 
BRANCH  26  40
ATOM     40  C   UNL     1       8.458  -1.023  -9.226  1.00  0.00    -0.014 A 
ATOM     41  C   UNL     1       9.464  -0.192  -8.714  1.00  0.00     0.009 A 
ATOM     42  C   UNL     1       7.829  -0.670 -10.431  1.00  0.00     0.009 A 
ATOM     43  C   UNL     1       9.813   0.984  -9.384  1.00  0.00     0.001 A 
ATOM     44  C   UNL     1       8.196   0.491 -11.111  1.00  0.00     0.001 A 
ATOM     45  C   UNL     1       9.183   1.321 -10.583  1.00  0.00     0.000 A 
ENDBRANCH  26  40
BRANCH  27  46
ATOM     46  C   UNL     1       4.742  -8.969  -4.121  1.00  0.00    -0.014 A 
ATOM     47  C   UNL     1       5.538  -9.999  -3.599  1.00  0.00     0.009 A 
ATOM     48  C   UNL     1       3.344  -9.084  -4.012  1.00  0.00     0.009 A 
ATOM     49  C   UNL     1       4.950 -11.131  -3.026  1.00  0.00     0.001 A 
ATOM     50  C   UNL     1       2.759 -10.198  -3.405  1.00  0.00     0.001 A 
ATOM     51  C   UNL     1       3.563 -11.230  -2.928  1.00  0.00     0.000 A 
ENDBRANCH  27  46
BRANCH  39  52
ATOM     52  C   UNL     1       8.303  -8.183 -10.061  1.00  0.00    -0.014 A 
ATOM     53  C   UNL     1       7.394  -8.785 -10.942  1.00  0.00     0.009 A 
ATOM     54  C   UNL     1       9.675  -8.441 -10.198  1.00  0.00     0.009 A 
ATOM     55  C   UNL     1       7.853  -9.646 -11.937  1.00  0.00     0.001 A 
ATOM     56  C   UNL     1      10.133  -9.274 -11.215  1.00  0.00     0.001 A 
ATOM     57  C   UNL     1       9.221  -9.880 -12.079  1.00  0.00     0.000 A 
ENDBRANCH  39  52
ENDBRANCH  13  14
ENDBRANCH   6   8
ENDBRANCH   5   6
ENDBRANCH   4   5
ENDBRANCH   3   4
ENDBRANCH   2   3
ENDBRANCH   1   2
BRANCH   1  58
ATOM     58  C   UNL     1       3.662  -2.788   1.929  1.00  0.00     0.261 C 
BRANCH  58  59
ATOM     59  O   UNL     1       4.266  -2.573   3.215  1.00  0.00    -0.463 OA
BRANCH  59  60
ATOM     60  C   UNL     1       5.595  -2.259   3.186  1.00  0.00     0.312 C 
ATOM     61  O   UNL     1       6.360  -2.561   2.289  1.00  0.00    -0.252 OA
BRANCH  60  62
ATOM     62  C   UNL     1       5.906  -1.378   4.376  1.00  0.00     0.147 C 
ATOM     63  C   UNL     1       6.192   0.092   3.997  1.00  0.00     0.129 C 
ATOM     64  C   UNL     1       7.161  -1.802   5.133  1.00  0.00     0.157 C 
ATOM     65  C   UNL     1       7.605   0.260   4.614  1.00  0.00     0.155 C 
ATOM     66  C   UNL     1       8.362  -1.860   4.251  1.00  0.00     0.004 C 
ATOM     67  O   UNL     1       7.438  -0.547   5.816  1.00  0.00    -0.365 OA
ATOM     68  C   UNL     1       8.618  -0.595   3.898  1.00  0.00     0.004 C 
BRANCH  63  69
ATOM     69  C   UNL     1       5.322   1.301   4.431  1.00  0.00     0.231 C 
ATOM     70  O   UNL     1       5.874   2.412   4.524  1.00  0.00    -0.274 OA
ATOM     71  N   UNL     1       3.954   1.379   4.426  1.00  0.00    -0.325 N 
ATOM     72  H   UNL     1       3.627   2.304   4.340  1.00  0.00     0.169 HD
BRANCH  71  73
ATOM     73  C   UNL     1       2.914   0.448   4.515  1.00  0.00     0.048 A 
ATOM     74  C   UNL     1       1.758   0.640   3.745  1.00  0.00     0.026 A 
ATOM     75  C   UNL     1       2.981  -0.651   5.351  1.00  0.00     0.111 A 
ATOM     76  C   UNL     1       0.805  -0.384   3.633  1.00  0.00     0.009 A 
ATOM     77  C   UNL     1       2.093  -1.716   5.165  1.00  0.00     0.271 A 
ATOM     78  C   UNL     1       1.005  -1.595   4.295  1.00  0.00     0.086 A 
BRANCH  77  79
ATOM     79  N   UNL     1       2.429  -3.022   5.748  1.00  0.00     0.062 N 
ATOM     80  O   UNL     1       1.779  -4.005   5.369  1.00  0.00    -0.258 OA
ATOM     81  O   UNL     1       3.382  -3.069   6.540  1.00  0.00    -0.258 OA
ENDBRANCH  77  79
ENDBRANCH  71  73
ENDBRANCH  63  69
ENDBRANCH  60  62
ENDBRANCH  59  60
ENDBRANCH  58  59
ENDBRANCH   1  58
TORSDOF 17
