REMARK SMILES COc1ccc(C[N@@H+]2C[C@@H](C(=O)OCCOCCOC(=O)c3ccc(-c4c5nc(c(-c6ccccc6)c6ccc([nH]6)c(-c6ccccc6)c6nc(c(-c7ccccc7)c7ccc4[nH]7)C=C6)C=C5)cc3)[C@H](c3ccccc3OC)C2)c(OC)c1
REMARK SMILES IDX 15 1 14 2 13 3 11 4 12 5 10 6 8 7 9 8 79 9 70 11 7 12 6 13
REMARK SMILES IDX 3 14 4 15 83 16 5 17 80 18 2 19 1 20 81 21 82 22 71 23 72 24
REMARK SMILES IDX 76 25 73 26 75 27 74 28 77 29 78 30 16 31 17 32 18 33 19 34
REMARK SMILES IDX 20 35 21 36 22 37 23 38 69 39 24 40 68 41 25 42 26 43 27 44
REMARK SMILES IDX 62 45 28 46 67 47 61 48 63 49 29 50 66 51 60 52 59 53 30 55
REMARK SMILES IDX 52 56 37 57 51 58 38 59 41 60 50 61 64 62 39 63 40 64 49 66
REMARK SMILES IDX 65 67 42 68 31 69 32 70 36 71 33 72 35 73 34 74 53 75 54 76
REMARK SMILES IDX 58 77 55 78 57 79 56 80 43 81 44 82 48 83 45 84 47 85 46 86
REMARK H PARENT 8 10 63 54 41 65
REMARK Flexibility Score: inf
ROOT
ATOM      1  C   UNL     1      -3.968   5.609   4.299  1.00  0.00     0.202 C 
ENDROOT
BRANCH   1   2
ATOM      2  C   UNL     1      -3.307   4.282   3.920  1.00  0.00     0.261 C 
BRANCH   2   3
ATOM      3  O   UNL     1      -2.020   4.140   4.529  1.00  0.00    -0.463 OA
BRANCH   3   4
ATOM      4  C   UNL     1      -0.989   3.893   3.678  1.00  0.00     0.315 C 
ATOM      5  O   UNL     1      -1.139   3.597   2.497  1.00  0.00    -0.252 OA
BRANCH   4   6
ATOM      6  C   UNL     1       0.357   3.909   4.351  1.00  0.00     0.167 C 
ATOM      7  N   UNL     1       1.603   3.396   6.284  1.00  0.00    -0.330 N 
ATOM      8  C   UNL     1       0.223   3.528   5.826  1.00  0.00     0.278 C 
ATOM      9  C   UNL     1       2.319   4.473   5.554  1.00  0.00     0.272 C 
ATOM     10  H   UNL     1       1.698   3.508   7.293  1.00  0.00     0.348 HD
ATOM     11  C   UNL     1       1.378   5.053   4.431  1.00  0.00     0.098 C 
BRANCH   7  12
ATOM     12  C   UNL     1       2.167   2.017   6.100  1.00  0.00     0.303 C 
BRANCH  12  13
ATOM     13  C   UNL     1       1.897   1.291   4.779  1.00  0.00     0.048 A 
ATOM     14  C   UNL     1       1.030   0.683   2.175  1.00  0.00     0.122 A 
ATOM     15  C   UNL     1       0.181   0.460   3.254  1.00  0.00     0.047 A 
ATOM     16  C   UNL     1       2.348   1.084   2.394  1.00  0.00     0.093 A 
ATOM     17  C   UNL     1       0.625   0.720   4.553  1.00  0.00     0.017 A 
ATOM     18  C   UNL     1       2.797   1.348   3.700  1.00  0.00     0.131 A 
BRANCH  14  19
ATOM     19  O   UNL     1       0.461   0.674   0.931  1.00  0.00    -0.497 OA
ATOM     20  C   UNL     1       1.048  -0.272   0.049  1.00  0.00     0.278 C 
ENDBRANCH  14  19
BRANCH  18  21
ATOM     21  O   UNL     1       4.075   1.771   3.960  1.00  0.00    -0.496 OA
ATOM     22  C   UNL     1       5.066   1.087   3.194  1.00  0.00     0.278 C 
ENDBRANCH  18  21
ENDBRANCH  12  13
ENDBRANCH   7  12
BRANCH  11  23
ATOM     23  C   UNL     1       2.071   5.472   3.132  1.00  0.00     0.004 A 
ATOM     24  C   UNL     1       3.424   5.187   2.862  1.00  0.00     0.008 A 
ATOM     25  C   UNL     1       1.381   6.209   2.151  1.00  0.00     0.122 A 
ATOM     26  C   UNL     1       4.035   5.547   1.656  1.00  0.00     0.001 A 
ATOM     27  C   UNL     1       1.978   6.541   0.923  1.00  0.00     0.047 A 
ATOM     28  C   UNL     1       3.303   6.191   0.670  1.00  0.00     0.004 A 
BRANCH  25  29
ATOM     29  O   UNL     1       0.176   6.768   2.492  1.00  0.00    -0.496 OA
ATOM     30  C   UNL     1      -0.902   6.340   1.668  1.00  0.00     0.278 C 
ENDBRANCH  25  29
ENDBRANCH  11  23
ENDBRANCH   4   6
ENDBRANCH   3   4
ENDBRANCH   2   3
ENDBRANCH   1   2
BRANCH   1  31
ATOM     31  O   UNL     1      -3.192   6.802   4.253  1.00  0.00    -0.374 OA
BRANCH  31  32
ATOM     32  C   UNL     1      -2.085   6.947   5.144  1.00  0.00     0.202 C 
BRANCH  32  33
ATOM     33  C   UNL     1      -2.354   7.074   6.649  1.00  0.00     0.261 C 
BRANCH  33  34
ATOM     34  O   UNL     1      -3.040   5.941   7.204  1.00  0.00    -0.460 OA
BRANCH  34  35
ATOM     35  C   UNL     1      -4.325   6.191   7.557  1.00  0.00     0.338 C 
ATOM     36  O   UNL     1      -4.926   7.246   7.487  1.00  0.00    -0.246 OA
BRANCH  35  37
ATOM     37  C   UNL     1      -5.003   4.922   7.867  1.00  0.00     0.060 A 
ATOM     38  C   UNL     1      -6.159   4.614   7.137  1.00  0.00     0.016 A 
ATOM     39  C   UNL     1      -4.569   4.103   8.909  1.00  0.00     0.016 A 
ATOM     40  C   UNL     1      -6.922   3.509   7.482  1.00  0.00     0.010 A 
ATOM     41  C   UNL     1      -5.348   3.002   9.269  1.00  0.00     0.010 A 
ATOM     42  C   UNL     1      -6.547   2.733   8.584  1.00  0.00    -0.014 A 
BRANCH  42  43
ATOM     43  C   UNL     1      -7.520   1.768   9.133  1.00  0.00     0.031 A 
ATOM     44  C   UNL     1      -8.354   2.183  10.310  1.00  0.00     0.074 A 
ATOM     45  C   UNL     1      -7.683   0.566   8.560  1.00  0.00     0.049 A 
ATOM     46  N   UNL     1      -9.255   1.503  10.969  1.00  0.00    -0.248 NA
ATOM     47  C   UNL     1      -8.139   3.550  10.814  1.00  0.00     0.031 C 
ATOM     48  C   UNL     1      -6.958   0.087   7.384  1.00  0.00     0.029 A 
ATOM     49  N   UNL     1      -8.508  -0.472   8.899  1.00  0.00    -0.354 N 
ATOM     50  C   UNL     1      -9.699   2.351  11.976  1.00  0.00     0.074 A 
ATOM     51  C   UNL     1      -8.951   3.583  11.858  1.00  0.00     0.031 C 
ATOM     52  C   UNL     1      -7.361  -1.165   7.109  1.00  0.00     0.029 A 
ATOM     53  C   UNL     1      -8.340  -1.581   8.110  1.00  0.00     0.049 A 
ATOM     54  H   UNL     1      -9.159  -0.427   9.637  1.00  0.00     0.167 HD
ATOM     55  C   UNL     1     -10.645   2.119  12.916  1.00  0.00     0.031 A 
ATOM     56  C   UNL     1      -8.893  -2.804   8.208  1.00  0.00     0.031 A 
ATOM     57  C   UNL     1     -11.366   0.879  13.032  1.00  0.00     0.049 A 
ATOM     58  C   UNL     1      -9.896  -3.063   9.298  1.00  0.00     0.074 A 
ATOM     59  C   UNL     1     -12.364   0.540  13.927  1.00  0.00     0.029 A 
ATOM     60  N   UNL     1     -11.149  -0.234  12.232  1.00  0.00    -0.354 N 
ATOM     61  N   UNL     1     -10.338  -2.247  10.226  1.00  0.00    -0.248 NA
ATOM     62  C   UNL     1     -10.485  -4.407   9.347  1.00  0.00     0.031 C 
ATOM     63  C   UNL     1     -12.698  -0.801  13.716  1.00  0.00     0.029 A 
ATOM     64  C   UNL     1     -11.965  -1.276  12.639  1.00  0.00     0.049 A 
ATOM     65  H   UNL     1     -10.509  -0.277  11.485  1.00  0.00     0.167 HD
ATOM     66  C   UNL     1     -11.271  -2.970  10.957  1.00  0.00     0.074 A 
ATOM     67  C   UNL     1     -11.344  -4.285  10.351  1.00  0.00     0.031 C 
ATOM     68  C   UNL     1     -12.006  -2.583  12.030  1.00  0.00     0.031 A 
BRANCH  55  69
ATOM     69  C   UNL     1     -10.895   3.207  13.925  1.00  0.00    -0.014 A 
ATOM     70  C   UNL     1     -11.478   4.433  13.565  1.00  0.00     0.009 A 
ATOM     71  C   UNL     1     -10.528   3.001  15.264  1.00  0.00     0.009 A 
ATOM     72  C   UNL     1     -11.640   5.446  14.514  1.00  0.00     0.001 A 
ATOM     73  C   UNL     1     -10.722   4.002  16.218  1.00  0.00     0.001 A 
ATOM     74  C   UNL     1     -11.264   5.229  15.839  1.00  0.00     0.000 A 
ENDBRANCH  55  69
BRANCH  56  75
ATOM     75  C   UNL     1      -8.477  -3.870   7.262  1.00  0.00    -0.014 A 
ATOM     76  C   UNL     1      -9.352  -4.342   6.273  1.00  0.00     0.009 A 
ATOM     77  C   UNL     1      -7.176  -4.398   7.326  1.00  0.00     0.009 A 
ATOM     78  C   UNL     1      -8.935  -5.329   5.375  1.00  0.00     0.001 A 
ATOM     79  C   UNL     1      -6.754  -5.361   6.409  1.00  0.00     0.001 A 
ATOM     80  C   UNL     1      -7.636  -5.831   5.438  1.00  0.00     0.000 A 
ENDBRANCH  56  75
BRANCH  68  81
ATOM     81  C   UNL     1     -12.969  -3.587  12.600  1.00  0.00    -0.014 A 
ATOM     82  C   UNL     1     -12.519  -4.717  13.301  1.00  0.00     0.009 A 
ATOM     83  C   UNL     1     -14.351  -3.374  12.470  1.00  0.00     0.009 A 
ATOM     84  C   UNL     1     -13.434  -5.632  13.827  1.00  0.00     0.001 A 
ATOM     85  C   UNL     1     -15.263  -4.271  13.027  1.00  0.00     0.001 A 
ATOM     86  C   UNL     1     -14.804  -5.404  13.695  1.00  0.00     0.000 A 
ENDBRANCH  68  81
ENDBRANCH  42  43
ENDBRANCH  35  37
ENDBRANCH  34  35
ENDBRANCH  33  34
ENDBRANCH  32  33
ENDBRANCH  31  32
ENDBRANCH   1  31
TORSDOF 20
