REMARK SMILES CCN(C(=O)[C@H]1C=C[C@@H]([NH3+])C1)[C@H](C)CC(=O)OCCOCCOC(=O)c1ccc(-c2c3nc(c(-c4ccccc4)c4ccc([nH]4)c(-c4ccccc4)c4nc(c(-c5ccccc5)c5ccc2[nH]5)C=C4)C=C3)cc1
REMARK SMILES IDX 18 1 17 2 15 3 16 4 14 5 12 6 13 7 3 8 2 9 1 10 4 11 5 12
REMARK SMILES IDX 6 13 7 14 11 15 8 16 9 17 10 18 19 22 20 23 21 24 22 25
REMARK SMILES IDX 23 26 24 27 25 28 26 29 27 30 73 31 28 32 72 33 29 34 30 35
REMARK SMILES IDX 31 36 66 37 32 38 71 39 65 40 67 41 33 42 70 43 64 44 63 45
REMARK SMILES IDX 34 47 56 48 41 49 55 50 42 51 45 52 54 53 68 54 43 55 44 56
REMARK SMILES IDX 53 58 69 59 46 60 35 61 36 62 40 63 37 64 39 65 38 66 57 67
REMARK SMILES IDX 58 68 62 69 59 70 61 71 60 72 47 73 48 74 52 75 49 76 51 77
REMARK SMILES IDX 50 78
REMARK H PARENT 10 19 10 20 10 21 67 46 45 57
REMARK Flexibility Score: inf
ROOT
ATOM      1  C   UNL     1       1.320  -3.460   1.795  1.00  0.00     0.261 C 
ENDROOT
BRANCH   1   2
ATOM      2  O   UNL     1       1.476  -2.382   0.851  1.00  0.00    -0.463 OA
BRANCH   2   3
ATOM      3  C   UNL     1       2.734  -1.907   0.660  1.00  0.00     0.307 C 
ATOM      4  O   UNL     1       3.739  -2.326   1.217  1.00  0.00    -0.252 OA
BRANCH   3   5
ATOM      5  C   UNL     1       2.750  -0.783  -0.343  1.00  0.00     0.147 C 
BRANCH   5   6
ATOM      6  C   UNL     1       2.428  -1.226  -1.780  1.00  0.00     0.093 C 
ATOM      7  C   UNL     1       0.933  -1.503  -2.016  1.00  0.00     0.031 C 
BRANCH   6   8
ATOM      8  N   UNL     1       2.956  -0.258  -2.778  1.00  0.00    -0.339 N 
BRANCH   8   9
ATOM      9  C   UNL     1       4.079  -0.701  -3.619  1.00  0.00     0.116 C 
ATOM     10  C   UNL     1       5.306  -1.138  -2.829  1.00  0.00     0.027 C 
ENDBRANCH   8   9
BRANCH   8  11
ATOM     11  C   UNL     1       2.356   1.003  -2.850  1.00  0.00     0.229 C 
ATOM     12  O   UNL     1       1.555   1.363  -1.981  1.00  0.00    -0.274 OA
BRANCH  11  13
ATOM     13  C   UNL     1       2.737   1.965  -3.989  1.00  0.00     0.107 C 
ATOM     14  C   UNL     1       2.447   1.464  -5.380  1.00  0.00    -0.012 C 
ATOM     15  C   UNL     1       1.859   3.236  -3.955  1.00  0.00     0.087 C 
ATOM     16  C   UNL     1       1.914   2.415  -6.156  1.00  0.00     0.033 C 
ATOM     17  C   UNL     1       1.717   3.690  -5.411  1.00  0.00     0.205 C 
BRANCH  17  18
ATOM     18  N   UNL     1       0.414   4.273  -5.670  1.00  0.00    -0.352 N 
ATOM     19  H   UNL     1      -0.313   3.599  -5.429  1.00  0.00     0.345 HD
ATOM     20  H   UNL     1       0.340   4.514  -6.658  1.00  0.00     0.345 HD
ATOM     21  H   UNL     1       0.300   5.114  -5.104  1.00  0.00     0.345 HD
ENDBRANCH  17  18
ENDBRANCH  11  13
ENDBRANCH   8  11
ENDBRANCH   6   8
ENDBRANCH   5   6
ENDBRANCH   3   5
ENDBRANCH   2   3
ENDBRANCH   1   2
BRANCH   1  22
ATOM     22  C   UNL     1       0.940  -4.765   1.088  1.00  0.00     0.202 C 
BRANCH  22  23
ATOM     23  O   UNL     1       2.021  -5.466   0.472  1.00  0.00    -0.374 OA
BRANCH  23  24
ATOM     24  C   UNL     1       2.443  -4.992  -0.803  1.00  0.00     0.202 C 
BRANCH  24  25
ATOM     25  C   UNL     1       1.649  -5.531  -1.998  1.00  0.00     0.261 C 
BRANCH  25  26
ATOM     26  O   UNL     1       0.289  -5.056  -1.989  1.00  0.00    -0.460 OA
BRANCH  26  27
ATOM     27  C   UNL     1      -0.637  -5.990  -1.674  1.00  0.00     0.338 C 
ATOM     28  O   UNL     1      -0.452  -7.189  -1.512  1.00  0.00    -0.246 OA
BRANCH  27  29
ATOM     29  C   UNL     1      -1.933  -5.350  -1.377  1.00  0.00     0.060 A 
ATOM     30  C   UNL     1      -2.580  -5.734  -0.196  1.00  0.00     0.016 A 
ATOM     31  C   UNL     1      -2.545  -4.454  -2.258  1.00  0.00     0.016 A 
ATOM     32  C   UNL     1      -3.864  -5.271   0.082  1.00  0.00     0.010 A 
ATOM     33  C   UNL     1      -3.839  -3.994  -1.980  1.00  0.00     0.010 A 
ATOM     34  C   UNL     1      -4.519  -4.431  -0.828  1.00  0.00    -0.014 A 
BRANCH  34  35
ATOM     35  C   UNL     1      -5.962  -4.137  -0.636  1.00  0.00     0.031 A 
ATOM     36  C   UNL     1      -6.980  -4.920  -1.423  1.00  0.00     0.074 A 
ATOM     37  C   UNL     1      -6.368  -3.216   0.257  1.00  0.00     0.049 A 
ATOM     38  N   UNL     1      -8.286  -4.831  -1.407  1.00  0.00    -0.248 NA
ATOM     39  C   UNL     1      -6.458  -5.941  -2.347  1.00  0.00     0.031 C 
ATOM     40  C   UNL     1      -5.490  -2.419   1.112  1.00  0.00     0.029 A 
ATOM     41  N   UNL     1      -7.633  -2.801   0.593  1.00  0.00    -0.354 N 
ATOM     42  C   UNL     1      -8.740  -5.771  -2.325  1.00  0.00     0.074 A 
ATOM     43  C   UNL     1      -7.572  -6.407  -2.894  1.00  0.00     0.031 C 
ATOM     44  C   UNL     1      -6.245  -1.605   1.873  1.00  0.00     0.029 A 
ATOM     45  C   UNL     1      -7.653  -1.803   1.537  1.00  0.00     0.049 A 
ATOM     46  H   UNL     1      -8.449  -3.181   0.194  1.00  0.00     0.167 HD
ATOM     47  C   UNL     1     -10.014  -6.080  -2.661  1.00  0.00     0.031 A 
ATOM     48  C   UNL     1      -8.689  -1.116   2.057  1.00  0.00     0.031 A 
ATOM     49  C   UNL     1     -11.180  -5.459  -2.093  1.00  0.00     0.049 A 
ATOM     50  C   UNL     1     -10.092  -1.437   1.613  1.00  0.00     0.074 A 
ATOM     51  C   UNL     1     -12.513  -5.740  -2.345  1.00  0.00     0.029 A 
ATOM     52  N   UNL     1     -11.155  -4.429  -1.168  1.00  0.00    -0.354 N 
ATOM     53  N   UNL     1     -10.507  -2.362   0.782  1.00  0.00    -0.248 NA
ATOM     54  C   UNL     1     -11.172  -0.618   2.186  1.00  0.00     0.031 C 
ATOM     55  C   UNL     1     -13.294  -4.840  -1.614  1.00  0.00     0.029 A 
ATOM     56  C   UNL     1     -12.448  -4.039  -0.865  1.00  0.00     0.049 A 
ATOM     57  H   UNL     1     -10.339  -4.034  -0.783  1.00  0.00     0.167 HD
ATOM     58  C   UNL     1     -11.893  -2.259   0.761  1.00  0.00     0.074 A 
ATOM     59  C   UNL     1     -12.250  -1.191   1.671  1.00  0.00     0.031 C 
ATOM     60  C   UNL     1     -12.791  -2.984   0.051  1.00  0.00     0.031 A 
BRANCH  47  61
ATOM     61  C   UNL     1     -10.225  -7.123  -3.721  1.00  0.00    -0.014 A 
ATOM     62  C   UNL     1     -10.037  -8.487  -3.452  1.00  0.00     0.009 A 
ATOM     63  C   UNL     1     -10.691  -6.735  -4.988  1.00  0.00     0.009 A 
ATOM     64  C   UNL     1     -10.294  -9.441  -4.439  1.00  0.00     0.001 A 
ATOM     65  C   UNL     1     -10.969  -7.693  -5.964  1.00  0.00     0.001 A 
ATOM     66  C   UNL     1     -10.766  -9.044  -5.690  1.00  0.00     0.000 A 
ENDBRANCH  47  61
BRANCH  48  67
ATOM     67  C   UNL     1      -8.452  -0.025   3.040  1.00  0.00    -0.014 A 
ATOM     68  C   UNL     1      -8.880  -0.152   4.371  1.00  0.00     0.009 A 
ATOM     69  C   UNL     1      -7.849   1.175   2.634  1.00  0.00     0.009 A 
ATOM     70  C   UNL     1      -8.744   0.915   5.263  1.00  0.00     0.001 A 
ATOM     71  C   UNL     1      -7.686   2.229   3.535  1.00  0.00     0.001 A 
ATOM     72  C   UNL     1      -8.146   2.103   4.845  1.00  0.00     0.000 A 
ENDBRANCH  48  67
BRANCH  60  73
ATOM     73  C   UNL     1     -14.248  -2.682   0.263  1.00  0.00    -0.014 A 
ATOM     74  C   UNL     1     -14.833  -1.512  -0.245  1.00  0.00     0.009 A 
ATOM     75  C   UNL     1     -15.055  -3.607   0.945  1.00  0.00     0.009 A 
ATOM     76  C   UNL     1     -16.192  -1.260  -0.045  1.00  0.00     0.001 A 
ATOM     77  C   UNL     1     -16.419  -3.365   1.118  1.00  0.00     0.001 A 
ATOM     78  C   UNL     1     -16.984  -2.187   0.631  1.00  0.00     0.000 A 
ENDBRANCH  60  73
ENDBRANCH  34  35
ENDBRANCH  27  29
ENDBRANCH  26  27
ENDBRANCH  25  26
ENDBRANCH  24  25
ENDBRANCH  23  24
ENDBRANCH  22  23
ENDBRANCH   1  22
TORSDOF 20
