REMARK SMILES C[C@H](C(=O)OCCOCCOC(=O)c1ccc(-c2c3nc(c(-c4ccccc4)c4ccc([nH]4)c(-c4ccccc4)c4nc(c(-c5ccccc5)c5ccc2[nH]5)C=C4)C=C3)cc1)N1CCc2ccccc21
REMARK SMILES IDX 9 1 8 2 7 3 6 4 5 5 3 6 4 7 2 8 1 9 62 10 63 11 70 12 64 13
REMARK SMILES IDX 65 14 69 15 66 16 68 17 67 18 10 19 11 20 12 21 13 22 14 23
REMARK SMILES IDX 15 24 61 25 16 26 60 27 17 28 18 29 19 30 54 31 20 32 59 33
REMARK SMILES IDX 53 34 55 35 21 36 58 37 52 38 51 39 22 41 44 42 29 43 43 44
REMARK SMILES IDX 30 45 33 46 42 47 56 48 31 49 32 50 41 52 57 53 34 54 23 55
REMARK SMILES IDX 24 56 28 57 25 58 27 59 26 60 45 61 46 62 50 63 47 64 49 65
REMARK SMILES IDX 48 66 35 67 36 68 40 69 37 70 39 71 38 72
REMARK H PARENT 55 40 33 51
REMARK Flexibility Score: inf
ROOT
ATOM      1  C   UNL     1      -0.262  -1.080   2.003  1.00  0.00     0.202 C 
ENDROOT
BRANCH   1   2
ATOM      2  O   UNL     1       0.749  -0.677   2.925  1.00  0.00    -0.374 OA
BRANCH   2   3
ATOM      3  C   UNL     1       1.300   0.633   2.778  1.00  0.00     0.202 C 
BRANCH   3   4
ATOM      4  C   UNL     1       2.035   0.971   1.476  1.00  0.00     0.261 C 
BRANCH   4   5
ATOM      5  O   UNL     1       1.157   0.879   0.345  1.00  0.00    -0.462 OA
BRANCH   5   6
ATOM      6  C   UNL     1       1.776   0.531  -0.823  1.00  0.00     0.328 C 
ATOM      7  O   UNL     1       2.983   0.634  -1.011  1.00  0.00    -0.250 OA
BRANCH   6   8
ATOM      8  C   UNL     1       0.759  -0.018  -1.840  1.00  0.00     0.189 C 
ATOM      9  C   UNL     1       1.372  -0.149  -3.235  1.00  0.00     0.044 C 
BRANCH   8  10
ATOM     10  N   UNL     1       0.155  -1.298  -1.442  1.00  0.00    -0.358 N 
ATOM     11  C   UNL     1      -1.251  -1.614  -1.703  1.00  0.00     0.122 C 
ATOM     12  C   UNL     1       0.810  -2.494  -1.196  1.00  0.00     0.041 A 
ATOM     13  C   UNL     1      -1.355  -3.139  -1.899  1.00  0.00     0.059 C 
ATOM     14  C   UNL     1      -0.024  -3.598  -1.402  1.00  0.00    -0.023 A 
ATOM     15  C   UNL     1       2.119  -2.704  -0.797  1.00  0.00     0.026 A 
ATOM     16  C   UNL     1       0.418  -4.903  -1.240  1.00  0.00     0.006 A 
ATOM     17  C   UNL     1       2.582  -4.013  -0.617  1.00  0.00     0.002 A 
ATOM     18  C   UNL     1       1.738  -5.107  -0.842  1.00  0.00     0.000 A 
ENDBRANCH   8  10
ENDBRANCH   6   8
ENDBRANCH   5   6
ENDBRANCH   4   5
ENDBRANCH   3   4
ENDBRANCH   2   3
ENDBRANCH   1   2
BRANCH   1  19
ATOM     19  C   UNL     1      -1.681  -0.525   2.192  1.00  0.00     0.261 C 
BRANCH  19  20
ATOM     20  O   UNL     1      -1.727   0.890   2.394  1.00  0.00    -0.460 OA
BRANCH  20  21
ATOM     21  C   UNL     1      -1.890   1.254   3.687  1.00  0.00     0.338 C 
ATOM     22  O   UNL     1      -2.075   0.532   4.656  1.00  0.00    -0.246 OA
BRANCH  21  23
ATOM     23  C   UNL     1      -1.642   2.696   3.806  1.00  0.00     0.060 A 
ATOM     24  C   UNL     1      -0.658   3.111   4.711  1.00  0.00     0.016 A 
ATOM     25  C   UNL     1      -2.382   3.620   3.065  1.00  0.00     0.016 A 
ATOM     26  C   UNL     1      -0.437   4.466   4.912  1.00  0.00     0.010 A 
ATOM     27  C   UNL     1      -2.166   4.980   3.275  1.00  0.00     0.010 A 
ATOM     28  C   UNL     1      -1.221   5.403   4.226  1.00  0.00    -0.014 A 
BRANCH  28  29
ATOM     29  C   UNL     1      -1.173   6.818   4.643  1.00  0.00     0.031 A 
ATOM     30  C   UNL     1      -2.245   7.325   5.563  1.00  0.00     0.074 A 
ATOM     31  C   UNL     1      -0.169   7.612   4.236  1.00  0.00     0.049 A 
ATOM     32  N   UNL     1      -2.411   8.522   6.061  1.00  0.00    -0.248 NA
ATOM     33  C   UNL     1      -3.272   6.352   5.975  1.00  0.00     0.031 C 
ATOM     34  C   UNL     1       0.942   7.198   3.379  1.00  0.00     0.029 A 
ATOM     35  N   UNL     1       0.077   8.933   4.496  1.00  0.00    -0.354 N 
ATOM     36  C   UNL     1      -3.563   8.448   6.833  1.00  0.00     0.074 A 
ATOM     37  C   UNL     1      -4.076   7.103   6.713  1.00  0.00     0.031 C 
ATOM     38  C   UNL     1       1.757   8.249   3.188  1.00  0.00     0.029 A 
ATOM     39  C   UNL     1       1.205   9.411   3.878  1.00  0.00     0.049 A 
ATOM     40  H   UNL     1      -0.500   9.487   5.071  1.00  0.00     0.167 HD
ATOM     41  C   UNL     1      -4.138   9.419   7.581  1.00  0.00     0.031 A 
ATOM     42  C   UNL     1       1.719  10.655   3.865  1.00  0.00     0.031 A 
ATOM     43  C   UNL     1      -3.622  10.757   7.678  1.00  0.00     0.049 A 
ATOM     44  C   UNL     1       1.019  11.735   4.646  1.00  0.00     0.074 A 
ATOM     45  C   UNL     1      -4.110  11.819   8.419  1.00  0.00     0.029 A 
ATOM     46  N   UNL     1      -2.502  11.218   7.002  1.00  0.00    -0.354 N 
ATOM     47  N   UNL     1      -0.052  11.649   5.399  1.00  0.00    -0.248 NA
ATOM     48  C   UNL     1       1.604  13.080   4.581  1.00  0.00     0.031 C 
ATOM     49  C   UNL     1      -3.323  12.940   8.137  1.00  0.00     0.029 A 
ATOM     50  C   UNL     1      -2.302  12.558   7.280  1.00  0.00     0.049 A 
ATOM     51  H   UNL     1      -1.934  10.672   6.411  1.00  0.00     0.167 HD
ATOM     52  C   UNL     1      -0.251  12.920   5.923  1.00  0.00     0.074 A 
ATOM     53  C   UNL     1       0.820  13.752   5.412  1.00  0.00     0.031 C 
ATOM     54  C   UNL     1      -1.228  13.362   6.754  1.00  0.00     0.031 A 
BRANCH  41  55
ATOM     55  C   UNL     1      -5.409   9.075   8.307  1.00  0.00    -0.014 A 
ATOM     56  C   UNL     1      -5.418   8.188   9.397  1.00  0.00     0.009 A 
ATOM     57  C   UNL     1      -6.618   9.663   7.904  1.00  0.00     0.009 A 
ATOM     58  C   UNL     1      -6.616   7.871  10.041  1.00  0.00     0.001 A 
ATOM     59  C   UNL     1      -7.809   9.368   8.569  1.00  0.00     0.001 A 
ATOM     60  C   UNL     1      -7.809   8.465   9.631  1.00  0.00     0.000 A 
ENDBRANCH  41  55
BRANCH  42  61
ATOM     61  C   UNL     1       2.950  10.947   3.084  1.00  0.00    -0.014 A 
ATOM     62  C   UNL     1       4.148  11.284   3.732  1.00  0.00     0.009 A 
ATOM     63  C   UNL     1       2.931  10.898   1.681  1.00  0.00     0.009 A 
ATOM     64  C   UNL     1       5.293  11.591   2.991  1.00  0.00     0.001 A 
ATOM     65  C   UNL     1       4.085  11.174   0.944  1.00  0.00     0.001 A 
ATOM     66  C   UNL     1       5.261  11.530   1.599  1.00  0.00     0.000 A 
ENDBRANCH  42  61
BRANCH  54  67
ATOM     67  C   UNL     1      -1.157  14.799   7.191  1.00  0.00    -0.014 A 
ATOM     68  C   UNL     1      -1.428  15.849   6.301  1.00  0.00     0.009 A 
ATOM     69  C   UNL     1      -0.856  15.099   8.529  1.00  0.00     0.009 A 
ATOM     70  C   UNL     1      -1.362  17.174   6.735  1.00  0.00     0.001 A 
ATOM     71  C   UNL     1      -0.826  16.423   8.968  1.00  0.00     0.001 A 
ATOM     72  C   UNL     1      -1.067  17.459   8.068  1.00  0.00     0.000 A 
ENDBRANCH  54  67
ENDBRANCH  28  29
ENDBRANCH  21  23
ENDBRANCH  20  21
ENDBRANCH  19  20
ENDBRANCH   1  19
TORSDOF 15
