REMARK SMILES CC(C)[C@H](CO)NS(=O)(=O)c1ccc(C(=O)OCCOCCOC(=O)c2ccc(-c3c4nc(c(-c5ccccc5)c5ccc([nH]5)c(-c5ccccc5)c5nc(c(-c6ccccc6)c6ccc3[nH]6)C=C5)C=C4)cc2)cn1
REMARK SMILES IDX 18 1 17 2 15 3 16 4 14 5 11 6 12 7 75 8 13 9 74 10 8 11 9 12
REMARK SMILES IDX 10 13 7 14 4 16 2 17 1 18 3 19 5 20 6 21 19 23 20 24 21 25
REMARK SMILES IDX 22 26 23 27 24 28 25 29 26 30 27 31 73 32 28 33 72 34 29 35
REMARK SMILES IDX 30 36 31 37 66 38 32 39 71 40 65 41 67 42 33 43 70 44 64 45
REMARK SMILES IDX 63 46 34 48 56 49 41 50 55 51 42 52 45 53 54 54 68 55 43 56
REMARK SMILES IDX 44 57 53 59 69 60 46 61 35 62 36 63 40 64 37 65 39 66 38 67
REMARK SMILES IDX 57 68 58 69 62 70 59 71 61 72 60 73 47 74 48 75 52 76 49 77
REMARK SMILES IDX 51 78 50 79
REMARK H PARENT 7 15 6 22 67 47 45 58
REMARK Flexibility Score: inf
ROOT
ATOM      1  C   UNL     1      -5.825  -6.996  -1.892  1.00  0.00     0.261 C 
ENDROOT
BRANCH   1   2
ATOM      2  O   UNL     1      -5.151  -5.787  -2.288  1.00  0.00    -0.460 OA
BRANCH   2   3
ATOM      3  C   UNL     1      -5.974  -4.739  -2.527  1.00  0.00     0.339 C 
ATOM      4  O   UNL     1      -7.191  -4.765  -2.605  1.00  0.00    -0.246 OA
BRANCH   3   5
ATOM      5  C   UNL     1      -5.215  -3.478  -2.530  1.00  0.00     0.078 A 
ATOM      6  C   UNL     1      -4.080  -1.001  -2.522  1.00  0.00     0.170 A 
ATOM      7  C   UNL     1      -3.335  -2.052  -3.046  1.00  0.00     0.043 A 
ATOM      8  N   UNL     1      -5.316  -1.132  -1.973  1.00  0.00    -0.243 NA
ATOM      9  C   UNL     1      -3.917  -3.326  -3.033  1.00  0.00     0.020 A 
ATOM     10  C   UNL     1      -5.859  -2.365  -2.005  1.00  0.00     0.128 A 
BRANCH   6  11
ATOM     11  S   UNL     1      -3.564   0.706  -2.698  1.00  0.00     0.258 S 
ATOM     12  O   UNL     1      -4.139   1.483  -1.627  1.00  0.00    -0.205 OA
ATOM     13  O   UNL     1      -3.767   1.057  -4.093  1.00  0.00    -0.205 OA
BRANCH  11  14
ATOM     14  N   UNL     1      -1.909   0.704  -2.495  1.00  0.00    -0.204 NA
ATOM     15  H   UNL     1      -1.567  -0.059  -3.080  1.00  0.00     0.141 HD
BRANCH  14  16
ATOM     16  C   UNL     1      -1.200   0.556  -1.212  1.00  0.00     0.098 C 
BRANCH  16  17
ATOM     17  C   UNL     1      -1.434   1.749  -0.246  1.00  0.00     0.003 C 
ATOM     18  C   UNL     1      -0.459   1.746   0.939  1.00  0.00     0.009 C 
ATOM     19  C   UNL     1      -1.389   3.127  -0.917  1.00  0.00     0.009 C 
ENDBRANCH  16  17
BRANCH  16  20
ATOM     20  C   UNL     1       0.295   0.334  -1.553  1.00  0.00     0.176 C 
BRANCH  20  21
ATOM     21  O   UNL     1       0.444  -0.769  -2.454  1.00  0.00    -0.395 OA
ATOM     22  H   UNL     1       0.098  -1.575  -2.038  1.00  0.00     0.210 HD
ENDBRANCH  20  21
ENDBRANCH  16  20
ENDBRANCH  14  16
ENDBRANCH  11  14
ENDBRANCH   6  11
ENDBRANCH   3   5
ENDBRANCH   2   3
ENDBRANCH   1   2
BRANCH   1  23
ATOM     23  C   UNL     1      -5.490  -7.347  -0.440  1.00  0.00     0.202 C 
BRANCH  23  24
ATOM     24  O   UNL     1      -5.941  -6.396   0.525  1.00  0.00    -0.374 OA
BRANCH  24  25
ATOM     25  C   UNL     1      -5.067  -5.298   0.797  1.00  0.00     0.202 C 
BRANCH  25  26
ATOM     26  C   UNL     1      -3.923  -5.604   1.770  1.00  0.00     0.261 C 
BRANCH  26  27
ATOM     27  O   UNL     1      -2.921  -6.428   1.142  1.00  0.00    -0.460 OA
BRANCH  27  28
ATOM     28  C   UNL     1      -2.796  -7.676   1.655  1.00  0.00     0.338 C 
ATOM     29  O   UNL     1      -3.337  -8.127   2.650  1.00  0.00    -0.246 OA
BRANCH  28  30
ATOM     30  C   UNL     1      -2.035  -8.518   0.712  1.00  0.00     0.060 A 
ATOM     31  C   UNL     1      -2.605  -9.740   0.332  1.00  0.00     0.016 A 
ATOM     32  C   UNL     1      -0.779  -8.142   0.231  1.00  0.00     0.016 A 
ATOM     33  C   UNL     1      -1.906 -10.606  -0.507  1.00  0.00     0.010 A 
ATOM     34  C   UNL     1      -0.074  -9.018  -0.602  1.00  0.00     0.010 A 
ATOM     35  C   UNL     1      -0.624 -10.263  -0.955  1.00  0.00    -0.014 A 
BRANCH  35  36
ATOM     36  C   UNL     1       0.183 -11.253  -1.704  1.00  0.00     0.031 A 
ATOM     37  C   UNL     1       1.198 -12.083  -0.970  1.00  0.00     0.074 A 
ATOM     38  C   UNL     1       0.002 -11.424  -3.026  1.00  0.00     0.049 A 
ATOM     39  N   UNL     1       2.020 -12.988  -1.436  1.00  0.00    -0.248 NA
ATOM     40  C   UNL     1       1.297 -11.865   0.482  1.00  0.00     0.031 C 
ATOM     41  C   UNL     1      -0.979 -10.714  -3.845  1.00  0.00     0.029 A 
ATOM     42  N   UNL     1       0.646 -12.252  -3.910  1.00  0.00    -0.354 N 
ATOM     43  C   UNL     1       2.735 -13.448  -0.338  1.00  0.00     0.074 A 
ATOM     44  C   UNL     1       2.269 -12.703   0.813  1.00  0.00     0.031 C 
ATOM     45  C   UNL     1      -0.868 -11.134  -5.117  1.00  0.00     0.029 A 
ATOM     46  C   UNL     1       0.210 -12.117  -5.205  1.00  0.00     0.049 A 
ATOM     47  H   UNL     1       1.353 -12.883  -3.642  1.00  0.00     0.167 HD
ATOM     48  C   UNL     1       3.689 -14.407  -0.289  1.00  0.00     0.031 A 
ATOM     49  C   UNL     1       0.645 -12.704  -6.335  1.00  0.00     0.031 A 
ATOM     50  C   UNL     1       4.169 -15.135  -1.432  1.00  0.00     0.049 A 
ATOM     51  C   UNL     1       1.777 -13.693  -6.271  1.00  0.00     0.074 A 
ATOM     52  C   UNL     1       5.116 -16.144  -1.478  1.00  0.00     0.029 A 
ATOM     53  N   UNL     1       3.749 -14.921  -2.735  1.00  0.00    -0.354 N 
ATOM     54  N   UNL     1       2.423 -14.140  -5.222  1.00  0.00    -0.248 NA
ATOM     55  C   UNL     1       2.239 -14.255  -7.548  1.00  0.00     0.031 C 
ATOM     56  C   UNL     1       5.309 -16.501  -2.817  1.00  0.00     0.029 A 
ATOM     57  C   UNL     1       4.446 -15.750  -3.598  1.00  0.00     0.049 A 
ATOM     58  H   UNL     1       3.057 -14.275  -3.007  1.00  0.00     0.167 HD
ATOM     59  C   UNL     1       3.356 -15.047  -5.710  1.00  0.00     0.074 A 
ATOM     60  C   UNL     1       3.182 -15.097  -7.147  1.00  0.00     0.031 C 
ATOM     61  C   UNL     1       4.274 -15.775  -5.027  1.00  0.00     0.031 A 
BRANCH  48  62
ATOM     62  C   UNL     1       4.304 -14.695   1.051  1.00  0.00    -0.014 A 
ATOM     63  C   UNL     1       3.593 -15.387   2.045  1.00  0.00     0.009 A 
ATOM     64  C   UNL     1       5.619 -14.285   1.316  1.00  0.00     0.009 A 
ATOM     65  C   UNL     1       4.177 -15.632   3.289  1.00  0.00     0.001 A 
ATOM     66  C   UNL     1       6.209 -14.552   2.552  1.00  0.00     0.001 A 
ATOM     67  C   UNL     1       5.484 -15.217   3.541  1.00  0.00     0.000 A 
ENDBRANCH  48  62
BRANCH  49  68
ATOM     68  C   UNL     1       0.025 -12.352  -7.638  1.00  0.00    -0.014 A 
ATOM     69  C   UNL     1      -0.800 -13.268  -8.307  1.00  0.00     0.009 A 
ATOM     70  C   UNL     1       0.260 -11.096  -8.219  1.00  0.00     0.009 A 
ATOM     71  C   UNL     1      -1.365 -12.938  -9.541  1.00  0.00     0.001 A 
ATOM     72  C   UNL     1      -0.325 -10.761  -9.441  1.00  0.00     0.001 A 
ATOM     73  C   UNL     1      -1.132 -11.684 -10.104  1.00  0.00     0.000 A 
ENDBRANCH  49  68
BRANCH  61  74
ATOM     74  C   UNL     1       5.154 -16.693  -5.827  1.00  0.00    -0.014 A 
ATOM     75  C   UNL     1       6.206 -16.189  -6.607  1.00  0.00     0.009 A 
ATOM     76  C   UNL     1       4.954 -18.081  -5.766  1.00  0.00     0.009 A 
ATOM     77  C   UNL     1       7.025 -17.057  -7.332  1.00  0.00     0.001 A 
ATOM     78  C   UNL     1       5.790 -18.948  -6.473  1.00  0.00     0.001 A 
ATOM     79  C   UNL     1       6.819 -18.435  -7.260  1.00  0.00     0.000 A 
ENDBRANCH  61  74
ENDBRANCH  35  36
ENDBRANCH  28  30
ENDBRANCH  27  28
ENDBRANCH  26  27
ENDBRANCH  25  26
ENDBRANCH  24  25
ENDBRANCH  23  24
ENDBRANCH   1  23
TORSDOF 20
