REMARK SMILES C[C@@H](C(=O)OCCOCCOC(=O)c1ccc(-c2c3nc(c(-c4ccccc4)c4ccc([nH]4)c(-c4ccccc4)c4nc(c(-c5ccccc5)c5ccc2[nH]5)C=C4)C=C3)cc1)c1ccc(C[C@H]2CCC[C@@H]2O)cc1Br
REMARK SMILES IDX 7 1 6 2 5 3 3 4 4 5 2 6 1 7 62 8 63 9 74 10 64 11 73 12
REMARK SMILES IDX 75 13 65 14 66 15 67 16 68 17 71 18 69 19 70 20 72 21 8 23
REMARK SMILES IDX 9 24 10 25 11 26 12 27 13 28 14 29 15 30 61 31 16 32 60 33
REMARK SMILES IDX 17 34 18 35 19 36 54 37 20 38 59 39 53 40 55 41 21 42 58 43
REMARK SMILES IDX 52 44 51 45 22 47 44 48 29 49 43 50 30 51 33 52 42 53 56 54
REMARK SMILES IDX 31 55 32 56 41 58 57 59 34 60 23 61 24 62 28 63 25 64 27 65
REMARK SMILES IDX 26 66 45 67 46 68 50 69 47 70 49 71 48 72 35 73 36 74 40 75
REMARK SMILES IDX 37 76 39 77 38 78
REMARK H PARENT 72 22 55 46 33 57
REMARK Flexibility Score: inf
ROOT
ATOM      1  C   UNL     1       2.055   4.577  -1.278  1.00  0.00     0.202 C 
ENDROOT
BRANCH   1   2
ATOM      2  C   UNL     1       2.100   4.256   0.220  1.00  0.00     0.261 C 
BRANCH   2   3
ATOM      3  O   UNL     1       1.928   2.844   0.410  1.00  0.00    -0.463 OA
BRANCH   3   4
ATOM      4  C   UNL     1       1.222   2.466   1.510  1.00  0.00     0.313 C 
ATOM      5  O   UNL     1       0.982   3.205   2.457  1.00  0.00    -0.252 OA
BRANCH   4   6
ATOM      6  C   UNL     1       0.633   1.055   1.355  1.00  0.00     0.127 C 
ATOM      7  C   UNL     1       1.380   0.214   0.306  1.00  0.00     0.025 C 
BRANCH   6   8
ATOM      8  C   UNL     1      -0.888   1.061   1.135  1.00  0.00    -0.020 A 
ATOM      9  C   UNL     1      -1.548   2.239   0.723  1.00  0.00     0.006 A 
ATOM     10  C   UNL     1      -1.696  -0.069   1.360  1.00  0.00     0.022 A 
ATOM     11  C   UNL     1      -2.940   2.311   0.608  1.00  0.00     0.004 A 
ATOM     12  C   UNL     1      -3.092   0.005   1.236  1.00  0.00     0.019 A 
ATOM     13  Br  UNL     1      -1.009  -1.749   1.926  1.00  0.00    -0.050 Br
ATOM     14  C   UNL     1      -3.731   1.209   0.917  1.00  0.00    -0.047 A 
BRANCH  14  15
ATOM     15  C   UNL     1      -5.236   1.319   0.994  1.00  0.00     0.041 C 
BRANCH  15  16
ATOM     16  C   UNL     1      -5.792   1.881   2.320  1.00  0.00     0.022 C 
ATOM     17  C   UNL     1      -5.301   1.190   3.607  1.00  0.00     0.007 C 
ATOM     18  C   UNL     1      -5.543   3.377   2.555  1.00  0.00     0.117 C 
ATOM     19  C   UNL     1      -4.997   2.308   4.606  1.00  0.00     0.003 C 
ATOM     20  C   UNL     1      -5.713   3.529   4.060  1.00  0.00     0.032 C 
BRANCH  18  21
ATOM     21  O   UNL     1      -6.484   4.183   1.871  1.00  0.00    -0.393 OA
ATOM     22  H   UNL     1      -7.381   3.946   2.156  1.00  0.00     0.210 HD
ENDBRANCH  18  21
ENDBRANCH  15  16
ENDBRANCH  14  15
ENDBRANCH   6   8
ENDBRANCH   4   6
ENDBRANCH   3   4
ENDBRANCH   2   3
ENDBRANCH   1   2
BRANCH   1  23
ATOM     23  O   UNL     1       0.795   4.359  -1.919  1.00  0.00    -0.374 OA
BRANCH  23  24
ATOM     24  C   UNL     1       0.398   3.007  -2.156  1.00  0.00     0.202 C 
BRANCH  24  25
ATOM     25  C   UNL     1       1.069   2.284  -3.328  1.00  0.00     0.261 C 
BRANCH  25  26
ATOM     26  O   UNL     1       2.476   2.081  -3.104  1.00  0.00    -0.460 OA
BRANCH  26  27
ATOM     27  C   UNL     1       3.283   2.742  -3.964  1.00  0.00     0.338 C 
ATOM     28  O   UNL     1       2.947   3.411  -4.935  1.00  0.00    -0.246 OA
BRANCH  27  29
ATOM     29  C   UNL     1       4.676   2.705  -3.491  1.00  0.00     0.060 A 
ATOM     30  C   UNL     1       5.337   3.931  -3.344  1.00  0.00     0.016 A 
ATOM     31  C   UNL     1       5.357   1.502  -3.288  1.00  0.00     0.016 A 
ATOM     32  C   UNL     1       6.696   3.960  -3.046  1.00  0.00     0.010 A 
ATOM     33  C   UNL     1       6.725   1.533  -2.997  1.00  0.00     0.010 A 
ATOM     34  C   UNL     1       7.407   2.761  -2.913  1.00  0.00    -0.014 A 
BRANCH  34  35
ATOM     35  C   UNL     1       8.887   2.803  -2.836  1.00  0.00     0.031 A 
ATOM     36  C   UNL     1       9.692   2.563  -4.084  1.00  0.00     0.074 A 
ATOM     37  C   UNL     1       9.508   3.099  -1.680  1.00  0.00     0.049 A 
ATOM     38  N   UNL     1      10.991   2.557  -4.244  1.00  0.00    -0.248 NA
ATOM     39  C   UNL     1       8.931   2.300  -5.316  1.00  0.00     0.031 C 
ATOM     40  C   UNL     1       8.842   3.398  -0.414  1.00  0.00     0.029 A 
ATOM     41  N   UNL     1      10.846   3.198  -1.391  1.00  0.00    -0.354 N 
ATOM     42  C   UNL     1      11.203   2.288  -5.590  1.00  0.00     0.074 A 
ATOM     43  C   UNL     1       9.902   2.108  -6.197  1.00  0.00     0.031 C 
ATOM     44  C   UNL     1       9.776   3.643   0.521  1.00  0.00     0.029 A 
ATOM     45  C   UNL     1      11.102   3.489  -0.074  1.00  0.00     0.049 A 
ATOM     46  H   UNL     1      11.554   3.072  -2.064  1.00  0.00     0.167 HD
ATOM     47  C   UNL     1      12.375   2.204  -6.264  1.00  0.00     0.031 A 
ATOM     48  C   UNL     1      12.274   3.600   0.580  1.00  0.00     0.031 A 
ATOM     49  C   UNL     1      13.671   2.367  -5.662  1.00  0.00     0.049 A 
ATOM     50  C   UNL     1      13.564   3.423  -0.175  1.00  0.00     0.074 A 
ATOM     51  C   UNL     1      14.916   2.306  -6.264  1.00  0.00     0.029 A 
ATOM     52  N   UNL     1      13.889   2.616  -4.316  1.00  0.00    -0.354 N 
ATOM     53  N   UNL     1      13.750   3.189  -1.452  1.00  0.00    -0.248 NA
ATOM     54  C   UNL     1      14.807   3.534   0.604  1.00  0.00     0.031 C 
ATOM     55  C   UNL     1      15.889   2.468  -5.273  1.00  0.00     0.029 A 
ATOM     56  C   UNL     1      15.248   2.685  -4.064  1.00  0.00     0.049 A 
ATOM     57  H   UNL     1      13.181   2.726  -3.640  1.00  0.00     0.167 HD
ATOM     58  C   UNL     1      15.127   3.151  -1.633  1.00  0.00     0.074 A 
ATOM     59  C   UNL     1      15.729   3.399  -0.340  1.00  0.00     0.031 C 
ATOM     60  C   UNL     1      15.831   2.931  -2.771  1.00  0.00     0.031 A 
BRANCH  47  61
ATOM     61  C   UNL     1      12.306   1.891  -7.731  1.00  0.00    -0.014 A 
ATOM     62  C   UNL     1      11.866   2.847  -8.660  1.00  0.00     0.009 A 
ATOM     63  C   UNL     1      12.716   0.631  -8.195  1.00  0.00     0.009 A 
ATOM     64  C   UNL     1      11.810   2.537 -10.021  1.00  0.00     0.001 A 
ATOM     65  C   UNL     1      12.683   0.332  -9.558  1.00  0.00     0.001 A 
ATOM     66  C   UNL     1      12.223   1.282 -10.468  1.00  0.00     0.000 A 
ENDBRANCH  47  61
BRANCH  48  67
ATOM     67  C   UNL     1      12.287   3.872   2.041  1.00  0.00    -0.014 A 
ATOM     68  C   UNL     1      12.731   5.106   2.538  1.00  0.00     0.009 A 
ATOM     69  C   UNL     1      11.871   2.884   2.947  1.00  0.00     0.009 A 
ATOM     70  C   UNL     1      12.782   5.335   3.915  1.00  0.00     0.001 A 
ATOM     71  C   UNL     1      11.897   3.126   4.322  1.00  0.00     0.001 A 
ATOM     72  C   UNL     1      12.361   4.348   4.805  1.00  0.00     0.000 A 
ENDBRANCH  48  67
BRANCH  60  73
ATOM     73  C   UNL     1      17.330   2.983  -2.674  1.00  0.00    -0.014 A 
ATOM     74  C   UNL     1      18.057   1.949  -2.064  1.00  0.00     0.009 A 
ATOM     75  C   UNL     1      18.026   4.062  -3.242  1.00  0.00     0.009 A 
ATOM     76  C   UNL     1      19.451   2.012  -1.996  1.00  0.00     0.001 A 
ATOM     77  C   UNL     1      19.420   4.109  -3.196  1.00  0.00     0.001 A 
ATOM     78  C   UNL     1      20.130   3.089  -2.566  1.00  0.00     0.000 A 
ENDBRANCH  60  73
ENDBRANCH  34  35
ENDBRANCH  27  29
ENDBRANCH  26  27
ENDBRANCH  25  26
ENDBRANCH  24  25
ENDBRANCH  23  24
ENDBRANCH   1  23
TORSDOF 18
