REMARK SMILES CC1=Nc2ncnn2[C@H](c2ccc(F)cc2)[C@@H]1C(=O)OCCOCCOC(=O)c1ccc(-c2c3nc(c(-c4ccccc4)c4ccc([nH]4)c(-c4ccccc4)c4nc(c(-c5ccccc5)c5ccc2[nH]5)C=C4)C=C3)cc1
REMARK SMILES IDX 24 1 23 2 22 3 21 4 20 5 18 6 19 7 17 8 1 9 2 10 3 11 4 12
REMARK SMILES IDX 9 13 5 14 8 15 6 16 7 17 10 18 11 19 16 20 12 21 15 22 13 23
REMARK SMILES IDX 14 24 25 25 26 26 27 27 28 28 29 29 30 30 76 31 31 32 75 33
REMARK SMILES IDX 32 34 33 35 34 36 69 37 35 38 74 39 68 40 70 41 36 42 73 43
REMARK SMILES IDX 67 44 66 45 37 47 59 48 44 49 58 50 45 51 48 52 57 53 71 54
REMARK SMILES IDX 46 55 47 56 56 58 72 59 49 60 38 61 39 62 43 63 40 64 42 65
REMARK SMILES IDX 41 66 60 67 61 68 65 69 62 70 64 71 63 72 50 73 51 74 55 75
REMARK SMILES IDX 52 76 54 77 53 78
REMARK H PARENT 70 46 48 57
REMARK Flexibility Score: inf
ROOT
ATOM      1  C   UNL     1      -2.321  -0.822   1.228  1.00  0.00     0.202 C 
ENDROOT
BRANCH   1   2
ATOM      2  O   UNL     1      -3.420  -1.451   0.592  1.00  0.00    -0.374 OA
BRANCH   2   3
ATOM      3  C   UNL     1      -3.247  -2.360  -0.486  1.00  0.00     0.202 C 
BRANCH   3   4
ATOM      4  C   UNL     1      -2.595  -1.926  -1.801  1.00  0.00     0.261 C 
BRANCH   4   5
ATOM      5  O   UNL     1      -1.230  -1.474  -1.805  1.00  0.00    -0.463 OA
BRANCH   5   6
ATOM      6  C   UNL     1      -1.038  -0.131  -1.811  1.00  0.00     0.317 C 
ATOM      7  O   UNL     1      -1.632   0.700  -1.141  1.00  0.00    -0.251 OA
BRANCH   6   8
ATOM      8  C   UNL     1       0.025   0.310  -2.741  1.00  0.00     0.173 C 
ATOM      9  C   UNL     1       1.793   0.071  -0.827  1.00  0.00     0.063 C 
ATOM     10  C   UNL     1       1.116   0.940  -1.872  1.00  0.00     0.036 C 
ATOM     11  N   UNL     1       1.435   2.193  -1.861  1.00  0.00    -0.220 NA
ATOM     12  C   UNL     1       0.774   3.042  -2.675  1.00  0.00     0.248 A 
ATOM     13  C   UNL     1      -0.584   1.270  -3.810  1.00  0.00     0.161 C 
ATOM     14  N   UNL     1       0.966   4.335  -2.825  1.00  0.00    -0.198 NA
ATOM     15  N   UNL     1      -0.218   2.658  -3.544  1.00  0.00    -0.221 N 
ATOM     16  C   UNL     1       0.138   4.672  -3.853  1.00  0.00     0.248 A 
ATOM     17  N   UNL     1      -0.566   3.666  -4.371  1.00  0.00    -0.157 NA
BRANCH  13  18
ATOM     18  C   UNL     1      -2.064   1.154  -4.287  1.00  0.00    -0.022 A 
ATOM     19  C   UNL     1      -2.345   1.284  -5.660  1.00  0.00     0.009 A 
ATOM     20  C   UNL     1      -3.196   1.029  -3.456  1.00  0.00     0.009 A 
ATOM     21  C   UNL     1      -3.654   1.177  -6.160  1.00  0.00     0.039 A 
ATOM     22  C   UNL     1      -4.489   0.821  -3.949  1.00  0.00     0.039 A 
ATOM     23  C   UNL     1      -4.708   0.897  -5.305  1.00  0.00     0.123 A 
ATOM     24  F   UNL     1      -5.948   0.741  -5.783  1.00  0.00    -0.207 F 
ENDBRANCH  13  18
ENDBRANCH   6   8
ENDBRANCH   5   6
ENDBRANCH   4   5
ENDBRANCH   3   4
ENDBRANCH   2   3
ENDBRANCH   1   2
BRANCH   1  25
ATOM     25  C   UNL     1      -1.290  -1.614   1.997  1.00  0.00     0.261 C 
BRANCH  25  26
ATOM     26  O   UNL     1      -0.784  -2.681   1.222  1.00  0.00    -0.460 OA
BRANCH  26  27
ATOM     27  C   UNL     1      -1.404  -3.846   1.511  1.00  0.00     0.338 C 
ATOM     28  O   UNL     1      -2.453  -4.003   2.100  1.00  0.00    -0.246 OA
BRANCH  27  29
ATOM     29  C   UNL     1      -0.478  -4.926   1.187  1.00  0.00     0.060 A 
ATOM     30  C   UNL     1      -0.828  -6.155   1.738  1.00  0.00     0.016 A 
ATOM     31  C   UNL     1       0.818  -4.633   0.730  1.00  0.00     0.016 A 
ATOM     32  C   UNL     1       0.188  -7.003   2.081  1.00  0.00     0.010 A 
ATOM     33  C   UNL     1       1.835  -5.483   1.079  1.00  0.00     0.010 A 
ATOM     34  C   UNL     1       1.510  -6.615   1.819  1.00  0.00    -0.014 A 
BRANCH  34  35
ATOM     35  C   UNL     1       2.533  -7.587   2.118  1.00  0.00     0.031 A 
ATOM     36  C   UNL     1       2.403  -8.730   1.192  1.00  0.00     0.074 A 
ATOM     37  C   UNL     1       3.473  -7.415   3.062  1.00  0.00     0.049 A 
ATOM     38  N   UNL     1       1.905  -9.887   1.470  1.00  0.00    -0.248 NA
ATOM     39  C   UNL     1       2.563  -8.475  -0.254  1.00  0.00     0.031 C 
ATOM     40  C   UNL     1       3.765  -6.191   3.813  1.00  0.00     0.029 A 
ATOM     41  N   UNL     1       4.448  -8.269   3.477  1.00  0.00    -0.354 N 
ATOM     42  C   UNL     1       1.983 -10.598   0.280  1.00  0.00     0.074 A 
ATOM     43  C   UNL     1       2.120  -9.623  -0.767  1.00  0.00     0.031 C 
ATOM     44  C   UNL     1       4.988  -6.304   4.382  1.00  0.00     0.029 A 
ATOM     45  C   UNL     1       5.496  -7.646   4.144  1.00  0.00     0.049 A 
ATOM     46  H   UNL     1       4.415  -9.240   3.318  1.00  0.00     0.167 HD
ATOM     47  C   UNL     1       2.406 -11.890   0.321  1.00  0.00     0.031 A 
ATOM     48  C   UNL     1       6.713  -8.182   4.410  1.00  0.00     0.031 A 
ATOM     49  C   UNL     1       2.272 -12.428   1.654  1.00  0.00     0.049 A 
ATOM     50  C   UNL     1       6.580  -9.653   4.327  1.00  0.00     0.074 A 
ATOM     51  C   UNL     1       1.248 -12.783   2.504  1.00  0.00     0.029 A 
ATOM     52  N   UNL     1       3.387 -12.223   2.424  1.00  0.00    -0.354 N 
ATOM     53  N   UNL     1       5.907 -10.354   5.193  1.00  0.00    -0.248 NA
ATOM     54  C   UNL     1       6.877 -10.331   3.070  1.00  0.00     0.031 C 
ATOM     55  C   UNL     1       1.768 -12.654   3.828  1.00  0.00     0.029 A 
ATOM     56  C   UNL     1       3.109 -12.280   3.758  1.00  0.00     0.049 A 
ATOM     57  H   UNL     1       4.284 -12.053   2.056  1.00  0.00     0.167 HD
ATOM     58  C   UNL     1       5.310 -11.344   4.436  1.00  0.00     0.074 A 
ATOM     59  C   UNL     1       6.082 -11.397   3.199  1.00  0.00     0.031 C 
ATOM     60  C   UNL     1       4.051 -11.780   4.736  1.00  0.00     0.031 A 
BRANCH  47  61
ATOM     61  C   UNL     1       3.519 -12.387  -0.591  1.00  0.00    -0.014 A 
ATOM     62  C   UNL     1       3.976 -13.704  -0.409  1.00  0.00     0.009 A 
ATOM     63  C   UNL     1       4.344 -11.542  -1.363  1.00  0.00     0.009 A 
ATOM     64  C   UNL     1       5.219 -14.120  -0.902  1.00  0.00     0.001 A 
ATOM     65  C   UNL     1       5.571 -11.961  -1.882  1.00  0.00     0.001 A 
ATOM     66  C   UNL     1       6.020 -13.246  -1.630  1.00  0.00     0.000 A 
ENDBRANCH  47  61
BRANCH  48  67
ATOM     67  C   UNL     1       8.038  -7.527   4.488  1.00  0.00    -0.014 A 
ATOM     68  C   UNL     1       9.148  -8.219   5.005  1.00  0.00     0.009 A 
ATOM     69  C   UNL     1       8.284  -6.330   3.794  1.00  0.00     0.009 A 
ATOM     70  C   UNL     1      10.454  -7.761   4.784  1.00  0.00     0.001 A 
ATOM     71  C   UNL     1       9.588  -5.868   3.578  1.00  0.00     0.001 A 
ATOM     72  C   UNL     1      10.674  -6.595   4.056  1.00  0.00     0.000 A 
ENDBRANCH  48  67
BRANCH  60  73
ATOM     73  C   UNL     1       3.571 -11.597   6.147  1.00  0.00    -0.014 A 
ATOM     74  C   UNL     1       3.407 -10.351   6.773  1.00  0.00     0.009 A 
ATOM     75  C   UNL     1       3.218 -12.755   6.855  1.00  0.00     0.009 A 
ATOM     76  C   UNL     1       2.936 -10.276   8.088  1.00  0.00     0.001 A 
ATOM     77  C   UNL     1       2.726 -12.679   8.156  1.00  0.00     0.001 A 
ATOM     78  C   UNL     1       2.594 -11.440   8.777  1.00  0.00     0.000 A 
ENDBRANCH  60  73
ENDBRANCH  34  35
ENDBRANCH  27  29
ENDBRANCH  26  27
ENDBRANCH  25  26
ENDBRANCH   1  25
TORSDOF 15
