REMARK SMILES CC(=O)c1cc2c(cc1NC(=O)/C=C/C(=O)OCCOCCOC(=O)c1ccc(-c3c4nc(c(-c5ccccc5)c5ccc([nH]5)c(-c5ccccc5)c5nc(c(-c6ccccc6)c6ccc3[nH]6)C=C5)C=C4)cc1)OCO2
REMARK SMILES IDX 19 1 18 2 17 3 15 4 16 5 14 6 13 7 11 8 10 9 12 11 9 12 4 13
REMARK SMILES IDX 5 14 6 15 8 16 7 17 76 18 74 19 75 20 2 21 1 22 3 23 20 24
REMARK SMILES IDX 21 25 22 26 23 27 24 28 25 29 26 30 27 31 73 32 28 33 72 34
REMARK SMILES IDX 29 35 30 36 31 37 66 38 32 39 71 40 65 41 67 42 33 43 70 44
REMARK SMILES IDX 64 45 63 46 34 48 56 49 41 50 55 51 42 52 45 53 54 54 68 55
REMARK SMILES IDX 43 56 44 57 53 59 69 60 46 61 35 62 36 63 40 64 37 65 39 66
REMARK SMILES IDX 38 67 57 68 58 69 62 70 59 71 61 72 60 73 47 74 48 75 52 76
REMARK SMILES IDX 49 77 51 78 50 79
REMARK H PARENT 10 10 67 47 45 58
REMARK Flexibility Score: inf
ROOT
ATOM      1  C   UNL     1      -0.573  -4.655   8.870  1.00  0.00     0.202 C 
ENDROOT
BRANCH   1   2
ATOM      2  C   UNL     1      -0.724  -3.160   9.175  1.00  0.00     0.261 C 
BRANCH   2   3
ATOM      3  O   UNL     1      -1.315  -2.448   8.069  1.00  0.00    -0.460 OA
BRANCH   3   4
ATOM      4  C   UNL     1      -0.847  -1.189   7.883  1.00  0.00     0.331 C 
ATOM      5  O   UNL     1      -0.069  -0.597   8.616  1.00  0.00    -0.247 OA
BRANCH   4   6
ATOM      6  C   UNL     1      -1.287  -0.601   6.603  1.00  0.00     0.099 C 
ATOM      7  C   UNL     1      -2.149  -1.164   5.744  1.00  0.00     0.079 C 
BRANCH   7   8
ATOM      8  C   UNL     1      -2.407  -0.537   4.427  1.00  0.00     0.248 C 
ATOM      9  N   UNL     1      -1.398  -0.346   3.517  1.00  0.00    -0.322 N 
ATOM     10  H   UNL     1      -1.669   0.194   2.739  1.00  0.00     0.170 HD
ATOM     11  O   UNL     1      -3.555  -0.181   4.170  1.00  0.00    -0.270 OA
BRANCH   9  12
ATOM     12  C   UNL     1      -0.045  -0.767   3.468  1.00  0.00     0.056 A 
ATOM     13  C   UNL     1       0.861  -0.176   2.545  1.00  0.00     0.045 A 
ATOM     14  C   UNL     1       2.246  -0.416   2.628  1.00  0.00     0.064 A 
ATOM     15  C   UNL     1       2.688  -1.293   3.591  1.00  0.00     0.166 A 
ATOM     16  C   UNL     1       0.447  -1.763   4.309  1.00  0.00     0.077 A 
ATOM     17  C   UNL     1       1.806  -1.972   4.385  1.00  0.00     0.167 A 
ATOM     18  O   UNL     1       3.978  -1.621   3.858  1.00  0.00    -0.454 OA
ATOM     19  O   UNL     1       2.422  -2.828   5.239  1.00  0.00    -0.454 OA
ATOM     20  C   UNL     1       3.806  -2.525   4.974  1.00  0.00     0.468 C 
BRANCH  13  21
ATOM     21  C   UNL     1       0.352   0.663   1.431  1.00  0.00     0.162 C 
ATOM     22  C   UNL     1       0.908   0.397   0.054  1.00  0.00     0.093 C 
ATOM     23  O   UNL     1      -0.565   1.454   1.631  1.00  0.00    -0.294 OA
ENDBRANCH  13  21
ENDBRANCH   9  12
ENDBRANCH   7   8
ENDBRANCH   4   6
ENDBRANCH   3   4
ENDBRANCH   2   3
ENDBRANCH   1   2
BRANCH   1  24
ATOM     24  O   UNL     1       0.374  -5.008   7.860  1.00  0.00    -0.374 OA
BRANCH  24  25
ATOM     25  C   UNL     1       0.005  -4.729   6.513  1.00  0.00     0.202 C 
BRANCH  25  26
ATOM     26  C   UNL     1      -0.917  -5.739   5.821  1.00  0.00     0.261 C 
BRANCH  26  27
ATOM     27  O   UNL     1      -2.189  -5.847   6.475  1.00  0.00    -0.460 OA
BRANCH  27  28
ATOM     28  C   UNL     1      -2.371  -7.002   7.157  1.00  0.00     0.338 C 
ATOM     29  O   UNL     1      -1.628  -7.973   7.193  1.00  0.00    -0.246 OA
BRANCH  28  30
ATOM     30  C   UNL     1      -3.546  -6.874   8.033  1.00  0.00     0.060 A 
ATOM     31  C   UNL     1      -3.361  -7.116   9.400  1.00  0.00     0.016 A 
ATOM     32  C   UNL     1      -4.811  -6.576   7.523  1.00  0.00     0.016 A 
ATOM     33  C   UNL     1      -4.453  -7.100  10.261  1.00  0.00     0.010 A 
ATOM     34  C   UNL     1      -5.908  -6.574   8.387  1.00  0.00     0.010 A 
ATOM     35  C   UNL     1      -5.737  -6.867   9.752  1.00  0.00    -0.014 A 
BRANCH  35  36
ATOM     36  C   UNL     1      -6.914  -7.080  10.624  1.00  0.00     0.031 A 
ATOM     37  C   UNL     1      -7.649  -8.389  10.541  1.00  0.00     0.074 A 
ATOM     38  C   UNL     1      -7.304  -6.132  11.493  1.00  0.00     0.049 A 
ATOM     39  N   UNL     1      -8.710  -8.785  11.196  1.00  0.00    -0.248 NA
ATOM     40  C   UNL     1      -7.117  -9.384   9.595  1.00  0.00     0.031 C 
ATOM     41  C   UNL     1      -6.644  -4.843  11.695  1.00  0.00     0.029 A 
ATOM     42  N   UNL     1      -8.358  -6.113  12.370  1.00  0.00    -0.354 N 
ATOM     43  C   UNL     1      -8.980 -10.066  10.732  1.00  0.00     0.074 A 
ATOM     44  C   UNL     1      -7.986 -10.375   9.727  1.00  0.00     0.031 C 
ATOM     45  C   UNL     1      -7.312  -4.156  12.637  1.00  0.00     0.029 A 
ATOM     46  C   UNL     1      -8.462  -4.941  13.078  1.00  0.00     0.049 A 
ATOM     47  H   UNL     1      -8.981  -6.867  12.481  1.00  0.00     0.167 HD
ATOM     48  C   UNL     1      -9.968 -10.911  11.111  1.00  0.00     0.031 A 
ATOM     49  C   UNL     1      -9.392  -4.545  13.967  1.00  0.00     0.031 A 
ATOM     50  C   UNL     1     -10.959 -10.601  12.105  1.00  0.00     0.049 A 
ATOM     51  C   UNL     1     -10.523  -5.477  14.314  1.00  0.00     0.074 A 
ATOM     52  C   UNL     1     -11.982 -11.402  12.581  1.00  0.00     0.029 A 
ATOM     53  N   UNL     1     -11.055  -9.389  12.769  1.00  0.00    -0.354 N 
ATOM     54  N   UNL     1     -10.745  -6.701  13.899  1.00  0.00    -0.248 NA
ATOM     55  C   UNL     1     -11.530  -4.971  15.258  1.00  0.00     0.031 C 
ATOM     56  C   UNL     1     -12.733 -10.652  13.493  1.00  0.00     0.029 A 
ATOM     57  C   UNL     1     -12.140  -9.407  13.627  1.00  0.00     0.049 A 
ATOM     58  H   UNL     1     -10.441  -8.628  12.649  1.00  0.00     0.167 HD
ATOM     59  C   UNL     1     -11.894  -7.122  14.556  1.00  0.00     0.074 A 
ATOM     60  C   UNL     1     -12.316  -6.027  15.405  1.00  0.00     0.031 C 
ATOM     61  C   UNL     1     -12.541  -8.310  14.469  1.00  0.00     0.031 A 
BRANCH  48  62
ATOM     62  C   UNL     1     -10.050 -12.240  10.415  1.00  0.00    -0.014 A 
ATOM     63  C   UNL     1      -9.118 -13.259  10.670  1.00  0.00     0.009 A 
ATOM     64  C   UNL     1     -11.101 -12.489   9.519  1.00  0.00     0.009 A 
ATOM     65  C   UNL     1      -9.224 -14.490  10.020  1.00  0.00     0.001 A 
ATOM     66  C   UNL     1     -11.219 -13.729   8.891  1.00  0.00     0.001 A 
ATOM     67  C   UNL     1     -10.277 -14.726   9.136  1.00  0.00     0.000 A 
ENDBRANCH  48  62
BRANCH  49  68
ATOM     68  C   UNL     1      -9.314  -3.196  14.586  1.00  0.00    -0.014 A 
ATOM     69  C   UNL     1      -9.039  -3.053  15.955  1.00  0.00     0.009 A 
ATOM     70  C   UNL     1      -9.551  -2.046  13.818  1.00  0.00     0.009 A 
ATOM     71  C   UNL     1      -9.035  -1.788  16.547  1.00  0.00     0.001 A 
ATOM     72  C   UNL     1      -9.517  -0.780  14.407  1.00  0.00     0.001 A 
ATOM     73  C   UNL     1      -9.271  -0.653  15.773  1.00  0.00     0.000 A 
ENDBRANCH  49  68
BRANCH  61  74
ATOM     74  C   UNL     1     -13.746  -8.504  15.346  1.00  0.00    -0.014 A 
ATOM     75  C   UNL     1     -14.958  -7.849  15.080  1.00  0.00     0.009 A 
ATOM     76  C   UNL     1     -13.675  -9.389  16.434  1.00  0.00     0.009 A 
ATOM     77  C   UNL     1     -16.065  -8.051  15.906  1.00  0.00     0.001 A 
ATOM     78  C   UNL     1     -14.791  -9.612  17.240  1.00  0.00     0.001 A 
ATOM     79  C   UNL     1     -15.982  -8.935  16.982  1.00  0.00     0.000 A 
ENDBRANCH  61  74
ENDBRANCH  35  36
ENDBRANCH  28  30
ENDBRANCH  27  28
ENDBRANCH  26  27
ENDBRANCH  25  26
ENDBRANCH  24  25
ENDBRANCH   1  24
TORSDOF 17
