REMARK SMILES C[NH+]1CCC([N@@H+](CC(=O)OCCOCCOC(=O)c2ccc(-c3c4nc(c(-c5ccccc5)c5ccc([nH]5)c(-c5ccccc5)c5nc(c(-c6ccccc6)c6ccc3[nH]6)C=C5)C=C4)cc2)C(C)(C)C)CC1
REMARK SMILES IDX 13 1 12 2 11 3 10 4 8 5 9 6 7 7 6 8 5 10 1 11 2 12 3 13
REMARK SMILES IDX 72 14 4 16 71 17 67 18 68 19 69 20 70 21 14 22 15 23 16 24
REMARK SMILES IDX 17 25 18 26 19 27 20 28 66 29 21 30 65 31 22 32 23 33 24 34
REMARK SMILES IDX 59 35 25 36 64 37 58 38 60 39 26 40 63 41 57 42 56 43 27 45
REMARK SMILES IDX 49 46 34 47 48 48 35 49 38 50 47 51 61 52 36 53 37 54 46 56
REMARK SMILES IDX 62 57 39 58 28 59 29 60 33 61 30 62 32 63 31 64 50 65 51 66
REMARK SMILES IDX 55 67 52 68 54 69 53 70 40 71 41 72 45 73 42 74 44 75 43 76
REMARK H PARENT 6 9 2 15 60 44 38 55
REMARK Flexibility Score: inf
ROOT
ATOM      1  O   UNL     1       2.447   4.870   2.437  1.00  0.00    -0.374 OA
ENDROOT
BRANCH   1   2
ATOM      2  C   UNL     1       1.692   4.593   1.256  1.00  0.00     0.202 C 
BRANCH   2   3
ATOM      3  C   UNL     1       2.557   4.322   0.024  1.00  0.00     0.261 C 
BRANCH   3   4
ATOM      4  O   UNL     1       2.667   2.900  -0.196  1.00  0.00    -0.459 OA
BRANCH   4   5
ATOM      5  C   UNL     1       3.888   2.314  -0.217  1.00  0.00     0.361 C 
ATOM      6  O   UNL     1       4.928   2.899   0.065  1.00  0.00    -0.245 OA
BRANCH   5   7
ATOM      7  C   UNL     1       3.845   0.877  -0.766  1.00  0.00     0.387 C 
BRANCH   7   8
ATOM      8  N   UNL     1       3.005  -0.128  -0.060  1.00  0.00    -0.319 N 
ATOM      9  H   UNL     1       3.342  -1.065  -0.279  1.00  0.00     0.349 HD
BRANCH   8  10
ATOM     10  C   UNL     1       1.650  -0.334  -0.650  1.00  0.00     0.196 C 
ATOM     11  C   UNL     1      -2.685  -0.605  -0.972  1.00  0.00     0.332 C 
ATOM     12  N   UNL     1      -1.304  -0.461  -0.515  1.00  0.00    -0.337 N 
ATOM     13  C   UNL     1      -0.673   0.698  -1.140  1.00  0.00     0.268 C 
ATOM     14  C   UNL     1      -0.528  -1.667  -0.819  1.00  0.00     0.268 C 
ATOM     15  H   UNL     1      -1.322  -0.326   0.496  1.00  0.00     0.347 HD
ATOM     16  C   UNL     1       0.748   0.915  -0.624  1.00  0.00     0.126 C 
ATOM     17  C   UNL     1       0.854  -1.563  -0.175  1.00  0.00     0.126 C 
ENDBRANCH   8  10
BRANCH   8  18
ATOM     18  C   UNL     1       3.365  -0.507   1.332  1.00  0.00     0.090 C 
ATOM     19  C   UNL     1       2.429   0.176   2.333  1.00  0.00     0.078 C 
ATOM     20  C   UNL     1       3.318  -2.038   1.571  1.00  0.00     0.078 C 
ATOM     21  C   UNL     1       4.821  -0.121   1.725  1.00  0.00     0.078 C 
ENDBRANCH   8  18
ENDBRANCH   7   8
ENDBRANCH   5   7
ENDBRANCH   4   5
ENDBRANCH   3   4
ENDBRANCH   2   3
ENDBRANCH   1   2
BRANCH   1  22
ATOM     22  C   UNL     1       2.981   3.727   3.102  1.00  0.00     0.202 C 
BRANCH  22  23
ATOM     23  C   UNL     1       2.007   3.102   4.114  1.00  0.00     0.261 C 
BRANCH  23  24
ATOM     24  O   UNL     1       0.796   2.636   3.480  1.00  0.00    -0.460 OA
BRANCH  24  25
ATOM     25  C   UNL     1      -0.320   3.335   3.793  1.00  0.00     0.338 C 
ATOM     26  O   UNL     1      -0.428   4.200   4.646  1.00  0.00    -0.246 OA
BRANCH  25  27
ATOM     27  C   UNL     1      -1.419   3.040   2.848  1.00  0.00     0.060 A 
ATOM     28  C   UNL     1      -2.057   4.140   2.264  1.00  0.00     0.016 A 
ATOM     29  C   UNL     1      -1.904   1.752   2.619  1.00  0.00     0.016 A 
ATOM     30  C   UNL     1      -3.224   3.966   1.518  1.00  0.00     0.010 A 
ATOM     31  C   UNL     1      -3.077   1.581   1.862  1.00  0.00     0.010 A 
ATOM     32  C   UNL     1      -3.775   2.689   1.341  1.00  0.00    -0.014 A 
BRANCH  32  33
ATOM     33  C   UNL     1      -5.135   2.565   0.732  1.00  0.00     0.031 A 
ATOM     34  C   UNL     1      -6.314   2.171   1.591  1.00  0.00     0.074 A 
ATOM     35  C   UNL     1      -5.359   2.886  -0.559  1.00  0.00     0.049 A 
ATOM     36  N   UNL     1      -7.588   2.120   1.280  1.00  0.00    -0.248 NA
ATOM     37  C   UNL     1      -6.021   1.779   2.977  1.00  0.00     0.031 C 
ATOM     38  C   UNL     1      -4.338   3.296  -1.520  1.00  0.00     0.029 A 
ATOM     39  N   UNL     1      -6.533   2.935  -1.277  1.00  0.00    -0.354 N 
ATOM     40  C   UNL     1      -8.242   1.686   2.427  1.00  0.00     0.074 A 
ATOM     41  C   UNL     1      -7.220   1.438   3.421  1.00  0.00     0.031 C 
ATOM     42  C   UNL     1      -4.930   3.583  -2.692  1.00  0.00     0.029 A 
ATOM     43  C   UNL     1      -6.370   3.356  -2.576  1.00  0.00     0.049 A 
ATOM     44  H   UNL     1      -7.407   2.692  -0.896  1.00  0.00     0.167 HD
ATOM     45  C   UNL     1      -9.569   1.524   2.653  1.00  0.00     0.031 A 
ATOM     46  C   UNL     1      -7.270   3.543  -3.563  1.00  0.00     0.031 A 
ATOM     47  C   UNL     1     -10.605   1.767   1.685  1.00  0.00     0.049 A 
ATOM     48  C   UNL     1      -8.737   3.313  -3.307  1.00  0.00     0.074 A 
ATOM     49  C   UNL     1     -11.977   1.668   1.849  1.00  0.00     0.029 A 
ATOM     50  N   UNL     1     -10.387   2.146   0.370  1.00  0.00    -0.354 N 
ATOM     51  N   UNL     1      -9.340   2.964  -2.197  1.00  0.00    -0.248 NA
ATOM     52  C   UNL     1      -9.650   3.519  -4.444  1.00  0.00     0.031 C 
ATOM     53  C   UNL     1     -12.587   1.926   0.616  1.00  0.00     0.029 A 
ATOM     54  C   UNL     1     -11.598   2.250  -0.298  1.00  0.00     0.049 A 
ATOM     55  H   UNL     1      -9.504   2.315  -0.030  1.00  0.00     0.167 HD
ATOM     56  C   UNL     1     -10.699   2.935  -2.494  1.00  0.00     0.074 A 
ATOM     57  C   UNL     1     -10.835   3.317  -3.883  1.00  0.00     0.031 C 
ATOM     58  C   UNL     1     -11.738   2.623  -1.682  1.00  0.00     0.031 A 
BRANCH  45  59
ATOM     59  C   UNL     1      -9.975   1.028   4.015  1.00  0.00    -0.014 A 
ATOM     60  C   UNL     1      -9.840   1.833   5.158  1.00  0.00     0.009 A 
ATOM     61  C   UNL     1     -10.511  -0.262   4.153  1.00  0.00     0.009 A 
ATOM     62  C   UNL     1     -10.184   1.336   6.417  1.00  0.00     0.001 A 
ATOM     63  C   UNL     1     -10.885  -0.744   5.409  1.00  0.00     0.001 A 
ATOM     64  C   UNL     1     -10.708   0.050   6.541  1.00  0.00     0.000 A 
ENDBRANCH  45  59
BRANCH  46  65
ATOM     65  C   UNL     1      -6.812   3.981  -4.909  1.00  0.00    -0.014 A 
ATOM     66  C   UNL     1      -7.107   5.267  -5.387  1.00  0.00     0.009 A 
ATOM     67  C   UNL     1      -6.094   3.099  -5.733  1.00  0.00     0.009 A 
ATOM     68  C   UNL     1      -6.713   5.653  -6.671  1.00  0.00     0.001 A 
ATOM     69  C   UNL     1      -5.676   3.498  -7.004  1.00  0.00     0.001 A 
ATOM     70  C   UNL     1      -5.993   4.771  -7.475  1.00  0.00     0.000 A 
ENDBRANCH  46  65
BRANCH  58  71
ATOM     71  C   UNL     1     -13.128   2.706  -2.256  1.00  0.00    -0.014 A 
ATOM     72  C   UNL     1     -13.589   1.772  -3.197  1.00  0.00     0.009 A 
ATOM     73  C   UNL     1     -14.008   3.704  -1.808  1.00  0.00     0.009 A 
ATOM     74  C   UNL     1     -14.891   1.855  -3.698  1.00  0.00     0.001 A 
ATOM     75  C   UNL     1     -15.318   3.767  -2.288  1.00  0.00     0.001 A 
ATOM     76  C   UNL     1     -15.756   2.848  -3.239  1.00  0.00     0.000 A 
ENDBRANCH  58  71
ENDBRANCH  32  33
ENDBRANCH  25  27
ENDBRANCH  24  25
ENDBRANCH  23  24
ENDBRANCH  22  23
ENDBRANCH   1  22
TORSDOF 17
