REMARK SMILES C[C@@H](NC(=O)[C@H]1CC=CC[C@@H]1C(=O)OCCOCCOC(=O)c1ccc(-c2c3nc(c(-c4ccccc4)c4ccc([nH]4)c(-c4ccccc4)c4nc(c(-c5ccccc5)c5ccc2[nH]5)C=C4)C=C3)cc1)c1ccc(-n2ccnc2)cc1
REMARK SMILES IDX 16 1 15 2 14 3 12 4 13 5 11 6 6 7 7 8 8 9 10 10 9 11 4 12
REMARK SMILES IDX 3 13 5 15 2 16 1 17 71 18 72 19 81 20 73 21 80 22 74 23
REMARK SMILES IDX 75 24 76 25 79 26 77 27 78 28 17 29 18 30 19 31 20 32 21 33
REMARK SMILES IDX 22 34 23 35 24 36 70 37 25 38 69 39 26 40 27 41 28 42 63 43
REMARK SMILES IDX 29 44 68 45 62 46 64 47 30 48 67 49 61 50 60 51 31 53 53 54
REMARK SMILES IDX 38 55 52 56 39 57 42 58 51 59 65 60 40 61 41 62 50 64 66 65
REMARK SMILES IDX 43 66 32 67 33 68 37 69 34 70 36 71 35 72 54 73 55 74 59 75
REMARK SMILES IDX 56 76 58 77 57 78 44 79 45 80 49 81 46 82 48 83 47 84
REMARK H PARENT 3 14 64 52 42 63
REMARK Flexibility Score: inf
ROOT
ATOM      1  C   UNL     1      -6.247   4.779  -0.087  1.00  0.00     0.202 C 
ENDROOT
BRANCH   1   2
ATOM      2  C   UNL     1      -5.319   3.755  -0.749  1.00  0.00     0.261 C 
BRANCH   2   3
ATOM      3  O   UNL     1      -3.944   3.897  -0.337  1.00  0.00    -0.463 OA
BRANCH   3   4
ATOM      4  C   UNL     1      -3.032   4.068  -1.332  1.00  0.00     0.310 C 
ATOM      5  O   UNL     1      -3.307   4.111  -2.526  1.00  0.00    -0.252 OA
BRANCH   4   6
ATOM      6  C   UNL     1      -1.608   4.254  -0.828  1.00  0.00     0.115 C 
ATOM      7  C   UNL     1      -1.254   3.331   0.353  1.00  0.00     0.097 C 
ATOM      8  C   UNL     1      -1.662   3.909   1.725  1.00  0.00     0.041 C 
ATOM      9  C   UNL     1      -1.545   5.399   1.848  1.00  0.00    -0.030 C 
ATOM     10  C   UNL     1      -1.289   5.741  -0.616  1.00  0.00     0.043 C 
ATOM     11  C   UNL     1      -1.362   6.215   0.804  1.00  0.00    -0.030 C 
BRANCH   7  12
ATOM     12  C   UNL     1       0.243   3.025   0.380  1.00  0.00     0.224 C 
ATOM     13  N   UNL     1       0.741   1.955   1.060  1.00  0.00    -0.349 N 
ATOM     14  H   UNL     1       1.492   2.186   1.653  1.00  0.00     0.164 HD
ATOM     15  O   UNL     1       1.071   3.817  -0.079  1.00  0.00    -0.275 OA
BRANCH  13  16
ATOM     16  C   UNL     1       0.391   0.523   1.094  1.00  0.00     0.109 C 
ATOM     17  C   UNL     1       1.207  -0.201   0.013  1.00  0.00     0.036 C 
BRANCH  16  18
ATOM     18  C   UNL     1      -1.087   0.189   1.093  1.00  0.00    -0.026 A 
ATOM     19  C   UNL     1      -1.891   0.571   2.180  1.00  0.00     0.008 A 
ATOM     20  C   UNL     1      -1.700  -0.474   0.016  1.00  0.00     0.008 A 
ATOM     21  C   UNL     1      -3.279   0.401   2.137  1.00  0.00     0.027 A 
ATOM     22  C   UNL     1      -3.083  -0.635  -0.042  1.00  0.00     0.027 A 
ATOM     23  C   UNL     1      -3.874  -0.161   0.999  1.00  0.00     0.046 A 
BRANCH  23  24
ATOM     24  N   UNL     1      -5.279  -0.194   0.874  1.00  0.00    -0.306 N 
ATOM     25  C   UNL     1      -6.186  -0.274   1.895  1.00  0.00     0.113 A 
ATOM     26  C   UNL     1      -6.020  -0.097  -0.281  1.00  0.00     0.204 A 
ATOM     27  C   UNL     1      -7.426  -0.136   1.321  1.00  0.00     0.131 A 
ATOM     28  N   UNL     1      -7.311  -0.015  -0.036  1.00  0.00    -0.245 NA
ENDBRANCH  23  24
ENDBRANCH  16  18
ENDBRANCH  13  16
ENDBRANCH   7  12
ENDBRANCH   4   6
ENDBRANCH   3   4
ENDBRANCH   2   3
ENDBRANCH   1   2
BRANCH   1  29
ATOM     29  O   UNL     1      -6.043   6.140  -0.466  1.00  0.00    -0.374 OA
BRANCH  29  30
ATOM     30  C   UNL     1      -4.908   6.796   0.094  1.00  0.00     0.202 C 
BRANCH  30  31
ATOM     31  C   UNL     1      -5.063   7.275   1.541  1.00  0.00     0.261 C 
BRANCH  31  32
ATOM     32  O   UNL     1      -5.189   6.181   2.472  1.00  0.00    -0.460 OA
BRANCH  32  33
ATOM     33  C   UNL     1      -6.365   6.145   3.139  1.00  0.00     0.338 C 
ATOM     34  O   UNL     1      -7.276   6.963   3.081  1.00  0.00    -0.246 OA
BRANCH  33  35
ATOM     35  C   UNL     1      -6.507   4.899   3.914  1.00  0.00     0.060 A 
ATOM     36  C   UNL     1      -7.689   4.170   3.742  1.00  0.00     0.016 A 
ATOM     37  C   UNL     1      -5.591   4.538   4.905  1.00  0.00     0.016 A 
ATOM     38  C   UNL     1      -8.002   3.129   4.614  1.00  0.00     0.010 A 
ATOM     39  C   UNL     1      -5.908   3.491   5.782  1.00  0.00     0.010 A 
ATOM     40  C   UNL     1      -7.138   2.816   5.673  1.00  0.00    -0.014 A 
BRANCH  40  41
ATOM     41  C   UNL     1      -7.594   1.877   6.731  1.00  0.00     0.031 A 
ATOM     42  C   UNL     1      -8.141   2.418   8.016  1.00  0.00     0.074 A 
ATOM     43  C   UNL     1      -7.580   0.547   6.532  1.00  0.00     0.049 A 
ATOM     44  N   UNL     1      -8.612   1.764   9.046  1.00  0.00    -0.248 NA
ATOM     45  C   UNL     1      -8.169   3.881   8.157  1.00  0.00     0.031 C 
ATOM     46  C   UNL     1      -7.126  -0.085   5.306  1.00  0.00     0.029 A 
ATOM     47  N   UNL     1      -7.957  -0.503   7.328  1.00  0.00    -0.354 N 
ATOM     48  C   UNL     1      -8.995   2.735   9.959  1.00  0.00     0.074 A 
ATOM     49  C   UNL     1      -8.672   4.020   9.375  1.00  0.00     0.031 C 
ATOM     50  C   UNL     1      -7.243  -1.418   5.417  1.00  0.00     0.029 A 
ATOM     51  C   UNL     1      -7.764  -1.732   6.744  1.00  0.00     0.049 A 
ATOM     52  H   UNL     1      -8.331  -0.388   8.232  1.00  0.00     0.167 HD
ATOM     53  C   UNL     1      -9.573   2.570  11.171  1.00  0.00     0.031 A 
ATOM     54  C   UNL     1      -7.974  -2.972   7.224  1.00  0.00     0.031 A 
ATOM     55  C   UNL     1      -9.881   1.294  11.760  1.00  0.00     0.049 A 
ATOM     56  C   UNL     1      -8.540  -3.130   8.606  1.00  0.00     0.074 A 
ATOM     57  C   UNL     1     -10.469   1.030  12.985  1.00  0.00     0.029 A 
ATOM     58  N   UNL     1      -9.621   0.068  11.168  1.00  0.00    -0.354 N 
ATOM     59  N   UNL     1      -8.909  -2.200   9.453  1.00  0.00    -0.248 NA
ATOM     60  C   UNL     1      -8.725  -4.503   9.096  1.00  0.00     0.031 C 
ATOM     61  C   UNL     1     -10.522  -0.358  13.153  1.00  0.00     0.029 A 
ATOM     62  C   UNL     1     -10.011  -0.957  12.013  1.00  0.00     0.049 A 
ATOM     63  H   UNL     1      -9.217  -0.056  10.278  1.00  0.00     0.167 HD
ATOM     64  C   UNL     1      -9.391  -2.873  10.566  1.00  0.00     0.074 A 
ATOM     65  C   UNL     1      -9.279  -4.289  10.282  1.00  0.00     0.031 C 
ATOM     66  C   UNL     1      -9.885  -2.361  11.719  1.00  0.00     0.031 A 
BRANCH  53  67
ATOM     67  C   UNL     1      -9.874   3.814  11.953  1.00  0.00    -0.014 A 
ATOM     68  C   UNL     1     -10.937   4.658  11.593  1.00  0.00     0.009 A 
ATOM     69  C   UNL     1      -9.086   4.143  13.066  1.00  0.00     0.009 A 
ATOM     70  C   UNL     1     -11.184   5.826  12.316  1.00  0.00     0.001 A 
ATOM     71  C   UNL     1      -9.351   5.299  13.801  1.00  0.00     0.001 A 
ATOM     72  C   UNL     1     -10.393   6.144  13.421  1.00  0.00     0.000 A 
ENDBRANCH  53  67
BRANCH  54  73
ATOM     73  C   UNL     1      -7.634  -4.162   6.402  1.00  0.00    -0.014 A 
ATOM     74  C   UNL     1      -8.643  -4.977   5.865  1.00  0.00     0.009 A 
ATOM     75  C   UNL     1      -6.292  -4.498   6.162  1.00  0.00     0.009 A 
ATOM     76  C   UNL     1      -8.313  -6.115   5.124  1.00  0.00     0.001 A 
ATOM     77  C   UNL     1      -5.966  -5.623   5.401  1.00  0.00     0.001 A 
ATOM     78  C   UNL     1      -6.977  -6.434   4.889  1.00  0.00     0.000 A 
ENDBRANCH  54  73
BRANCH  66  79
ATOM     79  C   UNL     1     -10.363  -3.343  12.749  1.00  0.00    -0.014 A 
ATOM     80  C   UNL     1      -9.456  -4.085  13.521  1.00  0.00     0.009 A 
ATOM     81  C   UNL     1     -11.740  -3.502  12.971  1.00  0.00     0.009 A 
ATOM     82  C   UNL     1      -9.921  -4.990  14.476  1.00  0.00     0.001 A 
ATOM     83  C   UNL     1     -12.200  -4.390  13.943  1.00  0.00     0.001 A 
ATOM     84  C   UNL     1     -11.291  -5.139  14.689  1.00  0.00     0.000 A 
ENDBRANCH  66  79
ENDBRANCH  40  41
ENDBRANCH  33  35
ENDBRANCH  32  33
ENDBRANCH  31  32
ENDBRANCH  30  31
ENDBRANCH  29  30
ENDBRANCH   1  29
TORSDOF 18
