REMARK SMILES O=C(OCCOCCOC(=O)c1ccc(-c2c3nc(c(-c4ccccc4)c4ccc([nH]4)c(-c4ccccc4)c4nc(c(-c5ccccc5)c5ccc2[nH]5)C=C4)C=C3)cc1)C1=Cc2cc(C(F)(F)F)ccc2O[C@@H]1C(F)(F)F
REMARK SMILES IDX 7 1 6 2 5 3 4 4 3 5 2 6 1 7 60 8 61 9 73 10 62 11 72 12
REMARK SMILES IDX 63 13 71 14 64 15 70 16 69 17 74 18 75 19 76 20 77 21 65 22
REMARK SMILES IDX 66 23 67 24 68 25 8 26 9 27 10 28 11 29 12 30 13 31 59 32
REMARK SMILES IDX 14 33 58 34 15 35 16 36 17 37 52 38 18 39 57 40 51 41 53 42
REMARK SMILES IDX 19 43 56 44 50 45 49 46 20 48 42 49 27 50 41 51 28 52 31 53
REMARK SMILES IDX 40 54 54 55 29 56 30 57 39 59 55 60 32 61 21 62 22 63 26 64
REMARK SMILES IDX 23 65 25 66 24 67 43 68 44 69 48 70 45 71 47 72 46 73 33 74
REMARK SMILES IDX 34 75 38 76 35 77 37 78 36 79
REMARK H PARENT 53 47 31 58
REMARK Flexibility Score: inf
ROOT
ATOM      1  C   UNL     1       2.807   2.347  -2.003  1.00  0.00     0.202 C 
ENDROOT
BRANCH   1   2
ATOM      2  O   UNL     1       3.987   2.123  -1.206  1.00  0.00    -0.374 OA
BRANCH   2   3
ATOM      3  C   UNL     1       4.292   1.168   0.074  1.00  0.00     0.202 C 
BRANCH   3   4
ATOM      4  C   UNL     1       3.368  -0.685   0.727  1.00  0.00     0.261 C 
BRANCH   4   5
ATOM      5  O   UNL     1       2.327  -0.847   1.845  1.00  0.00    -0.460 OA
BRANCH   5   6
ATOM      6  C   UNL     1       2.458   0.075   2.802  1.00  0.00     0.338 C 
ATOM      7  O   UNL     1       1.778   0.271   3.776  1.00  0.00    -0.246 OA
BRANCH   6   8
ATOM      8  C   UNL     1       3.395   0.910   2.083  1.00  0.00     0.087 C 
ATOM      9  C   UNL     1       4.768   0.369   2.154  1.00  0.00     0.027 C 
ATOM     10  C   UNL     1       2.347   1.049   0.462  1.00  0.00     0.316 C 
ATOM     11  C   UNL     1       5.584  -0.470   0.780  1.00  0.00     0.018 A 
ATOM     12  O   UNL     1       3.173   0.100  -1.007  1.00  0.00    -0.475 OA
ATOM     13  C   UNL     1       6.787  -1.081   0.998  1.00  0.00     0.025 A 
ATOM     14  C   UNL     1       4.798  -0.696  -0.749  1.00  0.00     0.128 A 
ATOM     15  C   UNL     1       7.264  -1.895  -0.056  1.00  0.00     0.056 A 
ATOM     16  C   UNL     1       5.253  -1.594  -1.666  1.00  0.00     0.048 A 
ATOM     17  C   UNL     1       6.505  -2.166  -1.289  1.00  0.00     0.017 A 
BRANCH  10  18
ATOM     18  C   UNL     1       1.930   2.580   0.638  1.00  0.00     0.430 C 
ATOM     19  F   UNL     1       1.077   3.062  -0.283  1.00  0.00    -0.167 F 
ATOM     20  F   UNL     1       1.249   2.675   1.821  1.00  0.00    -0.167 F 
ATOM     21  F   UNL     1       2.961   3.443   0.771  1.00  0.00    -0.167 F 
ENDBRANCH  10  18
BRANCH  15  22
ATOM     22  C   UNL     1       8.643  -2.513   0.161  1.00  0.00     0.416 C 
ATOM     23  F   UNL     1       9.588  -1.566   0.426  1.00  0.00    -0.166 F 
ATOM     24  F   UNL     1       8.665  -3.361   1.227  1.00  0.00    -0.166 F 
ATOM     25  F   UNL     1       9.109  -3.220  -0.901  1.00  0.00    -0.166 F 
ENDBRANCH  15  22
ENDBRANCH   6   8
ENDBRANCH   5   6
ENDBRANCH   4   5
ENDBRANCH   3   4
ENDBRANCH   2   3
ENDBRANCH   1   2
BRANCH   1  26
ATOM     26  C   UNL     1       2.975   2.262  -3.516  1.00  0.00     0.261 C 
BRANCH  26  27
ATOM     27  O   UNL     1       3.514   1.019  -3.936  1.00  0.00    -0.460 OA
BRANCH  27  28
ATOM     28  C   UNL     1       4.847   1.046  -4.158  1.00  0.00     0.338 C 
ATOM     29  O   UNL     1       5.633   1.944  -3.917  1.00  0.00    -0.246 OA
BRANCH  28  30
ATOM     30  C   UNL     1       5.224  -0.244  -4.754  1.00  0.00     0.060 A 
ATOM     31  C   UNL     1       6.485  -0.765  -4.451  1.00  0.00     0.016 A 
ATOM     32  C   UNL     1       4.322  -0.960  -5.553  1.00  0.00     0.016 A 
ATOM     33  C   UNL     1       6.818  -2.045  -4.883  1.00  0.00     0.010 A 
ATOM     34  C   UNL     1       4.666  -2.225  -6.007  1.00  0.00     0.010 A 
ATOM     35  C   UNL     1       5.908  -2.774  -5.658  1.00  0.00    -0.014 A 
BRANCH  35  36
ATOM     36  C   UNL     1       6.301  -4.067  -6.237  1.00  0.00     0.031 A 
ATOM     37  C   UNL     1       6.949  -4.058  -7.584  1.00  0.00     0.074 A 
ATOM     38  C   UNL     1       6.041  -5.214  -5.586  1.00  0.00     0.049 A 
ATOM     39  N   UNL     1       7.312  -5.066  -8.329  1.00  0.00    -0.248 NA
ATOM     40  C   UNL     1       7.220  -2.734  -8.174  1.00  0.00     0.031 C 
ATOM     41  C   UNL     1       5.437  -5.321  -4.257  1.00  0.00     0.029 A 
ATOM     42  N   UNL     1       6.237  -6.515  -5.972  1.00  0.00    -0.354 N 
ATOM     43  C   UNL     1       7.851  -4.501  -9.475  1.00  0.00     0.074 A 
ATOM     44  C   UNL     1       7.755  -3.066  -9.339  1.00  0.00     0.031 C 
ATOM     45  C   UNL     1       5.297  -6.622  -3.946  1.00  0.00     0.029 A 
ATOM     46  C   UNL     1       5.760  -7.434  -5.069  1.00  0.00     0.049 A 
ATOM     47  H   UNL     1       6.679  -6.766  -6.815  1.00  0.00     0.167 HD
ATOM     48  C   UNL     1       8.372  -5.133 -10.549  1.00  0.00     0.031 A 
ATOM     49  C   UNL     1       5.675  -8.775  -5.167  1.00  0.00     0.031 A 
ATOM     50  C   UNL     1       8.425  -6.561 -10.685  1.00  0.00     0.049 A 
ATOM     51  C   UNL     1       6.180  -9.443  -6.424  1.00  0.00     0.074 A 
ATOM     52  C   UNL     1       8.954  -7.303 -11.725  1.00  0.00     0.029 A 
ATOM     53  N   UNL     1       7.910  -7.461  -9.767  1.00  0.00    -0.354 N 
ATOM     54  N   UNL     1       6.758  -8.906  -7.472  1.00  0.00    -0.248 NA
ATOM     55  C   UNL     1       6.019 -10.902  -6.511  1.00  0.00     0.031 C 
ATOM     56  C   UNL     1       8.683  -8.649 -11.476  1.00  0.00     0.029 A 
ATOM     57  C   UNL     1       8.060  -8.751 -10.242  1.00  0.00     0.049 A 
ATOM     58  H   UNL     1       7.498  -7.219  -8.906  1.00  0.00     0.167 HD
ATOM     59  C   UNL     1       7.053  -9.962  -8.327  1.00  0.00     0.074 A 
ATOM     60  C   UNL     1       6.618 -11.172  -7.662  1.00  0.00     0.031 C 
ATOM     61  C   UNL     1       7.622  -9.939  -9.556  1.00  0.00     0.031 A 
BRANCH  48  62
ATOM     62  C   UNL     1       8.874  -4.289 -11.682  1.00  0.00    -0.014 A 
ATOM     63  C   UNL     1      10.055  -3.539 -11.569  1.00  0.00     0.009 A 
ATOM     64  C   UNL     1       8.188  -4.303 -12.905  1.00  0.00     0.009 A 
ATOM     65  C   UNL     1      10.531  -2.810 -12.659  1.00  0.00     0.001 A 
ATOM     66  C   UNL     1       8.682  -3.597 -14.002  1.00  0.00     0.001 A 
ATOM     67  C   UNL     1       9.851  -2.849 -13.877  1.00  0.00     0.000 A 
ENDBRANCH  48  62
BRANCH  49  68
ATOM     68  C   UNL     1       5.037  -9.585  -4.091  1.00  0.00    -0.014 A 
ATOM     69  C   UNL     1       5.764 -10.562  -3.394  1.00  0.00     0.009 A 
ATOM     70  C   UNL     1       3.667  -9.441  -3.813  1.00  0.00     0.009 A 
ATOM     71  C   UNL     1       5.125 -11.412  -2.486  1.00  0.00     0.001 A 
ATOM     72  C   UNL     1       3.039 -10.264  -2.875  1.00  0.00     0.001 A 
ATOM     73  C   UNL     1       3.764 -11.261  -2.227  1.00  0.00     0.000 A 
ENDBRANCH  49  68
BRANCH  61  74
ATOM     74  C   UNL     1       7.835 -11.256 -10.250  1.00  0.00    -0.014 A 
ATOM     75  C   UNL     1       6.754 -12.001 -10.747  1.00  0.00     0.009 A 
ATOM     76  C   UNL     1       9.141 -11.723 -10.470  1.00  0.00     0.009 A 
ATOM     77  C   UNL     1       6.977 -13.203 -11.422  1.00  0.00     0.001 A 
ATOM     78  C   UNL     1       9.362 -12.903 -11.179  1.00  0.00     0.001 A 
ATOM     79  C   UNL     1       8.280 -13.647 -11.645  1.00  0.00     0.000 A 
ENDBRANCH  61  74
ENDBRANCH  35  36
ENDBRANCH  28  30
ENDBRANCH  27  28
ENDBRANCH  26  27
ENDBRANCH   1  26
TORSDOF 16
