REMARK SMILES COc1ccc(-c2noc(C[N@H+]3CCCC[C@@H]3C(=O)OCCOCCOC(=O)c3ccc(-c4c5nc(c(-c6ccccc6)c6ccc([nH]6)c(-c6ccccc6)c6nc(c(-c7ccccc7)c7ccc4[nH]7)C=C6)C=C5)cc3)n2)cc1OC
REMARK SMILES IDX 22 1 21 2 20 3 18 4 19 5 17 6 12 7 13 8 14 10 16 11 15 12
REMARK SMILES IDX 11 13 10 14 7 15 8 16 77 17 9 18 6 19 3 20 4 21 79 22 5 23
REMARK SMILES IDX 78 24 2 25 1 26 80 27 81 28 23 29 24 30 25 31 26 32 27 33
REMARK SMILES IDX 28 34 29 35 30 36 76 37 31 38 75 39 32 40 33 41 34 42 69 43
REMARK SMILES IDX 35 44 74 45 68 46 70 47 36 48 73 49 67 50 66 51 37 53 59 54
REMARK SMILES IDX 44 55 58 56 45 57 48 58 57 59 71 60 46 61 47 62 56 64 72 65
REMARK SMILES IDX 49 66 38 67 39 68 43 69 40 70 42 71 41 72 60 73 61 74 65 75
REMARK SMILES IDX 62 76 64 77 63 78 50 79 51 80 55 81 52 82 54 83 53 84
REMARK H PARENT 12 9 70 52 48 63
REMARK Flexibility Score: inf
ROOT
ATOM      1  C   UNL     1       5.920  10.436  -6.662  1.00  0.00     0.202 C 
ENDROOT
BRANCH   1   2
ATOM      2  C   UNL     1       6.317   9.091  -7.281  1.00  0.00     0.261 C 
BRANCH   2   3
ATOM      3  O   UNL     1       5.263   8.457  -8.018  1.00  0.00    -0.459 OA
BRANCH   3   4
ATOM      4  C   UNL     1       4.629   7.467  -7.331  1.00  0.00     0.365 C 
ATOM      5  O   UNL     1       4.927   7.133  -6.186  1.00  0.00    -0.245 OA
BRANCH   4   6
ATOM      6  C   UNL     1       3.474   6.803  -8.110  1.00  0.00     0.295 C 
ATOM      7  N   UNL     1       3.808   5.406  -8.508  1.00  0.00    -0.315 N 
ATOM      8  C   UNL     1       2.662   4.733  -9.144  1.00  0.00     0.263 C 
ATOM      9  H   UNL     1       4.562   5.504  -9.188  1.00  0.00     0.349 HD
ATOM     10  C   UNL     1       2.138   5.505 -10.353  1.00  0.00     0.062 C 
ATOM     11  C   UNL     1       3.004   7.612  -9.331  1.00  0.00     0.078 C 
ATOM     12  C   UNL     1       1.798   6.942  -9.984  1.00  0.00     0.013 C 
BRANCH   7  13
ATOM     13  C   UNL     1       4.346   4.567  -7.403  1.00  0.00     0.364 C 
BRANCH  13  14
ATOM     14  C   UNL     1       3.437   4.275  -6.252  1.00  0.00     0.282 A 
ATOM     15  C   UNL     1       2.269   3.467  -4.717  1.00  0.00     0.202 A 
ATOM     16  N   UNL     1       1.990   4.775  -4.648  1.00  0.00    -0.057 NA
ATOM     17  N   UNL     1       3.141   3.114  -5.717  1.00  0.00    -0.186 NA
ATOM     18  O   UNL     1       2.799   5.319  -5.644  1.00  0.00    -0.333 OA
BRANCH  15  19
ATOM     19  C   UNL     1       1.807   2.492  -3.762  1.00  0.00     0.027 A 
ATOM     20  C   UNL     1       1.046   0.514  -1.949  1.00  0.00     0.160 A 
ATOM     21  C   UNL     1       0.079   1.182  -2.719  1.00  0.00     0.051 A 
ATOM     22  C   UNL     1       2.404   0.821  -2.094  1.00  0.00     0.161 A 
ATOM     23  C   UNL     1       0.456   2.183  -3.616  1.00  0.00     0.016 A 
ATOM     24  C   UNL     1       2.767   1.814  -3.003  1.00  0.00     0.062 A 
BRANCH  20  25
ATOM     25  O   UNL     1       0.630  -0.501  -1.130  1.00  0.00    -0.493 OA
ATOM     26  C   UNL     1      -0.093  -0.009  -0.002  1.00  0.00     0.278 C 
ENDBRANCH  20  25
BRANCH  22  27
ATOM     27  O   UNL     1       3.490   0.275  -1.471  1.00  0.00    -0.493 OA
ATOM     28  C   UNL     1       3.280  -0.648  -0.418  1.00  0.00     0.278 C 
ENDBRANCH  22  27
ENDBRANCH  15  19
ENDBRANCH  13  14
ENDBRANCH   7  13
ENDBRANCH   4   6
ENDBRANCH   3   4
ENDBRANCH   2   3
ENDBRANCH   1   2
BRANCH   1  29
ATOM     29  O   UNL     1       4.740  10.490  -5.870  1.00  0.00    -0.374 OA
BRANCH  29  30
ATOM     30  C   UNL     1       3.471  10.445  -6.522  1.00  0.00     0.202 C 
BRANCH  30  31
ATOM     31  C   UNL     1       3.124  11.579  -7.493  1.00  0.00     0.261 C 
BRANCH  31  32
ATOM     32  O   UNL     1       3.937  11.546  -8.682  1.00  0.00    -0.460 OA
BRANCH  32  33
ATOM     33  C   UNL     1       4.621  12.691  -8.927  1.00  0.00     0.338 C 
ATOM     34  O   UNL     1       4.560  13.738  -8.307  1.00  0.00    -0.246 OA
BRANCH  33  35
ATOM     35  C   UNL     1       5.632  12.465  -9.974  1.00  0.00     0.060 A 
ATOM     36  C   UNL     1       6.974  12.688  -9.639  1.00  0.00     0.016 A 
ATOM     37  C   UNL     1       5.265  12.172 -11.287  1.00  0.00     0.016 A 
ATOM     38  C   UNL     1       7.953  12.670 -10.629  1.00  0.00     0.010 A 
ATOM     39  C   UNL     1       6.247  12.167 -12.283  1.00  0.00     0.010 A 
ATOM     40  C   UNL     1       7.587  12.456 -11.964  1.00  0.00    -0.014 A 
BRANCH  40  41
ATOM     41  C   UNL     1       8.579  12.698 -13.038  1.00  0.00     0.031 A 
ATOM     42  C   UNL     1       8.573  14.024 -13.749  1.00  0.00     0.074 A 
ATOM     43  C   UNL     1       9.494  11.766 -13.355  1.00  0.00     0.049 A 
ATOM     44  N   UNL     1       9.329  14.441 -14.732  1.00  0.00    -0.248 NA
ATOM     45  C   UNL     1       7.585  15.013 -13.286  1.00  0.00     0.031 C 
ATOM     46  C   UNL     1       9.638  10.466 -12.704  1.00  0.00     0.029 A 
ATOM     47  N   UNL     1      10.477  11.778 -14.311  1.00  0.00    -0.354 N 
ATOM     48  C   UNL     1       8.904  15.734 -15.011  1.00  0.00     0.074 A 
ATOM     49  C   UNL     1       7.810  16.026 -14.111  1.00  0.00     0.031 C 
ATOM     50  C   UNL     1      10.649   9.798 -13.287  1.00  0.00     0.029 A 
ATOM     51  C   UNL     1      11.198  10.612 -14.370  1.00  0.00     0.049 A 
ATOM     52  H   UNL     1      10.649  12.549 -14.899  1.00  0.00     0.167 HD
ATOM     53  C   UNL     1       9.384  16.603 -15.932  1.00  0.00     0.031 A 
ATOM     54  C   UNL     1      12.176  10.236 -15.217  1.00  0.00     0.031 A 
ATOM     55  C   UNL     1      10.463  16.311 -16.837  1.00  0.00     0.049 A 
ATOM     56  C   UNL     1      12.634  11.188 -16.289  1.00  0.00     0.074 A 
ATOM     57  C   UNL     1      11.027  17.131 -17.799  1.00  0.00     0.029 A 
ATOM     58  N   UNL     1      11.135  15.101 -16.896  1.00  0.00    -0.354 N 
ATOM     59  N   UNL     1      12.236  12.413 -16.531  1.00  0.00    -0.248 NA
ATOM     60  C   UNL     1      13.680  10.703 -17.201  1.00  0.00     0.031 C 
ATOM     61  C   UNL     1      12.008  16.397 -18.476  1.00  0.00     0.029 A 
ATOM     62  C   UNL     1      12.090  15.141 -17.897  1.00  0.00     0.049 A 
ATOM     63  H   UNL     1      10.959  14.328 -16.312  1.00  0.00     0.167 HD
ATOM     64  C   UNL     1      13.000  12.855 -17.604  1.00  0.00     0.074 A 
ATOM     65  C   UNL     1      13.892  11.770 -17.959  1.00  0.00     0.031 C 
ATOM     66  C   UNL     1      12.969  14.053 -18.238  1.00  0.00     0.031 A 
BRANCH  53  67
ATOM     67  C   UNL     1       8.714  17.944 -16.030  1.00  0.00    -0.014 A 
ATOM     68  C   UNL     1       8.902  18.927 -15.045  1.00  0.00     0.009 A 
ATOM     69  C   UNL     1       7.906  18.238 -17.139  1.00  0.00     0.009 A 
ATOM     70  C   UNL     1       8.268  20.167 -15.156  1.00  0.00     0.001 A 
ATOM     71  C   UNL     1       7.294  19.487 -17.259  1.00  0.00     0.001 A 
ATOM     72  C   UNL     1       7.468  20.447 -16.263  1.00  0.00     0.000 A 
ENDBRANCH  53  67
BRANCH  54  73
ATOM     73  C   UNL     1      12.774   8.881 -15.105  1.00  0.00    -0.014 A 
ATOM     74  C   UNL     1      14.094   8.715 -14.660  1.00  0.00     0.009 A 
ATOM     75  C   UNL     1      12.029   7.745 -15.460  1.00  0.00     0.009 A 
ATOM     76  C   UNL     1      14.662   7.440 -14.594  1.00  0.00     0.001 A 
ATOM     77  C   UNL     1      12.591   6.470 -15.368  1.00  0.00     0.001 A 
ATOM     78  C   UNL     1      13.910   6.320 -14.944  1.00  0.00     0.000 A 
ENDBRANCH  54  73
BRANCH  66  79
ATOM     79  C   UNL     1      13.948  14.268 -19.356  1.00  0.00    -0.014 A 
ATOM     80  C   UNL     1      13.774  13.654 -20.605  1.00  0.00     0.009 A 
ATOM     81  C   UNL     1      15.035  15.137 -19.169  1.00  0.00     0.009 A 
ATOM     82  C   UNL     1      14.686  13.885 -21.637  1.00  0.00     0.001 A 
ATOM     83  C   UNL     1      15.930  15.386 -20.210  1.00  0.00     0.001 A 
ATOM     84  C   UNL     1      15.759  14.754 -21.441  1.00  0.00     0.000 A 
ENDBRANCH  66  79
ENDBRANCH  40  41
ENDBRANCH  33  35
ENDBRANCH  32  33
ENDBRANCH  31  32
ENDBRANCH  30  31
ENDBRANCH  29  30
ENDBRANCH   1  29
TORSDOF 19
