REMARK SMILES NC(=O)c1ccc(N[C@H]2C=C[C@@H](C(=O)OCCOCCOC(=O)c3ccc(-c4c5nc(c(-c6ccccc6)c6ccc([nH]6)c(-c6ccccc6)c6nc(c(-c7ccccc7)c7ccc4[nH]7)C=C6)C=C5)cc3)C2)cc1Cl
REMARK SMILES IDX 17 1 16 2 15 3 13 4 14 5 12 6 9 7 10 8 72 9 11 10 8 11 7 13
REMARK SMILES IDX 4 14 5 15 74 16 6 17 73 18 75 19 2 20 1 21 3 24 18 25 19 26
REMARK SMILES IDX 20 27 21 28 22 29 23 30 24 31 25 32 71 33 26 34 70 35 27 36
REMARK SMILES IDX 28 37 29 38 64 39 30 40 69 41 63 42 65 43 31 44 68 45 62 46
REMARK SMILES IDX 61 47 32 49 54 50 39 51 53 52 40 53 43 54 52 55 66 56 41 57
REMARK SMILES IDX 42 58 51 60 67 61 44 62 33 63 34 64 38 65 35 66 37 67 36 68
REMARK SMILES IDX 55 69 56 70 60 71 57 72 59 73 58 74 45 75 46 76 50 77 47 78
REMARK SMILES IDX 49 79 48 80
REMARK H PARENT 8 12 1 22 1 23 65 48 43 59
REMARK Flexibility Score: inf
ROOT
ATOM      1  C   UNL     1       0.310   0.147  -6.899  1.00  0.00     0.202 C 
ENDROOT
BRANCH   1   2
ATOM      2  C   UNL     1      -0.551  -1.113  -6.782  1.00  0.00     0.261 C 
BRANCH   2   3
ATOM      3  O   UNL     1       0.288  -2.245  -6.497  1.00  0.00    -0.463 OA
BRANCH   3   4
ATOM      4  C   UNL     1       0.045  -3.371  -7.213  1.00  0.00     0.312 C 
ATOM      5  O   UNL     1      -0.941  -3.543  -7.922  1.00  0.00    -0.252 OA
BRANCH   4   6
ATOM      6  C   UNL     1       1.145  -4.420  -7.067  1.00  0.00     0.124 C 
ATOM      7  C   UNL     1       2.671  -5.209  -5.315  1.00  0.00     0.103 C 
ATOM      8  C   UNL     1       1.426  -6.022  -5.363  1.00  0.00    -0.006 C 
ATOM      9  C   UNL     1       2.412  -4.042  -6.274  1.00  0.00     0.048 C 
ATOM     10  C   UNL     1       0.603  -5.611  -6.333  1.00  0.00    -0.014 C 
BRANCH   7  11
ATOM     11  N   UNL     1       3.020  -4.821  -3.962  1.00  0.00    -0.379 N 
ATOM     12  H   UNL     1       3.883  -5.171  -3.641  1.00  0.00     0.161 HD
BRANCH  11  13
ATOM     13  C   UNL     1       2.338  -4.041  -3.053  1.00  0.00     0.036 A 
ATOM     14  C   UNL     1       1.081  -2.390  -1.098  1.00  0.00     0.058 A 
ATOM     15  C   UNL     1       0.475  -2.644  -2.335  1.00  0.00     0.017 A 
ATOM     16  C   UNL     1       2.324  -2.969  -0.838  1.00  0.00     0.055 A 
ATOM     17  C   UNL     1       1.096  -3.456  -3.289  1.00  0.00     0.026 A 
ATOM     18  C   UNL     1       2.937  -3.777  -1.812  1.00  0.00     0.047 A 
ATOM     19  Cl  UNL     1       3.179  -2.787   0.655  1.00  0.00    -0.083 Cl
BRANCH  14  20
ATOM     20  C   UNL     1       0.308  -1.528  -0.167  1.00  0.00     0.250 C 
ATOM     21  N   UNL     1       0.988  -0.773   0.742  1.00  0.00    -0.366 N 
ATOM     22  H   UNL     1       0.495  -0.195   1.368  1.00  0.00     0.159 HD
ATOM     23  H   UNL     1       1.971  -0.807   0.773  1.00  0.00     0.159 HD
ATOM     24  O   UNL     1      -0.913  -1.457  -0.253  1.00  0.00    -0.269 OA
ENDBRANCH  14  20
ENDBRANCH  11  13
ENDBRANCH   7  11
ENDBRANCH   4   6
ENDBRANCH   3   4
ENDBRANCH   2   3
ENDBRANCH   1   2
BRANCH   1  25
ATOM     25  O   UNL     1       1.180   0.191  -8.034  1.00  0.00    -0.374 OA
BRANCH  25  26
ATOM     26  C   UNL     1       2.345  -0.632  -8.000  1.00  0.00     0.202 C 
BRANCH  26  27
ATOM     27  C   UNL     1       3.533  -0.098  -7.191  1.00  0.00     0.261 C 
BRANCH  27  28
ATOM     28  O   UNL     1       3.208   0.142  -5.811  1.00  0.00    -0.460 OA
BRANCH  28  29
ATOM     29  C   UNL     1       3.147   1.452  -5.475  1.00  0.00     0.338 C 
ATOM     30  O   UNL     1       3.422   2.412  -6.186  1.00  0.00    -0.246 OA
BRANCH  29  31
ATOM     31  C   UNL     1       2.561   1.630  -4.135  1.00  0.00     0.060 A 
ATOM     32  C   UNL     1       1.520   2.559  -4.012  1.00  0.00     0.016 A 
ATOM     33  C   UNL     1       3.084   1.000  -3.004  1.00  0.00     0.016 A 
ATOM     34  C   UNL     1       1.045   2.916  -2.753  1.00  0.00     0.010 A 
ATOM     35  C   UNL     1       2.607   1.364  -1.738  1.00  0.00     0.010 A 
ATOM     36  C   UNL     1       1.615   2.354  -1.603  1.00  0.00    -0.014 A 
BRANCH  36  37
ATOM     37  C   UNL     1       1.263   2.911  -0.272  1.00  0.00     0.031 A 
ATOM     38  C   UNL     1       2.224   3.840   0.421  1.00  0.00     0.074 A 
ATOM     39  C   UNL     1       0.083   2.627   0.308  1.00  0.00     0.049 A 
ATOM     40  N   UNL     1       2.101   4.447   1.575  1.00  0.00    -0.248 NA
ATOM     41  C   UNL     1       3.485   4.128  -0.280  1.00  0.00     0.031 C 
ATOM     42  C   UNL     1      -0.955   1.773  -0.262  1.00  0.00     0.029 A 
ATOM     43  N   UNL     1      -0.425   3.008   1.525  1.00  0.00    -0.354 N 
ATOM     44  C   UNL     1       3.254   5.206   1.727  1.00  0.00     0.074 A 
ATOM     45  C   UNL     1       4.093   4.934   0.579  1.00  0.00     0.031 C 
ATOM     46  C   UNL     1      -1.957   1.653   0.626  1.00  0.00     0.029 A 
ATOM     47  C   UNL     1      -1.635   2.429   1.818  1.00  0.00     0.049 A 
ATOM     48  H   UNL     1       0.034   3.635   2.130  1.00  0.00     0.167 HD
ATOM     49  C   UNL     1       3.577   6.076   2.714  1.00  0.00     0.031 A 
ATOM     50  C   UNL     1      -2.393   2.502   2.928  1.00  0.00     0.031 A 
ATOM     51  C   UNL     1       2.755   6.347   3.864  1.00  0.00     0.049 A 
ATOM     52  C   UNL     1      -1.970   3.397   4.059  1.00  0.00     0.074 A 
ATOM     53  C   UNL     1       2.983   7.241   4.896  1.00  0.00     0.029 A 
ATOM     54  N   UNL     1       1.550   5.721   4.137  1.00  0.00    -0.354 N 
ATOM     55  N   UNL     1      -0.903   4.152   4.161  1.00  0.00    -0.248 NA
ATOM     56  C   UNL     1      -2.876   3.475   5.214  1.00  0.00     0.031 C 
ATOM     57  C   UNL     1       1.937   7.121   5.819  1.00  0.00     0.029 A 
ATOM     58  C   UNL     1       1.034   6.189   5.334  1.00  0.00     0.049 A 
ATOM     59  H   UNL     1       1.124   5.042   3.565  1.00  0.00     0.167 HD
ATOM     60  C   UNL     1      -1.036   4.833   5.365  1.00  0.00     0.074 A 
ATOM     61  C   UNL     1      -2.282   4.396   5.959  1.00  0.00     0.031 C 
ATOM     62  C   UNL     1      -0.207   5.752   5.918  1.00  0.00     0.031 A 
BRANCH  49  63
ATOM     63  C   UNL     1       4.887   6.800   2.588  1.00  0.00    -0.014 A 
ATOM     64  C   UNL     1       5.062   7.817   1.635  1.00  0.00     0.009 A 
ATOM     65  C   UNL     1       5.949   6.485   3.449  1.00  0.00     0.009 A 
ATOM     66  C   UNL     1       6.286   8.479   1.524  1.00  0.00     0.001 A 
ATOM     67  C   UNL     1       7.164   7.167   3.352  1.00  0.00     0.001 A 
ATOM     68  C   UNL     1       7.334   8.156   2.384  1.00  0.00     0.000 A 
ENDBRANCH  49  63
BRANCH  50  69
ATOM     69  C   UNL     1      -3.642   1.705   3.026  1.00  0.00    -0.014 A 
ATOM     70  C   UNL     1      -4.898   2.325   2.949  1.00  0.00     0.009 A 
ATOM     71  C   UNL     1      -3.579   0.316   3.216  1.00  0.00     0.009 A 
ATOM     72  C   UNL     1      -6.066   1.573   3.090  1.00  0.00     0.001 A 
ATOM     73  C   UNL     1      -4.749  -0.436   3.334  1.00  0.00     0.001 A 
ATOM     74  C   UNL     1      -5.991   0.194   3.281  1.00  0.00     0.000 A 
ENDBRANCH  50  69
BRANCH  62  75
ATOM     75  C   UNL     1      -0.652   6.390   7.203  1.00  0.00    -0.014 A 
ATOM     76  C   UNL     1      -0.641   5.684   8.416  1.00  0.00     0.009 A 
ATOM     77  C   UNL     1      -1.079   7.728   7.198  1.00  0.00     0.009 A 
ATOM     78  C   UNL     1      -1.089   6.294   9.590  1.00  0.00     0.001 A 
ATOM     79  C   UNL     1      -1.500   8.343   8.378  1.00  0.00     0.001 A 
ATOM     80  C   UNL     1      -1.515   7.622   9.571  1.00  0.00     0.000 A 
ENDBRANCH  62  75
ENDBRANCH  36  37
ENDBRANCH  29  31
ENDBRANCH  28  29
ENDBRANCH  27  28
ENDBRANCH  26  27
ENDBRANCH  25  26
ENDBRANCH   1  25
TORSDOF 17
