REMARK SMILES C[C@@H](Nc1ncnc2c1CCCCC2)C(=O)OCCOCCOC(=O)c1ccc(-c2c3nc(c(-c4ccccc4)c4ccc([nH]4)c(-c4ccccc4)c4nc(c(-c5ccccc5)c5ccc2[nH]5)C=C4)C=C3)cc1
REMARK SMILES IDX 18 1 17 2 15 3 16 4 2 5 1 6 3 7 4 9 5 10 9 11 6 12 8 13 7 14
REMARK SMILES IDX 10 15 11 16 12 17 13 18 14 20 19 22 20 23 21 24 22 25 23 26
REMARK SMILES IDX 24 27 25 28 26 29 27 30 73 31 28 32 72 33 29 34 30 35 31 36
REMARK SMILES IDX 66 37 32 38 71 39 65 40 67 41 33 42 70 43 64 44 63 45 34 47
REMARK SMILES IDX 56 48 41 49 55 50 42 51 45 52 54 53 68 54 43 55 44 56 53 58
REMARK SMILES IDX 69 59 46 60 35 61 36 62 40 63 37 64 39 65 38 66 57 67 58 68
REMARK SMILES IDX 62 69 59 70 61 71 60 72 47 73 48 74 52 75 49 76 51 77 50 78
REMARK H PARENT 3 8 67 46 45 57
REMARK Flexibility Score: 80.00
ROOT
ATOM      1  C   UNL     1      -2.833  -1.404  -0.660  1.00  0.00     0.261 C 
ENDROOT
BRANCH   1   2
ATOM      2  O   UNL     1      -1.442  -1.313  -0.318  1.00  0.00    -0.462 OA
BRANCH   2   3
ATOM      3  C   UNL     1      -0.587  -1.218  -1.376  1.00  0.00     0.328 C 
ATOM      4  O   UNL     1      -0.928  -0.959  -2.526  1.00  0.00    -0.250 OA
BRANCH   3   5
ATOM      5  C   UNL     1       0.862  -1.498  -0.990  1.00  0.00     0.188 C 
ATOM      6  C   UNL     1       1.302  -0.530   0.109  1.00  0.00     0.043 C 
BRANCH   5   7
ATOM      7  N   UNL     1       1.186  -2.891  -0.618  1.00  0.00    -0.357 N 
ATOM      8  H   UNL     1       2.136  -3.140  -0.549  1.00  0.00     0.162 HD
BRANCH   7   9
ATOM      9  C   UNL     1       0.244  -3.864  -0.363  1.00  0.00     0.133 A 
ATOM     10  N   UNL     1       0.350  -4.345   0.886  1.00  0.00    -0.219 NA
ATOM     11  C   UNL     1      -0.735  -4.306  -1.257  1.00  0.00     0.016 A 
ATOM     12  C   UNL     1      -0.594  -5.200   1.284  1.00  0.00     0.224 A 
ATOM     13  C   UNL     1      -1.710  -5.133  -0.706  1.00  0.00     0.049 A 
ATOM     14  N   UNL     1      -1.644  -5.594   0.563  1.00  0.00    -0.241 NA
BRANCH  11  15
ATOM     15  C   UNL     1      -0.776  -3.888  -2.704  1.00  0.00     0.041 C 
BRANCH  15  16
ATOM     16  C   UNL     1      -0.884  -5.001  -3.743  1.00  0.00     0.005 C 
BRANCH  16  17
ATOM     17  C   UNL     1      -2.297  -5.552  -3.891  1.00  0.00     0.001 C 
BRANCH  17  18
ATOM     18  C   UNL     1      -2.764  -6.352  -2.682  1.00  0.00     0.006 CG0
ATOM     19  G   UNL     1      -2.974  -5.496  -1.440  1.00  0.00     0.000 G0
ENDBRANCH  17  18
ENDBRANCH  16  17
ENDBRANCH  15  16
ENDBRANCH  11  15
BRANCH  13  20
ATOM     20  C   UNL     1      -2.974  -5.496  -1.440  1.00  0.00     0.057 CG0
ATOM     21  G   UNL     1      -2.764  -6.352  -2.682  1.00  0.00     0.000 G0
ENDBRANCH  13  20
ENDBRANCH   7   9
ENDBRANCH   5   7
ENDBRANCH   3   5
ENDBRANCH   2   3
ENDBRANCH   1   2
BRANCH   1  22
ATOM     22  C   UNL     1      -3.566  -0.066  -0.651  1.00  0.00     0.202 C 
BRANCH  22  23
ATOM     23  O   UNL     1      -3.198   0.888  -1.640  1.00  0.00    -0.374 OA
BRANCH  23  24
ATOM     24  C   UNL     1      -2.020   1.661  -1.410  1.00  0.00     0.202 C 
BRANCH  24  25
ATOM     25  C   UNL     1      -2.157   2.840  -0.446  1.00  0.00     0.261 C 
BRANCH  25  26
ATOM     26  O   UNL     1      -2.324   2.383   0.908  1.00  0.00    -0.460 OA
BRANCH  26  27
ATOM     27  C   UNL     1      -3.569   2.546   1.407  1.00  0.00     0.338 C 
ATOM     28  O   UNL     1      -4.508   3.131   0.881  1.00  0.00    -0.246 OA
BRANCH  27  29
ATOM     29  C   UNL     1      -3.736   1.731   2.623  1.00  0.00     0.060 A 
ATOM     30  C   UNL     1      -4.865   0.902   2.686  1.00  0.00     0.016 A 
ATOM     31  C   UNL     1      -2.859   1.826   3.705  1.00  0.00     0.016 A 
ATOM     32  C   UNL     1      -5.170   0.231   3.863  1.00  0.00     0.010 A 
ATOM     33  C   UNL     1      -3.174   1.160   4.894  1.00  0.00     0.010 A 
ATOM     34  C   UNL     1      -4.359   0.408   4.990  1.00  0.00    -0.014 A 
BRANCH  34  35
ATOM     35  C   UNL     1      -4.884  -0.008   6.310  1.00  0.00     0.031 A 
ATOM     36  C   UNL     1      -5.556   1.028   7.170  1.00  0.00     0.074 A 
ATOM     37  C   UNL     1      -4.845  -1.294   6.697  1.00  0.00     0.049 A 
ATOM     38  N   UNL     1      -6.120   0.892   8.341  1.00  0.00    -0.248 NA
ATOM     39  C   UNL     1      -5.604   2.401   6.634  1.00  0.00     0.031 C 
ATOM     40  C   UNL     1      -4.283  -2.395   5.916  1.00  0.00     0.029 A 
ATOM     41  N   UNL     1      -5.305  -1.890   7.843  1.00  0.00    -0.354 N 
ATOM     42  C   UNL     1      -6.588   2.156   8.680  1.00  0.00     0.074 A 
ATOM     43  C   UNL     1      -6.212   3.054   7.613  1.00  0.00     0.031 C 
ATOM     44  C   UNL     1      -4.438  -3.538   6.606  1.00  0.00     0.029 A 
ATOM     45  C   UNL     1      -5.080  -3.244   7.886  1.00  0.00     0.049 A 
ATOM     46  H   UNL     1      -5.753  -1.395   8.566  1.00  0.00     0.167 HD
ATOM     47  C   UNL     1      -7.282   2.532   9.779  1.00  0.00     0.031 A 
ATOM     48  C   UNL     1      -5.351  -4.139   8.856  1.00  0.00     0.031 A 
ATOM     49  C   UNL     1      -7.652   1.638  10.841  1.00  0.00     0.049 A 
ATOM     50  C   UNL     1      -6.036  -3.676  10.114  1.00  0.00     0.074 A 
ATOM     51  C   UNL     1      -8.363   1.921  11.993  1.00  0.00     0.029 A 
ATOM     52  N   UNL     1      -7.336   0.290  10.881  1.00  0.00    -0.354 N 
ATOM     53  N   UNL     1      -6.488  -2.483  10.417  1.00  0.00    -0.248 NA
ATOM     54  C   UNL     1      -6.251  -4.683  11.164  1.00  0.00     0.031 C 
ATOM     55  C   UNL     1      -8.422   0.757  12.762  1.00  0.00     0.029 A 
ATOM     56  C   UNL     1      -7.806  -0.266  12.058  1.00  0.00     0.049 A 
ATOM     57  H   UNL     1      -6.851  -0.199  10.178  1.00  0.00     0.167 HD
ATOM     58  C   UNL     1      -7.057  -2.599  11.680  1.00  0.00     0.074 A 
ATOM     59  C   UNL     1      -6.910  -3.984  12.079  1.00  0.00     0.031 C 
ATOM     60  C   UNL     1      -7.647  -1.645  12.440  1.00  0.00     0.031 A 
BRANCH  47  61
ATOM     61  C   UNL     1      -7.668   3.979   9.902  1.00  0.00    -0.014 A 
ATOM     62  C   UNL     1      -8.679   4.533   9.101  1.00  0.00     0.009 A 
ATOM     63  C   UNL     1      -7.057   4.781  10.878  1.00  0.00     0.009 A 
ATOM     64  C   UNL     1      -9.055   5.869   9.263  1.00  0.00     0.001 A 
ATOM     65  C   UNL     1      -7.454   6.107  11.056  1.00  0.00     0.001 A 
ATOM     66  C   UNL     1      -8.448   6.651  10.245  1.00  0.00     0.000 A 
ENDBRANCH  47  61
BRANCH  48  67
ATOM     67  C   UNL     1      -4.961  -5.562   8.677  1.00  0.00    -0.014 A 
ATOM     68  C   UNL     1      -5.936  -6.558   8.517  1.00  0.00     0.009 A 
ATOM     69  C   UNL     1      -3.606  -5.931   8.659  1.00  0.00     0.009 A 
ATOM     70  C   UNL     1      -5.562  -7.895   8.354  1.00  0.00     0.001 A 
ATOM     71  C   UNL     1      -3.235  -7.264   8.467  1.00  0.00     0.001 A 
ATOM     72  C   UNL     1      -4.213  -8.245   8.322  1.00  0.00     0.000 A 
ENDBRANCH  48  67
BRANCH  60  73
ATOM     73  C   UNL     1      -8.192  -2.054  13.780  1.00  0.00    -0.014 A 
ATOM     74  C   UNL     1      -7.334  -2.323  14.857  1.00  0.00     0.009 A 
ATOM     75  C   UNL     1      -9.580  -2.069  13.993  1.00  0.00     0.009 A 
ATOM     76  C   UNL     1      -7.857  -2.613  16.118  1.00  0.00     0.001 A 
ATOM     77  C   UNL     1     -10.098  -2.330  15.262  1.00  0.00     0.001 A 
ATOM     78  C   UNL     1      -9.236  -2.607  16.322  1.00  0.00     0.000 A 
ENDBRANCH  60  73
ENDBRANCH  34  35
ENDBRANCH  27  29
ENDBRANCH  26  27
ENDBRANCH  25  26
ENDBRANCH  24  25
ENDBRANCH  23  24
ENDBRANCH  22  23
ENDBRANCH   1  22
TORSDOF 16
