REMARK SMILES O=C(OCCOCCOC(=O)[C@H]1C[C@](O)(c2ccc(F)cc2)[C@@H](c2ccc(F)cc2)O1)c1ccc(-c2c3nc(c(-c4ccccc4)c4ccc([nH]4)c(-c4ccccc4)c4nc(c(-c5ccccc5)c5ccc2[nH]5)C=C4)C=C3)cc1
REMARK SMILES IDX 5 1 4 2 3 3 2 4 1 5 32 6 33 7 79 8 34 9 78 10 35 11 36 12
REMARK SMILES IDX 37 13 72 14 38 15 77 16 71 17 73 18 39 19 76 20 70 21 69 22
REMARK SMILES IDX 40 24 62 25 47 26 61 27 48 28 51 29 60 30 74 31 49 32 50 33
REMARK SMILES IDX 59 35 75 36 52 37 41 38 42 39 46 40 43 41 45 42 44 43 63 44
REMARK SMILES IDX 64 45 68 46 65 47 67 48 66 49 53 50 54 51 58 52 55 53 57 54
REMARK SMILES IDX 56 55 6 56 7 57 8 58 9 59 10 60 11 61 12 62 13 63 31 64
REMARK SMILES IDX 14 65 23 66 16 67 17 68 22 69 18 70 21 71 19 72 20 73 15 74
REMARK SMILES IDX 24 76 25 77 30 78 26 79 29 80 27 81 28 82
REMARK H PARENT 73 23 51 34 15 75
REMARK Flexibility Score: inf
ROOT
ATOM      1  C   UNL     1       4.776   1.060  -1.671  1.00  0.00     0.202 C 
ENDROOT
BRANCH   1   2
ATOM      2  C   UNL     1       5.863   0.070  -2.142  1.00  0.00     0.261 C 
BRANCH   2   3
ATOM      3  O   UNL     1       6.253   0.246  -3.515  1.00  0.00    -0.460 OA
BRANCH   3   4
ATOM      4  C   UNL     1       5.916  -0.541  -4.572  1.00  0.00     0.338 C 
ATOM      5  O   UNL     1       6.626  -0.523  -5.574  1.00  0.00    -0.246 OA
BRANCH   4   6
ATOM      6  C   UNL     1       4.639  -1.324  -4.625  1.00  0.00     0.060 A 
ATOM      7  C   UNL     1       3.693  -1.339  -3.607  1.00  0.00     0.016 A 
ATOM      8  C   UNL     1       4.322  -2.018  -5.809  1.00  0.00     0.016 A 
ATOM      9  C   UNL     1       2.462  -1.928  -3.751  1.00  0.00     0.010 A 
ATOM     10  C   UNL     1       3.084  -2.661  -5.960  1.00  0.00     0.010 A 
ATOM     11  C   UNL     1       2.151  -2.594  -4.924  1.00  0.00    -0.014 A 
BRANCH  11  12
ATOM     12  C   UNL     1       0.889  -3.336  -4.853  1.00  0.00     0.031 A 
ATOM     13  C   UNL     1       0.958  -4.736  -4.329  1.00  0.00     0.074 A 
ATOM     14  C   UNL     1      -0.261  -2.639  -4.897  1.00  0.00     0.049 A 
ATOM     15  N   UNL     1      -0.011  -5.538  -3.987  1.00  0.00    -0.248 NA
ATOM     16  C   UNL     1       2.309  -5.283  -4.102  1.00  0.00     0.031 C 
ATOM     17  C   UNL     1      -0.365  -1.198  -5.164  1.00  0.00     0.029 A 
ATOM     18  N   UNL     1      -1.546  -3.021  -4.634  1.00  0.00    -0.354 N 
ATOM     19  C   UNL     1       0.612  -6.681  -3.507  1.00  0.00     0.074 A 
ATOM     20  C   UNL     1       2.038  -6.477  -3.602  1.00  0.00     0.031 C 
ATOM     21  C   UNL     1      -1.648  -0.821  -5.039  1.00  0.00     0.029 A 
ATOM     22  C   UNL     1      -2.455  -1.997  -4.743  1.00  0.00     0.049 A 
ATOM     23  H   UNL     1      -1.796  -3.941  -4.390  1.00  0.00     0.167 HD
ATOM     24  C   UNL     1       0.031  -7.807  -3.037  1.00  0.00     0.031 A 
ATOM     25  C   UNL     1      -3.796  -2.033  -4.647  1.00  0.00     0.031 A 
ATOM     26  C   UNL     1      -1.392  -7.987  -3.005  1.00  0.00     0.049 A 
ATOM     27  C   UNL     1      -4.424  -3.360  -4.314  1.00  0.00     0.074 A 
ATOM     28  C   UNL     1      -2.119  -9.122  -2.706  1.00  0.00     0.029 A 
ATOM     29  N   UNL     1      -2.307  -6.982  -3.297  1.00  0.00    -0.354 N 
ATOM     30  N   UNL     1      -3.840  -4.489  -3.980  1.00  0.00    -0.248 NA
ATOM     31  C   UNL     1      -5.888  -3.425  -4.351  1.00  0.00     0.031 C 
ATOM     32  C   UNL     1      -3.474  -8.817  -2.873  1.00  0.00     0.029 A 
ATOM     33  C   UNL     1      -3.594  -7.474  -3.205  1.00  0.00     0.049 A 
ATOM     34  H   UNL     1      -2.072  -6.056  -3.533  1.00  0.00     0.167 HD
ATOM     35  C   UNL     1      -4.864  -5.395  -3.754  1.00  0.00     0.074 A 
ATOM     36  C   UNL     1      -6.105  -4.671  -3.954  1.00  0.00     0.031 C 
ATOM     37  C   UNL     1      -4.796  -6.708  -3.420  1.00  0.00     0.031 A 
BRANCH  24  38
ATOM     38  C   UNL     1       0.948  -8.929  -2.651  1.00  0.00    -0.014 A 
ATOM     39  C   UNL     1       1.728  -8.878  -1.484  1.00  0.00     0.009 A 
ATOM     40  C   UNL     1       1.083 -10.031  -3.510  1.00  0.00     0.009 A 
ATOM     41  C   UNL     1       2.650  -9.891  -1.206  1.00  0.00     0.001 A 
ATOM     42  C   UNL     1       1.986 -11.053  -3.217  1.00  0.00     0.001 A 
ATOM     43  C   UNL     1       2.777 -10.977  -2.072  1.00  0.00     0.000 A 
ENDBRANCH  24  38
BRANCH  25  44
ATOM     44  C   UNL     1      -4.621  -0.838  -4.977  1.00  0.00    -0.014 A 
ATOM     45  C   UNL     1      -5.506  -0.269  -4.048  1.00  0.00     0.009 A 
ATOM     46  C   UNL     1      -4.572  -0.293  -6.273  1.00  0.00     0.009 A 
ATOM     47  C   UNL     1      -6.348   0.785  -4.423  1.00  0.00     0.001 A 
ATOM     48  C   UNL     1      -5.386   0.782  -6.634  1.00  0.00     0.001 A 
ATOM     49  C   UNL     1      -6.287   1.309  -5.713  1.00  0.00     0.000 A 
ENDBRANCH  25  44
BRANCH  37  50
ATOM     50  C   UNL     1      -6.104  -7.417  -3.222  1.00  0.00    -0.014 A 
ATOM     51  C   UNL     1      -6.945  -7.712  -4.306  1.00  0.00     0.009 A 
ATOM     52  C   UNL     1      -6.478  -7.824  -1.933  1.00  0.00     0.009 A 
ATOM     53  C   UNL     1      -8.158  -8.367  -4.094  1.00  0.00     0.001 A 
ATOM     54  C   UNL     1      -7.672  -8.511  -1.730  1.00  0.00     0.001 A 
ATOM     55  C   UNL     1      -8.517  -8.771  -2.808  1.00  0.00     0.000 A 
ENDBRANCH  37  50
ENDBRANCH  11  12
ENDBRANCH   4   6
ENDBRANCH   3   4
ENDBRANCH   2   3
ENDBRANCH   1   2
BRANCH   1  56
ATOM     56  O   UNL     1       3.672   1.313  -2.541  1.00  0.00    -0.374 OA
BRANCH  56  57
ATOM     57  C   UNL     1       3.925   2.050  -3.739  1.00  0.00     0.202 C 
BRANCH  57  58
ATOM     58  C   UNL     1       3.062   3.311  -3.787  1.00  0.00     0.261 C 
BRANCH  58  59
ATOM     59  O   UNL     1       3.720   4.341  -3.038  1.00  0.00    -0.461 OA
BRANCH  59  60
ATOM     60  C   UNL     1       3.581   4.341  -1.688  1.00  0.00     0.335 C 
ATOM     61  O   UNL     1       2.723   3.741  -1.064  1.00  0.00    -0.249 OA
BRANCH  60  62
ATOM     62  C   UNL     1       4.763   5.094  -1.046  1.00  0.00     0.232 C 
ATOM     63  C   UNL     1       6.080   4.391  -1.371  1.00  0.00     0.087 C 
ATOM     64  O   UNL     1       4.882   6.459  -1.458  1.00  0.00    -0.355 OA
ATOM     65  C   UNL     1       7.008   5.466  -1.900  1.00  0.00     0.123 C 
ATOM     66  C   UNL     1       6.017   6.577  -2.350  1.00  0.00     0.186 C 
BRANCH  65  67
ATOM     67  C   UNL     1       8.022   5.874  -0.820  1.00  0.00    -0.013 A 
ATOM     68  C   UNL     1       9.159   5.064  -0.598  1.00  0.00     0.010 A 
ATOM     69  C   UNL     1       7.899   7.051  -0.062  1.00  0.00     0.010 A 
ATOM     70  C   UNL     1      10.176   5.468   0.268  1.00  0.00     0.039 A 
ATOM     71  C   UNL     1       8.922   7.459   0.797  1.00  0.00     0.039 A 
ATOM     72  C   UNL     1      10.058   6.675   0.940  1.00  0.00     0.123 A 
ATOM     73  F   UNL     1      11.051   7.089   1.736  1.00  0.00    -0.207 F 
ENDBRANCH  65  67
BRANCH  65  74
ATOM     74  O   UNL     1       7.769   4.929  -2.988  1.00  0.00    -0.382 OA
ATOM     75  H   UNL     1       7.167   4.656  -3.699  1.00  0.00     0.212 HD
ENDBRANCH  65  74
BRANCH  66  76
ATOM     76  C   UNL     1       5.455   6.697  -3.759  1.00  0.00    -0.016 A 
ATOM     77  C   UNL     1       5.556   5.718  -4.758  1.00  0.00     0.009 A 
ATOM     78  C   UNL     1       4.726   7.870  -4.055  1.00  0.00     0.009 A 
ATOM     79  C   UNL     1       4.928   5.892  -5.996  1.00  0.00     0.039 A 
ATOM     80  C   UNL     1       4.114   8.052  -5.294  1.00  0.00     0.039 A 
ATOM     81  C   UNL     1       4.213   7.055  -6.251  1.00  0.00     0.123 A 
ATOM     82  F   UNL     1       3.600   7.209  -7.431  1.00  0.00    -0.207 F 
ENDBRANCH  66  76
ENDBRANCH  60  62
ENDBRANCH  59  60
ENDBRANCH  58  59
ENDBRANCH  57  58
ENDBRANCH  56  57
ENDBRANCH   1  56
TORSDOF 17
