REMARK SMILES CC(C)[NH2+][C@@]1(C(=O)OCCOCCOC(=O)c2ccc(-c3c4nc(c(-c5ccccc5)c5ccc([nH]5)c(-c5ccccc5)c5nc(c(-c6ccccc6)c6ccc3[nH]6)C=C5)C=C4)cc2)CC[C@H](Oc2ccccc2F)C1
REMARK SMILES IDX 11 1 10 2 9 3 8 4 6 5 7 6 5 7 65 8 76 9 66 10 67 11 4 12
REMARK SMILES IDX 2 15 1 16 3 17 68 18 69 19 70 20 74 21 71 22 73 23 75 24
REMARK SMILES IDX 72 25 12 26 13 27 14 28 15 29 16 30 17 31 18 32 64 33 19 34
REMARK SMILES IDX 63 35 20 36 21 37 22 38 57 39 23 40 62 41 56 42 58 43 24 44
REMARK SMILES IDX 61 45 55 46 54 47 25 49 47 50 32 51 46 52 33 53 36 54 45 55
REMARK SMILES IDX 59 56 34 57 35 58 44 60 60 61 37 62 26 63 27 64 31 65 28 66
REMARK SMILES IDX 30 67 29 68 48 69 49 70 53 71 50 72 52 73 51 74 38 75 39 76
REMARK SMILES IDX 43 77 40 78 42 79 41 80
REMARK H PARENT 4 13 4 14 58 48 36 59
REMARK Flexibility Score: inf
ROOT
ATOM      1  O   UNL     1      -4.628  -0.403  -2.915  1.00  0.00    -0.374 OA
ENDROOT
BRANCH   1   2
ATOM      2  C   UNL     1      -5.247   0.803  -3.352  1.00  0.00     0.202 C 
BRANCH   2   3
ATOM      3  C   UNL     1      -4.800   2.112  -2.699  1.00  0.00     0.261 C 
BRANCH   3   4
ATOM      4  O   UNL     1      -3.389   2.335  -2.848  1.00  0.00    -0.459 OA
BRANCH   4   5
ATOM      5  C   UNL     1      -2.668   2.191  -1.706  1.00  0.00     0.368 C 
ATOM      6  O   UNL     1      -3.168   1.979  -0.604  1.00  0.00    -0.245 OA
BRANCH   5   7
ATOM      7  C   UNL     1      -1.114   2.298  -1.927  1.00  0.00     0.198 C 
ATOM      8  C   UNL     1      -0.755   3.720  -1.475  1.00  0.00     0.085 C 
ATOM      9  C   UNL     1      -0.628   2.301  -3.387  1.00  0.00     0.126 C 
ATOM     10  C   UNL     1      -1.148   4.572  -2.686  1.00  0.00     0.052 C 
ATOM     11  C   UNL     1      -0.714   3.750  -3.900  1.00  0.00     0.180 C 
BRANCH   7  12
ATOM     12  N   UNL     1      -0.551   1.214  -1.095  1.00  0.00    -0.330 N 
ATOM     13  H   UNL     1      -0.794   1.443  -0.132  1.00  0.00     0.347 HD
ATOM     14  H   UNL     1      -0.953   0.387  -1.536  1.00  0.00     0.347 HD
BRANCH  12  15
ATOM     15  C   UNL     1       0.864   0.883  -1.085  1.00  0.00     0.176 C 
ATOM     16  C   UNL     1       1.130   0.234   0.281  1.00  0.00     0.075 C 
ATOM     17  C   UNL     1       1.271  -0.135  -2.159  1.00  0.00     0.075 C 
ENDBRANCH  12  15
ENDBRANCH   7  12
BRANCH  11  18
ATOM     18  O   UNL     1      -1.639   3.737  -4.976  1.00  0.00    -0.487 OA
BRANCH  18  19
ATOM     19  C   UNL     1      -1.705   4.784  -5.844  1.00  0.00     0.155 A 
ATOM     20  C   UNL     1      -1.322   6.094  -5.587  1.00  0.00     0.049 A 
ATOM     21  C   UNL     1      -2.307   4.494  -7.069  1.00  0.00     0.165 A 
ATOM     22  C   UNL     1      -1.633   7.106  -6.506  1.00  0.00     0.004 A 
ATOM     23  C   UNL     1      -2.625   5.489  -7.987  1.00  0.00     0.043 A 
ATOM     24  F   UNL     1      -2.565   3.219  -7.380  1.00  0.00    -0.203 F 
ATOM     25  C   UNL     1      -2.309   6.809  -7.691  1.00  0.00     0.003 A 
ENDBRANCH  18  19
ENDBRANCH  11  18
ENDBRANCH   5   7
ENDBRANCH   4   5
ENDBRANCH   3   4
ENDBRANCH   2   3
ENDBRANCH   1   2
BRANCH   1  26
ATOM     26  C   UNL     1      -3.306  -0.673  -3.376  1.00  0.00     0.202 C 
BRANCH  26  27
ATOM     27  C   UNL     1      -3.120  -1.066  -4.850  1.00  0.00     0.261 C 
BRANCH  27  28
ATOM     28  O   UNL     1      -3.546  -0.049  -5.774  1.00  0.00    -0.460 OA
BRANCH  28  29
ATOM     29  C   UNL     1      -4.655  -0.346  -6.496  1.00  0.00     0.338 C 
ATOM     30  O   UNL     1      -5.298  -1.387  -6.482  1.00  0.00    -0.246 OA
BRANCH  29  31
ATOM     31  C   UNL     1      -5.103   0.855  -7.222  1.00  0.00     0.060 A 
ATOM     32  C   UNL     1      -6.306   1.468  -6.847  1.00  0.00     0.016 A 
ATOM     33  C   UNL     1      -4.361   1.356  -8.286  1.00  0.00     0.016 A 
ATOM     34  C   UNL     1      -6.750   2.612  -7.516  1.00  0.00     0.010 A 
ATOM     35  C   UNL     1      -4.808   2.501  -8.953  1.00  0.00     0.010 A 
ATOM     36  C   UNL     1      -6.003   3.143  -8.576  1.00  0.00    -0.014 A 
BRANCH  36  37
ATOM     37  C   UNL     1      -6.486   4.315  -9.354  1.00  0.00     0.031 A 
ATOM     38  C   UNL     1      -6.891   4.121 -10.791  1.00  0.00     0.074 A 
ATOM     39  C   UNL     1      -6.529   5.548  -8.809  1.00  0.00     0.049 A 
ATOM     40  N   UNL     1      -7.219   5.016 -11.688  1.00  0.00    -0.248 NA
ATOM     41  C   UNL     1      -6.913   2.736 -11.288  1.00  0.00     0.031 C 
ATOM     42  C   UNL     1      -6.191   5.882  -7.426  1.00  0.00     0.029 A 
ATOM     43  N   UNL     1      -6.861   6.760  -9.371  1.00  0.00    -0.354 N 
ATOM     44  C   UNL     1      -7.456   4.306 -12.859  1.00  0.00     0.074 A 
ATOM     45  C   UNL     1      -7.207   2.911 -12.568  1.00  0.00     0.031 C 
ATOM     46  C   UNL     1      -6.334   7.207  -7.246  1.00  0.00     0.029 A 
ATOM     47  C   UNL     1      -6.726   7.824  -8.511  1.00  0.00     0.049 A 
ATOM     48  H   UNL     1      -7.167   6.855 -10.302  1.00  0.00     0.167 HD
ATOM     49  C   UNL     1      -7.854   4.769 -14.066  1.00  0.00     0.031 A 
ATOM     50  C   UNL     1      -6.872   9.148  -8.725  1.00  0.00     0.031 A 
ATOM     51  C   UNL     1      -8.130   6.150 -14.356  1.00  0.00     0.049 A 
ATOM     52  C   UNL     1      -7.244   9.641 -10.101  1.00  0.00     0.074 A 
ATOM     53  C   UNL     1      -8.602   6.701 -15.535  1.00  0.00     0.029 A 
ATOM     54  N   UNL     1      -7.955   7.194 -13.465  1.00  0.00    -0.354 N 
ATOM     55  N   UNL     1      -7.521   8.951 -11.181  1.00  0.00    -0.248 NA
ATOM     56  C   UNL     1      -7.317  11.099 -10.288  1.00  0.00     0.031 C 
ATOM     57  C   UNL     1      -8.644   8.089 -15.380  1.00  0.00     0.029 A 
ATOM     58  C   UNL     1      -8.261   8.394 -14.084  1.00  0.00     0.049 A 
ATOM     59  H   UNL     1      -7.657   7.098 -12.531  1.00  0.00     0.167 HD
ATOM     60  C   UNL     1      -7.827   9.888 -12.162  1.00  0.00     0.074 A 
ATOM     61  C   UNL     1      -7.723  11.193 -11.546  1.00  0.00     0.031 C 
ATOM     62  C   UNL     1      -8.160   9.686 -13.460  1.00  0.00     0.031 A 
BRANCH  49  63
ATOM     63  C   UNL     1      -7.994   3.778 -15.187  1.00  0.00    -0.014 A 
ATOM     64  C   UNL     1      -9.049   2.854 -15.221  1.00  0.00     0.009 A 
ATOM     65  C   UNL     1      -7.093   3.822 -16.263  1.00  0.00     0.009 A 
ATOM     66  C   UNL     1      -9.184   1.978 -16.300  1.00  0.00     0.001 A 
ATOM     67  C   UNL     1      -7.247   2.966 -17.353  1.00  0.00     0.001 A 
ATOM     68  C   UNL     1      -8.289   2.040 -17.368  1.00  0.00     0.000 A 
ENDBRANCH  49  63
BRANCH  50  69
ATOM     69  C   UNL     1      -6.630  10.129  -7.630  1.00  0.00    -0.014 A 
ATOM     70  C   UNL     1      -7.678  10.925  -7.139  1.00  0.00     0.009 A 
ATOM     71  C   UNL     1      -5.337  10.329  -7.122  1.00  0.00     0.009 A 
ATOM     72  C   UNL     1      -7.429  11.925  -6.195  1.00  0.00     0.001 A 
ATOM     73  C   UNL     1      -5.097  11.306  -6.153  1.00  0.00     0.001 A 
ATOM     74  C   UNL     1      -6.140  12.113  -5.702  1.00  0.00     0.000 A 
ENDBRANCH  50  69
BRANCH  62  75
ATOM     75  C   UNL     1      -8.464  10.895 -14.300  1.00  0.00    -0.014 A 
ATOM     76  C   UNL     1      -7.444  11.764 -14.717  1.00  0.00     0.009 A 
ATOM     77  C   UNL     1      -9.778  11.130 -14.735  1.00  0.00     0.009 A 
ATOM     78  C   UNL     1      -7.740  12.858 -15.534  1.00  0.00     0.001 A 
ATOM     79  C   UNL     1     -10.065  12.206 -15.576  1.00  0.00     0.001 A 
ATOM     80  C   UNL     1      -9.047  13.073 -15.969  1.00  0.00     0.000 A 
ENDBRANCH  62  75
ENDBRANCH  36  37
ENDBRANCH  29  31
ENDBRANCH  28  29
ENDBRANCH  27  28
ENDBRANCH  26  27
ENDBRANCH   1  26
TORSDOF 18
