REMARK SMILES O=C(OCCOCCOC(=O)[C@@H]1[C@@H](C(=O)NCCCn2ccnc2)[C@@H]2C=C[C@H]1C2)c1ccc(-c2c3nc(c(-c4ccccc4)c4ccc([nH]4)c(-c4ccccc4)c4nc(c(-c5ccccc5)c5ccc2[nH]5)C=C4)C=C3)cc1
REMARK SMILES IDX 7 1 6 2 5 3 4 4 3 5 2 6 1 7 30 8 31 9 77 10 32 11 76 12
REMARK SMILES IDX 33 13 34 14 35 15 70 16 36 17 75 18 69 19 71 20 37 21 74 22
REMARK SMILES IDX 68 23 67 24 38 26 60 27 45 28 59 29 46 30 49 31 58 32 72 33
REMARK SMILES IDX 47 34 48 35 57 37 73 38 50 39 39 40 40 41 44 42 41 43 43 44
REMARK SMILES IDX 42 45 61 46 62 47 66 48 63 49 65 50 64 51 51 52 52 53 56 54
REMARK SMILES IDX 53 55 55 56 54 57 8 58 9 59 10 60 11 61 12 62 13 63 28 64
REMARK SMILES IDX 25 65 27 66 29 67 26 68 14 69 15 70 16 71 17 73 18 74 19 75
REMARK SMILES IDX 20 76 21 77 24 78 22 79 23 80
REMARK H PARENT 71 25 49 36 16 72
REMARK Flexibility Score: inf
ROOT
ATOM      1  C   UNL     1       2.786  -1.318   1.384  1.00  0.00     0.202 C 
ENDROOT
BRANCH   1   2
ATOM      2  O   UNL     1       3.915  -1.359   0.504  1.00  0.00    -0.374 OA
BRANCH   2   3
ATOM      3  C   UNL     1       4.779  -0.231   0.461  1.00  0.00     0.202 C 
BRANCH   3   4
ATOM      4  C   UNL     1       4.346   1.019  -0.325  1.00  0.00     0.261 C 
BRANCH   4   5
ATOM      5  O   UNL     1       2.972   1.376  -0.148  1.00  0.00    -0.460 OA
BRANCH   5   6
ATOM      6  C   UNL     1       1.879   0.841  -0.730  1.00  0.00     0.338 C 
ATOM      7  O   UNL     1       0.770   1.183  -0.309  1.00  0.00    -0.246 OA
BRANCH   6   8
ATOM      8  C   UNL     1       1.914  -0.158  -1.843  1.00  0.00     0.060 A 
ATOM      9  C   UNL     1       3.054  -0.664  -2.466  1.00  0.00     0.016 A 
ATOM     10  C   UNL     1       0.661  -0.572  -2.332  1.00  0.00     0.016 A 
ATOM     11  C   UNL     1       2.962  -1.335  -3.671  1.00  0.00     0.010 A 
ATOM     12  C   UNL     1       0.559  -1.315  -3.501  1.00  0.00     0.010 A 
ATOM     13  C   UNL     1       1.713  -1.596  -4.222  1.00  0.00    -0.014 A 
BRANCH  13  14
ATOM     14  C   UNL     1       1.708  -2.125  -5.577  1.00  0.00     0.031 A 
ATOM     15  C   UNL     1       2.498  -3.364  -5.816  1.00  0.00     0.074 A 
ATOM     16  C   UNL     1       1.037  -1.528  -6.577  1.00  0.00     0.049 A 
ATOM     17  N   UNL     1       3.478  -3.546  -6.643  1.00  0.00    -0.248 NA
ATOM     18  C   UNL     1       2.196  -4.526  -4.968  1.00  0.00     0.031 C 
ATOM     19  C   UNL     1       0.033  -0.464  -6.494  1.00  0.00     0.029 A 
ATOM     20  N   UNL     1       1.047  -1.849  -7.899  1.00  0.00    -0.354 N 
ATOM     21  C   UNL     1       3.833  -4.887  -6.526  1.00  0.00     0.074 A 
ATOM     22  C   UNL     1       3.071  -5.421  -5.423  1.00  0.00     0.031 C 
ATOM     23  C   UNL     1      -0.648  -0.414  -7.659  1.00  0.00     0.029 A 
ATOM     24  C   UNL     1      -0.024  -1.326  -8.600  1.00  0.00     0.049 A 
ATOM     25  H   UNL     1       1.748  -2.400  -8.316  1.00  0.00     0.167 HD
ATOM     26  C   UNL     1       4.615  -5.531  -7.434  1.00  0.00     0.031 A 
ATOM     27  C   UNL     1      -0.423  -1.685  -9.840  1.00  0.00     0.031 A 
ATOM     28  C   UNL     1       5.386  -4.635  -8.247  1.00  0.00     0.049 A 
ATOM     29  C   UNL     1       0.712  -2.345 -10.521  1.00  0.00     0.074 A 
ATOM     30  C   UNL     1       6.391  -3.721  -8.005  1.00  0.00     0.029 A 
ATOM     31  N   UNL     1       4.949  -4.379  -9.522  1.00  0.00    -0.354 N 
ATOM     32  N   UNL     1       1.791  -1.721 -10.897  1.00  0.00    -0.248 NA
ATOM     33  C   UNL     1       0.827  -3.793 -10.447  1.00  0.00     0.031 C 
ATOM     34  C   UNL     1       6.176  -2.674  -8.949  1.00  0.00     0.029 A 
ATOM     35  C   UNL     1       5.063  -3.026  -9.716  1.00  0.00     0.049 A 
ATOM     36  H   UNL     1       4.617  -5.039 -10.173  1.00  0.00     0.167 HD
ATOM     37  C   UNL     1       2.818  -2.634 -10.707  1.00  0.00     0.074 A 
ATOM     38  C   UNL     1       2.152  -3.923 -10.553  1.00  0.00     0.031 C 
ATOM     39  C   UNL     1       4.088  -2.221 -10.418  1.00  0.00     0.031 A 
BRANCH  26  40
ATOM     40  C   UNL     1       4.439  -6.984  -7.778  1.00  0.00    -0.014 A 
ATOM     41  C   UNL     1       5.391  -7.632  -8.583  1.00  0.00     0.009 A 
ATOM     42  C   UNL     1       3.228  -7.668  -7.548  1.00  0.00     0.009 A 
ATOM     43  C   UNL     1       5.130  -8.886  -9.150  1.00  0.00     0.001 A 
ATOM     44  C   UNL     1       2.981  -8.936  -8.078  1.00  0.00     0.001 A 
ATOM     45  C   UNL     1       3.925  -9.537  -8.897  1.00  0.00     0.000 A 
ENDBRANCH  26  40
BRANCH  27  46
ATOM     46  C   UNL     1      -1.811  -1.748 -10.332  1.00  0.00    -0.014 A 
ATOM     47  C   UNL     1      -2.091  -1.760 -11.703  1.00  0.00     0.009 A 
ATOM     48  C   UNL     1      -2.862  -2.036  -9.439  1.00  0.00     0.009 A 
ATOM     49  C   UNL     1      -3.376  -2.069 -12.165  1.00  0.00     0.001 A 
ATOM     50  C   UNL     1      -4.146  -2.337  -9.898  1.00  0.00     0.001 A 
ATOM     51  C   UNL     1      -4.399  -2.365 -11.264  1.00  0.00     0.000 A 
ENDBRANCH  27  46
BRANCH  39  52
ATOM     52  C   UNL     1       4.393  -0.747 -10.536  1.00  0.00    -0.014 A 
ATOM     53  C   UNL     1       3.728   0.221  -9.761  1.00  0.00     0.009 A 
ATOM     54  C   UNL     1       5.477  -0.335 -11.325  1.00  0.00     0.009 A 
ATOM     55  C   UNL     1       4.110   1.565  -9.805  1.00  0.00     0.001 A 
ATOM     56  C   UNL     1       5.873   1.006 -11.352  1.00  0.00     0.001 A 
ATOM     57  C   UNL     1       5.186   1.956 -10.598  1.00  0.00     0.000 A 
ENDBRANCH  39  52
ENDBRANCH  13  14
ENDBRANCH   6   8
ENDBRANCH   5   6
ENDBRANCH   4   5
ENDBRANCH   3   4
ENDBRANCH   2   3
ENDBRANCH   1   2
BRANCH   1  58
ATOM     58  C   UNL     1       2.968  -1.017   2.879  1.00  0.00     0.261 C 
BRANCH  58  59
ATOM     59  O   UNL     1       3.681   0.208   3.152  1.00  0.00    -0.463 OA
BRANCH  59  60
ATOM     60  C   UNL     1       4.614   0.096   4.133  1.00  0.00     0.310 C 
ATOM     61  O   UNL     1       4.720  -0.887   4.862  1.00  0.00    -0.252 OA
BRANCH  60  62
ATOM     62  C   UNL     1       5.503   1.320   4.306  1.00  0.00     0.119 C 
ATOM     63  C   UNL     1       5.904   2.176   3.071  1.00  0.00     0.100 C 
ATOM     64  C   UNL     1       6.904   0.784   4.762  1.00  0.00     0.027 C 
ATOM     65  C   UNL     1       7.455   2.215   3.140  1.00  0.00     0.025 C 
ATOM     66  C   UNL     1       7.552  -0.023   3.647  1.00  0.00    -0.027 C 
ATOM     67  C   UNL     1       7.763   2.032   4.628  1.00  0.00     0.017 C 
ATOM     68  C   UNL     1       7.909   0.840   2.683  1.00  0.00    -0.027 C 
BRANCH  63  69
ATOM     69  C   UNL     1       5.226   3.509   2.800  1.00  0.00     0.224 C 
ATOM     70  O   UNL     1       4.609   3.668   1.741  1.00  0.00    -0.275 OA
ATOM     71  N   UNL     1       5.269   4.593   3.599  1.00  0.00    -0.356 N 
ATOM     72  H   UNL     1       4.763   5.367   3.260  1.00  0.00     0.163 HD
BRANCH  71  73
ATOM     73  C   UNL     1       5.922   4.819   4.862  1.00  0.00     0.117 C 
BRANCH  73  74
ATOM     74  C   UNL     1       5.625   6.194   5.454  1.00  0.00     0.043 C 
BRANCH  74  75
ATOM     75  C   UNL     1       4.144   6.496   5.680  1.00  0.00     0.125 C 
BRANCH  75  76
ATOM     76  N   UNL     1       3.497   5.611   6.623  1.00  0.00    -0.337 N 
ATOM     77  C   UNL     1       2.859   4.439   6.328  1.00  0.00     0.107 A 
ATOM     78  C   UNL     1       3.357   5.835   7.962  1.00  0.00     0.199 A 
ATOM     79  C   UNL     1       2.375   3.988   7.534  1.00  0.00     0.130 A 
ATOM     80  N   UNL     1       2.697   4.860   8.543  1.00  0.00    -0.245 NA
ENDBRANCH  75  76
ENDBRANCH  74  75
ENDBRANCH  73  74
ENDBRANCH  71  73
ENDBRANCH  63  69
ENDBRANCH  60  62
ENDBRANCH  59  60
ENDBRANCH  58  59
ENDBRANCH   1  58
TORSDOF 19
