REMARK SMILES CC1=CC[C@@](C(=O)N/N=C/C2=C([O-])CC(C)(C)CC2=O)(C(=O)OCCOCCOC(=O)c2ccc(-c3c4nc(c(-c5ccccc5)c5ccc([nH]5)c(-c5ccccc5)c5nc(c(-c6ccccc6)c6ccc3[nH]6)C=C5)C=C4)cc2)C[C@@H]1c1ccccc1
REMARK SMILES IDX 25 1 24 2 23 3 21 4 22 5 5 6 1 7 2 8 3 9 81 10 4 11 80 12
REMARK SMILES IDX 82 13 83 14 87 15 84 16 86 17 85 18 6 19 7 20 8 21 9 23
REMARK SMILES IDX 10 24 11 25 12 26 19 27 13 28 14 29 18 30 20 31 15 32 16 33
REMARK SMILES IDX 17 34 26 35 27 36 28 37 29 38 30 39 31 40 32 41 33 42 79 43
REMARK SMILES IDX 34 44 78 45 35 46 36 47 37 48 72 49 38 50 77 51 71 52 73 53
REMARK SMILES IDX 39 54 76 55 70 56 69 57 40 59 62 60 47 61 61 62 48 63 51 64
REMARK SMILES IDX 60 65 74 66 49 67 50 68 59 70 75 71 52 72 41 73 42 74 46 75
REMARK SMILES IDX 43 76 45 77 44 78 63 79 64 80 68 81 65 82 67 83 66 84 53 85
REMARK SMILES IDX 54 86 58 87 55 88 57 89 56 90
REMARK H PARENT 8 22 73 58 51 69
REMARK Flexibility Score: inf
ROOT
ATOM      1  C   UNL     1      -6.247   0.366  -1.287  1.00  0.00     0.202 C 
ENDROOT
BRANCH   1   2
ATOM      2  C   UNL     1      -5.566   0.175   0.071  1.00  0.00     0.261 C 
BRANCH   2   3
ATOM      3  O   UNL     1      -4.148   0.430   0.048  1.00  0.00    -0.462 OA
BRANCH   3   4
ATOM      4  C   UNL     1      -3.497  -0.152   1.094  1.00  0.00     0.322 C 
ATOM      5  O   UNL     1      -4.108  -0.623   2.051  1.00  0.00    -0.251 OA
BRANCH   4   6
ATOM      6  C   UNL     1      -1.975  -0.313   0.896  1.00  0.00     0.152 C 
ATOM      7  C   UNL     1       1.760  -1.996  -0.778  1.00  0.00     0.040 C 
ATOM      8  C   UNL     1       0.400  -1.520  -0.349  1.00  0.00    -0.070 C 
ATOM      9  C   UNL     1      -0.156  -0.426  -0.906  1.00  0.00    -0.026 C 
ATOM     10  C   UNL     1      -0.381  -2.383   0.618  1.00  0.00     0.046 C 
ATOM     11  C   UNL     1      -1.454   0.210  -0.453  1.00  0.00     0.056 C 
ATOM     12  C   UNL     1      -1.820  -1.863   0.832  1.00  0.00     0.042 C 
BRANCH  10  13
ATOM     13  C   UNL     1       0.215  -2.741   1.970  1.00  0.00    -0.041 A 
ATOM     14  C   UNL     1      -0.294  -3.893   2.606  1.00  0.00     0.004 A 
ATOM     15  C   UNL     1       1.104  -1.932   2.682  1.00  0.00     0.004 A 
ATOM     16  C   UNL     1       0.007  -4.181   3.934  1.00  0.00     0.000 A 
ATOM     17  C   UNL     1       1.406  -2.220   4.017  1.00  0.00     0.000 A 
ATOM     18  C   UNL     1       0.844  -3.332   4.646  1.00  0.00     0.000 A 
ENDBRANCH  10  13
BRANCH   6  19
ATOM     19  C   UNL     1      -1.302   0.289   2.165  1.00  0.00     0.257 C 
ATOM     20  O   UNL     1      -1.698   0.001   3.302  1.00  0.00    -0.272 OA
ATOM     21  N   UNL     1      -0.220   1.138   2.127  1.00  0.00    -0.246 N 
ATOM     22  H   UNL     1       0.092   1.514   2.982  1.00  0.00     0.193 HD
BRANCH  21  23
ATOM     23  N   UNL     1       0.450   1.498   1.008  1.00  0.00    -0.181 NA
ATOM     24  C   UNL     1       1.732   1.634   1.122  1.00  0.00     0.144 C 
BRANCH  24  25
ATOM     25  C   UNL     1       2.657   1.758  -0.043  1.00  0.00     0.026 C 
ATOM     26  C   UNL     1       3.968   1.479   0.105  1.00  0.00    -0.119 C 
ATOM     27  C   UNL     1       2.160   1.977  -1.434  1.00  0.00     0.164 C 
ATOM     28  O   UNL     1       4.568   1.226   1.326  1.00  0.00    -0.875 OA
ATOM     29  C   UNL     1       4.939   1.291  -1.040  1.00  0.00     0.026 C 
ATOM     30  C   UNL     1       2.937   1.325  -2.562  1.00  0.00     0.087 C 
ATOM     31  O   UNL     1       1.152   2.642  -1.664  1.00  0.00    -0.294 OA
ATOM     32  C   UNL     1       4.427   1.657  -2.451  1.00  0.00    -0.025 C 
ATOM     33  C   UNL     1       4.644   3.154  -2.744  1.00  0.00     0.012 C 
ATOM     34  C   UNL     1       5.218   0.845  -3.495  1.00  0.00     0.012 C 
ENDBRANCH  24  25
ENDBRANCH  21  23
ENDBRANCH   6  19
ENDBRANCH   4   6
ENDBRANCH   3   4
ENDBRANCH   2   3
ENDBRANCH   1   2
BRANCH   1  35
ATOM     35  O   UNL     1      -5.763  -0.371  -2.407  1.00  0.00    -0.374 OA
BRANCH  35  36
ATOM     36  C   UNL     1      -4.389  -0.213  -2.743  1.00  0.00     0.202 C 
BRANCH  36  37
ATOM     37  C   UNL     1      -3.914   1.175  -3.227  1.00  0.00     0.261 C 
BRANCH  37  38
ATOM     38  O   UNL     1      -4.333   2.278  -2.399  1.00  0.00    -0.460 OA
BRANCH  38  39
ATOM     39  C   UNL     1      -5.141   3.178  -3.019  1.00  0.00     0.338 C 
ATOM     40  O   UNL     1      -5.458   3.201  -4.195  1.00  0.00    -0.246 OA
BRANCH  39  41
ATOM     41  C   UNL     1      -5.776   4.078  -2.036  1.00  0.00     0.060 A 
ATOM     42  C   UNL     1      -7.147   3.911  -1.799  1.00  0.00     0.016 A 
ATOM     43  C   UNL     1      -5.088   5.152  -1.470  1.00  0.00     0.016 A 
ATOM     44  C   UNL     1      -7.840   4.826  -1.011  1.00  0.00     0.010 A 
ATOM     45  C   UNL     1      -5.792   6.084  -0.692  1.00  0.00     0.010 A 
ATOM     46  C   UNL     1      -7.177   5.942  -0.484  1.00  0.00    -0.014 A 
BRANCH  46  47
ATOM     47  C   UNL     1      -7.983   7.005   0.167  1.00  0.00     0.031 A 
ATOM     48  C   UNL     1      -8.379   8.223  -0.623  1.00  0.00     0.074 A 
ATOM     49  C   UNL     1      -8.435   6.848   1.425  1.00  0.00     0.049 A 
ATOM     50  N   UNL     1      -9.142   9.228  -0.271  1.00  0.00    -0.248 NA
ATOM     51  C   UNL     1      -7.854   8.319  -1.994  1.00  0.00     0.031 C 
ATOM     52  C   UNL     1      -8.169   5.692   2.280  1.00  0.00     0.029 A 
ATOM     53  N   UNL     1      -9.232   7.660   2.193  1.00  0.00    -0.354 N 
ATOM     54  C   UNL     1      -9.186  10.074  -1.372  1.00  0.00     0.074 A 
ATOM     55  C   UNL     1      -8.352   9.480  -2.395  1.00  0.00     0.031 C 
ATOM     56  C   UNL     1      -8.802   5.865   3.454  1.00  0.00     0.029 A 
ATOM     57  C   UNL     1      -9.492   7.152   3.442  1.00  0.00     0.049 A 
ATOM     58  H   UNL     1      -9.583   8.524   1.879  1.00  0.00     0.167 HD
ATOM     59  C   UNL     1      -9.864  11.238  -1.523  1.00  0.00     0.031 A 
ATOM     60  C   UNL     1     -10.201   7.670   4.464  1.00  0.00     0.031 A 
ATOM     61  C   UNL     1     -10.687  11.839  -0.507  1.00  0.00     0.049 A 
ATOM     62  C   UNL     1     -10.877   9.005   4.296  1.00  0.00     0.074 A 
ATOM     63  C   UNL     1     -11.431  13.005  -0.578  1.00  0.00     0.029 A 
ATOM     64  N   UNL     1     -10.866  11.329   0.769  1.00  0.00    -0.354 N 
ATOM     65  N   UNL     1     -10.940   9.775   3.237  1.00  0.00    -0.248 NA
ATOM     66  C   UNL     1     -11.587   9.537   5.469  1.00  0.00     0.031 C 
ATOM     67  C   UNL     1     -12.011  13.231   0.675  1.00  0.00     0.029 A 
ATOM     68  C   UNL     1     -11.678  12.175   1.506  1.00  0.00     0.049 A 
ATOM     69  H   UNL     1     -10.474  10.489   1.102  1.00  0.00     0.167 HD
ATOM     70  C   UNL     1     -11.715  10.867   3.608  1.00  0.00     0.074 A 
ATOM     71  C   UNL     1     -12.118  10.649   4.982  1.00  0.00     0.031 C 
ATOM     72  C   UNL     1     -12.064  11.953   2.876  1.00  0.00     0.031 A 
BRANCH  59  73
ATOM     73  C   UNL     1      -9.713  11.965  -2.831  1.00  0.00    -0.014 A 
ATOM     74  C   UNL     1     -10.316  11.491  -4.006  1.00  0.00     0.009 A 
ATOM     75  C   UNL     1      -8.993  13.169  -2.875  1.00  0.00     0.009 A 
ATOM     76  C   UNL     1     -10.177  12.195  -5.205  1.00  0.00     0.001 A 
ATOM     77  C   UNL     1      -8.877  13.884  -4.068  1.00  0.00     0.001 A 
ATOM     78  C   UNL     1      -9.463  13.393  -5.233  1.00  0.00     0.000 A 
ENDBRANCH  59  73
BRANCH  60  79
ATOM     79  C   UNL     1     -10.300   6.937   5.754  1.00  0.00    -0.014 A 
ATOM     80  C   UNL     1     -11.524   6.402   6.184  1.00  0.00     0.009 A 
ATOM     81  C   UNL     1      -9.173   6.802   6.580  1.00  0.00     0.009 A 
ATOM     82  C   UNL     1     -11.623   5.771   7.427  1.00  0.00     0.001 A 
ATOM     83  C   UNL     1      -9.268   6.145   7.808  1.00  0.00     0.001 A 
ATOM     84  C   UNL     1     -10.495   5.640   8.236  1.00  0.00     0.000 A 
ENDBRANCH  60  79
BRANCH  72  85
ATOM     85  C   UNL     1     -12.944  12.975   3.542  1.00  0.00    -0.014 A 
ATOM     86  C   UNL     1     -12.454  13.807   4.561  1.00  0.00     0.009 A 
ATOM     87  C   UNL     1     -14.278  13.121   3.129  1.00  0.00     0.009 A 
ATOM     88  C   UNL     1     -13.295  14.733   5.183  1.00  0.00     0.001 A 
ATOM     89  C   UNL     1     -15.107  14.069   3.731  1.00  0.00     0.001 A 
ATOM     90  C   UNL     1     -14.619  14.865   4.765  1.00  0.00     0.000 A 
ENDBRANCH  72  85
ENDBRANCH  46  47
ENDBRANCH  39  41
ENDBRANCH  38  39
ENDBRANCH  37  38
ENDBRANCH  36  37
ENDBRANCH  35  36
ENDBRANCH   1  35
TORSDOF 18
