REMARK SMILES CCCc1cc(C(N)=O)c(NC(=O)[C@H]2CC(C)=C(C)C[C@@H]2C(=O)OCCOCCOC(=O)c2ccc(-c3c4nc(c(-c5ccccc5)c5ccc([nH]5)c(-c5ccccc5)c5nc(c(-c6ccccc6)c6ccc3[nH]6)C=C5)C=C4)cc2)s1
REMARK SMILES IDX 26 1 25 2 24 3 22 4 23 5 21 6 14 7 15 8 16 9 20 10 17 11
REMARK SMILES IDX 18 12 19 13 12 14 11 15 13 17 10 18 4 19 5 20 81 21 6 22
REMARK SMILES IDX 3 23 2 24 1 25 7 26 8 27 9 28 27 31 28 32 29 33 30 34 31 35
REMARK SMILES IDX 32 36 33 37 34 38 80 39 35 40 79 41 36 42 37 43 38 44 73 45
REMARK SMILES IDX 39 46 78 47 72 48 74 49 40 50 77 51 71 52 70 53 41 55 63 56
REMARK SMILES IDX 48 57 62 58 49 59 52 60 61 61 75 62 50 63 51 64 60 66 76 67
REMARK SMILES IDX 53 68 42 69 43 70 47 71 44 72 46 73 45 74 64 75 65 76 69 77
REMARK SMILES IDX 66 78 68 79 67 80 54 81 55 82 59 83 56 84 58 85 57 86
REMARK H PARENT 11 16 8 29 8 30 74 54 52 65
REMARK Flexibility Score: inf
ROOT
ATOM      1  C   UNL     1       4.689   5.939   2.949  1.00  0.00     0.202 C 
ENDROOT
BRANCH   1   2
ATOM      2  C   UNL     1       3.775   6.021   1.721  1.00  0.00     0.261 C 
BRANCH   2   3
ATOM      3  O   UNL     1       2.409   5.777   2.093  1.00  0.00    -0.463 OA
BRANCH   3   4
ATOM      4  C   UNL     1       1.837   4.642   1.598  1.00  0.00     0.310 C 
ATOM      5  O   UNL     1       2.325   3.920   0.741  1.00  0.00    -0.252 OA
BRANCH   4   6
ATOM      6  C   UNL     1       0.532   4.360   2.331  1.00  0.00     0.116 C 
ATOM      7  C   UNL     1       0.533   2.883   2.809  1.00  0.00     0.097 C 
ATOM      8  C   UNL     1      -0.316   1.946   1.940  1.00  0.00     0.045 C 
ATOM      9  C   UNL     1      -1.113   2.474   0.793  1.00  0.00    -0.074 C 
ATOM     10  C   UNL     1      -0.620   4.823   1.436  1.00  0.00     0.046 C 
ATOM     11  C   UNL     1      -1.769   1.373  -0.005  1.00  0.00     0.039 C 
ATOM     12  C   UNL     1      -1.223   3.785   0.530  1.00  0.00    -0.073 C 
ATOM     13  C   UNL     1      -1.955   4.294  -0.680  1.00  0.00     0.039 C 
BRANCH   7  14
ATOM     14  C   UNL     1       0.193   2.715   4.303  1.00  0.00     0.229 C 
ATOM     15  N   UNL     1       0.120   1.497   4.937  1.00  0.00    -0.317 N 
ATOM     16  H   UNL     1      -0.177   1.546   5.874  1.00  0.00     0.170 HD
ATOM     17  O   UNL     1      -0.055   3.700   5.009  1.00  0.00    -0.274 OA
BRANCH  15  18
ATOM     18  C   UNL     1       0.392   0.214   4.492  1.00  0.00     0.108 A 
ATOM     19  C   UNL     1       1.006  -1.580   2.938  1.00  0.00     0.008 A 
ATOM     20  C   UNL     1       0.072  -1.984   3.871  1.00  0.00     0.031 A 
ATOM     21  S   UNL     1       1.694  -0.095   3.431  1.00  0.00    -0.122 S 
ATOM     22  C   UNL     1      -0.213  -0.979   4.867  1.00  0.00     0.074 A 
BRANCH  19  23
ATOM     23  C   UNL     1       1.471  -2.308   1.707  1.00  0.00     0.046 C 
BRANCH  23  24
ATOM     24  C   UNL     1       0.864  -1.758   0.407  1.00  0.00     0.002 C 
ATOM     25  C   UNL     1       1.724  -0.694  -0.264  1.00  0.00     0.004 C 
ENDBRANCH  23  24
ENDBRANCH  19  23
BRANCH  22  26
ATOM     26  C   UNL     1      -1.158  -1.194   5.956  1.00  0.00     0.251 C 
ATOM     27  N   UNL     1      -1.007  -0.412   7.065  1.00  0.00    -0.366 N 
ATOM     28  O   UNL     1      -2.014  -2.073   5.935  1.00  0.00    -0.269 OA
ATOM     29  H   UNL     1      -0.320   0.293   7.080  1.00  0.00     0.159 HD
ATOM     30  H   UNL     1      -1.584  -0.553   7.849  1.00  0.00     0.159 HD
ENDBRANCH  22  26
ENDBRANCH  15  18
ENDBRANCH   7  14
ENDBRANCH   4   6
ENDBRANCH   3   4
ENDBRANCH   2   3
ENDBRANCH   1   2
BRANCH   1  31
ATOM     31  O   UNL     1       4.882   4.642   3.517  1.00  0.00    -0.374 OA
BRANCH  31  32
ATOM     32  C   UNL     1       3.817   4.100   4.296  1.00  0.00     0.202 C 
BRANCH  32  33
ATOM     33  C   UNL     1       3.709   4.560   5.753  1.00  0.00     0.261 C 
BRANCH  33  34
ATOM     34  O   UNL     1       3.515   5.978   5.862  1.00  0.00    -0.460 OA
BRANCH  34  35
ATOM     35  C   UNL     1       4.615   6.664   6.239  1.00  0.00     0.338 C 
ATOM     36  O   UNL     1       5.704   6.207   6.570  1.00  0.00    -0.246 OA
BRANCH  35  37
ATOM     37  C   UNL     1       4.397   8.104   6.037  1.00  0.00     0.060 A 
ATOM     38  C   UNL     1       5.356   8.802   5.293  1.00  0.00     0.016 A 
ATOM     39  C   UNL     1       3.316   8.771   6.616  1.00  0.00     0.016 A 
ATOM     40  C   UNL     1       5.272  10.185   5.175  1.00  0.00     0.010 A 
ATOM     41  C   UNL     1       3.236  10.161   6.502  1.00  0.00     0.010 A 
ATOM     42  C   UNL     1       4.236  10.875   5.817  1.00  0.00    -0.014 A 
BRANCH  42  43
ATOM     43  C   UNL     1       4.298  12.351   5.907  1.00  0.00     0.031 A 
ATOM     44  C   UNL     1       4.803  12.980   7.175  1.00  0.00     0.074 A 
ATOM     45  C   UNL     1       3.952  13.117   4.860  1.00  0.00     0.049 A 
ATOM     46  N   UNL     1       4.952  14.245   7.472  1.00  0.00    -0.248 NA
ATOM     47  C   UNL     1       5.191  12.056   8.253  1.00  0.00     0.031 C 
ATOM     48  C   UNL     1       3.502  12.619   3.561  1.00  0.00     0.029 A 
ATOM     49  N   UNL     1       3.935  14.481   4.726  1.00  0.00    -0.354 N 
ATOM     50  C   UNL     1       5.440  14.270   8.773  1.00  0.00     0.074 A 
ATOM     51  C   UNL     1       5.527  12.896   9.219  1.00  0.00     0.031 C 
ATOM     52  C   UNL     1       3.262  13.667   2.755  1.00  0.00     0.029 A 
ATOM     53  C   UNL     1       3.507  14.904   3.494  1.00  0.00     0.049 A 
ATOM     54  H   UNL     1       4.204  15.097   5.446  1.00  0.00     0.167 HD
ATOM     55  C   UNL     1       5.790  15.339   9.527  1.00  0.00     0.031 A 
ATOM     56  C   UNL     1       3.322  16.151   3.021  1.00  0.00     0.031 A 
ATOM     57  C   UNL     1       5.677  16.705   9.088  1.00  0.00     0.049 A 
ATOM     58  C   UNL     1       3.624  17.327   3.909  1.00  0.00     0.074 A 
ATOM     59  C   UNL     1       6.017  17.862   9.765  1.00  0.00     0.029 A 
ATOM     60  N   UNL     1       5.170  17.096   7.857  1.00  0.00    -0.354 N 
ATOM     61  N   UNL     1       4.109  17.341   5.128  1.00  0.00    -0.248 NA
ATOM     62  C   UNL     1       3.357  18.660   3.352  1.00  0.00     0.031 C 
ATOM     63  C   UNL     1       5.652  18.955   8.971  1.00  0.00     0.029 A 
ATOM     64  C   UNL     1       5.152  18.478   7.770  1.00  0.00     0.049 A 
ATOM     65  H   UNL     1       4.869  16.481   7.149  1.00  0.00     0.167 HD
ATOM     66  C   UNL     1       4.233  18.681   5.473  1.00  0.00     0.074 A 
ATOM     67  C   UNL     1       3.782  19.449   4.329  1.00  0.00     0.031 C 
ATOM     68  C   UNL     1       4.686  19.227   6.629  1.00  0.00     0.031 A 
BRANCH  55  69
ATOM     69  C   UNL     1       6.272  15.061  10.925  1.00  0.00    -0.014 A 
ATOM     70  C   UNL     1       7.498  14.420  11.168  1.00  0.00     0.009 A 
ATOM     71  C   UNL     1       5.477  15.435  12.020  1.00  0.00     0.009 A 
ATOM     72  C   UNL     1       7.889  14.110  12.473  1.00  0.00     0.001 A 
ATOM     73  C   UNL     1       5.886  15.155  13.325  1.00  0.00     0.001 A 
ATOM     74  C   UNL     1       7.084  14.480  13.550  1.00  0.00     0.000 A 
ENDBRANCH  55  69
BRANCH  56  75
ATOM     75  C   UNL     1       2.833  16.347   1.633  1.00  0.00    -0.014 A 
ATOM     76  C   UNL     1       3.686  16.859   0.643  1.00  0.00     0.009 A 
ATOM     77  C   UNL     1       1.515  16.009   1.284  1.00  0.00     0.009 A 
ATOM     78  C   UNL     1       3.227  17.037  -0.663  1.00  0.00     0.001 A 
ATOM     79  C   UNL     1       1.067  16.163  -0.029  1.00  0.00     0.001 A 
ATOM     80  C   UNL     1       1.921  16.683  -1.000  1.00  0.00     0.000 A 
ENDBRANCH  56  75
BRANCH  68  81
ATOM     81  C   UNL     1       4.747  20.728   6.702  1.00  0.00    -0.014 A 
ATOM     82  C   UNL     1       3.582  21.506   6.790  1.00  0.00     0.009 A 
ATOM     83  C   UNL     1       5.995  21.371   6.724  1.00  0.00     0.009 A 
ATOM     84  C   UNL     1       3.666  22.898   6.862  1.00  0.00     0.001 A 
ATOM     85  C   UNL     1       6.077  22.761   6.828  1.00  0.00     0.001 A 
ATOM     86  C   UNL     1       4.912  23.523   6.886  1.00  0.00     0.000 A 
ENDBRANCH  68  81
ENDBRANCH  42  43
ENDBRANCH  35  37
ENDBRANCH  34  35
ENDBRANCH  33  34
ENDBRANCH  32  33
ENDBRANCH  31  32
ENDBRANCH   1  31
TORSDOF 19
