REMARK SMILES CC[C@@](O)(C(=O)OCCOCCOC(=O)c1ccc(-c2c3nc(c(-c4ccccc4)c4ccc([nH]4)c(-c4ccccc4)c4nc(c(-c5ccccc5)c5ccc2[nH]5)C=C4)C=C3)cc1)[C@@H](C)c1ccc(OC)c(OC)c1
REMARK SMILES IDX 9 1 8 2 7 3 5 4 6 5 3 6 2 7 1 8 4 9 64 11 65 12 66 13 67 14
REMARK SMILES IDX 75 15 68 16 72 17 69 18 73 19 74 20 70 21 71 22 10 23 11 24
REMARK SMILES IDX 12 25 13 26 14 27 15 28 16 29 17 30 63 31 18 32 62 33 19 34
REMARK SMILES IDX 20 35 21 36 56 37 22 38 61 39 55 40 57 41 23 42 60 43 54 44
REMARK SMILES IDX 53 45 24 47 46 48 31 49 45 50 32 51 35 52 44 53 58 54 33 55
REMARK SMILES IDX 34 56 43 58 59 59 36 60 25 61 26 62 30 63 27 64 29 65 28 66
REMARK SMILES IDX 47 67 48 68 52 69 49 70 51 71 50 72 37 73 38 74 42 75 39 76
REMARK SMILES IDX 41 77 40 78
REMARK H PARENT 4 10 57 46 35 57
REMARK Flexibility Score: inf
ROOT
ATOM      1  C   UNL     1      -0.758   5.869   1.814  1.00  0.00     0.202 C 
ENDROOT
BRANCH   1   2
ATOM      2  C   UNL     1      -0.518   5.592   0.326  1.00  0.00     0.261 C 
BRANCH   2   3
ATOM      3  O   UNL     1      -0.331   4.176   0.144  1.00  0.00    -0.461 OA
BRANCH   3   4
ATOM      4  C   UNL     1       0.579   3.774  -0.781  1.00  0.00     0.338 C 
ATOM      5  O   UNL     1       1.121   4.531  -1.579  1.00  0.00    -0.249 OA
BRANCH   4   6
ATOM      6  C   UNL     1       0.857   2.229  -0.728  1.00  0.00     0.168 C 
BRANCH   6   7
ATOM      7  C   UNL     1       0.115   1.606   0.492  1.00  0.00     0.044 C 
ATOM      8  C   UNL     1       0.069   0.097   0.646  1.00  0.00     0.007 C 
ENDBRANCH   6   7
BRANCH   6   9
ATOM      9  O   UNL     1       0.255   1.721  -1.934  1.00  0.00    -0.378 OA
ATOM     10  H   UNL     1      -0.707   1.833  -1.886  1.00  0.00     0.212 HD
ENDBRANCH   6   9
BRANCH   6  11
ATOM     11  C   UNL     1       2.433   2.055  -0.786  1.00  0.00     0.059 C 
ATOM     12  C   UNL     1       3.095   2.331   0.579  1.00  0.00     0.016 C 
BRANCH  11  13
ATOM     13  C   UNL     1       3.067   0.803  -1.402  1.00  0.00    -0.038 A 
ATOM     14  C   UNL     1       2.401  -0.403  -1.595  1.00  0.00     0.008 A 
ATOM     15  C   UNL     1       4.430   0.854  -1.776  1.00  0.00     0.054 A 
ATOM     16  C   UNL     1       3.088  -1.548  -2.000  1.00  0.00     0.051 A 
ATOM     17  C   UNL     1       5.119  -0.273  -2.255  1.00  0.00     0.160 A 
ATOM     18  C   UNL     1       4.443  -1.496  -2.320  1.00  0.00     0.160 A 
BRANCH  17  19
ATOM     19  O   UNL     1       6.448  -0.236  -2.584  1.00  0.00    -0.493 OA
ATOM     20  C   UNL     1       6.908   0.989  -3.149  1.00  0.00     0.278 C 
ENDBRANCH  17  19
BRANCH  18  21
ATOM     21  O   UNL     1       4.988  -2.713  -2.626  1.00  0.00    -0.493 OA
ATOM     22  C   UNL     1       5.859  -2.721  -3.749  1.00  0.00     0.278 C 
ENDBRANCH  18  21
ENDBRANCH  11  13
ENDBRANCH   6  11
ENDBRANCH   4   6
ENDBRANCH   3   4
ENDBRANCH   2   3
ENDBRANCH   1   2
BRANCH   1  23
ATOM     23  O   UNL     1       0.409   5.832   2.644  1.00  0.00    -0.374 OA
BRANCH  23  24
ATOM     24  C   UNL     1       1.021   4.561   2.844  1.00  0.00     0.202 C 
BRANCH  24  25
ATOM     25  C   UNL     1       0.420   3.684   3.949  1.00  0.00     0.261 C 
BRANCH  25  26
ATOM     26  O   UNL     1      -0.969   3.401   3.718  1.00  0.00    -0.460 OA
BRANCH  26  27
ATOM     27  C   UNL     1      -1.810   4.042   4.565  1.00  0.00     0.338 C 
ATOM     28  O   UNL     1      -1.514   4.714   5.537  1.00  0.00    -0.246 OA
BRANCH  27  29
ATOM     29  C   UNL     1      -3.192   3.968   4.059  1.00  0.00     0.060 A 
ATOM     30  C   UNL     1      -3.877   5.181   3.914  1.00  0.00     0.016 A 
ATOM     31  C   UNL     1      -3.836   2.752   3.818  1.00  0.00     0.016 A 
ATOM     32  C   UNL     1      -5.228   5.182   3.583  1.00  0.00     0.010 A 
ATOM     33  C   UNL     1      -5.197   2.755   3.494  1.00  0.00     0.010 A 
ATOM     34  C   UNL     1      -5.906   3.967   3.416  1.00  0.00    -0.014 A 
BRANCH  34  35
ATOM     35  C   UNL     1      -7.386   3.982   3.328  1.00  0.00     0.031 A 
ATOM     36  C   UNL     1      -8.191   3.725   4.572  1.00  0.00     0.074 A 
ATOM     37  C   UNL     1      -8.004   4.286   2.174  1.00  0.00     0.049 A 
ATOM     38  N   UNL     1      -9.489   3.720   4.733  1.00  0.00    -0.248 NA
ATOM     39  C   UNL     1      -7.430   3.441   5.800  1.00  0.00     0.031 C 
ATOM     40  C   UNL     1      -7.336   4.604   0.914  1.00  0.00     0.029 A 
ATOM     41  N   UNL     1      -9.341   4.383   1.883  1.00  0.00    -0.354 N 
ATOM     42  C   UNL     1      -9.701   3.433   6.076  1.00  0.00     0.074 A 
ATOM     43  C   UNL     1      -8.400   3.240   6.679  1.00  0.00     0.031 C 
ATOM     44  C   UNL     1      -8.269   4.860  -0.020  1.00  0.00     0.029 A 
ATOM     45  C   UNL     1      -9.596   4.697   0.572  1.00  0.00     0.049 A 
ATOM     46  H   UNL     1     -10.050   4.240   2.551  1.00  0.00     0.167 HD
ATOM     47  C   UNL     1     -10.872   3.346   6.750  1.00  0.00     0.031 A 
ATOM     48  C   UNL     1     -10.767   4.825  -0.081  1.00  0.00     0.031 A 
ATOM     49  C   UNL     1     -12.167   3.521   6.151  1.00  0.00     0.049 A 
ATOM     50  C   UNL     1     -12.057   4.643   0.672  1.00  0.00     0.074 A 
ATOM     51  C   UNL     1     -13.412   3.456   6.752  1.00  0.00     0.029 A 
ATOM     52  N   UNL     1     -12.383   3.786   4.808  1.00  0.00    -0.354 N 
ATOM     53  N   UNL     1     -12.243   4.393   1.946  1.00  0.00    -0.248 NA
ATOM     54  C   UNL     1     -13.300   4.769  -0.104  1.00  0.00     0.031 C 
ATOM     55  C   UNL     1     -14.384   3.631   5.761  1.00  0.00     0.029 A 
ATOM     56  C   UNL     1     -13.742   3.860   4.554  1.00  0.00     0.049 A 
ATOM     57  H   UNL     1     -11.675   3.904   4.134  1.00  0.00     0.167 HD
ATOM     58  C   UNL     1     -13.620   4.355   2.129  1.00  0.00     0.074 A 
ATOM     59  C   UNL     1     -14.221   4.622   0.838  1.00  0.00     0.031 C 
ATOM     60  C   UNL     1     -14.323   4.122   3.264  1.00  0.00     0.031 A 
BRANCH  47  61
ATOM     61  C   UNL     1     -10.799   3.012   8.213  1.00  0.00    -0.014 A 
ATOM     62  C   UNL     1     -10.344   3.950   9.154  1.00  0.00     0.009 A 
ATOM     63  C   UNL     1     -11.210   1.746   8.659  1.00  0.00     0.009 A 
ATOM     64  C   UNL     1     -10.270   3.614  10.508  1.00  0.00     0.001 A 
ATOM     65  C   UNL     1     -11.160   1.423  10.016  1.00  0.00     0.001 A 
ATOM     66  C   UNL     1     -10.682   2.353  10.938  1.00  0.00     0.000 A 
ENDBRANCH  47  61
BRANCH  48  67
ATOM     67  C   UNL     1     -10.776   5.122  -1.536  1.00  0.00    -0.014 A 
ATOM     68  C   UNL     1     -11.207   6.369  -2.013  1.00  0.00     0.009 A 
ATOM     69  C   UNL     1     -10.362   4.148  -2.459  1.00  0.00     0.009 A 
ATOM     70  C   UNL     1     -11.242   6.626  -3.386  1.00  0.00     0.001 A 
ATOM     71  C   UNL     1     -10.373   4.417  -3.829  1.00  0.00     0.001 A 
ATOM     72  C   UNL     1     -10.821   5.653  -4.292  1.00  0.00     0.000 A 
ENDBRANCH  48  67
BRANCH  60  73
ATOM     73  C   UNL     1     -15.822   4.175   3.168  1.00  0.00    -0.014 A 
ATOM     74  C   UNL     1     -16.549   3.149   2.546  1.00  0.00     0.009 A 
ATOM     75  C   UNL     1     -16.518   5.248   3.747  1.00  0.00     0.009 A 
ATOM     76  C   UNL     1     -17.942   3.212   2.480  1.00  0.00     0.001 A 
ATOM     77  C   UNL     1     -17.912   5.295   3.703  1.00  0.00     0.001 A 
ATOM     78  C   UNL     1     -18.622   4.281   3.062  1.00  0.00     0.000 A 
ENDBRANCH  60  73
ENDBRANCH  34  35
ENDBRANCH  27  29
ENDBRANCH  26  27
ENDBRANCH  25  26
ENDBRANCH  24  25
ENDBRANCH  23  24
ENDBRANCH   1  23
TORSDOF 20
