REMARK SMILES O=C(OCCOCCOC(=O)[C@H]1C[C@@H]2N=CN=C2C[NH2+]1)c1ccc(-c2c3nc(c(-c4ccccc4)c4ccc([nH]4)c(-c4ccccc4)c4nc(c(-c5ccccc5)c5ccc2[nH]5)C=C4)C=C3)cc1
REMARK SMILES IDX 5 1 4 2 3 3 2 4 1 5 21 6 22 7 68 8 23 9 67 10 24 11 25 12
REMARK SMILES IDX 26 13 61 14 27 15 66 16 60 17 62 18 28 19 65 20 59 21 58 22
REMARK SMILES IDX 29 24 51 25 36 26 50 27 37 28 40 29 49 30 63 31 38 32 39 33
REMARK SMILES IDX 48 35 64 36 41 37 30 38 31 39 35 40 32 41 34 42 33 43 52 44
REMARK SMILES IDX 53 45 57 46 54 47 56 48 55 49 42 50 43 51 47 52 44 53 46 54
REMARK SMILES IDX 45 55 6 56 7 57 8 58 9 59 10 60 11 61 12 62 13 63 20 64
REMARK SMILES IDX 14 65 19 66 15 69 18 70 16 71 17 72
REMARK H PARENT 62 23 40 34 20 67 20 68
REMARK Flexibility Score: inf
ROOT
ATOM      1  C   UNL     1       4.695   0.169  -1.302  1.00  0.00     0.202 C 
ENDROOT
BRANCH   1   2
ATOM      2  C   UNL     1       4.527  -1.106  -0.484  1.00  0.00     0.261 C 
BRANCH   2   3
ATOM      3  O   UNL     1       3.186  -1.633  -0.413  1.00  0.00    -0.460 OA
BRANCH   3   4
ATOM      4  C   UNL     1       2.105  -0.963   0.035  1.00  0.00     0.338 C 
ATOM      5  O   UNL     1       1.081  -0.899  -0.640  1.00  0.00    -0.246 OA
BRANCH   4   6
ATOM      6  C   UNL     1       2.059  -0.549   1.461  1.00  0.00     0.060 A 
ATOM      7  C   UNL     1       3.122  -0.693   2.351  1.00  0.00     0.016 A 
ATOM      8  C   UNL     1       0.795  -0.171   1.953  1.00  0.00     0.016 A 
ATOM      9  C   UNL     1       2.887  -0.681   3.710  1.00  0.00     0.010 A 
ATOM     10  C   UNL     1       0.554  -0.152   3.315  1.00  0.00     0.010 A 
ATOM     11  C   UNL     1       1.586  -0.507   4.173  1.00  0.00    -0.014 A 
BRANCH  11  12
ATOM     12  C   UNL     1       1.371  -0.668   5.596  1.00  0.00     0.031 A 
ATOM     13  C   UNL     1       2.043   0.367   6.415  1.00  0.00     0.074 A 
ATOM     14  C   UNL     1       0.597  -1.650   6.094  1.00  0.00     0.049 A 
ATOM     15  N   UNL     1       3.012   0.209   7.253  1.00  0.00    -0.248 NA
ATOM     16  C   UNL     1       1.704   1.772   6.140  1.00  0.00     0.031 C 
ATOM     17  C   UNL     1      -0.289  -2.563   5.366  1.00  0.00     0.029 A 
ATOM     18  N   UNL     1       0.352  -1.963   7.393  1.00  0.00    -0.354 N 
ATOM     19  C   UNL     1       3.275   1.476   7.766  1.00  0.00     0.074 A 
ATOM     20  C   UNL     1       2.571   2.409   6.925  1.00  0.00     0.031 C 
ATOM     21  C   UNL     1      -1.157  -3.126   6.239  1.00  0.00     0.029 A 
ATOM     22  C   UNL     1      -0.793  -2.724   7.587  1.00  0.00     0.049 A 
ATOM     23  H   UNL     1       0.936  -1.676   8.133  1.00  0.00     0.167 HD
ATOM     24  C   UNL     1       3.820   1.633   9.004  1.00  0.00     0.031 A 
ATOM     25  C   UNL     1      -1.434  -2.929   8.765  1.00  0.00     0.031 A 
ATOM     26  C   UNL     1       4.472   0.429   9.452  1.00  0.00     0.049 A 
ATOM     27  C   UNL     1      -0.483  -2.604   9.854  1.00  0.00     0.074 A 
ATOM     28  C   UNL     1       5.521  -0.342   8.992  1.00  0.00     0.029 A 
ATOM     29  N   UNL     1       3.784  -0.361  10.341  1.00  0.00    -0.354 N 
ATOM     30  N   UNL     1       0.575  -3.317  10.115  1.00  0.00    -0.248 NA
ATOM     31  C   UNL     1      -0.449  -1.234  10.343  1.00  0.00     0.031 C 
ATOM     32  C   UNL     1       5.131  -1.688   9.258  1.00  0.00     0.029 A 
ATOM     33  C   UNL     1       3.906  -1.659   9.927  1.00  0.00     0.049 A 
ATOM     34  H   UNL     1       3.292  -0.049  11.135  1.00  0.00     0.167 HD
ATOM     35  C   UNL     1       1.568  -2.385  10.382  1.00  0.00     0.074 A 
ATOM     36  C   UNL     1       0.858  -1.125  10.604  1.00  0.00     0.031 C 
ATOM     37  C   UNL     1       2.879  -2.658  10.110  1.00  0.00     0.031 A 
BRANCH  24  38
ATOM     38  C   UNL     1       3.322   2.679   9.978  1.00  0.00    -0.014 A 
ATOM     39  C   UNL     1       3.850   2.677  11.282  1.00  0.00     0.009 A 
ATOM     40  C   UNL     1       2.151   3.435   9.776  1.00  0.00     0.009 A 
ATOM     41  C   UNL     1       3.169   3.281  12.345  1.00  0.00     0.001 A 
ATOM     42  C   UNL     1       1.490   4.075  10.827  1.00  0.00     0.001 A 
ATOM     43  C   UNL     1       1.979   3.964  12.119  1.00  0.00     0.000 A 
ENDBRANCH  24  38
BRANCH  25  44
ATOM     44  C   UNL     1      -2.888  -3.064   9.006  1.00  0.00    -0.014 A 
ATOM     45  C   UNL     1      -3.374  -3.563  10.226  1.00  0.00     0.009 A 
ATOM     46  C   UNL     1      -3.810  -2.446   8.141  1.00  0.00     0.009 A 
ATOM     47  C   UNL     1      -4.724  -3.415  10.579  1.00  0.00     0.001 A 
ATOM     48  C   UNL     1      -5.156  -2.300   8.492  1.00  0.00     0.001 A 
ATOM     49  C   UNL     1      -5.611  -2.772   9.718  1.00  0.00     0.000 A 
ENDBRANCH  25  44
BRANCH  37  50
ATOM     50  C   UNL     1       3.244  -4.069   9.727  1.00  0.00    -0.014 A 
ATOM     51  C   UNL     1       2.746  -4.710   8.579  1.00  0.00     0.009 A 
ATOM     52  C   UNL     1       4.249  -4.712  10.465  1.00  0.00     0.009 A 
ATOM     53  C   UNL     1       3.222  -5.970   8.199  1.00  0.00     0.001 A 
ATOM     54  C   UNL     1       4.739  -5.958  10.074  1.00  0.00     0.001 A 
ATOM     55  C   UNL     1       4.222  -6.590   8.945  1.00  0.00     0.000 A 
ENDBRANCH  37  50
ENDBRANCH  11  12
ENDBRANCH   4   6
ENDBRANCH   3   4
ENDBRANCH   2   3
ENDBRANCH   1   2
BRANCH   1  56
ATOM     56  O   UNL     1       4.249   1.367  -0.670  1.00  0.00    -0.374 OA
BRANCH  56  57
ATOM     57  C   UNL     1       2.979   1.880  -1.081  1.00  0.00     0.202 C 
BRANCH  57  58
ATOM     58  C   UNL     1       2.881   2.540  -2.460  1.00  0.00     0.261 C 
BRANCH  58  59
ATOM     59  O   UNL     1       3.072   1.587  -3.516  1.00  0.00    -0.459 OA
BRANCH  59  60
ATOM     60  C   UNL     1       4.285   1.633  -4.136  1.00  0.00     0.365 C 
ATOM     61  O   UNL     1       5.127   2.502  -3.996  1.00  0.00    -0.245 OA
BRANCH  60  62
ATOM     62  C   UNL     1       4.513   0.364  -4.971  1.00  0.00     0.296 C 
ATOM     63  C   UNL     1       4.259   0.687  -6.450  1.00  0.00     0.111 C 
ATOM     64  N   UNL     1       5.885  -0.154  -4.653  1.00  0.00    -0.330 N 
ATOM     65  C   UNL     1       4.607  -0.478  -7.364  1.00  0.00     0.164 C 
ATOM     66  C   UNL     1       6.539  -0.882  -5.751  1.00  0.00     0.316 C 
ATOM     67  H   UNL     1       5.809  -0.786  -3.855  1.00  0.00     0.347 HD
ATOM     68  H   UNL     1       6.464   0.663  -4.464  1.00  0.00     0.347 HD
ATOM     69  N   UNL     1       3.460  -1.341  -7.703  1.00  0.00    -0.264 NA
ATOM     70  C   UNL     1       5.463  -1.436  -6.617  1.00  0.00     0.098 C 
ATOM     71  C   UNL     1       3.830  -2.530  -7.327  1.00  0.00     0.216 C 
ATOM     72  N   UNL     1       5.025  -2.648  -6.660  1.00  0.00    -0.238 NA
ENDBRANCH  60  62
ENDBRANCH  59  60
ENDBRANCH  58  59
ENDBRANCH  57  58
ENDBRANCH  56  57
ENDBRANCH   1  56
TORSDOF 14
