REMARK SMILES O=C(Cc1ccc(F)cc1F)N[C@H](CCO)C(=O)OCCOCCOC(=O)c1ccc(-c2c3nc(c(-c4ccccc4)c4ccc([nH]4)c(-c4ccccc4)c4nc(c(-c5ccccc5)c5ccc2[nH]5)C=C4)C=C3)cc1
REMARK SMILES IDX 21 1 20 2 19 3 17 4 18 5 13 6 12 7 1 8 2 9 3 11 4 12 5 13
REMARK SMILES IDX 10 14 6 15 9 16 11 17 7 18 8 19 14 20 15 21 16 22 22 24
REMARK SMILES IDX 23 25 24 26 25 27 26 28 27 29 28 30 29 31 75 32 30 33 74 34
REMARK SMILES IDX 31 35 32 36 33 37 68 38 34 39 73 40 67 41 69 42 35 43 72 44
REMARK SMILES IDX 66 45 65 46 36 48 58 49 43 50 57 51 44 52 47 53 56 54 70 55
REMARK SMILES IDX 45 56 46 57 55 59 71 60 48 61 37 62 38 63 42 64 39 65 41 66
REMARK SMILES IDX 40 67 59 68 60 69 64 70 61 71 63 72 62 73 49 74 50 75 54 76
REMARK SMILES IDX 51 77 53 78 52 79
REMARK H PARENT 12 10 16 23 69 47 47 58
REMARK Flexibility Score: inf
ROOT
ATOM      1  C   UNL     1       3.784   0.903  -5.607  1.00  0.00     0.202 C 
ENDROOT
BRANCH   1   2
ATOM      2  C   UNL     1       3.527   2.191  -4.821  1.00  0.00     0.261 C 
BRANCH   2   3
ATOM      3  O   UNL     1       3.461   1.936  -3.406  1.00  0.00    -0.462 OA
BRANCH   3   4
ATOM      4  C   UNL     1       2.396   2.467  -2.751  1.00  0.00     0.328 C 
ATOM      5  O   UNL     1       1.557   3.202  -3.267  1.00  0.00    -0.250 OA
BRANCH   4   6
ATOM      6  C   UNL     1       2.426   2.220  -1.234  1.00  0.00     0.194 C 
BRANCH   6   7
ATOM      7  N   UNL     1       2.995   3.424  -0.634  1.00  0.00    -0.342 N 
ATOM      8  O   UNL     1       5.207   2.857  -0.913  1.00  0.00    -0.275 OA
ATOM      9  C   UNL     1       4.348   3.687  -0.633  1.00  0.00     0.225 C 
ATOM     10  H   UNL     1       2.388   4.074  -0.213  1.00  0.00     0.164 HD
BRANCH   9  11
ATOM     11  C   UNL     1       4.685   5.134  -0.323  1.00  0.00     0.138 C 
BRANCH  11  12
ATOM     12  C   UNL     1       4.619   5.984  -1.568  1.00  0.00    -0.003 A 
ATOM     13  C   UNL     1       5.787   6.393  -2.226  1.00  0.00     0.010 A 
ATOM     14  C   UNL     1       3.378   6.331  -2.121  1.00  0.00     0.129 A 
ATOM     15  C   UNL     1       5.700   7.137  -3.405  1.00  0.00     0.040 A 
ATOM     16  C   UNL     1       3.283   7.056  -3.301  1.00  0.00     0.078 A 
ATOM     17  F   UNL     1       2.251   5.949  -1.503  1.00  0.00    -0.207 F 
ATOM     18  C   UNL     1       4.451   7.457  -3.932  1.00  0.00     0.126 A 
ATOM     19  F   UNL     1       4.378   8.162  -5.068  1.00  0.00    -0.207 F 
ENDBRANCH  11  12
ENDBRANCH   9  11
ENDBRANCH   6   7
BRANCH   6  20
ATOM     20  C   UNL     1       3.014   0.896  -0.730  1.00  0.00     0.065 C 
BRANCH  20  21
ATOM     21  C   UNL     1       1.919  -0.117  -0.398  1.00  0.00     0.159 C 
BRANCH  21  22
ATOM     22  O   UNL     1       1.132  -0.395  -1.546  1.00  0.00    -0.396 OA
ATOM     23  H   UNL     1       0.711   0.423  -1.854  1.00  0.00     0.210 HD
ENDBRANCH  21  22
ENDBRANCH  20  21
ENDBRANCH   6  20
ENDBRANCH   4   6
ENDBRANCH   3   4
ENDBRANCH   2   3
ENDBRANCH   1   2
BRANCH   1  24
ATOM     24  O   UNL     1       2.728  -0.060  -5.636  1.00  0.00    -0.374 OA
BRANCH  24  25
ATOM     25  C   UNL     1       2.370  -0.676  -4.401  1.00  0.00     0.202 C 
BRANCH  25  26
ATOM     26  C   UNL     1       3.283  -1.794  -3.879  1.00  0.00     0.261 C 
BRANCH  26  27
ATOM     27  O   UNL     1       4.664  -1.411  -3.788  1.00  0.00    -0.460 OA
BRANCH  27  28
ATOM     28  C   UNL     1       5.450  -1.930  -4.759  1.00  0.00     0.338 C 
ATOM     29  O   UNL     1       5.127  -2.723  -5.635  1.00  0.00    -0.246 OA
BRANCH  28  30
ATOM     30  C   UNL     1       6.778  -1.294  -4.738  1.00  0.00     0.060 A 
ATOM     31  C   UNL     1       7.260  -0.777  -5.947  1.00  0.00     0.016 A 
ATOM     32  C   UNL     1       7.571  -1.279  -3.589  1.00  0.00     0.016 A 
ATOM     33  C   UNL     1       8.562  -0.293  -6.026  1.00  0.00     0.010 A 
ATOM     34  C   UNL     1       8.882  -0.800  -3.671  1.00  0.00     0.010 A 
ATOM     35  C   UNL     1       9.393  -0.343  -4.899  1.00  0.00    -0.014 A 
BRANCH  35  36
ATOM     36  C   UNL     1      10.837  -0.056  -5.058  1.00  0.00     0.031 A 
ATOM     37  C   UNL     1      11.794  -1.205  -5.215  1.00  0.00     0.074 A 
ATOM     38  C   UNL     1      11.279   1.212  -5.112  1.00  0.00     0.049 A 
ATOM     39  N   UNL     1      13.090  -1.185  -5.395  1.00  0.00    -0.248 NA
ATOM     40  C   UNL     1      11.213  -2.557  -5.164  1.00  0.00     0.031 C 
ATOM     41  C   UNL     1      10.439   2.404  -5.009  1.00  0.00     0.029 A 
ATOM     42  N   UNL     1      12.549   1.704  -5.274  1.00  0.00    -0.354 N 
ATOM     43  C   UNL     1      13.479  -2.517  -5.472  1.00  0.00     0.074 A 
ATOM     44  C   UNL     1      12.289  -3.319  -5.292  1.00  0.00     0.031 C 
ATOM     45  C   UNL     1      11.219   3.494  -5.110  1.00  0.00     0.029 A 
ATOM     46  C   UNL     1      12.611   3.075  -5.258  1.00  0.00     0.049 A 
ATOM     47  H   UNL     1      13.340   1.130  -5.389  1.00  0.00     0.167 HD
ATOM     48  C   UNL     1      14.716  -3.026  -5.680  1.00  0.00     0.031 A 
ATOM     49  C   UNL     1      13.674   3.897  -5.341  1.00  0.00     0.031 A 
ATOM     50  C   UNL     1      15.899  -2.225  -5.846  1.00  0.00     0.049 A 
ATOM     51  C   UNL     1      15.047   3.307  -5.512  1.00  0.00     0.074 A 
ATOM     52  C   UNL     1      17.198  -2.642  -6.080  1.00  0.00     0.029 A 
ATOM     53  N   UNL     1      15.926  -0.841  -5.785  1.00  0.00    -0.354 N 
ATOM     54  N   UNL     1      15.398   2.047  -5.617  1.00  0.00    -0.248 NA
ATOM     55  C   UNL     1      16.170   4.252  -5.587  1.00  0.00     0.031 C 
ATOM     56  C   UNL     1      18.020  -1.510  -6.106  1.00  0.00     0.029 A 
ATOM     57  C   UNL     1      17.224  -0.387  -5.948  1.00  0.00     0.049 A 
ATOM     58  H   UNL     1      15.139  -0.266  -5.646  1.00  0.00     0.167 HD
ATOM     59  C   UNL     1      16.775   2.049  -5.793  1.00  0.00     0.074 A 
ATOM     60  C   UNL     1      17.194   3.436  -5.797  1.00  0.00     0.031 C 
ATOM     61  C   UNL     1      17.619   0.998  -5.941  1.00  0.00     0.031 A 
BRANCH  48  62
ATOM     62  C   UNL     1      14.854  -4.523  -5.701  1.00  0.00    -0.014 A 
ATOM     63  C   UNL     1      14.368  -5.288  -6.774  1.00  0.00     0.009 A 
ATOM     64  C   UNL     1      15.505  -5.176  -4.643  1.00  0.00     0.009 A 
ATOM     65  C   UNL     1      14.501  -6.678  -6.768  1.00  0.00     0.001 A 
ATOM     66  C   UNL     1      15.660  -6.563  -4.652  1.00  0.00     0.001 A 
ATOM     67  C   UNL     1      15.150  -7.314  -5.710  1.00  0.00     0.000 A 
ENDBRANCH  48  62
BRANCH  49  68
ATOM     68  C   UNL     1      13.482   5.368  -5.251  1.00  0.00    -0.014 A 
ATOM     69  C   UNL     1      13.672   6.188  -6.372  1.00  0.00     0.009 A 
ATOM     70  C   UNL     1      13.105   5.960  -4.034  1.00  0.00     0.009 A 
ATOM     71  C   UNL     1      13.508   7.572  -6.273  1.00  0.00     0.001 A 
ATOM     72  C   UNL     1      12.915   7.340  -3.944  1.00  0.00     0.001 A 
ATOM     73  C   UNL     1      13.124   8.146  -5.061  1.00  0.00     0.000 A 
ENDBRANCH  49  68
BRANCH  61  74
ATOM     74  C   UNL     1      19.075   1.310  -6.147  1.00  0.00    -0.014 A 
ATOM     75  C   UNL     1      19.877   1.772  -5.092  1.00  0.00     0.009 A 
ATOM     76  C   UNL     1      19.660   1.093  -7.404  1.00  0.00     0.009 A 
ATOM     77  C   UNL     1      21.231   2.041  -5.302  1.00  0.00     0.001 A 
ATOM     78  C   UNL     1      21.019   1.335  -7.604  1.00  0.00     0.001 A 
ATOM     79  C   UNL     1      21.801   1.818  -6.555  1.00  0.00     0.000 A 
ENDBRANCH  61  74
ENDBRANCH  35  36
ENDBRANCH  28  30
ENDBRANCH  27  28
ENDBRANCH  26  27
ENDBRANCH  25  26
ENDBRANCH  24  25
ENDBRANCH   1  24
TORSDOF 20
