REMARK SMILES CSCC[C@H](NC(=O)Cc1c(C)c2ccc(O)cc2oc1=O)C(=O)OCCOCCOC(=O)c1ccc(-c2c3nc(c(-c4ccccc4)c4ccc([nH]4)c(-c4ccccc4)c4nc(c(-c5ccccc5)c5ccc2[nH]5)C=C4)C=C3)cc1
REMARK SMILES IDX 27 1 26 2 25 3 23 4 24 5 5 6 4 7 3 8 2 9 1 10 6 11 7 12 8 14
REMARK SMILES IDX 9 15 10 16 11 17 21 18 12 19 13 20 20 21 22 22 14 23 19 24
REMARK SMILES IDX 15 25 18 26 16 27 17 28 28 30 29 31 30 32 31 33 32 34 33 35
REMARK SMILES IDX 34 36 35 37 81 38 36 39 80 40 37 41 38 42 39 43 74 44 40 45
REMARK SMILES IDX 79 46 73 47 75 48 41 49 78 50 72 51 71 52 42 54 64 55 49 56
REMARK SMILES IDX 63 57 50 58 53 59 62 60 76 61 51 62 52 63 61 65 77 66 54 67
REMARK SMILES IDX 43 68 44 69 48 70 45 71 47 72 46 73 65 74 66 75 70 76 67 77
REMARK SMILES IDX 69 78 68 79 55 80 56 81 60 82 57 83 59 84 58 85
REMARK H PARENT 6 13 17 29 75 53 53 64
REMARK Flexibility Score: inf
ROOT
ATOM      1  C   UNL     1       0.808   0.379   4.966  1.00  0.00     0.202 C 
ENDROOT
BRANCH   1   2
ATOM      2  C   UNL     1       2.027   1.115   5.704  1.00  0.00     0.261 C 
BRANCH   2   3
ATOM      3  O   UNL     1       3.194   1.329   4.936  1.00  0.00    -0.462 OA
BRANCH   3   4
ATOM      4  C   UNL     1       2.986   0.932   3.670  1.00  0.00     0.328 C 
ATOM      5  O   UNL     1       3.532  -0.065   3.218  1.00  0.00    -0.250 OA
BRANCH   4   6
ATOM      6  C   UNL     1       2.101   1.915   2.878  1.00  0.00     0.193 C 
BRANCH   6   7
ATOM      7  C   UNL     1       3.074   2.418   1.781  1.00  0.00     0.048 C 
BRANCH   7   8
ATOM      8  C   UNL     1       3.133   1.394   0.600  1.00  0.00     0.072 C 
BRANCH   8   9
ATOM      9  S   UNL     1       2.444   2.071  -0.948  1.00  0.00    -0.165 SA
ATOM     10  C   UNL     1       0.707   1.603  -0.751  1.00  0.00     0.085 C 
ENDBRANCH   8   9
ENDBRANCH   7   8
ENDBRANCH   6   7
BRANCH   6  11
ATOM     11  N   UNL     1       1.342   2.991   3.793  1.00  0.00    -0.342 N 
ATOM     12  C   UNL     1       0.349   3.153   4.796  1.00  0.00     0.225 C 
ATOM     13  H   UNL     1       1.703   3.882   3.577  1.00  0.00     0.164 HD
ATOM     14  O   UNL     1       0.503   4.291   5.301  1.00  0.00    -0.275 OA
BRANCH  12  15
ATOM     15  C   UNL     1      -0.983   2.157   5.653  1.00  0.00     0.143 C 
BRANCH  15  16
ATOM     16  C   UNL     1      -2.161   0.929   5.527  1.00  0.00     0.051 A 
ATOM     17  C   UNL     1      -2.167  -0.345   6.069  1.00  0.00    -0.029 A 
ATOM     18  C   UNL     1      -3.458   1.165   4.716  1.00  0.00     0.340 A 
ATOM     19  C   UNL     1      -1.104  -1.006   6.911  1.00  0.00     0.046 C 
ATOM     20  C   UNL     1      -3.227  -1.328   5.656  1.00  0.00     0.021 A 
ATOM     21  O   UNL     1      -4.583   0.529   5.171  1.00  0.00    -0.422 OA
ATOM     22  O   UNL     1      -3.545   1.769   3.662  1.00  0.00    -0.246 OA
ATOM     23  C   UNL     1      -3.151  -2.724   5.777  1.00  0.00     0.016 A 
ATOM     24  C   UNL     1      -4.333  -0.817   4.997  1.00  0.00     0.142 A 
ATOM     25  C   UNL     1      -4.029  -3.556   5.074  1.00  0.00     0.047 A 
ATOM     26  C   UNL     1      -5.190  -1.618   4.237  1.00  0.00     0.094 A 
ATOM     27  C   UNL     1      -4.983  -2.991   4.239  1.00  0.00     0.119 A 
BRANCH  27  28
ATOM     28  O   UNL     1      -5.728  -3.774   3.408  1.00  0.00    -0.508 OA
ATOM     29  H   UNL     1      -5.599  -4.702   3.398  1.00  0.00     0.293 HD
ENDBRANCH  27  28
ENDBRANCH  15  16
ENDBRANCH  12  15
ENDBRANCH   6  11
ENDBRANCH   4   6
ENDBRANCH   3   4
ENDBRANCH   2   3
ENDBRANCH   1   2
BRANCH   1  30
ATOM     30  O   UNL     1       0.189   0.760   3.703  1.00  0.00    -0.374 OA
BRANCH  30  31
ATOM     31  C   UNL     1      -0.967   1.436   3.049  1.00  0.00     0.202 C 
BRANCH  31  32
ATOM     32  C   UNL     1      -1.573   3.076   2.874  1.00  0.00     0.261 C 
BRANCH  32  33
ATOM     33  O   UNL     1      -1.748   4.085   3.978  1.00  0.00    -0.460 OA
BRANCH  33  34
ATOM     34  C   UNL     1      -2.819   4.493   4.755  1.00  0.00     0.338 C 
ATOM     35  O   UNL     1      -3.958   4.125   4.703  1.00  0.00    -0.246 OA
BRANCH  34  36
ATOM     36  C   UNL     1      -2.285   5.289   5.949  1.00  0.00     0.060 A 
ATOM     37  C   UNL     1      -2.442   4.789   7.270  1.00  0.00     0.016 A 
ATOM     38  C   UNL     1      -1.537   6.450   5.784  1.00  0.00     0.016 A 
ATOM     39  C   UNL     1      -1.785   5.393   8.374  1.00  0.00     0.010 A 
ATOM     40  C   UNL     1      -0.914   7.069   6.888  1.00  0.00     0.010 A 
ATOM     41  C   UNL     1      -1.021   6.561   8.197  1.00  0.00    -0.014 A 
BRANCH  41  42
ATOM     42  C   UNL     1      -0.633   7.417   9.375  1.00  0.00     0.031 A 
ATOM     43  C   UNL     1      -1.611   8.504   9.768  1.00  0.00     0.074 A 
ATOM     44  C   UNL     1       0.512   7.320  10.089  1.00  0.00     0.049 A 
ATOM     45  N   UNL     1      -1.522   9.427  10.694  1.00  0.00    -0.248 NA
ATOM     46  C   UNL     1      -2.858   8.552   8.989  1.00  0.00     0.031 C 
ATOM     47  C   UNL     1       1.574   6.335   9.898  1.00  0.00     0.029 A 
ATOM     48  N   UNL     1       0.975   8.097  11.139  1.00  0.00    -0.354 N 
ATOM     49  C   UNL     1      -2.695  10.168  10.597  1.00  0.00     0.074 A 
ATOM     50  C   UNL     1      -3.455   9.615   9.499  1.00  0.00     0.031 C 
ATOM     51  C   UNL     1       2.559   6.569  10.790  1.00  0.00     0.029 A 
ATOM     52  C   UNL     1       2.219   7.737  11.609  1.00  0.00     0.049 A 
ATOM     53  H   UNL     1       0.458   8.845  11.517  1.00  0.00     0.167 HD
ATOM     54  C   UNL     1      -3.127  11.208  11.348  1.00  0.00     0.031 A 
ATOM     55  C   UNL     1       2.998   8.281  12.574  1.00  0.00     0.031 A 
ATOM     56  C   UNL     1      -2.401  11.807  12.431  1.00  0.00     0.049 A 
ATOM     57  C   UNL     1       2.533   9.496  13.352  1.00  0.00     0.074 A 
ATOM     58  C   UNL     1      -2.786  12.859  13.246  1.00  0.00     0.029 A 
ATOM     59  N   UNL     1      -1.140  11.421  12.845  1.00  0.00    -0.354 N 
ATOM     60  N   UNL     1       1.399  10.149  13.278  1.00  0.00    -0.248 NA
ATOM     61  C   UNL     1       3.462  10.042  14.361  1.00  0.00     0.031 C 
ATOM     62  C   UNL     1      -1.733  13.144  14.121  1.00  0.00     0.029 A 
ATOM     63  C   UNL     1      -0.720  12.229  13.890  1.00  0.00     0.049 A 
ATOM     64  H   UNL     1      -0.618  10.683  12.455  1.00  0.00     0.167 HD
ATOM     65  C   UNL     1       1.466  11.148  14.248  1.00  0.00     0.074 A 
ATOM     66  C   UNL     1       2.743  11.010  14.910  1.00  0.00     0.031 C 
ATOM     67  C   UNL     1       0.545  12.094  14.560  1.00  0.00     0.031 A 
BRANCH  54  68
ATOM     68  C   UNL     1      -4.468  11.783  10.987  1.00  0.00    -0.014 A 
ATOM     69  C   UNL     1      -5.652  11.070  11.236  1.00  0.00     0.009 A 
ATOM     70  C   UNL     1      -4.544  13.046  10.382  1.00  0.00     0.009 A 
ATOM     71  C   UNL     1      -6.884  11.593  10.843  1.00  0.00     0.001 A 
ATOM     72  C   UNL     1      -5.781  13.581  10.021  1.00  0.00     0.001 A 
ATOM     73  C   UNL     1      -6.948  12.848  10.240  1.00  0.00     0.000 A 
ENDBRANCH  54  68
BRANCH  55  74
ATOM     74  C   UNL     1       4.341   7.707  12.895  1.00  0.00    -0.014 A 
ATOM     75  C   UNL     1       4.579   7.090  14.136  1.00  0.00     0.009 A 
ATOM     76  C   UNL     1       5.419   7.864  12.009  1.00  0.00     0.009 A 
ATOM     77  C   UNL     1       5.866   6.674  14.493  1.00  0.00     0.001 A 
ATOM     78  C   UNL     1       6.699   7.419  12.357  1.00  0.00     0.001 A 
ATOM     79  C   UNL     1       6.924   6.835  13.602  1.00  0.00     0.000 A 
ENDBRANCH  55  74
BRANCH  67  80
ATOM     80  C   UNL     1       0.849  13.031  15.700  1.00  0.00    -0.014 A 
ATOM     81  C   UNL     1       1.830  14.030  15.594  1.00  0.00     0.009 A 
ATOM     82  C   UNL     1       0.104  12.943  16.889  1.00  0.00     0.009 A 
ATOM     83  C   UNL     1       2.084  14.893  16.664  1.00  0.00     0.001 A 
ATOM     84  C   UNL     1       0.339  13.826  17.946  1.00  0.00     0.001 A 
ATOM     85  C   UNL     1       1.336  14.793  17.837  1.00  0.00     0.000 A 
ENDBRANCH  67  80
ENDBRANCH  41  42
ENDBRANCH  34  36
ENDBRANCH  33  34
ENDBRANCH  32  33
ENDBRANCH  31  32
ENDBRANCH  30  31
ENDBRANCH   1  30
TORSDOF 21
