REMARK SMILES Cc1cc(C(=O)OCCOCCOC(=O)c2ccc(-c3c4nc(c(-c5ccccc5)c5ccc([nH]5)c(-c5ccccc5)c5nc(c(-c6ccccc6)c6ccc3[nH]6)C=C5)C=C4)cc2)ccc1NS(=O)(=O)c1c(F)cccc1F
REMARK SMILES IDX 9 1 8 2 7 3 5 4 6 5 4 6 1 7 2 8 3 9 66 10 65 11 64 12 67 13
REMARK SMILES IDX 68 15 69 16 70 17 71 18 72 19 77 20 73 21 74 22 76 23 78 24
REMARK SMILES IDX 75 25 10 26 11 27 12 28 13 29 14 30 15 31 16 32 17 33 63 34
REMARK SMILES IDX 18 35 62 36 19 37 20 38 21 39 56 40 22 41 61 42 55 43 57 44
REMARK SMILES IDX 23 45 60 46 54 47 53 48 24 50 46 51 31 52 45 53 32 54 35 55
REMARK SMILES IDX 44 56 58 57 33 58 34 59 43 61 59 62 36 63 25 64 26 65 30 66
REMARK SMILES IDX 27 67 29 68 28 69 47 70 48 71 52 72 49 73 51 74 50 75 37 76
REMARK SMILES IDX 38 77 42 78 39 79 41 80 40 81
REMARK H PARENT 67 14 57 49 35 60
REMARK Flexibility Score: inf
ROOT
ATOM      1  C   UNL     1      -2.912  -2.257  -2.411  1.00  0.00     0.202 C 
ENDROOT
BRANCH   1   2
ATOM      2  C   UNL     1      -3.351  -2.062  -0.993  1.00  0.00     0.261 C 
BRANCH   2   3
ATOM      3  O   UNL     1      -2.426  -1.274  -0.213  1.00  0.00    -0.460 OA
BRANCH   3   4
ATOM      4  C   UNL     1      -1.325  -1.862   0.356  1.00  0.00     0.338 C 
ATOM      5  O   UNL     1      -0.989  -3.011   0.366  1.00  0.00    -0.246 OA
BRANCH   4   6
ATOM      6  C   UNL     1      -0.485  -0.738   0.822  1.00  0.00     0.060 A 
ATOM      7  C   UNL     1       2.897   0.518  -0.246  1.00  0.00     0.046 C 
ATOM      8  C   UNL     1       1.489   0.518   0.275  1.00  0.00    -0.026 A 
ATOM      9  C   UNL     1       0.835  -0.713   0.386  1.00  0.00     0.021 A 
ATOM     10  C   UNL     1       0.767   1.685   0.586  1.00  0.00     0.052 A 
ATOM     11  C   UNL     1      -0.381   1.592   1.373  1.00  0.00     0.028 A 
ATOM     12  C   UNL     1      -1.047   0.375   1.444  1.00  0.00     0.018 A 
BRANCH  10  13
ATOM     13  N   UNL     1       1.050   2.860  -0.173  1.00  0.00    -0.279 N 
ATOM     14  H   UNL     1       1.820   2.812  -0.785  1.00  0.00     0.180 HD
BRANCH  13  15
ATOM     15  S   UNL     1       0.216   4.310  -0.135  1.00  0.00     0.267 S 
ATOM     16  O   UNL     1       0.410   4.837   1.200  1.00  0.00    -0.201 OA
ATOM     17  O   UNL     1       0.662   5.040  -1.304  1.00  0.00    -0.201 OA
BRANCH  15  18
ATOM     18  C   UNL     1      -1.508   4.034  -0.349  1.00  0.00     0.158 A 
ATOM     19  C   UNL     1      -2.374   4.951   0.239  1.00  0.00     0.146 A 
ATOM     20  C   UNL     1      -2.039   2.891  -0.930  1.00  0.00     0.146 A 
ATOM     21  F   UNL     1      -1.923   6.111   0.733  1.00  0.00    -0.205 F 
ATOM     22  C   UNL     1      -3.742   4.694   0.335  1.00  0.00     0.041 A 
ATOM     23  C   UNL     1      -3.406   2.607  -0.814  1.00  0.00     0.041 A 
ATOM     24  F   UNL     1      -1.269   2.006  -1.576  1.00  0.00    -0.205 F 
ATOM     25  C   UNL     1      -4.258   3.501  -0.164  1.00  0.00     0.006 A 
ENDBRANCH  15  18
ENDBRANCH  13  15
ENDBRANCH  10  13
ENDBRANCH   4   6
ENDBRANCH   3   4
ENDBRANCH   2   3
ENDBRANCH   1   2
BRANCH   1  26
ATOM     26  O   UNL     1      -1.815  -3.152  -2.350  1.00  0.00    -0.374 OA
BRANCH  26  27
ATOM     27  C   UNL     1      -1.175  -3.415  -3.582  1.00  0.00     0.202 C 
BRANCH  27  28
ATOM     28  C   UNL     1      -2.099  -4.078  -4.612  1.00  0.00     0.261 C 
BRANCH  28  29
ATOM     29  O   UNL     1      -2.544  -5.359  -4.117  1.00  0.00    -0.460 OA
BRANCH  29  30
ATOM     30  C   UNL     1      -3.816  -5.405  -3.632  1.00  0.00     0.338 C 
ATOM     31  O   UNL     1      -4.805  -4.967  -4.197  1.00  0.00    -0.246 OA
BRANCH  30  32
ATOM     32  C   UNL     1      -3.788  -5.797  -2.193  1.00  0.00     0.060 A 
ATOM     33  C   UNL     1      -4.941  -5.642  -1.399  1.00  0.00     0.016 A 
ATOM     34  C   UNL     1      -2.550  -5.976  -1.585  1.00  0.00     0.016 A 
ATOM     35  C   UNL     1      -4.822  -5.485  -0.009  1.00  0.00     0.010 A 
ATOM     36  C   UNL     1      -2.431  -5.707  -0.240  1.00  0.00     0.010 A 
ATOM     37  C   UNL     1      -3.552  -5.422   0.557  1.00  0.00    -0.014 A 
BRANCH  37  38
ATOM     38  C   UNL     1      -3.223  -4.977   1.918  1.00  0.00     0.031 A 
ATOM     39  C   UNL     1      -2.467  -5.907   2.788  1.00  0.00     0.074 A 
ATOM     40  C   UNL     1      -3.330  -3.672   2.282  1.00  0.00     0.049 A 
ATOM     41  N   UNL     1      -2.227  -5.675   4.029  1.00  0.00    -0.248 NA
ATOM     42  C   UNL     1      -1.940  -7.203   2.357  1.00  0.00     0.031 C 
ATOM     43  C   UNL     1      -2.607  -2.950   3.334  1.00  0.00     0.029 A 
ATOM     44  N   UNL     1      -4.152  -2.674   1.756  1.00  0.00    -0.354 N 
ATOM     45  C   UNL     1      -1.256  -6.551   4.440  1.00  0.00     0.074 A 
ATOM     46  C   UNL     1      -1.201  -7.558   3.413  1.00  0.00     0.031 C 
ATOM     47  C   UNL     1      -3.208  -1.770   3.572  1.00  0.00     0.029 A 
ATOM     48  C   UNL     1      -4.408  -1.725   2.753  1.00  0.00     0.049 A 
ATOM     49  H   UNL     1      -4.497  -2.642   0.834  1.00  0.00     0.167 HD
ATOM     50  C   UNL     1      -0.534  -6.229   5.547  1.00  0.00     0.031 A 
ATOM     51  C   UNL     1      -5.684  -1.467   3.142  1.00  0.00     0.031 A 
ATOM     52  C   UNL     1      -1.096  -5.042   6.209  1.00  0.00     0.049 A 
ATOM     53  C   UNL     1      -5.808  -1.943   4.560  1.00  0.00     0.074 A 
ATOM     54  C   UNL     1      -0.681  -3.727   6.328  1.00  0.00     0.029 A 
ATOM     55  N   UNL     1      -2.443  -5.061   6.581  1.00  0.00    -0.354 N 
ATOM     56  N   UNL     1      -5.024  -2.866   5.053  1.00  0.00    -0.248 NA
ATOM     57  C   UNL     1      -6.677  -1.343   5.565  1.00  0.00     0.031 C 
ATOM     58  C   UNL     1      -1.827  -2.942   6.667  1.00  0.00     0.029 A 
ATOM     59  C   UNL     1      -2.924  -3.783   6.796  1.00  0.00     0.049 A 
ATOM     60  H   UNL     1      -2.981  -5.880   6.677  1.00  0.00     0.167 HD
ATOM     61  C   UNL     1      -5.144  -2.874   6.404  1.00  0.00     0.074 A 
ATOM     62  C   UNL     1      -6.246  -1.965   6.678  1.00  0.00     0.031 C 
ATOM     63  C   UNL     1      -4.307  -3.573   7.220  1.00  0.00     0.031 A 
BRANCH  50  64
ATOM     64  C   UNL     1       0.778  -6.870   5.941  1.00  0.00    -0.014 A 
ATOM     65  C   UNL     1       1.456  -6.404   7.082  1.00  0.00     0.009 A 
ATOM     66  C   UNL     1       1.438  -7.876   5.211  1.00  0.00     0.009 A 
ATOM     67  C   UNL     1       2.705  -6.915   7.469  1.00  0.00     0.001 A 
ATOM     68  C   UNL     1       2.675  -8.410   5.603  1.00  0.00     0.001 A 
ATOM     69  C   UNL     1       3.312  -7.925   6.734  1.00  0.00     0.000 A 
ENDBRANCH  50  64
BRANCH  51  70
ATOM     70  C   UNL     1      -6.646  -1.569   1.998  1.00  0.00    -0.014 A 
ATOM     71  C   UNL     1      -6.600  -0.532   1.034  1.00  0.00     0.009 A 
ATOM     72  C   UNL     1      -7.176  -2.805   1.599  1.00  0.00     0.009 A 
ATOM     73  C   UNL     1      -6.936  -0.766  -0.308  1.00  0.00     0.001 A 
ATOM     74  C   UNL     1      -7.508  -3.035   0.251  1.00  0.00     0.001 A 
ATOM     75  C   UNL     1      -7.349  -2.033  -0.706  1.00  0.00     0.000 A 
ENDBRANCH  51  70
BRANCH  63  76
ATOM     76  C   UNL     1      -4.759  -4.102   8.546  1.00  0.00    -0.014 A 
ATOM     77  C   UNL     1      -6.114  -4.247   8.880  1.00  0.00     0.009 A 
ATOM     78  C   UNL     1      -3.815  -4.677   9.419  1.00  0.00     0.009 A 
ATOM     79  C   UNL     1      -6.506  -4.885  10.056  1.00  0.00     0.001 A 
ATOM     80  C   UNL     1      -4.206  -5.369  10.563  1.00  0.00     0.001 A 
ATOM     81  C   UNL     1      -5.552  -5.457  10.890  1.00  0.00     0.000 A 
ENDBRANCH  63  76
ENDBRANCH  37  38
ENDBRANCH  30  32
ENDBRANCH  29  30
ENDBRANCH  28  29
ENDBRANCH  27  28
ENDBRANCH  26  27
ENDBRANCH   1  26
TORSDOF 17
