REMARK SMILES O=C(CC1(NC(=O)c2ccncc2Cl)CCCCC1)OCCOCCOC(=O)c1ccc(-c2c3nc(c(-c4ccccc4)c4ccc([nH]4)c(-c4ccccc4)c4nc(c(-c5ccccc5)c5ccc2[nH]5)C=C4)C=C3)cc1
REMARK SMILES IDX 22 1 21 2 20 3 2 4 1 5 3 6 4 7 15 8 19 9 16 10 18 11 17 12
REMARK SMILES IDX 5 13 6 14 7 16 8 17 9 18 13 19 10 20 12 21 14 22 11 23 23 24
REMARK SMILES IDX 24 25 25 26 26 27 27 28 28 29 29 30 30 31 76 32 31 33 75 34
REMARK SMILES IDX 32 35 33 36 34 37 69 38 35 39 74 40 68 41 70 42 36 43 73 44
REMARK SMILES IDX 67 45 66 46 37 48 59 49 44 50 58 51 45 52 48 53 57 54 71 55
REMARK SMILES IDX 46 56 47 57 56 59 72 60 49 61 38 62 39 63 43 64 40 65 42 66
REMARK SMILES IDX 41 67 60 68 61 69 65 70 62 71 64 72 63 73 50 74 51 75 55 76
REMARK SMILES IDX 52 77 54 78 53 79
REMARK H PARENT 5 15 70 47 48 58
REMARK Flexibility Score: inf
ROOT
ATOM      1  C   UNL     1       4.322  -1.344  -0.028  1.00  0.00     0.202 C 
ENDROOT
BRANCH   1   2
ATOM      2  C   UNL     1       3.842  -0.960   1.355  1.00  0.00     0.261 C 
BRANCH   2   3
ATOM      3  O   UNL     1       2.656  -0.145   1.495  1.00  0.00    -0.463 OA
BRANCH   3   4
ATOM      4  C   UNL     1       1.969   0.652   0.661  1.00  0.00     0.308 C 
ATOM      5  O   UNL     1       0.781   0.866   0.911  1.00  0.00    -0.252 OA
BRANCH   4   6
ATOM      6  C   UNL     1       2.600   1.301  -0.551  1.00  0.00     0.151 C 
BRANCH   6   7
ATOM      7  C   UNL     1       3.762   2.308  -0.381  1.00  0.00     0.051 C 
ATOM      8  C   UNL     1       3.305   3.716  -0.871  1.00  0.00     0.029 C 
ATOM      9  C   UNL     1       4.152   2.434   1.126  1.00  0.00     0.029 C 
ATOM     10  C   UNL     1       4.225   4.872  -0.472  1.00  0.00     0.002 C 
ATOM     11  C   UNL     1       5.037   3.616   1.507  1.00  0.00     0.002 C 
ATOM     12  C   UNL     1       4.432   4.922   1.031  1.00  0.00     0.000 C 
BRANCH   7  13
ATOM     13  N   UNL     1       4.990   1.931  -1.172  1.00  0.00    -0.346 N 
ATOM     14  C   UNL     1       5.350   1.311  -2.351  1.00  0.00     0.253 C 
ATOM     15  H   UNL     1       5.798   2.222  -0.690  1.00  0.00     0.164 HD
ATOM     16  O   UNL     1       6.536   1.424  -2.680  1.00  0.00    -0.269 OA
BRANCH  14  17
ATOM     17  C   UNL     1       4.540   0.372  -3.164  1.00  0.00     0.061 A 
ATOM     18  C   UNL     1       5.096  -0.913  -3.325  1.00  0.00     0.035 A 
ATOM     19  C   UNL     1       3.364   0.661  -3.845  1.00  0.00     0.072 A 
ATOM     20  C   UNL     1       4.397  -1.878  -4.035  1.00  0.00     0.112 A 
ATOM     21  C   UNL     1       2.729  -0.382  -4.520  1.00  0.00     0.132 A 
ATOM     22  Cl  UNL     1       2.683   2.225  -3.993  1.00  0.00    -0.082 Cl
ATOM     23  N   UNL     1       3.204  -1.646  -4.616  1.00  0.00    -0.263 NA
ENDBRANCH  14  17
ENDBRANCH   7  13
ENDBRANCH   6   7
ENDBRANCH   4   6
ENDBRANCH   3   4
ENDBRANCH   2   3
ENDBRANCH   1   2
BRANCH   1  24
ATOM     24  O   UNL     1       3.356  -1.504  -1.046  1.00  0.00    -0.374 OA
BRANCH  24  25
ATOM     25  C   UNL     1       2.170  -2.249  -0.824  1.00  0.00     0.202 C 
BRANCH  25  26
ATOM     26  C   UNL     1       2.260  -3.655  -1.403  1.00  0.00     0.261 C 
BRANCH  26  27
ATOM     27  O   UNL     1       2.944  -4.483  -0.457  1.00  0.00    -0.460 OA
BRANCH  27  28
ATOM     28  C   UNL     1       4.278  -4.594  -0.625  1.00  0.00     0.338 C 
ATOM     29  O   UNL     1       4.940  -4.274  -1.599  1.00  0.00    -0.246 OA
BRANCH  28  30
ATOM     30  C   UNL     1       4.856  -4.955   0.686  1.00  0.00     0.060 A 
ATOM     31  C   UNL     1       6.139  -4.482   0.994  1.00  0.00     0.016 A 
ATOM     32  C   UNL     1       4.130  -5.705   1.619  1.00  0.00     0.016 A 
ATOM     33  C   UNL     1       6.719  -4.806   2.213  1.00  0.00     0.010 A 
ATOM     34  C   UNL     1       4.709  -6.029   2.839  1.00  0.00     0.010 A 
ATOM     35  C   UNL     1       6.023  -5.621   3.113  1.00  0.00    -0.014 A 
BRANCH  35  36
ATOM     36  C   UNL     1       6.753  -6.232   4.236  1.00  0.00     0.031 A 
ATOM     37  C   UNL     1       7.250  -7.638   4.064  1.00  0.00     0.074 A 
ATOM     38  C   UNL     1       6.993  -5.529   5.353  1.00  0.00     0.049 A 
ATOM     39  N   UNL     1       7.919  -8.388   4.898  1.00  0.00    -0.248 NA
ATOM     40  C   UNL     1       6.947  -8.290   2.776  1.00  0.00     0.031 C 
ATOM     41  C   UNL     1       6.568  -4.150   5.594  1.00  0.00     0.029 A 
ATOM     42  N   UNL     1       7.658  -5.885   6.495  1.00  0.00    -0.354 N 
ATOM     43  C   UNL     1       8.119  -9.593   4.236  1.00  0.00     0.074 A 
ATOM     44  C   UNL     1       7.460  -9.496   2.954  1.00  0.00     0.031 C 
ATOM     45  C   UNL     1       6.984  -3.776   6.816  1.00  0.00     0.029 A 
ATOM     46  C   UNL     1       7.675  -4.897   7.447  1.00  0.00     0.049 A 
ATOM     47  H   UNL     1       8.082  -6.764   6.620  1.00  0.00     0.167 HD
ATOM     48  C   UNL     1       8.808 -10.678   4.656  1.00  0.00     0.031 A 
ATOM     49  C   UNL     1       8.182  -4.915   8.692  1.00  0.00     0.031 A 
ATOM     50  C   UNL     1       9.433 -10.766   5.947  1.00  0.00     0.049 A 
ATOM     51  C   UNL     1       8.889  -6.159   9.161  1.00  0.00     0.074 A 
ATOM     52  C   UNL     1      10.149 -11.815   6.492  1.00  0.00     0.029 A 
ATOM     53  N   UNL     1       9.408  -9.756   6.898  1.00  0.00    -0.354 N 
ATOM     54  N   UNL     1       9.094  -7.286   8.520  1.00  0.00    -0.248 NA
ATOM     55  C   UNL     1       9.449  -6.125  10.517  1.00  0.00     0.031 C 
ATOM     56  C   UNL     1      10.511 -11.459   7.796  1.00  0.00     0.029 A 
ATOM     57  C   UNL     1      10.080 -10.163   8.037  1.00  0.00     0.049 A 
ATOM     58  H   UNL     1       8.976  -8.879   6.781  1.00  0.00     0.167 HD
ATOM     59  C   UNL     1       9.828  -8.087   9.385  1.00  0.00     0.074 A 
ATOM     60  C   UNL     1      10.056  -7.301  10.582  1.00  0.00     0.031 C 
ATOM     61  C   UNL     1      10.274  -9.357   9.216  1.00  0.00     0.031 A 
BRANCH  48  62
ATOM     62  C   UNL     1       8.890 -11.850   3.718  1.00  0.00    -0.014 A 
ATOM     63  C   UNL     1       9.635 -11.782   2.528  1.00  0.00     0.009 A 
ATOM     64  C   UNL     1       8.224 -13.045   4.031  1.00  0.00     0.009 A 
ATOM     65  C   UNL     1       9.683 -12.873   1.658  1.00  0.00     0.001 A 
ATOM     66  C   UNL     1       8.300 -14.145   3.174  1.00  0.00     0.001 A 
ATOM     67  C   UNL     1       9.021 -14.056   1.984  1.00  0.00     0.000 A 
ENDBRANCH  48  62
BRANCH  49  68
ATOM     68  C   UNL     1       8.028  -3.732   9.580  1.00  0.00    -0.014 A 
ATOM     69  C   UNL     1       9.140  -2.976   9.979  1.00  0.00     0.009 A 
ATOM     70  C   UNL     1       6.756  -3.361  10.046  1.00  0.00     0.009 A 
ATOM     71  C   UNL     1       8.985  -1.895  10.852  1.00  0.00     0.001 A 
ATOM     72  C   UNL     1       6.600  -2.260  10.890  1.00  0.00     0.001 A 
ATOM     73  C   UNL     1       7.716  -1.535  11.303  1.00  0.00     0.000 A 
ENDBRANCH  49  68
BRANCH  61  74
ATOM     74  C   UNL     1      11.074  -9.948  10.344  1.00  0.00    -0.014 A 
ATOM     75  C   UNL     1      10.477 -10.271  11.572  1.00  0.00     0.009 A 
ATOM     76  C   UNL     1      12.444 -10.192  10.167  1.00  0.00     0.009 A 
ATOM     77  C   UNL     1      11.250 -10.774  12.620  1.00  0.00     0.001 A 
ATOM     78  C   UNL     1      13.207 -10.732  11.203  1.00  0.00     0.001 A 
ATOM     79  C   UNL     1      12.612 -11.006  12.433  1.00  0.00     0.000 A 
ENDBRANCH  61  74
ENDBRANCH  35  36
ENDBRANCH  28  30
ENDBRANCH  27  28
ENDBRANCH  26  27
ENDBRANCH  25  26
ENDBRANCH  24  25
ENDBRANCH   1  24
TORSDOF 17
