REMARK SMILES [NH3+]CC1([C@H](O)C(=O)OCCOCCOC(=O)c2ccc(-c3c4nc(c(-c5ccccc5)c5ccc([nH]5)c(-c5ccccc5)c5nc(c(-c6ccccc6)c6ccc3[nH]6)C=C5)C=C4)cc2)Cc2ccccc2C1
REMARK SMILES IDX 10 1 9 2 8 3 6 4 7 5 4 6 3 7 65 8 72 9 66 10 71 11 67 12
REMARK SMILES IDX 70 13 68 14 69 15 2 16 1 17 5 21 11 23 12 24 13 25 14 26
REMARK SMILES IDX 15 27 16 28 17 29 18 30 64 31 19 32 63 33 20 34 21 35 22 36
REMARK SMILES IDX 57 37 23 38 62 39 56 40 58 41 24 42 61 43 55 44 54 45 25 47
REMARK SMILES IDX 47 48 32 49 46 50 33 51 36 52 45 53 59 54 34 55 35 56 44 58
REMARK SMILES IDX 60 59 37 60 26 61 27 62 31 63 28 64 30 65 29 66 48 67 49 68
REMARK SMILES IDX 53 69 50 70 52 71 51 72 38 73 39 74 43 75 40 76 42 77 41 78
REMARK H PARENT 1 18 1 19 1 20 5 22 58 46 36 57
REMARK Flexibility Score: inf
ROOT
ATOM      1  C   UNL     1       3.937   2.177  -4.222  1.00  0.00     0.202 C 
ENDROOT
BRANCH   1   2
ATOM      2  C   UNL     1       2.564   2.016  -4.876  1.00  0.00     0.261 C 
BRANCH   2   3
ATOM      3  O   UNL     1       1.713   1.154  -4.102  1.00  0.00    -0.461 OA
BRANCH   3   4
ATOM      4  C   UNL     1       1.400  -0.040  -4.680  1.00  0.00     0.335 C 
ATOM      5  O   UNL     1       1.846  -0.456  -5.743  1.00  0.00    -0.249 OA
BRANCH   4   6
ATOM      6  C   UNL     1       0.469  -0.870  -3.772  1.00  0.00     0.236 C 
BRANCH   6   7
ATOM      7  C   UNL     1      -1.053  -0.763  -4.130  1.00  0.00     0.064 C 
ATOM      8  C   UNL     1      -1.277  -0.925  -5.665  1.00  0.00     0.052 C 
ATOM      9  C   UNL     1      -1.593   0.662  -3.796  1.00  0.00     0.052 C 
ATOM     10  C   UNL     1      -1.170   0.494  -6.140  1.00  0.00    -0.044 A 
ATOM     11  C   UNL     1      -1.351   1.391  -5.083  1.00  0.00    -0.044 A 
ATOM     12  C   UNL     1      -0.879   0.945  -7.416  1.00  0.00     0.004 A 
ATOM     13  C   UNL     1      -1.254   2.758  -5.279  1.00  0.00     0.004 A 
ATOM     14  C   UNL     1      -0.757   2.321  -7.619  1.00  0.00     0.000 A 
ATOM     15  C   UNL     1      -0.945   3.221  -6.559  1.00  0.00     0.000 A 
BRANCH   7  16
ATOM     16  C   UNL     1      -1.781  -1.859  -3.304  1.00  0.00     0.269 C 
BRANCH  16  17
ATOM     17  N   UNL     1      -3.206  -2.054  -3.560  1.00  0.00    -0.357 N 
ATOM     18  H   UNL     1      -3.561  -2.796  -2.957  1.00  0.00     0.344 HD
ATOM     19  H   UNL     1      -3.343  -2.314  -4.537  1.00  0.00     0.344 HD
ATOM     20  H   UNL     1      -3.708  -1.188  -3.365  1.00  0.00     0.344 HD
ENDBRANCH  16  17
ENDBRANCH   7  16
ENDBRANCH   6   7
BRANCH   6  21
ATOM     21  O   UNL     1       0.645  -0.608  -2.375  1.00  0.00    -0.381 OA
ATOM     22  H   UNL     1       0.366   0.300  -2.178  1.00  0.00     0.211 HD
ENDBRANCH   6  21
ENDBRANCH   4   6
ENDBRANCH   3   4
ENDBRANCH   2   3
ENDBRANCH   1   2
BRANCH   1  23
ATOM     23  O   UNL     1       4.791   1.035  -4.263  1.00  0.00    -0.374 OA
BRANCH  23  24
ATOM     24  C   UNL     1       4.503  -0.049  -3.384  1.00  0.00     0.202 C 
BRANCH  24  25
ATOM     25  C   UNL     1       4.899   0.146  -1.917  1.00  0.00     0.261 C 
BRANCH  25  26
ATOM     26  O   UNL     1       4.139   1.194  -1.285  1.00  0.00    -0.460 OA
BRANCH  26  27
ATOM     27  C   UNL     1       4.886   2.244  -0.867  1.00  0.00     0.338 C 
ATOM     28  O   UNL     1       6.105   2.343  -0.899  1.00  0.00    -0.246 OA
BRANCH  27  29
ATOM     29  C   UNL     1       4.037   3.383  -0.479  1.00  0.00     0.060 A 
ATOM     30  C   UNL     1       4.294   4.607  -1.107  1.00  0.00     0.016 A 
ATOM     31  C   UNL     1       3.120   3.302   0.572  1.00  0.00     0.016 A 
ATOM     32  C   UNL     1       3.692   5.770  -0.637  1.00  0.00     0.010 A 
ATOM     33  C   UNL     1       2.517   4.476   1.046  1.00  0.00     0.010 A 
ATOM     34  C   UNL     1       2.840   5.721   0.474  1.00  0.00    -0.014 A 
BRANCH  34  35
ATOM     35  C   UNL     1       2.433   7.000   1.108  1.00  0.00     0.031 A 
ATOM     36  C   UNL     1       3.201   7.510   2.297  1.00  0.00     0.074 A 
ATOM     37  C   UNL     1       1.456   7.751   0.569  1.00  0.00     0.049 A 
ATOM     38  N   UNL     1       3.101   8.660   2.917  1.00  0.00    -0.248 NA
ATOM     39  C   UNL     1       4.223   6.612   2.858  1.00  0.00     0.031 C 
ATOM     40  C   UNL     1       0.659   7.388  -0.601  1.00  0.00     0.029 A 
ATOM     41  N   UNL     1       0.989   8.990   0.927  1.00  0.00    -0.354 N 
ATOM     42  C   UNL     1       4.049   8.626   3.932  1.00  0.00     0.074 A 
ATOM     43  C   UNL     1       4.689   7.329   3.870  1.00  0.00     0.031 C 
ATOM     44  C   UNL     1      -0.192   8.392  -0.875  1.00  0.00     0.029 A 
ATOM     45  C   UNL     1      -0.006   9.459   0.106  1.00  0.00     0.049 A 
ATOM     46  H   UNL     1       1.334   9.494   1.699  1.00  0.00     0.167 HD
ATOM     47  C   UNL     1       4.371   9.589   4.828  1.00  0.00     0.031 A 
ATOM     48  C   UNL     1      -0.687  10.621   0.138  1.00  0.00     0.031 A 
ATOM     49  C   UNL     1       3.731  10.875   4.907  1.00  0.00     0.049 A 
ATOM     50  C   UNL     1      -0.348  11.654   1.177  1.00  0.00     0.074 A 
ATOM     51  C   UNL     1       3.997  11.920   5.776  1.00  0.00     0.029 A 
ATOM     52  N   UNL     1       2.691  11.289   4.090  1.00  0.00    -0.354 N 
ATOM     53  N   UNL     1       0.578  11.623   2.104  1.00  0.00    -0.248 NA
ATOM     54  C   UNL     1      -1.141  12.893   1.159  1.00  0.00     0.031 C 
ATOM     55  C   UNL     1       3.086  12.949   5.514  1.00  0.00     0.029 A 
ATOM     56  C   UNL     1       2.288  12.564   4.449  1.00  0.00     0.049 A 
ATOM     57  H   UNL     1       2.298  10.755   3.363  1.00  0.00     0.167 HD
ATOM     58  C   UNL     1       0.497  12.844   2.762  1.00  0.00     0.074 A 
ATOM     59  C   UNL     1      -0.558  13.599   2.118  1.00  0.00     0.031 C 
ATOM     60  C   UNL     1       1.234  13.301   3.804  1.00  0.00     0.031 A 
BRANCH  47  61
ATOM     61  C   UNL     1       5.456   9.273   5.818  1.00  0.00    -0.014 A 
ATOM     62  C   UNL     1       6.804   9.226   5.428  1.00  0.00     0.009 A 
ATOM     63  C   UNL     1       5.129   9.046   7.164  1.00  0.00     0.009 A 
ATOM     64  C   UNL     1       7.800   8.929   6.362  1.00  0.00     0.001 A 
ATOM     65  C   UNL     1       6.128   8.773   8.099  1.00  0.00     0.001 A 
ATOM     66  C   UNL     1       7.461   8.706   7.696  1.00  0.00     0.000 A 
ENDBRANCH  47  61
BRANCH  48  67
ATOM     67  C   UNL     1      -1.757  10.878  -0.859  1.00  0.00    -0.014 A 
ATOM     68  C   UNL     1      -1.574  11.823  -1.880  1.00  0.00     0.009 A 
ATOM     69  C   UNL     1      -2.976  10.186  -0.783  1.00  0.00     0.009 A 
ATOM     70  C   UNL     1      -2.600  12.085  -2.791  1.00  0.00     0.001 A 
ATOM     71  C   UNL     1      -3.989  10.433  -1.710  1.00  0.00     0.001 A 
ATOM     72  C   UNL     1      -3.804  11.387  -2.708  1.00  0.00     0.000 A 
ENDBRANCH  48  67
BRANCH  60  73
ATOM     73  C   UNL     1       0.942  14.693   4.291  1.00  0.00    -0.014 A 
ATOM     74  C   UNL     1      -0.223  14.982   5.018  1.00  0.00     0.009 A 
ATOM     75  C   UNL     1       1.861  15.724   4.040  1.00  0.00     0.009 A 
ATOM     76  C   UNL     1      -0.480  16.285   5.450  1.00  0.00     0.001 A 
ATOM     77  C   UNL     1       1.614  17.020   4.497  1.00  0.00     0.001 A 
ATOM     78  C   UNL     1       0.439  17.301   5.192  1.00  0.00     0.000 A 
ENDBRANCH  60  73
ENDBRANCH  34  35
ENDBRANCH  27  29
ENDBRANCH  26  27
ENDBRANCH  25  26
ENDBRANCH  24  25
ENDBRANCH  23  24
ENDBRANCH   1  23
TORSDOF 18
