REMARK SMILES O=C(CC[C@@H]1CN(c2ccncc2)CC[C@@H]1[NH+]1CCOCC1)OCCOCCOC(=O)c1ccc(-c2c3nc(c(-c4ccccc4)c4ccc([nH]4)c(-c4ccccc4)c4nc(c(-c5ccccc5)c5ccc2[nH]5)C=C4)C=C3)cc1
REMARK SMILES IDX 25 1 24 2 23 3 2 4 1 5 3 6 4 7 5 8 6 9 16 10 7 11 15 12
REMARK SMILES IDX 14 13 17 14 18 15 22 16 19 18 21 19 20 20 8 21 9 22 13 23
REMARK SMILES IDX 10 24 12 25 11 26 26 27 27 28 28 29 29 30 30 31 31 32 32 33
REMARK SMILES IDX 33 34 79 35 34 36 78 37 35 38 36 39 37 40 72 41 38 42 77 43
REMARK SMILES IDX 71 44 73 45 39 46 76 47 70 48 69 49 40 51 62 52 47 53 61 54
REMARK SMILES IDX 48 55 51 56 60 57 74 58 49 59 50 60 59 62 75 63 52 64 41 65
REMARK SMILES IDX 42 66 46 67 43 68 45 69 44 70 63 71 64 72 68 73 65 74 67 75
REMARK SMILES IDX 66 76 53 77 54 78 58 79 55 80 57 81 56 82
REMARK H PARENT 17 17 73 50 51 61
REMARK Flexibility Score: inf
ROOT
ATOM      1  C   UNL     1       4.548   2.359  -2.350  1.00  0.00     0.202 C 
ENDROOT
BRANCH   1   2
ATOM      2  C   UNL     1       5.588   1.382  -1.831  1.00  0.00     0.261 C 
BRANCH   2   3
ATOM      3  O   UNL     1       6.330   0.661  -2.825  1.00  0.00    -0.463 OA
BRANCH   3   4
ATOM      4  C   UNL     1       6.158  -0.634  -3.147  1.00  0.00     0.305 C 
ATOM      5  O   UNL     1       7.011  -1.234  -3.795  1.00  0.00    -0.252 OA
BRANCH   4   6
ATOM      6  C   UNL     1       4.864  -1.283  -2.758  1.00  0.00     0.123 C 
BRANCH   6   7
ATOM      7  C   UNL     1       5.004  -2.336  -1.660  1.00  0.00     0.023 C 
BRANCH   7   8
ATOM      8  C   UNL     1       4.958  -1.925  -0.161  1.00  0.00     0.067 C 
ATOM      9  C   UNL     1       3.776  -0.988   0.225  1.00  0.00     0.126 C 
ATOM     10  C   UNL     1       6.313  -1.847   0.655  1.00  0.00     0.190 C 
ATOM     11  N   UNL     1       4.054   0.036   1.231  1.00  0.00    -0.371 N 
ATOM     12  C   UNL     1       6.083  -1.092   1.964  1.00  0.00     0.087 C 
ATOM     13  C   UNL     1       5.388   0.236   1.770  1.00  0.00     0.122 C 
BRANCH  10  14
ATOM     14  N   UNL     1       7.601  -1.663  -0.062  1.00  0.00    -0.328 N 
ATOM     15  C   UNL     1       8.735  -2.443   0.510  1.00  0.00     0.291 C 
ATOM     16  C   UNL     1       8.129  -0.322  -0.340  1.00  0.00     0.291 C 
ATOM     17  H   UNL     1       7.266  -2.015  -0.958  1.00  0.00     0.348 HD
ATOM     18  C   UNL     1       9.526  -1.745   1.636  1.00  0.00     0.221 C 
ATOM     19  C   UNL     1       8.939   0.361   0.769  1.00  0.00     0.221 C 
ATOM     20  O   UNL     1      10.006  -0.459   1.235  1.00  0.00    -0.370 OA
ENDBRANCH  10  14
BRANCH  11  21
ATOM     21  C   UNL     1       3.038   0.900   1.639  1.00  0.00     0.040 A 
ATOM     22  C   UNL     1       3.256   2.273   1.775  1.00  0.00     0.046 A 
ATOM     23  C   UNL     1       1.764   0.444   1.981  1.00  0.00     0.046 A 
ATOM     24  C   UNL     1       2.255   3.106   2.255  1.00  0.00     0.113 A 
ATOM     25  C   UNL     1       0.821   1.344   2.469  1.00  0.00     0.113 A 
ATOM     26  N   UNL     1       1.038   2.666   2.615  1.00  0.00    -0.265 NA
ENDBRANCH  11  21
ENDBRANCH   7   8
ENDBRANCH   6   7
ENDBRANCH   4   6
ENDBRANCH   3   4
ENDBRANCH   2   3
ENDBRANCH   1   2
BRANCH   1  27
ATOM     27  O   UNL     1       4.738   2.945  -3.626  1.00  0.00    -0.374 OA
BRANCH  27  28
ATOM     28  C   UNL     1       6.049   3.206  -4.112  1.00  0.00     0.202 C 
BRANCH  28  29
ATOM     29  C   UNL     1       6.877   4.281  -3.400  1.00  0.00     0.261 C 
BRANCH  29  30
ATOM     30  O   UNL     1       7.441   3.893  -2.130  1.00  0.00    -0.460 OA
BRANCH  30  31
ATOM     31  C   UNL     1       6.959   4.553  -1.054  1.00  0.00     0.338 C 
ATOM     32  O   UNL     1       5.980   5.289  -1.017  1.00  0.00    -0.246 OA
BRANCH  31  33
ATOM     33  C   UNL     1       7.716   4.219   0.168  1.00  0.00     0.060 A 
ATOM     34  C   UNL     1       7.003   3.745   1.274  1.00  0.00     0.016 A 
ATOM     35  C   UNL     1       9.068   4.529   0.297  1.00  0.00     0.016 A 
ATOM     36  C   UNL     1       7.612   3.599   2.521  1.00  0.00     0.010 A 
ATOM     37  C   UNL     1       9.680   4.407   1.552  1.00  0.00     0.010 A 
ATOM     38  C   UNL     1       8.949   3.973   2.676  1.00  0.00    -0.014 A 
BRANCH  38  39
ATOM     39  C   UNL     1       9.550   4.118   4.026  1.00  0.00     0.031 A 
ATOM     40  C   UNL     1       9.632   5.493   4.624  1.00  0.00     0.074 A 
ATOM     41  C   UNL     1      10.063   3.070   4.691  1.00  0.00     0.049 A 
ATOM     42  N   UNL     1      10.325   5.914   5.649  1.00  0.00    -0.248 NA
ATOM     43  C   UNL     1       8.829   6.533   3.963  1.00  0.00     0.031 C 
ATOM     44  C   UNL     1       9.973   1.676   4.273  1.00  0.00     0.029 A 
ATOM     45  N   UNL     1      10.804   3.029   5.848  1.00  0.00    -0.354 N 
ATOM     46  C   UNL     1      10.080   7.279   5.728  1.00  0.00     0.074 A 
ATOM     47  C   UNL     1       9.172   7.611   4.651  1.00  0.00     0.031 C 
ATOM     48  C   UNL     1      10.677   0.916   5.128  1.00  0.00     0.029 A 
ATOM     49  C   UNL     1      11.310   1.781   6.120  1.00  0.00     0.049 A 
ATOM     50  H   UNL     1      10.957   3.814   6.422  1.00  0.00     0.167 HD
ATOM     51  C   UNL     1      10.585   8.178   6.606  1.00  0.00     0.031 A 
ATOM     52  C   UNL     1      12.230   1.390   7.024  1.00  0.00     0.031 A 
ATOM     53  C   UNL     1      11.503   7.844   7.661  1.00  0.00     0.049 A 
ATOM     54  C   UNL     1      12.852   2.413   7.936  1.00  0.00     0.074 A 
ATOM     55  C   UNL     1      12.074   8.677   8.607  1.00  0.00     0.029 A 
ATOM     56  N   UNL     1      11.993   6.569   7.901  1.00  0.00    -0.354 N 
ATOM     57  N   UNL     1      12.633   3.704   7.998  1.00  0.00    -0.248 NA
ATOM     58  C   UNL     1      13.850   1.925   8.899  1.00  0.00     0.031 C 
ATOM     59  C   UNL     1      12.955   7.915   9.381  1.00  0.00     0.029 A 
ATOM     60  C   UNL     1      12.882   6.596   8.961  1.00  0.00     0.049 A 
ATOM     61  H   UNL     1      11.745   5.763   7.392  1.00  0.00     0.167 HD
ATOM     62  C   UNL     1      13.443   4.179   9.024  1.00  0.00     0.074 A 
ATOM     63  C   UNL     1      14.154   3.036   9.558  1.00  0.00     0.031 C 
ATOM     64  C   UNL     1      13.578   5.447   9.485  1.00  0.00     0.031 A 
BRANCH  51  65
ATOM     65  C   UNL     1      10.211   9.619   6.395  1.00  0.00    -0.014 A 
ATOM     66  C   UNL     1       8.907  10.087   6.625  1.00  0.00     0.009 A 
ATOM     67  C   UNL     1      11.182  10.519   5.928  1.00  0.00     0.009 A 
ATOM     68  C   UNL     1       8.572  11.412   6.336  1.00  0.00     0.001 A 
ATOM     69  C   UNL     1      10.852  11.850   5.671  1.00  0.00     0.001 A 
ATOM     70  C   UNL     1       9.544  12.292   5.860  1.00  0.00     0.000 A 
ENDBRANCH  51  65
BRANCH  52  71
ATOM     71  C   UNL     1      12.661  -0.033   7.063  1.00  0.00    -0.014 A 
ATOM     72  C   UNL     1      12.292  -0.864   8.131  1.00  0.00     0.009 A 
ATOM     73  C   UNL     1      13.428  -0.572   6.018  1.00  0.00     0.009 A 
ATOM     74  C   UNL     1      12.693  -2.203   8.155  1.00  0.00     0.001 A 
ATOM     75  C   UNL     1      13.803  -1.917   6.031  1.00  0.00     0.001 A 
ATOM     76  C   UNL     1      13.440  -2.730   7.103  1.00  0.00     0.000 A 
ENDBRANCH  52  71
BRANCH  64  77
ATOM     77  C   UNL     1      14.489   5.669  10.659  1.00  0.00    -0.014 A 
ATOM     78  C   UNL     1      15.885   5.638  10.521  1.00  0.00     0.009 A 
ATOM     79  C   UNL     1      13.935   5.993  11.908  1.00  0.00     0.009 A 
ATOM     80  C   UNL     1      16.707   5.910  11.618  1.00  0.00     0.001 A 
ATOM     81  C   UNL     1      14.758   6.291  12.994  1.00  0.00     0.001 A 
ATOM     82  C   UNL     1      16.144   6.245  12.850  1.00  0.00     0.000 A 
ENDBRANCH  64  77
ENDBRANCH  38  39
ENDBRANCH  31  33
ENDBRANCH  30  31
ENDBRANCH  29  30
ENDBRANCH  28  29
ENDBRANCH  27  28
ENDBRANCH   1  27
TORSDOF 18
