REMARK SMILES CCCCCCNC(=O)Oc1cccc(-c2ccc([C@@H](C)C(=O)OCCOCCOC(=O)c3ccc(-c4c5nc(c(-c6ccccc6)c6ccc([nH]6)c(-c6ccccc6)c6nc(c(-c7ccccc7)c7ccc4[nH]7)C=C6)C=C5)cc3)cc2C)c1
REMARK SMILES IDX 22 1 23 2 20 3 21 4 19 5 16 6 17 7 82 8 18 9 81 10 83 11
REMARK SMILES IDX 15 12 11 13 12 14 84 15 13 16 14 17 10 18 8 19 7 20 9 22
REMARK SMILES IDX 6 23 5 24 4 25 3 26 2 27 1 28 24 29 25 30 26 31 27 32 28 33
REMARK SMILES IDX 29 34 30 35 31 36 32 37 33 38 34 39 80 40 35 41 79 42 36 43
REMARK SMILES IDX 37 44 38 45 73 46 39 47 78 48 72 49 74 50 40 51 77 52 71 53
REMARK SMILES IDX 70 54 41 56 63 57 48 58 62 59 49 60 52 61 61 62 75 63 50 64
REMARK SMILES IDX 51 65 60 67 76 68 53 69 42 70 43 71 47 72 44 73 46 74 45 75
REMARK SMILES IDX 64 76 65 77 69 78 66 79 68 80 67 81 54 82 55 83 59 84 56 85
REMARK SMILES IDX 58 86 57 87
REMARK H PARENT 7 21 74 55 52 66
REMARK Flexibility Score: inf
ROOT
ATOM      1  C   UNL     1      -4.456 -13.850   5.686  1.00  0.00     0.313 C 
ATOM      2  O   UNL     1      -4.269 -14.249   6.832  1.00  0.00    -0.252 OA
ENDROOT
BRANCH   1   3
ATOM      3  C   UNL     1      -5.452 -12.744   5.380  1.00  0.00     0.126 C 
ATOM      4  C   UNL     1      -6.860 -13.334   5.339  1.00  0.00     0.025 C 
BRANCH   3   5
ATOM      5  C   UNL     1      -5.184 -11.837   4.184  1.00  0.00    -0.034 A 
ATOM      6  C   UNL     1      -4.975  -9.992   2.006  1.00  0.00    -0.015 A 
ATOM      7  C   UNL     1      -5.128 -11.378   1.797  1.00  0.00     0.009 A 
ATOM      8  C   UNL     1      -4.885  -9.538   3.341  1.00  0.00    -0.043 A 
ATOM      9  C   UNL     1      -5.239 -12.283   2.861  1.00  0.00     0.005 A 
ATOM     10  C   UNL     1      -4.966 -10.466   4.401  1.00  0.00     0.008 A 
ATOM     11  C   UNL     1      -4.716  -8.087   3.713  1.00  0.00     0.045 C 
BRANCH   6  12
ATOM     12  C   UNL     1      -5.019  -9.074   0.846  1.00  0.00    -0.014 A 
ATOM     13  C   UNL     1      -4.133  -7.227  -0.460  1.00  0.00     0.133 A 
ATOM     14  C   UNL     1      -5.273  -7.207  -1.261  1.00  0.00     0.047 A 
ATOM     15  C   UNL     1      -3.991  -8.155   0.577  1.00  0.00     0.056 A 
ATOM     16  C   UNL     1      -6.281  -8.136  -1.034  1.00  0.00     0.004 A 
ATOM     17  C   UNL     1      -6.156  -9.055   0.013  1.00  0.00     0.009 A 
BRANCH  13  18
ATOM     18  O   UNL     1      -3.225  -6.167  -0.644  1.00  0.00    -0.410 OA
BRANCH  18  19
ATOM     19  C   UNL     1      -1.869  -6.433  -0.727  1.00  0.00     0.412 C 
ATOM     20  N   UNL     1      -1.103  -5.304  -0.823  1.00  0.00    -0.321 N 
ATOM     21  H   UNL     1      -0.130  -5.439  -0.891  1.00  0.00     0.167 HD
ATOM     22  O   UNL     1      -1.354  -7.548  -0.728  1.00  0.00    -0.224 OA
BRANCH  20  23
ATOM     23  C   UNL     1      -1.567  -3.929  -0.835  1.00  0.00     0.119 C 
BRANCH  23  24
ATOM     24  C   UNL     1      -0.983  -3.113   0.319  1.00  0.00     0.021 C 
BRANCH  24  25
ATOM     25  C   UNL     1       0.545  -2.967   0.303  1.00  0.00     0.002 C 
BRANCH  25  26
ATOM     26  C   UNL     1       1.134  -2.297  -0.943  1.00  0.00    -0.000 C 
BRANCH  26  27
ATOM     27  C   UNL     1       0.657  -0.868  -1.210  1.00  0.00    -0.003 C 
ATOM     28  C   UNL     1       1.047   0.113  -0.114  1.00  0.00     0.004 C 
ENDBRANCH  26  27
ENDBRANCH  25  26
ENDBRANCH  24  25
ENDBRANCH  23  24
ENDBRANCH  20  23
ENDBRANCH  18  19
ENDBRANCH  13  18
ENDBRANCH   6  12
ENDBRANCH   3   5
ENDBRANCH   1   3
BRANCH   1  29
ATOM     29  O   UNL     1      -3.849 -14.367   4.587  1.00  0.00    -0.463 OA
BRANCH  29  30
ATOM     30  C   UNL     1      -2.809 -15.329   4.839  1.00  0.00     0.261 C 
BRANCH  30  31
ATOM     31  C   UNL     1      -1.457 -14.822   4.335  1.00  0.00     0.202 C 
BRANCH  31  32
ATOM     32  O   UNL     1      -0.909 -13.707   5.036  1.00  0.00    -0.374 OA
BRANCH  32  33
ATOM     33  C   UNL     1      -1.448 -12.417   4.739  1.00  0.00     0.202 C 
BRANCH  33  34
ATOM     34  C   UNL     1      -0.979 -11.769   3.431  1.00  0.00     0.261 C 
BRANCH  34  35
ATOM     35  O   UNL     1      -1.496 -12.449   2.274  1.00  0.00    -0.460 OA
BRANCH  35  36
ATOM     36  C   UNL     1      -0.577 -13.118   1.540  1.00  0.00     0.338 C 
ATOM     37  O   UNL     1       0.628 -13.170   1.725  1.00  0.00    -0.246 OA
BRANCH  36  38
ATOM     38  C   UNL     1      -1.259 -13.968   0.546  1.00  0.00     0.060 A 
ATOM     39  C   UNL     1      -0.894 -15.320   0.486  1.00  0.00     0.016 A 
ATOM     40  C   UNL     1      -2.184 -13.442  -0.358  1.00  0.00     0.016 A 
ATOM     41  C   UNL     1      -1.415 -16.143  -0.511  1.00  0.00     0.010 A 
ATOM     42  C   UNL     1      -2.696 -14.265  -1.365  1.00  0.00     0.010 A 
ATOM     43  C   UNL     1      -2.288 -15.609  -1.466  1.00  0.00    -0.014 A 
BRANCH  43  44
ATOM     44  C   UNL     1      -2.650 -16.398  -2.667  1.00  0.00     0.031 A 
ATOM     45  C   UNL     1      -1.906 -16.145  -3.949  1.00  0.00     0.074 A 
ATOM     46  C   UNL     1      -3.630 -17.317  -2.625  1.00  0.00     0.049 A 
ATOM     47  N   UNL     1      -2.130 -16.623  -5.146  1.00  0.00    -0.248 NA
ATOM     48  C   UNL     1      -0.757 -15.227  -3.870  1.00  0.00     0.031 C 
ATOM     49  C   UNL     1      -4.384 -17.700  -1.433  1.00  0.00     0.029 A 
ATOM     50  N   UNL     1      -4.169 -18.084  -3.628  1.00  0.00    -0.354 N 
ATOM     51  C   UNL     1      -1.167 -16.048  -5.965  1.00  0.00     0.074 A 
ATOM     52  C   UNL     1      -0.362 -15.180  -5.134  1.00  0.00     0.031 C 
ATOM     53  C   UNL     1      -5.309 -18.612  -1.779  1.00  0.00     0.029 A 
ATOM     54  C   UNL     1      -5.238 -18.845  -3.220  1.00  0.00     0.049 A 
ATOM     55  H   UNL     1      -3.824 -18.089  -4.549  1.00  0.00     0.167 HD
ATOM     56  C   UNL     1      -0.973 -16.224  -7.293  1.00  0.00     0.031 A 
ATOM     57  C   UNL     1      -6.085 -19.609  -3.936  1.00  0.00     0.031 A 
ATOM     58  C   UNL     1      -1.776 -17.081  -8.121  1.00  0.00     0.049 A 
ATOM     59  C   UNL     1      -5.902 -19.724  -5.427  1.00  0.00     0.074 A 
ATOM     60  C   UNL     1      -1.647 -17.339  -9.475  1.00  0.00     0.029 A 
ATOM     61  N   UNL     1      -2.862 -17.815  -7.673  1.00  0.00    -0.354 N 
ATOM     62  N   UNL     1      -4.980 -19.188  -6.189  1.00  0.00    -0.248 NA
ATOM     63  C   UNL     1      -6.878 -20.548  -6.155  1.00  0.00     0.031 C 
ATOM     64  C   UNL     1      -2.688 -18.189  -9.857  1.00  0.00     0.029 A 
ATOM     65  C   UNL     1      -3.431 -18.504  -8.730  1.00  0.00     0.049 A 
ATOM     66  H   UNL     1      -3.182 -17.843  -6.742  1.00  0.00     0.167 HD
ATOM     67  C   UNL     1      -5.247 -19.633  -7.478  1.00  0.00     0.074 A 
ATOM     68  C   UNL     1      -6.412 -20.488  -7.396  1.00  0.00     0.031 C 
ATOM     69  C   UNL     1      -4.582 -19.361  -8.627  1.00  0.00     0.031 A 
BRANCH  56  70
ATOM     70  C   UNL     1       0.127 -15.437  -7.944  1.00  0.00    -0.014 A 
ATOM     71  C   UNL     1       1.476 -15.771  -7.753  1.00  0.00     0.009 A 
ATOM     72  C   UNL     1      -0.197 -14.372  -8.799  1.00  0.00     0.009 A 
ATOM     73  C   UNL     1       2.481 -15.036  -8.386  1.00  0.00     0.001 A 
ATOM     74  C   UNL     1       0.807 -13.655  -9.450  1.00  0.00     0.001 A 
ATOM     75  C   UNL     1       2.146 -13.983  -9.238  1.00  0.00     0.000 A 
ENDBRANCH  56  70
BRANCH  57  76
ATOM     76  C   UNL     1      -7.221 -20.293  -3.264  1.00  0.00    -0.014 A 
ATOM     77  C   UNL     1      -7.245 -21.689  -3.137  1.00  0.00     0.009 A 
ATOM     78  C   UNL     1      -8.301 -19.547  -2.765  1.00  0.00     0.009 A 
ATOM     79  C   UNL     1      -8.340 -22.327  -2.547  1.00  0.00     0.001 A 
ATOM     80  C   UNL     1      -9.381 -20.185  -2.152  1.00  0.00     0.001 A 
ATOM     81  C   UNL     1      -9.404 -21.574  -2.052  1.00  0.00     0.000 A 
ENDBRANCH  57  76
BRANCH  69  82
ATOM     82  C   UNL     1      -5.063 -20.027  -9.885  1.00  0.00    -0.014 A 
ATOM     83  C   UNL     1      -6.220 -19.589 -10.545  1.00  0.00     0.009 A 
ATOM     84  C   UNL     1      -4.300 -21.057 -10.456  1.00  0.00     0.009 A 
ATOM     85  C   UNL     1      -6.614 -20.184 -11.746  1.00  0.00     0.001 A 
ATOM     86  C   UNL     1      -4.681 -21.633 -11.668  1.00  0.00     0.001 A 
ATOM     87  C   UNL     1      -5.841 -21.200 -12.309  1.00  0.00     0.000 A 
ENDBRANCH  69  82
ENDBRANCH  43  44
ENDBRANCH  36  38
ENDBRANCH  35  36
ENDBRANCH  34  35
ENDBRANCH  33  34
ENDBRANCH  32  33
ENDBRANCH  31  32
ENDBRANCH  30  31
ENDBRANCH  29  30
ENDBRANCH   1  29
TORSDOF 23
