REMARK SMILES CC(C)[C@@H](NC(=O)[C@@H]1CC[C@H]2CCCC[C@@H]2[NH2+]1)C(=O)OCCOCCOC(=O)c1ccc(-c2c3nc(c(-c4ccccc4)c4ccc([nH]4)c(-c4ccccc4)c4nc(c(-c5ccccc5)c5ccc2[nH]5)C=C4)C=C3)cc1
REMARK SMILES IDX 23 1 22 2 21 3 20 4 18 5 19 6 4 7 2 8 1 9 3 10 5 11 6 12
REMARK SMILES IDX 7 14 8 15 9 16 17 17 10 18 16 19 11 22 15 23 12 24 14 25
REMARK SMILES IDX 13 26 24 27 25 28 26 29 27 30 28 31 29 32 30 33 76 34 31 35
REMARK SMILES IDX 75 36 32 37 33 38 34 39 69 40 35 41 74 42 68 43 70 44 36 45
REMARK SMILES IDX 73 46 67 47 66 48 37 50 59 51 44 52 58 53 45 54 48 55 57 56
REMARK SMILES IDX 71 57 46 58 47 59 56 61 72 62 49 63 38 64 39 65 43 66 40 67
REMARK SMILES IDX 42 68 41 69 60 70 61 71 65 72 62 73 64 74 63 75 50 76 51 77
REMARK SMILES IDX 55 78 52 79 54 80 53 81
REMARK H PARENT 5 13 17 20 17 21 70 49 48 60
REMARK Flexibility Score: inf
ROOT
ATOM      1  O   UNL     1      -3.161  -4.253  -0.157  1.00  0.00    -0.374 OA
ENDROOT
BRANCH   1   2
ATOM      2  C   UNL     1      -3.706  -3.016  -0.617  1.00  0.00     0.202 C 
BRANCH   2   3
ATOM      3  C   UNL     1      -2.662  -1.926  -0.854  1.00  0.00     0.261 C 
BRANCH   3   4
ATOM      4  O   UNL     1      -2.046  -2.060  -2.159  1.00  0.00    -0.462 OA
BRANCH   4   5
ATOM      5  C   UNL     1      -1.023  -1.187  -2.361  1.00  0.00     0.328 C 
ATOM      6  O   UNL     1      -0.629  -0.407  -1.496  1.00  0.00    -0.250 OA
BRANCH   5   7
ATOM      7  C   UNL     1      -0.425  -1.188  -3.782  1.00  0.00     0.195 C 
BRANCH   7   8
ATOM      8  C   UNL     1      -0.712  -2.264  -4.865  1.00  0.00     0.017 C 
ATOM      9  C   UNL     1       0.363  -2.212  -5.973  1.00  0.00     0.010 C 
ATOM     10  C   UNL     1      -0.756  -3.696  -4.338  1.00  0.00     0.010 C 
ENDBRANCH   7   8
BRANCH   7  11
ATOM     11  N   UNL     1      -0.376   0.172  -4.363  1.00  0.00    -0.337 N 
ATOM     12  C   UNL     1      -1.226   1.127  -4.803  1.00  0.00     0.278 C 
ATOM     13  H   UNL     1       0.557   0.472  -4.459  1.00  0.00     0.164 HD
ATOM     14  O   UNL     1      -0.671   1.939  -5.564  1.00  0.00    -0.268 OA
BRANCH  12  15
ATOM     15  C   UNL     1      -2.702   1.393  -4.349  1.00  0.00     0.272 C 
ATOM     16  C   UNL     1      -3.560   0.337  -3.677  1.00  0.00     0.076 C 
ATOM     17  N   UNL     1      -3.466   1.979  -5.483  1.00  0.00    -0.333 N 
ATOM     18  C   UNL     1      -3.993  -0.801  -4.596  1.00  0.00     0.016 C 
ATOM     19  C   UNL     1      -4.301   1.039  -6.243  1.00  0.00     0.186 C 
ATOM     20  H   UNL     1      -2.796   2.397  -6.130  1.00  0.00     0.347 HD
ATOM     21  H   UNL     1      -4.112   2.650  -5.066  1.00  0.00     0.347 HD
ATOM     22  C   UNL     1      -3.824  -0.412  -6.069  1.00  0.00     0.048 C 
ATOM     23  C   UNL     1      -4.325   1.476  -7.709  1.00  0.00     0.065 C 
ATOM     24  C   UNL     1      -4.536  -1.398  -6.992  1.00  0.00     0.010 C 
ATOM     25  C   UNL     1      -5.055   0.468  -8.594  1.00  0.00     0.006 C 
ATOM     26  C   UNL     1      -4.475  -0.934  -8.443  1.00  0.00     0.001 C 
ENDBRANCH  12  15
ENDBRANCH   7  11
ENDBRANCH   5   7
ENDBRANCH   4   5
ENDBRANCH   3   4
ENDBRANCH   2   3
ENDBRANCH   1   2
BRANCH   1  27
ATOM     27  C   UNL     1      -2.283  -4.930  -1.049  1.00  0.00     0.202 C 
BRANCH  27  28
ATOM     28  C   UNL     1      -2.982  -5.799  -2.099  1.00  0.00     0.261 C 
BRANCH  28  29
ATOM     29  O   UNL     1      -3.825  -5.058  -3.006  1.00  0.00    -0.460 OA
BRANCH  29  30
ATOM     30  C   UNL     1      -5.154  -5.239  -2.815  1.00  0.00     0.338 C 
ATOM     31  O   UNL     1      -5.692  -5.899  -1.943  1.00  0.00    -0.246 OA
BRANCH  30  32
ATOM     32  C   UNL     1      -5.949  -4.482  -3.804  1.00  0.00     0.060 A 
ATOM     33  C   UNL     1      -6.974  -3.655  -3.328  1.00  0.00     0.016 A 
ATOM     34  C   UNL     1      -5.838  -4.754  -5.169  1.00  0.00     0.016 A 
ATOM     35  C   UNL     1      -7.942  -3.161  -4.206  1.00  0.00     0.010 A 
ATOM     36  C   UNL     1      -6.815  -4.264  -6.046  1.00  0.00     0.010 A 
ATOM     37  C   UNL     1      -7.901  -3.510  -5.562  1.00  0.00    -0.014 A 
BRANCH  37  38
ATOM     38  C   UNL     1      -9.078  -3.272  -6.439  1.00  0.00     0.031 A 
ATOM     39  C   UNL     1     -10.024  -4.414  -6.712  1.00  0.00     0.074 A 
ATOM     40  C   UNL     1      -9.326  -2.068  -6.985  1.00  0.00     0.049 A 
ATOM     41  N   UNL     1     -11.040  -4.472  -7.535  1.00  0.00    -0.248 NA
ATOM     42  C   UNL     1      -9.797  -5.651  -5.947  1.00  0.00     0.031 C 
ATOM     43  C   UNL     1      -8.559  -0.850  -6.745  1.00  0.00     0.029 A 
ATOM     44  N   UNL     1     -10.300  -1.684  -7.875  1.00  0.00    -0.354 N 
ATOM     45  C   UNL     1     -11.564  -5.752  -7.398  1.00  0.00     0.074 A 
ATOM     46  C   UNL     1     -10.745  -6.443  -6.426  1.00  0.00     0.031 C 
ATOM     47  C   UNL     1      -9.073   0.143  -7.493  1.00  0.00     0.029 A 
ATOM     48  C   UNL     1     -10.183  -0.380  -8.288  1.00  0.00     0.049 A 
ATOM     49  H   UNL     1     -11.013  -2.287  -8.188  1.00  0.00     0.167 HD
ATOM     50  C   UNL     1     -12.633  -6.306  -8.019  1.00  0.00     0.031 A 
ATOM     51  C   UNL     1     -10.871   0.307  -9.221  1.00  0.00     0.031 A 
ATOM     52  C   UNL     1     -13.453  -5.636  -8.990  1.00  0.00     0.049 A 
ATOM     53  C   UNL     1     -11.982  -0.364  -9.985  1.00  0.00     0.074 A 
ATOM     54  C   UNL     1     -14.551  -6.128  -9.677  1.00  0.00     0.029 A 
ATOM     55  N   UNL     1     -13.268  -4.331  -9.412  1.00  0.00    -0.354 N 
ATOM     56  N   UNL     1     -12.456  -1.579  -9.858  1.00  0.00    -0.248 NA
ATOM     57  C   UNL     1     -12.652   0.436 -11.023  1.00  0.00     0.031 C 
ATOM     58  C   UNL     1     -15.005  -5.131 -10.547  1.00  0.00     0.029 A 
ATOM     59  C   UNL     1     -14.218  -4.006 -10.365  1.00  0.00     0.049 A 
ATOM     60  H   UNL     1     -12.565  -3.725  -9.084  1.00  0.00     0.167 HD
ATOM     61  C   UNL     1     -13.501  -1.675 -10.770  1.00  0.00     0.074 A 
ATOM     62  C   UNL     1     -13.592  -0.399 -11.446  1.00  0.00     0.031 C 
ATOM     63  C   UNL     1     -14.315  -2.729 -11.019  1.00  0.00     0.031 A 
BRANCH  50  64
ATOM     64  C   UNL     1     -12.959  -7.733  -7.687  1.00  0.00    -0.014 A 
ATOM     65  C   UNL     1     -13.575  -8.073  -6.474  1.00  0.00     0.009 A 
ATOM     66  C   UNL     1     -12.685  -8.744  -8.621  1.00  0.00     0.009 A 
ATOM     67  C   UNL     1     -13.888  -9.405  -6.192  1.00  0.00     0.001 A 
ATOM     68  C   UNL     1     -13.019 -10.070  -8.346  1.00  0.00     0.001 A 
ATOM     69  C   UNL     1     -13.614 -10.401  -7.129  1.00  0.00     0.000 A 
ENDBRANCH  50  64
BRANCH  51  70
ATOM     70  C   UNL     1     -10.512   1.717  -9.520  1.00  0.00    -0.014 A 
ATOM     71  C   UNL     1     -11.370   2.765  -9.152  1.00  0.00     0.009 A 
ATOM     72  C   UNL     1      -9.325   2.018 -10.207  1.00  0.00     0.009 A 
ATOM     73  C   UNL     1     -11.058   4.084  -9.490  1.00  0.00     0.001 A 
ATOM     74  C   UNL     1      -9.005   3.340 -10.521  1.00  0.00     0.001 A 
ATOM     75  C   UNL     1      -9.875   4.370 -10.170  1.00  0.00     0.000 A 
ENDBRANCH  51  70
BRANCH  63  76
ATOM     76  C   UNL     1     -15.417  -2.540 -12.021  1.00  0.00    -0.014 A 
ATOM     77  C   UNL     1     -15.159  -2.542 -13.400  1.00  0.00     0.009 A 
ATOM     78  C   UNL     1     -16.744  -2.428 -11.576  1.00  0.00     0.009 A 
ATOM     79  C   UNL     1     -16.208  -2.416 -14.313  1.00  0.00     0.001 A 
ATOM     80  C   UNL     1     -17.793  -2.324 -12.492  1.00  0.00     0.001 A 
ATOM     81  C   UNL     1     -17.523  -2.314 -13.859  1.00  0.00     0.000 A 
ENDBRANCH  63  76
ENDBRANCH  37  38
ENDBRANCH  30  32
ENDBRANCH  29  30
ENDBRANCH  28  29
ENDBRANCH  27  28
ENDBRANCH   1  27
TORSDOF 17
