REMARK SMILES Cc1ccc(Cl)c(Nc2ccccc2C(=O)NCC(=O)OCCOCCOC(=O)c2ccc(-c3c4nc(c(-c5ccccc5)c5ccc([nH]5)c(-c5ccccc5)c5nc(c(-c6ccccc6)c6ccc3[nH]6)C=C5)C=C4)cc2)c1Cl
REMARK SMILES IDX 23 1 22 2 21 3 19 4 20 5 18 6 17 7 15 8 16 9 14 11 9 12
REMARK SMILES IDX 10 13 11 14 13 15 12 16 8 17 7 19 1 20 2 21 3 22 78 23 4 24
REMARK SMILES IDX 79 25 5 26 6 27 24 28 25 29 26 30 27 31 28 32 29 33 30 34
REMARK SMILES IDX 31 35 77 36 32 37 76 38 33 39 34 40 35 41 70 42 36 43 75 44
REMARK SMILES IDX 69 45 71 46 37 47 74 48 68 49 67 50 38 52 60 53 45 54 59 55
REMARK SMILES IDX 46 56 49 57 58 58 72 59 47 60 48 61 57 63 73 64 50 65 39 66
REMARK SMILES IDX 40 67 44 68 41 69 43 70 42 71 61 72 62 73 66 74 63 75 65 76
REMARK SMILES IDX 64 77 51 78 52 79 56 80 53 81 55 82 54 83
REMARK H PARENT 17 10 8 18 71 51 49 62
REMARK Flexibility Score: inf
ROOT
ATOM      1  C   UNL     1      -4.981  -1.205   3.216  1.00  0.00     0.202 C 
ENDROOT
BRANCH   1   2
ATOM      2  C   UNL     1      -4.270  -2.252   2.345  1.00  0.00     0.261 C 
BRANCH   2   3
ATOM      3  O   UNL     1      -2.849  -2.173   2.529  1.00  0.00    -0.462 OA
BRANCH   3   4
ATOM      4  C   UNL     1      -2.099  -2.118   1.394  1.00  0.00     0.325 C 
ATOM      5  O   UNL     1      -2.472  -2.464   0.282  1.00  0.00    -0.250 OA
BRANCH   4   6
ATOM      6  C   UNL     1      -0.788  -1.410   1.693  1.00  0.00     0.239 C 
BRANCH   6   7
ATOM      7  N   UNL     1       0.305  -2.140   2.270  1.00  0.00    -0.341 N 
ATOM      8  C   UNL     1       1.506  -2.316   1.628  1.00  0.00     0.253 C 
ATOM      9  O   UNL     1       2.529  -1.948   2.205  1.00  0.00    -0.269 OA
ATOM     10  H   UNL     1       0.189  -2.531   3.166  1.00  0.00     0.164 HD
BRANCH   8  11
ATOM     11  C   UNL     1       1.591  -3.257   0.481  1.00  0.00     0.063 A 
ATOM     12  C   UNL     1       1.004  -3.160  -0.795  1.00  0.00     0.051 A 
ATOM     13  C   UNL     1       1.136  -4.284  -1.646  1.00  0.00     0.027 A 
ATOM     14  C   UNL     1       1.862  -5.423  -1.286  1.00  0.00     0.002 A 
ATOM     15  C   UNL     1       2.345  -4.406   0.823  1.00  0.00     0.016 A 
ATOM     16  C   UNL     1       2.489  -5.475  -0.053  1.00  0.00     0.001 A 
BRANCH  12  17
ATOM     17  N   UNL     1       0.374  -2.051  -1.398  1.00  0.00    -0.352 N 
ATOM     18  H   UNL     1      -0.352  -2.325  -2.004  1.00  0.00     0.167 HD
BRANCH  17  19
ATOM     19  C   UNL     1       0.522  -0.642  -1.351  1.00  0.00     0.077 A 
ATOM     20  C   UNL     1       2.787   2.134   0.037  1.00  0.00     0.046 C 
ATOM     21  C   UNL     1       1.605   1.412  -0.552  1.00  0.00    -0.030 A 
ATOM     22  C   UNL     1       0.414   2.124  -0.756  1.00  0.00     0.006 A 
ATOM     23  C   UNL     1       1.667   0.041  -0.894  1.00  0.00     0.069 A 
ATOM     24  C   UNL     1      -0.682   1.504  -1.341  1.00  0.00     0.023 A 
ATOM     25  Cl  UNL     1       3.216  -0.746  -0.876  1.00  0.00    -0.082 Cl
ATOM     26  C   UNL     1      -0.621   0.145  -1.649  1.00  0.00     0.066 A 
ATOM     27  Cl  UNL     1      -2.023  -0.566  -2.381  1.00  0.00    -0.082 Cl
ENDBRANCH  17  19
ENDBRANCH  12  17
ENDBRANCH   8  11
ENDBRANCH   6   7
ENDBRANCH   4   6
ENDBRANCH   3   4
ENDBRANCH   2   3
ENDBRANCH   1   2
BRANCH   1  28
ATOM     28  O   UNL     1      -4.766   0.171   2.906  1.00  0.00    -0.374 OA
BRANCH  28  29
ATOM     29  C   UNL     1      -3.442   0.693   2.990  1.00  0.00     0.202 C 
BRANCH  29  30
ATOM     30  C   UNL     1      -2.717   0.624   4.349  1.00  0.00     0.261 C 
BRANCH  30  31
ATOM     31  O   UNL     1      -2.495  -0.725   4.810  1.00  0.00    -0.460 OA
BRANCH  31  32
ATOM     32  C   UNL     1      -2.933  -0.984   6.063  1.00  0.00     0.338 C 
ATOM     33  O   UNL     1      -3.377  -0.180   6.874  1.00  0.00    -0.246 OA
BRANCH  32  34
ATOM     34  C   UNL     1      -2.992  -2.436   6.305  1.00  0.00     0.060 A 
ATOM     35  C   UNL     1      -4.260  -3.026   6.393  1.00  0.00     0.016 A 
ATOM     36  C   UNL     1      -1.845  -3.176   6.600  1.00  0.00     0.016 A 
ATOM     37  C   UNL     1      -4.389  -4.348   6.809  1.00  0.00     0.010 A 
ATOM     38  C   UNL     1      -1.979  -4.501   7.038  1.00  0.00     0.010 A 
ATOM     39  C   UNL     1      -3.254  -5.078   7.181  1.00  0.00    -0.014 A 
BRANCH  39  40
ATOM     40  C   UNL     1      -3.450  -6.370   7.882  1.00  0.00     0.031 A 
ATOM     41  C   UNL     1      -3.469  -6.390   9.386  1.00  0.00     0.074 A 
ATOM     42  C   UNL     1      -3.707  -7.495   7.192  1.00  0.00     0.049 A 
ATOM     43  N   UNL     1      -3.721  -7.383  10.200  1.00  0.00    -0.248 NA
ATOM     44  C   UNL     1      -3.175  -5.116  10.061  1.00  0.00     0.031 C 
ATOM     45  C   UNL     1      -3.763  -7.600   5.736  1.00  0.00     0.029 A 
ATOM     46  N   UNL     1      -3.985  -8.764   7.636  1.00  0.00    -0.354 N 
ATOM     47  C   UNL     1      -3.626  -6.853  11.481  1.00  0.00     0.074 A 
ATOM     48  C   UNL     1      -3.258  -5.461  11.337  1.00  0.00     0.031 C 
ATOM     49  C   UNL     1      -4.059  -8.869   5.404  1.00  0.00     0.029 A 
ATOM     50  C   UNL     1      -4.196  -9.664   6.622  1.00  0.00     0.049 A 
ATOM     51  H   UNL     1      -4.028  -9.004   8.589  1.00  0.00     0.167 HD
ATOM     52  C   UNL     1      -3.835  -7.464  12.672  1.00  0.00     0.031 A 
ATOM     53  C   UNL     1      -4.465 -10.983   6.672  1.00  0.00     0.031 A 
ATOM     54  C   UNL     1      -4.169  -8.855  12.824  1.00  0.00     0.049 A 
ATOM     55  C   UNL     1      -4.623 -11.659   8.007  1.00  0.00     0.074 A 
ATOM     56  C   UNL     1      -4.389  -9.570  13.988  1.00  0.00     0.029 A 
ATOM     57  N   UNL     1      -4.320  -9.747  11.773  1.00  0.00    -0.354 N 
ATOM     58  N   UNL     1      -4.551 -11.141   9.209  1.00  0.00    -0.248 NA
ATOM     59  C   UNL     1      -4.915 -13.099   7.987  1.00  0.00     0.031 C 
ATOM     60  C   UNL     1      -4.626 -10.906  13.643  1.00  0.00     0.029 A 
ATOM     61  C   UNL     1      -4.608 -11.011  12.261  1.00  0.00     0.049 A 
ATOM     62  H   UNL     1      -4.235  -9.516  10.820  1.00  0.00     0.167 HD
ATOM     63  C   UNL     1      -4.808 -12.186  10.088  1.00  0.00     0.074 A 
ATOM     64  C   UNL     1      -5.057 -13.362   9.279  1.00  0.00     0.031 C 
ATOM     65  C   UNL     1      -4.837 -12.174  11.444  1.00  0.00     0.031 A 
BRANCH  52  66
ATOM     66  C   UNL     1      -3.666  -6.624  13.907  1.00  0.00    -0.014 A 
ATOM     67  C   UNL     1      -4.604  -5.636  14.249  1.00  0.00     0.009 A 
ATOM     68  C   UNL     1      -2.553  -6.821  14.739  1.00  0.00     0.009 A 
ATOM     69  C   UNL     1      -4.408  -4.835  15.377  1.00  0.00     0.001 A 
ATOM     70  C   UNL     1      -2.374  -6.037  15.879  1.00  0.00     0.001 A 
ATOM     71  C   UNL     1      -3.294  -5.038  16.191  1.00  0.00     0.000 A 
ENDBRANCH  52  66
BRANCH  53  72
ATOM     72  C   UNL     1      -4.593 -11.756   5.410  1.00  0.00    -0.014 A 
ATOM     73  C   UNL     1      -5.839 -12.235   4.980  1.00  0.00     0.009 A 
ATOM     74  C   UNL     1      -3.457 -12.019   4.627  1.00  0.00     0.009 A 
ATOM     75  C   UNL     1      -5.942 -12.976   3.801  1.00  0.00     0.001 A 
ATOM     76  C   UNL     1      -3.567 -12.738   3.436  1.00  0.00     0.001 A 
ATOM     77  C   UNL     1      -4.808 -13.222   3.027  1.00  0.00     0.000 A 
ENDBRANCH  53  72
BRANCH  65  78
ATOM     78  C   UNL     1      -5.170 -13.469  12.132  1.00  0.00    -0.014 A 
ATOM     79  C   UNL     1      -4.255 -14.533  12.166  1.00  0.00     0.009 A 
ATOM     80  C   UNL     1      -6.411 -13.619  12.771  1.00  0.00     0.009 A 
ATOM     81  C   UNL     1      -4.592 -15.735  12.792  1.00  0.00     0.001 A 
ATOM     82  C   UNL     1      -6.734 -14.812  13.419  1.00  0.00     0.001 A 
ATOM     83  C   UNL     1      -5.830 -15.873  13.419  1.00  0.00     0.000 A 
ENDBRANCH  65  78
ENDBRANCH  39  40
ENDBRANCH  32  34
ENDBRANCH  31  32
ENDBRANCH  30  31
ENDBRANCH  29  30
ENDBRANCH  28  29
ENDBRANCH   1  28
TORSDOF 18
