REMARK SMILES CC(C)C(=O)Nc1ccc(Cl)c(C(=O)OCCOCCOC(=O)c2ccc(-c3c4nc(c(-c5ccccc5)c5ccc([nH]5)c(-c5ccccc5)c5nc(c(-c6ccccc6)c6ccc3[nH]6)C=C5)C=C4)cc2)c1
REMARK SMILES IDX 18 1 17 2 16 3 15 4 13 5 14 6 12 7 7 8 8 9 72 10 9 11 10 12
REMARK SMILES IDX 11 13 6 14 4 15 5 16 2 18 1 19 3 20 19 21 20 22 21 23 22 24
REMARK SMILES IDX 23 25 24 26 25 27 71 28 26 29 70 30 27 31 28 32 29 33 64 34
REMARK SMILES IDX 30 35 69 36 63 37 65 38 31 39 68 40 62 41 61 42 32 44 54 45
REMARK SMILES IDX 39 46 53 47 40 48 43 49 52 50 66 51 41 52 42 53 51 55 67 56
REMARK SMILES IDX 44 57 33 58 34 59 38 60 35 61 37 62 36 63 55 64 56 65 60 66
REMARK SMILES IDX 57 67 59 68 58 69 45 70 46 71 50 72 47 73 49 74 48 75
REMARK H PARENT 6 17 65 43 43 54
REMARK Flexibility Score: inf
ROOT
ATOM      1  O   UNL     1      -3.322  -6.263  -4.669  1.00  0.00    -0.374 OA
ENDROOT
BRANCH   1   2
ATOM      2  C   UNL     1      -2.150  -6.944  -5.124  1.00  0.00     0.202 C 
BRANCH   2   3
ATOM      3  C   UNL     1      -0.979  -6.045  -5.522  1.00  0.00     0.261 C 
BRANCH   3   4
ATOM      4  O   UNL     1      -0.434  -5.432  -4.344  1.00  0.00    -0.460 OA
BRANCH   4   5
ATOM      5  C   UNL     1      -0.253  -4.098  -4.400  1.00  0.00     0.339 C 
ATOM      6  O   UNL     1      -0.340  -3.384  -5.391  1.00  0.00    -0.246 OA
BRANCH   5   7
ATOM      7  C   UNL     1      -0.174  -3.551  -3.032  1.00  0.00     0.080 A 
ATOM      8  C   UNL     1      -0.882  -1.762  -1.562  1.00  0.00     0.042 A 
ATOM      9  C   UNL     1      -0.149  -2.327  -0.522  1.00  0.00     0.028 A 
ATOM     10  C   UNL     1      -0.954  -2.407  -2.792  1.00  0.00     0.043 A 
ATOM     11  C   UNL     1       0.596  -3.488  -0.743  1.00  0.00     0.023 A 
ATOM     12  C   UNL     1       0.610  -4.091  -2.006  1.00  0.00     0.055 A 
ATOM     13  Cl  UNL     1       1.650  -5.452  -2.217  1.00  0.00    -0.083 Cl
BRANCH   8  14
ATOM     14  N   UNL     1      -1.569  -0.563  -1.395  1.00  0.00    -0.326 N 
ATOM     15  C   UNL     1      -1.065   0.681  -1.137  1.00  0.00     0.226 C 
ATOM     16  O   UNL     1      -1.875   1.591  -0.929  1.00  0.00    -0.274 OA
ATOM     17  H   UNL     1      -2.549  -0.619  -1.472  1.00  0.00     0.169 HD
BRANCH  15  18
ATOM     18  C   UNL     1       0.435   0.998  -1.208  1.00  0.00     0.072 C 
ATOM     19  C   UNL     1       1.252   0.509  -0.022  1.00  0.00     0.018 C 
ATOM     20  C   UNL     1       1.067   0.619  -2.546  1.00  0.00     0.018 C 
ENDBRANCH  15  18
ENDBRANCH   8  14
ENDBRANCH   5   7
ENDBRANCH   4   5
ENDBRANCH   3   4
ENDBRANCH   2   3
ENDBRANCH   1   2
BRANCH   1  21
ATOM     21  C   UNL     1      -3.299  -5.711  -3.353  1.00  0.00     0.202 C 
BRANCH  21  22
ATOM     22  C   UNL     1      -3.539  -6.688  -2.196  1.00  0.00     0.261 C 
BRANCH  22  23
ATOM     23  O   UNL     1      -2.498  -7.673  -2.082  1.00  0.00    -0.460 OA
BRANCH  23  24
ATOM     24  C   UNL     1      -2.859  -8.921  -2.463  1.00  0.00     0.338 C 
ATOM     25  O   UNL     1      -3.965  -9.296  -2.825  1.00  0.00    -0.246 OA
BRANCH  24  26
ATOM     26  C   UNL     1      -1.672  -9.789  -2.547  1.00  0.00     0.060 A 
ATOM     27  C   UNL     1      -1.457 -10.476  -3.749  1.00  0.00     0.016 A 
ATOM     28  C   UNL     1      -0.833  -9.994  -1.450  1.00  0.00     0.016 A 
ATOM     29  C   UNL     1      -0.427 -11.408  -3.845  1.00  0.00     0.010 A 
ATOM     30  C   UNL     1       0.196 -10.937  -1.546  1.00  0.00     0.010 A 
ATOM     31  C   UNL     1       0.381 -11.672  -2.732  1.00  0.00    -0.014 A 
BRANCH  31  32
ATOM     32  C   UNL     1       1.331 -12.808  -2.771  1.00  0.00     0.031 A 
ATOM     33  C   UNL     1       0.948 -14.109  -2.122  1.00  0.00     0.074 A 
ATOM     34  C   UNL     1       2.516 -12.690  -3.395  1.00  0.00     0.049 A 
ATOM     35  N   UNL     1       1.635 -15.219  -2.021  1.00  0.00    -0.248 NA
ATOM     36  C   UNL     1      -0.384 -14.165  -1.500  1.00  0.00     0.031 C 
ATOM     37  C   UNL     1       2.990 -11.494  -4.090  1.00  0.00     0.029 A 
ATOM     38  N   UNL     1       3.539 -13.593  -3.537  1.00  0.00    -0.354 N 
ATOM     39  C   UNL     1       0.825 -16.099  -1.314  1.00  0.00     0.074 A 
ATOM     40  C   UNL     1      -0.392 -15.387  -0.989  1.00  0.00     0.031 C 
ATOM     41  C   UNL     1       4.219 -11.735  -4.577  1.00  0.00     0.029 A 
ATOM     42  C   UNL     1       4.628 -13.087  -4.202  1.00  0.00     0.049 A 
ATOM     43  H   UNL     1       3.497 -14.515  -3.195  1.00  0.00     0.167 HD
ATOM     44  C   UNL     1       1.071 -17.385  -0.969  1.00  0.00     0.031 A 
ATOM     45  C   UNL     1       5.827 -13.643  -4.460  1.00  0.00     0.031 A 
ATOM     46  C   UNL     1       2.285 -18.091  -1.283  1.00  0.00     0.049 A 
ATOM     47  C   UNL     1       6.101 -15.053  -4.015  1.00  0.00     0.074 A 
ATOM     48  C   UNL     1       2.614 -19.407  -1.005  1.00  0.00     0.029 A 
ATOM     49  N   UNL     1       3.374 -17.535  -1.934  1.00  0.00    -0.354 N 
ATOM     50  N   UNL     1       5.312 -15.889  -3.383  1.00  0.00    -0.248 NA
ATOM     51  C   UNL     1       7.430 -15.600  -4.327  1.00  0.00     0.031 C 
ATOM     52  C   UNL     1       3.926 -19.629  -1.436  1.00  0.00     0.029 A 
ATOM     53  C   UNL     1       4.391 -18.470  -2.037  1.00  0.00     0.049 A 
ATOM     54  H   UNL     1       3.419 -16.612  -2.273  1.00  0.00     0.167 HD
ATOM     55  C   UNL     1       6.038 -17.066  -3.244  1.00  0.00     0.074 A 
ATOM     56  C   UNL     1       7.325 -16.840  -3.869  1.00  0.00     0.031 C 
ATOM     57  C   UNL     1       5.670 -18.230  -2.655  1.00  0.00     0.031 A 
BRANCH  44  58
ATOM     58  C   UNL     1       0.016 -18.098  -0.169  1.00  0.00    -0.014 A 
ATOM     59  C   UNL     1      -1.205 -18.485  -0.745  1.00  0.00     0.009 A 
ATOM     60  C   UNL     1       0.260 -18.408   1.178  1.00  0.00     0.009 A 
ATOM     61  C   UNL     1      -2.175 -19.132   0.025  1.00  0.00     0.001 A 
ATOM     62  C   UNL     1      -0.700 -19.081   1.937  1.00  0.00     0.001 A 
ATOM     63  C   UNL     1      -1.920 -19.433   1.362  1.00  0.00     0.000 A 
ENDBRANCH  44  58
BRANCH  45  64
ATOM     64  C   UNL     1       6.870 -12.852  -5.162  1.00  0.00    -0.014 A 
ATOM     65  C   UNL     1       7.240 -13.159  -6.480  1.00  0.00     0.009 A 
ATOM     66  C   UNL     1       7.500 -11.778  -4.513  1.00  0.00     0.009 A 
ATOM     67  C   UNL     1       8.233 -12.419  -7.126  1.00  0.00     0.001 A 
ATOM     68  C   UNL     1       8.473 -11.023  -5.170  1.00  0.00     0.001 A 
ATOM     69  C   UNL     1       8.844 -11.349  -6.473  1.00  0.00     0.000 A 
ENDBRANCH  45  64
BRANCH  57  70
ATOM     70  C   UNL     1       6.659 -19.362  -2.684  1.00  0.00    -0.014 A 
ATOM     71  C   UNL     1       7.811 -19.346  -1.882  1.00  0.00     0.009 A 
ATOM     72  C   UNL     1       6.409 -20.482  -3.493  1.00  0.00     0.009 A 
ATOM     73  C   UNL     1       8.708 -20.416  -1.914  1.00  0.00     0.001 A 
ATOM     74  C   UNL     1       7.293 -21.562  -3.501  1.00  0.00     0.001 A 
ATOM     75  C   UNL     1       8.446 -21.524  -2.719  1.00  0.00     0.000 A 
ENDBRANCH  57  70
ENDBRANCH  31  32
ENDBRANCH  24  26
ENDBRANCH  23  24
ENDBRANCH  22  23
ENDBRANCH  21  22
ENDBRANCH   1  21
TORSDOF 16
