REMARK SMILES CS(=O)(=O)CCC(=O)N1[C@@H](C(=O)OCCOCCOC(=O)c2ccc(-c3c4nc(c(-c5ccccc5)c5ccc([nH]5)c(-c5ccccc5)c5nc(c(-c6ccccc6)c6ccc3[nH]6)C=C5)C=C4)cc2)C[C@@H]2CCCC[C@@H]21
REMARK SMILES IDX 15 1 14 2 13 3 11 4 12 5 10 6 9 7 76 8 70 9 71 10 75 11
REMARK SMILES IDX 72 12 74 13 73 14 7 15 8 16 6 17 5 18 2 19 1 20 3 21 4 22
REMARK SMILES IDX 16 23 17 24 18 25 19 26 20 27 21 28 22 29 23 30 69 31 24 32
REMARK SMILES IDX 68 33 25 34 26 35 27 36 62 37 28 38 67 39 61 40 63 41 29 42
REMARK SMILES IDX 66 43 60 44 59 45 30 47 52 48 37 49 51 50 38 51 41 52 50 53
REMARK SMILES IDX 64 54 39 55 40 56 49 58 65 59 42 60 31 61 32 62 36 63 33 64
REMARK SMILES IDX 35 65 34 66 53 67 54 68 58 69 55 70 57 71 56 72 43 73 44 74
REMARK SMILES IDX 48 75 45 76 47 77 46 78
REMARK H PARENT 63 46 41 57
REMARK Flexibility Score: inf
ROOT
ATOM      1  C   UNL     1      -3.627  -2.521  -3.472  1.00  0.00     0.202 C 
ENDROOT
BRANCH   1   2
ATOM      2  C   UNL     1      -2.142  -2.696  -3.806  1.00  0.00     0.261 C 
BRANCH   2   3
ATOM      3  O   UNL     1      -1.258  -1.871  -3.018  1.00  0.00    -0.462 OA
BRANCH   3   4
ATOM      4  C   UNL     1      -0.438  -1.039  -3.724  1.00  0.00     0.328 C 
ATOM      5  O   UNL     1      -0.502  -0.871  -4.938  1.00  0.00    -0.250 OA
BRANCH   4   6
ATOM      6  C   UNL     1       0.555  -0.256  -2.848  1.00  0.00     0.195 C 
ATOM      7  N   UNL     1       0.633  -0.627  -1.431  1.00  0.00    -0.326 N 
ATOM      8  C   UNL     1       0.793   0.572  -0.623  1.00  0.00     0.089 C 
ATOM      9  C   UNL     1       0.188   1.256  -2.827  1.00  0.00     0.043 C 
ATOM     10  C   UNL     1      -0.094   1.570  -1.347  1.00  0.00     0.014 C 
ATOM     11  C   UNL     1       2.241   1.099  -0.595  1.00  0.00     0.025 C 
ATOM     12  C   UNL     1       0.034   3.013  -0.875  1.00  0.00     0.006 C 
ATOM     13  C   UNL     1       2.289   2.439   0.128  1.00  0.00     0.002 C 
ATOM     14  C   UNL     1       1.459   3.481  -0.615  1.00  0.00     0.000 C 
BRANCH   7  15
ATOM     15  C   UNL     1       1.149  -1.843  -1.039  1.00  0.00     0.224 C 
ATOM     16  O   UNL     1       2.187  -2.308  -1.499  1.00  0.00    -0.275 OA
BRANCH  15  17
ATOM     17  C   UNL     1       0.248  -2.653  -0.123  1.00  0.00     0.116 C 
BRANCH  17  18
ATOM     18  C   UNL     1       0.893  -3.081   1.183  1.00  0.00     0.146 C 
BRANCH  18  19
ATOM     19  S   UNL     1       0.756  -1.864   2.485  1.00  0.00     0.147 S 
ATOM     20  C   UNL     1       2.238  -0.901   2.322  1.00  0.00     0.158 C 
ATOM     21  O   UNL     1       0.840  -2.559   3.755  1.00  0.00    -0.229 OA
ATOM     22  O   UNL     1      -0.382  -1.010   2.202  1.00  0.00    -0.229 OA
ENDBRANCH  18  19
ENDBRANCH  17  18
ENDBRANCH  15  17
ENDBRANCH   7  15
ENDBRANCH   4   6
ENDBRANCH   3   4
ENDBRANCH   2   3
ENDBRANCH   1   2
BRANCH   1  23
ATOM     23  O   UNL     1      -4.244  -1.260  -3.702  1.00  0.00    -0.374 OA
BRANCH  23  24
ATOM     24  C   UNL     1      -3.687  -0.104  -3.101  1.00  0.00     0.202 C 
BRANCH  24  25
ATOM     25  C   UNL     1      -3.600  -0.018  -1.574  1.00  0.00     0.261 C 
BRANCH  25  26
ATOM     26  O   UNL     1      -3.648  -1.240  -0.860  1.00  0.00    -0.460 OA
BRANCH  26  27
ATOM     27  C   UNL     1      -4.859  -1.525  -0.342  1.00  0.00     0.338 C 
ATOM     28  O   UNL     1      -5.894  -0.898  -0.436  1.00  0.00    -0.246 OA
BRANCH  27  29
ATOM     29  C   UNL     1      -4.725  -2.829   0.307  1.00  0.00     0.060 A 
ATOM     30  C   UNL     1      -5.384  -3.916  -0.267  1.00  0.00     0.016 A 
ATOM     31  C   UNL     1      -3.962  -2.960   1.471  1.00  0.00     0.016 A 
ATOM     32  C   UNL     1      -5.331  -5.149   0.367  1.00  0.00     0.010 A 
ATOM     33  C   UNL     1      -3.908  -4.198   2.104  1.00  0.00     0.010 A 
ATOM     34  C   UNL     1      -4.630  -5.282   1.575  1.00  0.00    -0.014 A 
BRANCH  34  35
ATOM     35  C   UNL     1      -4.806  -6.515   2.368  1.00  0.00     0.031 A 
ATOM     36  C   UNL     1      -5.758  -6.492   3.529  1.00  0.00     0.074 A 
ATOM     37  C   UNL     1      -4.177  -7.646   2.009  1.00  0.00     0.049 A 
ATOM     38  N   UNL     1      -6.104  -7.463   4.334  1.00  0.00    -0.248 NA
ATOM     39  C   UNL     1      -6.409  -5.204   3.821  1.00  0.00     0.031 C 
ATOM     40  C   UNL     1      -3.272  -7.787   0.869  1.00  0.00     0.029 A 
ATOM     41  N   UNL     1      -4.221  -8.897   2.565  1.00  0.00    -0.354 N 
ATOM     42  C   UNL     1      -7.010  -6.902   5.226  1.00  0.00     0.074 A 
ATOM     43  C   UNL     1      -7.127  -5.501   4.893  1.00  0.00     0.031 C 
ATOM     44  C   UNL     1      -2.859  -9.064   0.799  1.00  0.00     0.029 A 
ATOM     45  C   UNL     1      -3.441  -9.815   1.908  1.00  0.00     0.049 A 
ATOM     46  H   UNL     1      -4.761  -9.117   3.358  1.00  0.00     0.167 HD
ATOM     47  C   UNL     1      -7.693  -7.506   6.227  1.00  0.00     0.031 A 
ATOM     48  C   UNL     1      -3.219 -11.114   2.182  1.00  0.00     0.031 A 
ATOM     49  C   UNL     1      -7.551  -8.896   6.565  1.00  0.00     0.049 A 
ATOM     50  C   UNL     1      -3.917 -11.738   3.360  1.00  0.00     0.074 A 
ATOM     51  C   UNL     1      -8.193  -9.613   7.559  1.00  0.00     0.029 A 
ATOM     52  N   UNL     1      -6.697  -9.779   5.921  1.00  0.00    -0.354 N 
ATOM     53  N   UNL     1      -4.791 -11.207   4.182  1.00  0.00    -0.248 NA
ATOM     54  C   UNL     1      -3.604 -13.146   3.640  1.00  0.00     0.031 C 
ATOM     55  C   UNL     1      -7.680 -10.914   7.555  1.00  0.00     0.029 A 
ATOM     56  C   UNL     1      -6.772 -11.027   6.514  1.00  0.00     0.049 A 
ATOM     57  H   UNL     1      -6.121  -9.551   5.155  1.00  0.00     0.167 HD
ATOM     58  C   UNL     1      -5.157 -12.224   5.056  1.00  0.00     0.074 A 
ATOM     59  C   UNL     1      -4.420 -13.405   4.652  1.00  0.00     0.031 C 
ATOM     60  C   UNL     1      -6.027 -12.187   6.095  1.00  0.00     0.031 A 
BRANCH  47  61
ATOM     61  C   UNL     1      -8.617  -6.647   7.045  1.00  0.00    -0.014 A 
ATOM     62  C   UNL     1      -9.798  -6.115   6.502  1.00  0.00     0.009 A 
ATOM     63  C   UNL     1      -8.304  -6.370   8.385  1.00  0.00     0.009 A 
ATOM     64  C   UNL     1     -10.623  -5.290   7.270  1.00  0.00     0.001 A 
ATOM     65  C   UNL     1      -9.147  -5.572   9.160  1.00  0.00     0.001 A 
ATOM     66  C   UNL     1     -10.299  -5.023   8.599  1.00  0.00     0.000 A 
ENDBRANCH  47  61
BRANCH  48  67
ATOM     67  C   UNL     1      -2.296 -11.909   1.331  1.00  0.00    -0.014 A 
ATOM     68  C   UNL     1      -2.783 -12.948   0.525  1.00  0.00     0.009 A 
ATOM     69  C   UNL     1      -0.918 -11.638   1.329  1.00  0.00     0.009 A 
ATOM     70  C   UNL     1      -1.907 -13.717  -0.245  1.00  0.00     0.001 A 
ATOM     71  C   UNL     1      -0.049 -12.388   0.534  1.00  0.00     0.001 A 
ATOM     72  C   UNL     1      -0.542 -13.433  -0.243  1.00  0.00     0.000 A 
ENDBRANCH  48  67
BRANCH  60  73
ATOM     73  C   UNL     1      -6.262 -13.473   6.839  1.00  0.00    -0.014 A 
ATOM     74  C   UNL     1      -5.279 -14.031   7.670  1.00  0.00     0.009 A 
ATOM     75  C   UNL     1      -7.507 -14.114   6.733  1.00  0.00     0.009 A 
ATOM     76  C   UNL     1      -5.525 -15.226   8.349  1.00  0.00     0.001 A 
ATOM     77  C   UNL     1      -7.763 -15.289   7.440  1.00  0.00     0.001 A 
ATOM     78  C   UNL     1      -6.767 -15.850   8.239  1.00  0.00     0.000 A 
ENDBRANCH  60  73
ENDBRANCH  34  35
ENDBRANCH  27  29
ENDBRANCH  26  27
ENDBRANCH  25  26
ENDBRANCH  24  25
ENDBRANCH  23  24
ENDBRANCH   1  23
TORSDOF 18
