REMARK SMILES O=C(OCCOCCOC(=O)[C@@H]1C[NH2+]CCN1C(=O)N[C@@H]1CCOC1)c1ccc(-c2c3nc(c(-c4ccccc4)c4ccc([nH]4)c(-c4ccccc4)c4nc(c(-c5ccccc5)c5ccc2[nH]5)C=C4)C=C3)cc1
REMARK SMILES IDX 6 1 5 2 4 3 3 4 2 5 1 6 26 7 27 8 73 9 28 10 72 11 29 12
REMARK SMILES IDX 30 13 31 14 66 15 32 16 71 17 65 18 67 19 33 20 70 21 64 22
REMARK SMILES IDX 63 23 34 25 56 26 41 27 55 28 42 29 45 30 54 31 68 32 43 33
REMARK SMILES IDX 44 34 53 36 69 37 46 38 35 39 36 40 40 41 37 42 39 43 38 44
REMARK SMILES IDX 57 45 58 46 62 47 59 48 61 49 60 50 47 51 48 52 52 53 49 54
REMARK SMILES IDX 51 55 50 56 7 57 8 58 9 59 10 60 11 61 12 62 13 63 17 64
REMARK SMILES IDX 14 65 16 66 15 67 18 70 19 71 20 72 21 74 22 75 25 76 23 77
REMARK SMILES IDX 24 78
REMARK H PARENT 67 24 45 35 14 68 14 69 20 73
REMARK Flexibility Score: inf
ROOT
ATOM      1  O   UNL     1       2.639   0.721   0.077  1.00  0.00    -0.374 OA
ENDROOT
BRANCH   1   2
ATOM      2  C   UNL     1       3.744   0.191  -0.657  1.00  0.00     0.202 C 
BRANCH   2   3
ATOM      3  C   UNL     1       3.619  -0.335  -2.086  1.00  0.00     0.261 C 
BRANCH   3   4
ATOM      4  O   UNL     1       3.114  -1.667  -2.290  1.00  0.00    -0.460 OA
BRANCH   4   5
ATOM      5  C   UNL     1       2.300  -2.214  -1.359  1.00  0.00     0.338 C 
ATOM      6  O   UNL     1       1.097  -2.255  -1.463  1.00  0.00    -0.246 OA
BRANCH   5   7
ATOM      7  C   UNL     1       3.064  -2.892  -0.268  1.00  0.00     0.060 A 
ATOM      8  C   UNL     1       4.456  -2.769  -0.154  1.00  0.00     0.016 A 
ATOM      9  C   UNL     1       2.350  -3.602   0.704  1.00  0.00     0.016 A 
ATOM     10  C   UNL     1       5.098  -3.182   0.998  1.00  0.00     0.010 A 
ATOM     11  C   UNL     1       3.022  -4.168   1.789  1.00  0.00     0.010 A 
ATOM     12  C   UNL     1       4.396  -3.948   1.933  1.00  0.00    -0.014 A 
BRANCH  12  13
ATOM     13  C   UNL     1       5.246  -4.761   2.817  1.00  0.00     0.031 A 
ATOM     14  C   UNL     1       5.974  -5.897   2.151  1.00  0.00     0.074 A 
ATOM     15  C   UNL     1       5.534  -4.357   4.063  1.00  0.00     0.049 A 
ATOM     16  N   UNL     1       6.967  -6.616   2.592  1.00  0.00    -0.248 NA
ATOM     17  C   UNL     1       5.580  -6.201   0.759  1.00  0.00     0.031 C 
ATOM     18  C   UNL     1       4.978  -3.178   4.727  1.00  0.00     0.029 A 
ATOM     19  N   UNL     1       6.413  -4.875   4.974  1.00  0.00    -0.354 N 
ATOM     20  C   UNL     1       7.351  -7.406   1.516  1.00  0.00     0.074 A 
ATOM     21  C   UNL     1       6.496  -7.082   0.401  1.00  0.00     0.031 C 
ATOM     22  C   UNL     1       5.536  -3.062   5.946  1.00  0.00     0.029 A 
ATOM     23  C   UNL     1       6.462  -4.172   6.153  1.00  0.00     0.049 A 
ATOM     24  H   UNL     1       6.959  -5.676   4.802  1.00  0.00     0.167 HD
ATOM     25  C   UNL     1       8.324  -8.341   1.470  1.00  0.00     0.031 A 
ATOM     26  C   UNL     1       7.168  -4.429   7.271  1.00  0.00     0.031 A 
ATOM     27  C   UNL     1       9.063  -8.745   2.628  1.00  0.00     0.049 A 
ATOM     28  C   UNL     1       8.094  -5.620   7.258  1.00  0.00     0.074 A 
ATOM     29  C   UNL     1       9.941  -9.800   2.772  1.00  0.00     0.029 A 
ATOM     30  N   UNL     1       8.970  -8.116   3.861  1.00  0.00    -0.354 N 
ATOM     31  N   UNL     1       8.413  -6.409   6.257  1.00  0.00    -0.248 NA
ATOM     32  C   UNL     1       8.749  -5.963   8.526  1.00  0.00     0.031 C 
ATOM     33  C   UNL     1      10.339  -9.841   4.113  1.00  0.00     0.029 A 
ATOM     34  C   UNL     1       9.757  -8.774   4.784  1.00  0.00     0.049 A 
ATOM     35  H   UNL     1       8.425  -7.318   4.050  1.00  0.00     0.167 HD
ATOM     36  C   UNL     1       9.309  -7.336   6.772  1.00  0.00     0.074 A 
ATOM     37  C   UNL     1       9.510  -6.986   8.165  1.00  0.00     0.031 C 
ATOM     38  C   UNL     1       9.910  -8.390   6.163  1.00  0.00     0.031 A 
BRANCH  25  39
ATOM     39  C   UNL     1       8.525  -9.040   0.160  1.00  0.00    -0.014 A 
ATOM     40  C   UNL     1       9.183  -8.406  -0.907  1.00  0.00     0.009 A 
ATOM     41  C   UNL     1       7.995 -10.324  -0.031  1.00  0.00     0.009 A 
ATOM     42  C   UNL     1       9.287  -9.040  -2.147  1.00  0.00     0.001 A 
ATOM     43  C   UNL     1       8.116 -10.962  -1.266  1.00  0.00     0.001 A 
ATOM     44  C   UNL     1       8.755 -10.318  -2.325  1.00  0.00     0.000 A 
ENDBRANCH  25  39
BRANCH  26  45
ATOM     45  C   UNL     1       6.969  -3.617   8.504  1.00  0.00    -0.014 A 
ATOM     46  C   UNL     1       8.020  -2.896   9.091  1.00  0.00     0.009 A 
ATOM     47  C   UNL     1       5.715  -3.611   9.140  1.00  0.00     0.009 A 
ATOM     48  C   UNL     1       7.827  -2.217  10.299  1.00  0.00     0.001 A 
ATOM     49  C   UNL     1       5.516  -2.905  10.328  1.00  0.00     0.001 A 
ATOM     50  C   UNL     1       6.576  -2.219  10.915  1.00  0.00     0.000 A 
ENDBRANCH  26  45
BRANCH  38  51
ATOM     51  C   UNL     1      10.836  -9.216   7.005  1.00  0.00    -0.014 A 
ATOM     52  C   UNL     1      10.341 -10.078   7.994  1.00  0.00     0.009 A 
ATOM     53  C   UNL     1      12.219  -9.161   6.771  1.00  0.00     0.009 A 
ATOM     54  C   UNL     1      11.219 -10.841   8.763  1.00  0.00     0.001 A 
ATOM     55  C   UNL     1      13.091  -9.948   7.520  1.00  0.00     0.001 A 
ATOM     56  C   UNL     1      12.591 -10.778   8.522  1.00  0.00     0.000 A 
ENDBRANCH  38  51
ENDBRANCH  12  13
ENDBRANCH   5   7
ENDBRANCH   4   5
ENDBRANCH   3   4
ENDBRANCH   2   3
ENDBRANCH   1   2
BRANCH   1  57
ATOM     57  C   UNL     1       1.675   1.554  -0.579  1.00  0.00     0.202 C 
BRANCH  57  58
ATOM     58  C   UNL     1       1.243   2.754   0.325  1.00  0.00     0.261 C 
BRANCH  58  59
ATOM     59  O   UNL     1       2.070   3.904   0.006  1.00  0.00    -0.462 OA
BRANCH  59  60
ATOM     60  C   UNL     1       2.213   4.904   0.940  1.00  0.00     0.334 C 
ATOM     61  O   UNL     1       1.318   5.277   1.686  1.00  0.00    -0.250 OA
BRANCH  60  62
ATOM     62  C   UNL     1       3.702   5.369   1.056  1.00  0.00     0.252 C 
ATOM     63  C   UNL     1       3.963   6.894   1.066  1.00  0.00     0.298 C 
ATOM     64  N   UNL     1       4.512   4.688   0.056  1.00  0.00    -0.300 N 
ATOM     65  N   UNL     1       4.716   7.436  -0.094  1.00  0.00    -0.343 N 
ATOM     66  C   UNL     1       4.516   5.282  -1.296  1.00  0.00     0.183 C 
ATOM     67  C   UNL     1       4.212   6.788  -1.310  1.00  0.00     0.282 C 
ATOM     68  H   UNL     1       5.710   7.238   0.017  1.00  0.00     0.346 HD
ATOM     69  H   UNL     1       4.591   8.447  -0.155  1.00  0.00     0.346 HD
BRANCH  64  70
ATOM     70  C   UNL     1       4.833   3.357   0.163  1.00  0.00     0.318 C 
ATOM     71  O   UNL     1       5.323   2.785  -0.810  1.00  0.00    -0.249 OA
ATOM     72  N   UNL     1       4.269   2.652   1.198  1.00  0.00    -0.333 N 
ATOM     73  H   UNL     1       3.483   2.121   0.932  1.00  0.00     0.165 HD
BRANCH  72  74
ATOM     74  C   UNL     1       4.605   2.533   2.623  1.00  0.00     0.112 C 
ATOM     75  C   UNL     1       4.665   1.059   3.023  1.00  0.00     0.056 C 
ATOM     76  C   UNL     1       3.505   3.030   3.579  1.00  0.00     0.185 C 
ATOM     77  C   UNL     1       3.241   0.732   3.438  1.00  0.00     0.162 C 
ATOM     78  O   UNL     1       2.722   1.916   4.033  1.00  0.00    -0.379 OA
ENDBRANCH  72  74
ENDBRANCH  64  70
ENDBRANCH  60  62
ENDBRANCH  59  60
ENDBRANCH  58  59
ENDBRANCH  57  58
ENDBRANCH   1  57
TORSDOF 16
