REMARK SMILES Cc1cc(Cl)c2c(c1)C=C(C(=O)OCCOCCOC(=O)c1ccc(-c3c4nc(c(-c5ccccc5)c5ccc([nH]5)c(-c5ccccc5)c5nc(c(-c6ccccc6)c6ccc3[nH]6)C=C5)C=C4)cc1)[C@@H](C(F)(F)F)O2
REMARK SMILES IDX 17 1 16 2 15 3 14 4 13 5 11 6 12 7 10 8 1 9 2 10 3 11 8 12
REMARK SMILES IDX 4 13 7 14 5 15 6 16 9 17 75 18 70 19 71 20 72 21 73 22 74 23
REMARK SMILES IDX 18 24 19 25 20 26 21 27 22 28 23 29 69 30 24 31 68 32 25 33
REMARK SMILES IDX 26 34 27 35 62 36 28 37 67 38 61 39 63 40 29 41 66 42 60 43
REMARK SMILES IDX 59 44 30 46 52 47 37 48 51 49 38 50 41 51 50 52 64 53 39 54
REMARK SMILES IDX 40 55 49 57 65 58 42 59 31 60 32 61 36 62 33 63 35 64 34 65
REMARK SMILES IDX 53 66 54 67 58 68 55 69 57 70 56 71 43 72 44 73 48 74 45 75
REMARK SMILES IDX 47 76 46 77
REMARK H PARENT 63 45 41 56
REMARK Flexibility Score: inf
ROOT
ATOM      1  C   UNL     1      -3.901   0.816  -6.414  1.00  0.00     0.202 C 
ENDROOT
BRANCH   1   2
ATOM      2  O   UNL     1      -3.736   1.625  -7.580  1.00  0.00    -0.374 OA
BRANCH   2   3
ATOM      3  C   UNL     1      -3.372   0.972  -8.794  1.00  0.00     0.202 C 
BRANCH   3   4
ATOM      4  C   UNL     1      -1.895   0.599  -8.949  1.00  0.00     0.261 C 
BRANCH   4   5
ATOM      5  O   UNL     1      -1.474  -0.302  -7.912  1.00  0.00    -0.460 OA
BRANCH   5   6
ATOM      6  C   UNL     1      -0.534   0.198  -7.078  1.00  0.00     0.338 C 
ATOM      7  O   UNL     1       0.071   1.252  -7.206  1.00  0.00    -0.246 OA
BRANCH   6   8
ATOM      8  C   UNL     1      -0.409  -0.661  -5.886  1.00  0.00     0.087 C 
ATOM      9  C   UNL     1       0.955  -0.187   0.093  1.00  0.00     0.044 C 
ATOM     10  C   UNL     1       0.581  -0.891  -1.177  1.00  0.00    -0.049 A 
ATOM     11  C   UNL     1       0.622  -2.288  -1.260  1.00  0.00     0.028 A 
ATOM     12  C   UNL     1       0.261  -0.157  -2.323  1.00  0.00     0.015 A 
ATOM     13  C   UNL     1       0.313  -2.936  -2.461  1.00  0.00     0.084 A 
ATOM     14  C   UNL     1      -0.022  -0.804  -3.533  1.00  0.00     0.019 A 
ATOM     15  Cl  UNL     1       0.381  -4.663  -2.496  1.00  0.00    -0.080 Cl
ATOM     16  C   UNL     1      -0.012  -2.199  -3.606  1.00  0.00     0.146 A 
ATOM     17  C   UNL     1      -0.268  -0.014  -4.724  1.00  0.00     0.027 C 
ATOM     18  O   UNL     1      -0.322  -2.880  -4.754  1.00  0.00    -0.474 OA
ATOM     19  C   UNL     1      -0.414  -2.158  -6.013  1.00  0.00     0.316 C 
BRANCH  19  20
ATOM     20  C   UNL     1       0.685  -2.669  -6.957  1.00  0.00     0.430 C 
ATOM     21  F   UNL     1       0.684  -4.021  -7.029  1.00  0.00    -0.167 F 
ATOM     22  F   UNL     1       0.508  -2.216  -8.220  1.00  0.00    -0.167 F 
ATOM     23  F   UNL     1       1.917  -2.282  -6.557  1.00  0.00    -0.167 F 
ENDBRANCH  19  20
ENDBRANCH   6   8
ENDBRANCH   5   6
ENDBRANCH   4   5
ENDBRANCH   3   4
ENDBRANCH   2   3
ENDBRANCH   1   2
BRANCH   1  24
ATOM     24  C   UNL     1      -5.179  -0.028  -6.330  1.00  0.00     0.261 C 
BRANCH  24  25
ATOM     25  O   UNL     1      -5.208  -1.065  -7.328  1.00  0.00    -0.460 OA
BRANCH  25  26
ATOM     26  C   UNL     1      -6.171  -0.913  -8.268  1.00  0.00     0.338 C 
ATOM     27  O   UNL     1      -7.041  -0.055  -8.310  1.00  0.00    -0.246 OA
BRANCH  26  28
ATOM     28  C   UNL     1      -5.942  -1.845  -9.385  1.00  0.00     0.060 A 
ATOM     29  C   UNL     1      -5.839  -1.298 -10.672  1.00  0.00     0.016 A 
ATOM     30  C   UNL     1      -5.944  -3.228  -9.195  1.00  0.00     0.016 A 
ATOM     31  C   UNL     1      -5.804  -2.135 -11.783  1.00  0.00     0.010 A 
ATOM     32  C   UNL     1      -5.925  -4.066 -10.314  1.00  0.00     0.010 A 
ATOM     33  C   UNL     1      -5.901  -3.521 -11.611  1.00  0.00    -0.014 A 
BRANCH  33  34
ATOM     34  C   UNL     1      -6.183  -4.383 -12.781  1.00  0.00     0.031 A 
ATOM     35  C   UNL     1      -7.612  -4.747 -13.078  1.00  0.00     0.074 A 
ATOM     36  C   UNL     1      -5.196  -4.801 -13.591  1.00  0.00     0.049 A 
ATOM     37  N   UNL     1      -8.091  -5.539 -14.002  1.00  0.00    -0.248 NA
ATOM     38  C   UNL     1      -8.638  -4.128 -12.222  1.00  0.00     0.031 C 
ATOM     39  C   UNL     1      -3.784  -4.450 -13.459  1.00  0.00     0.029 A 
ATOM     40  N   UNL     1      -5.241  -5.619 -14.691  1.00  0.00    -0.354 N 
ATOM     41  C   UNL     1      -9.471  -5.518 -13.836  1.00  0.00     0.074 A 
ATOM     42  C   UNL     1      -9.752  -4.653 -12.711  1.00  0.00     0.031 C 
ATOM     43  C   UNL     1      -3.093  -5.054 -14.442  1.00  0.00     0.029 A 
ATOM     44  C   UNL     1      -4.009  -5.863 -15.244  1.00  0.00     0.049 A 
ATOM     45  H   UNL     1      -6.078  -5.994 -15.051  1.00  0.00     0.167 HD
ATOM     46  C   UNL     1     -10.420  -6.159 -14.557  1.00  0.00     0.031 A 
ATOM     47  C   UNL     1      -3.660  -6.669 -16.264  1.00  0.00     0.031 A 
ATOM     48  C   UNL     1     -10.142  -7.037 -15.660  1.00  0.00     0.049 A 
ATOM     49  C   UNL     1      -4.722  -7.460 -16.978  1.00  0.00     0.074 A 
ATOM     50  C   UNL     1     -11.033  -7.756 -16.437  1.00  0.00     0.029 A 
ATOM     51  N   UNL     1      -8.873  -7.318 -16.140  1.00  0.00    -0.354 N 
ATOM     52  N   UNL     1      -6.020  -7.461 -16.791  1.00  0.00    -0.248 NA
ATOM     53  C   UNL     1      -4.267  -8.367 -18.042  1.00  0.00     0.031 C 
ATOM     54  C   UNL     1     -10.298  -8.509 -17.359  1.00  0.00     0.029 A 
ATOM     55  C   UNL     1      -8.954  -8.216 -17.191  1.00  0.00     0.049 A 
ATOM     56  H   UNL     1      -8.037  -6.936 -15.787  1.00  0.00     0.167 HD
ATOM     57  C   UNL     1      -6.537  -8.353 -17.723  1.00  0.00     0.074 A 
ATOM     58  C   UNL     1      -5.415  -8.858 -18.487  1.00  0.00     0.031 C 
ATOM     59  C   UNL     1      -7.826  -8.721 -17.928  1.00  0.00     0.031 A 
BRANCH  46  60
ATOM     60  C   UNL     1     -11.850  -5.957 -14.147  1.00  0.00    -0.014 A 
ATOM     61  C   UNL     1     -12.519  -4.752 -14.413  1.00  0.00     0.009 A 
ATOM     62  C   UNL     1     -12.548  -6.997 -13.514  1.00  0.00     0.009 A 
ATOM     63  C   UNL     1     -13.852  -4.585 -14.033  1.00  0.00     0.001 A 
ATOM     64  C   UNL     1     -13.888  -6.837 -13.157  1.00  0.00     0.001 A 
ATOM     65  C   UNL     1     -14.537  -5.629 -13.410  1.00  0.00     0.000 A 
ENDBRANCH  46  60
BRANCH  47  66
ATOM     66  C   UNL     1      -2.233  -6.792 -16.658  1.00  0.00    -0.014 A 
ATOM     67  C   UNL     1      -1.780  -6.257 -17.873  1.00  0.00     0.009 A 
ATOM     68  C   UNL     1      -1.318  -7.454 -15.824  1.00  0.00     0.009 A 
ATOM     69  C   UNL     1      -0.442  -6.397 -18.252  1.00  0.00     0.001 A 
ATOM     70  C   UNL     1       0.024  -7.569 -16.193  1.00  0.00     0.001 A 
ATOM     71  C   UNL     1       0.459  -7.047 -17.409  1.00  0.00     0.000 A 
ENDBRANCH  47  66
BRANCH  59  72
ATOM     72  C   UNL     1      -8.091  -9.707 -19.031  1.00  0.00    -0.014 A 
ATOM     73  C   UNL     1      -7.750 -11.061 -18.891  1.00  0.00     0.009 A 
ATOM     74  C   UNL     1      -8.726  -9.282 -20.208  1.00  0.00     0.009 A 
ATOM     75  C   UNL     1      -8.009 -11.964 -19.924  1.00  0.00     0.001 A 
ATOM     76  C   UNL     1      -9.010 -10.192 -21.227  1.00  0.00     0.001 A 
ATOM     77  C   UNL     1      -8.643 -11.530 -21.089  1.00  0.00     0.000 A 
ENDBRANCH  59  72
ENDBRANCH  33  34
ENDBRANCH  26  28
ENDBRANCH  25  26
ENDBRANCH  24  25
ENDBRANCH   1  24
TORSDOF 15
