REMARK SMILES Nc1nc(N2CCOC[C@H]2C(=O)OCCOCCOC(=O)c2ccc(-c3c4nc(c(-c5ccccc5)c5ccc([nH]5)c(-c5ccccc5)c5nc(c(-c6ccccc6)c6ccc3[nH]6)C=C5)C=C4)cc2)ccc1[N+](=O)[O-]
REMARK SMILES IDX 16 1 15 2 14 3 13 4 11 5 12 6 10 7 5 8 6 9 7 10 9 11 8 12
REMARK SMILES IDX 4 13 2 14 3 15 72 16 71 17 70 18 1 19 73 22 74 23 75 24
REMARK SMILES IDX 17 25 18 26 19 27 20 28 21 29 22 30 23 31 69 32 24 33 68 34
REMARK SMILES IDX 25 35 26 36 27 37 62 38 28 39 67 40 61 41 63 42 29 43 66 44
REMARK SMILES IDX 60 45 59 46 30 48 52 49 37 50 51 51 38 52 41 53 50 54 64 55
REMARK SMILES IDX 39 56 40 57 49 59 65 60 42 61 31 62 32 63 36 64 33 65 35 66
REMARK SMILES IDX 34 67 53 68 54 69 58 70 55 71 57 72 56 73 43 74 44 75 48 76
REMARK SMILES IDX 45 77 47 78 46 79
REMARK H PARENT 1 20 1 21 63 47 41 58
REMARK Flexibility Score: inf
ROOT
ATOM      1  O   UNL     1       1.833   5.365   1.579  1.00  0.00    -0.374 OA
ENDROOT
BRANCH   1   2
ATOM      2  C   UNL     1       0.753   6.024   2.241  1.00  0.00     0.202 C 
BRANCH   2   3
ATOM      3  C   UNL     1      -0.421   6.422   1.345  1.00  0.00     0.261 C 
BRANCH   3   4
ATOM      4  O   UNL     1      -1.150   5.255   0.926  1.00  0.00    -0.462 OA
BRANCH   4   5
ATOM      5  C   UNL     1      -1.198   5.012  -0.412  1.00  0.00     0.331 C 
ATOM      6  O   UNL     1      -0.787   5.789  -1.270  1.00  0.00    -0.250 OA
BRANCH   5   7
ATOM      7  C   UNL     1      -1.865   3.681  -0.771  1.00  0.00     0.220 C 
ATOM      8  N   UNL     1      -1.886   2.643   0.293  1.00  0.00    -0.339 N 
ATOM      9  C   UNL     1      -2.867   2.809   1.367  1.00  0.00     0.147 C 
ATOM     10  C   UNL     1      -4.245   3.136   0.784  1.00  0.00     0.181 C 
ATOM     11  C   UNL     1      -3.305   4.001  -1.215  1.00  0.00     0.197 C 
ATOM     12  O   UNL     1      -4.187   4.261  -0.104  1.00  0.00    -0.377 OA
BRANCH   8  13
ATOM     13  C   UNL     1      -1.296   1.424   0.046  1.00  0.00     0.132 A 
ATOM     14  C   UNL     1       0.677   0.209  -0.331  1.00  0.00     0.204 A 
ATOM     15  N   UNL     1       0.025   1.398  -0.244  1.00  0.00    -0.207 NA
ATOM     16  C   UNL     1       0.001  -1.000  -0.196  1.00  0.00     0.311 A 
ATOM     17  C   UNL     1      -1.379  -0.987   0.007  1.00  0.00     0.093 A 
ATOM     18  C   UNL     1      -2.024   0.239   0.134  1.00  0.00     0.054 A 
BRANCH  14  19
ATOM     19  N   UNL     1       2.021   0.319  -0.627  1.00  0.00    -0.378 N 
ATOM     20  H   UNL     1       2.436   1.208  -0.707  1.00  0.00     0.158 HD
ATOM     21  H   UNL     1       2.564  -0.492  -0.757  1.00  0.00     0.158 HD
ENDBRANCH  14  19
BRANCH  16  22
ATOM     22  N   UNL     1       0.698  -2.282  -0.209  1.00  0.00     0.066 N 
ATOM     23  O   UNL     1       0.015  -3.301  -0.393  1.00  0.00    -0.258 OA
ATOM     24  O   UNL     1       1.918  -2.293   0.016  1.00  0.00    -0.258 OA
ENDBRANCH  16  22
ENDBRANCH   8  13
ENDBRANCH   5   7
ENDBRANCH   4   5
ENDBRANCH   3   4
ENDBRANCH   2   3
ENDBRANCH   1   2
BRANCH   1  25
ATOM     25  C   UNL     1       1.639   3.993   1.228  1.00  0.00     0.202 C 
BRANCH  25  26
ATOM     26  C   UNL     1       1.850   2.985   2.360  1.00  0.00     0.261 C 
BRANCH  26  27
ATOM     27  O   UNL     1       0.848   3.108   3.385  1.00  0.00    -0.460 OA
BRANCH  27  28
ATOM     28  C   UNL     1       1.312   3.543   4.577  1.00  0.00     0.338 C 
ATOM     29  O   UNL     1       2.475   3.755   4.892  1.00  0.00    -0.246 OA
BRANCH  28  30
ATOM     30  C   UNL     1       0.189   3.886   5.466  1.00  0.00     0.060 A 
ATOM     31  C   UNL     1       0.247   5.123   6.119  1.00  0.00     0.016 A 
ATOM     32  C   UNL     1      -0.846   2.986   5.735  1.00  0.00     0.016 A 
ATOM     33  C   UNL     1      -0.690   5.437   7.098  1.00  0.00     0.010 A 
ATOM     34  C   UNL     1      -1.786   3.302   6.722  1.00  0.00     0.010 A 
ATOM     35  C   UNL     1      -1.683   4.508   7.438  1.00  0.00    -0.014 A 
BRANCH  35  36
ATOM     36  C   UNL     1      -2.499   4.744   8.652  1.00  0.00     0.031 A 
ATOM     37  C   UNL     1      -2.103   4.072   9.938  1.00  0.00     0.074 A 
ATOM     38  C   UNL     1      -3.536   5.598   8.627  1.00  0.00     0.049 A 
ATOM     39  N   UNL     1      -2.642   4.172  11.126  1.00  0.00    -0.248 NA
ATOM     40  C   UNL     1      -0.941   3.170   9.877  1.00  0.00     0.031 C 
ATOM     41  C   UNL     1      -3.984   6.351   7.457  1.00  0.00     0.029 A 
ATOM     42  N   UNL     1      -4.391   5.985   9.627  1.00  0.00    -0.354 N 
ATOM     43  C   UNL     1      -1.884   3.352  11.953  1.00  0.00     0.074 A 
ATOM     44  C   UNL     1      -0.873   2.732  11.125  1.00  0.00     0.031 C 
ATOM     45  C   UNL     1      -5.026   7.122   7.810  1.00  0.00     0.029 A 
ATOM     46  C   UNL     1      -5.333   6.896   9.221  1.00  0.00     0.049 A 
ATOM     47  H   UNL     1      -4.333   5.643  10.548  1.00  0.00     0.167 HD
ATOM     48  C   UNL     1      -2.009   3.141  13.285  1.00  0.00     0.031 A 
ATOM     49  C   UNL     1      -6.333   7.477   9.910  1.00  0.00     0.031 A 
ATOM     50  C   UNL     1      -3.025   3.740  14.108  1.00  0.00     0.049 A 
ATOM     51  C   UNL     1      -6.510   7.155  11.368  1.00  0.00     0.074 A 
ATOM     52  C   UNL     1      -3.237   3.590  15.467  1.00  0.00     0.029 A 
ATOM     53  N   UNL     1      -4.007   4.601  13.642  1.00  0.00    -0.354 N 
ATOM     54  N   UNL     1      -5.779   6.389  12.141  1.00  0.00    -0.248 NA
ATOM     55  C   UNL     1      -7.650   7.786  12.050  1.00  0.00     0.031 C 
ATOM     56  C   UNL     1      -4.378   4.322  15.814  1.00  0.00     0.029 A 
ATOM     57  C   UNL     1      -4.844   4.969  14.681  1.00  0.00     0.049 A 
ATOM     58  H   UNL     1      -4.095   4.905  12.710  1.00  0.00     0.167 HD
ATOM     59  C   UNL     1      -6.353   6.466  13.404  1.00  0.00     0.074 A 
ATOM     60  C   UNL     1      -7.486   7.363  13.295  1.00  0.00     0.031 C 
ATOM     61  C   UNL     1      -5.972   5.855  14.553  1.00  0.00     0.031 A 
BRANCH  48  62
ATOM     62  C   UNL     1      -1.034   2.191  13.921  1.00  0.00    -0.014 A 
ATOM     63  C   UNL     1       0.313   2.544  14.105  1.00  0.00     0.009 A 
ATOM     64  C   UNL     1      -1.469   0.926  14.347  1.00  0.00     0.009 A 
ATOM     65  C   UNL     1       1.212   1.634  14.665  1.00  0.00     0.001 A 
ATOM     66  C   UNL     1      -0.573   0.029  14.931  1.00  0.00     0.001 A 
ATOM     67  C   UNL     1       0.768   0.379  15.080  1.00  0.00     0.000 A 
ENDBRANCH  48  62
BRANCH  49  68
ATOM     68  C   UNL     1      -7.248   8.428   9.228  1.00  0.00    -0.014 A 
ATOM     69  C   UNL     1      -7.196   9.800   9.518  1.00  0.00     0.009 A 
ATOM     70  C   UNL     1      -8.182   7.967   8.287  1.00  0.00     0.009 A 
ATOM     71  C   UNL     1      -8.073  10.688   8.892  1.00  0.00     0.001 A 
ATOM     72  C   UNL     1      -9.040   8.861   7.645  1.00  0.00     0.001 A 
ATOM     73  C   UNL     1      -8.990  10.220   7.953  1.00  0.00     0.000 A 
ENDBRANCH  49  68
BRANCH  61  74
ATOM     74  C   UNL     1      -6.772   6.159  15.788  1.00  0.00    -0.014 A 
ATOM     75  C   UNL     1      -8.058   5.629  15.972  1.00  0.00     0.009 A 
ATOM     76  C   UNL     1      -6.214   6.960  16.797  1.00  0.00     0.009 A 
ATOM     77  C   UNL     1      -8.783   5.922  17.128  1.00  0.00     0.001 A 
ATOM     78  C   UNL     1      -6.931   7.230  17.963  1.00  0.00     0.001 A 
ATOM     79  C   UNL     1      -8.218   6.719  18.124  1.00  0.00     0.000 A 
ENDBRANCH  61  74
ENDBRANCH  35  36
ENDBRANCH  28  30
ENDBRANCH  27  28
ENDBRANCH  26  27
ENDBRANCH  25  26
ENDBRANCH   1  25
TORSDOF 17
