REMARK SMILES Cc1ccc(C(=O)OCCOCCOC(=O)c2ccc(-c3c4nc(c(-c5ccccc5)c5ccc([nH]5)c(-c5ccccc5)c5nc(c(-c6ccccc6)c6ccc3[nH]6)C=C5)C=C4)cc2)c2c1N[C@H](c1ccccc1F)[C@H]1CC=C[C@@H]21
REMARK SMILES IDX 12 1 11 2 10 3 9 4 8 5 6 6 7 7 5 8 1 9 2 10 3 11 66 12 4 13
REMARK SMILES IDX 65 14 67 15 80 16 68 17 76 19 79 20 77 21 78 22 69 23 70 24
REMARK SMILES IDX 74 25 71 26 73 27 75 28 72 29 13 30 14 31 15 32 16 33 17 34
REMARK SMILES IDX 18 35 64 36 19 37 63 38 20 39 21 40 22 41 57 42 23 43 62 44
REMARK SMILES IDX 56 45 58 46 24 47 61 48 55 49 54 50 25 52 47 53 32 54 46 55
REMARK SMILES IDX 33 56 36 57 45 58 59 59 34 60 35 61 44 63 60 64 37 65 26 66
REMARK SMILES IDX 27 67 31 68 28 69 30 70 29 71 48 72 49 73 53 74 50 75 52 76
REMARK SMILES IDX 51 77 38 78 39 79 43 80 40 81 42 82 41 83
REMARK H PARENT 67 18 58 51 36 62
REMARK Flexibility Score: inf
ROOT
ATOM      1  C   UNL     1       0.438  -1.979   6.750  1.00  0.00     0.202 C 
ENDROOT
BRANCH   1   2
ATOM      2  O   UNL     1      -0.541  -2.750   7.453  1.00  0.00    -0.374 OA
BRANCH   2   3
ATOM      3  C   UNL     1      -0.540  -4.161   7.263  1.00  0.00     0.202 C 
BRANCH   3   4
ATOM      4  C   UNL     1      -1.080  -4.694   5.933  1.00  0.00     0.261 C 
BRANCH   4   5
ATOM      5  O   UNL     1      -0.532  -3.988   4.814  1.00  0.00    -0.460 OA
BRANCH   5   6
ATOM      6  C   UNL     1      -1.452  -3.403   4.010  1.00  0.00     0.338 C 
ATOM      7  O   UNL     1      -2.657  -3.605   4.016  1.00  0.00    -0.246 OA
BRANCH   6   8
ATOM      8  C   UNL     1      -0.781  -2.450   3.100  1.00  0.00     0.065 A 
ATOM      9  C   UNL     1       1.095  -0.030   0.077  1.00  0.00     0.046 C 
ATOM     10  C   UNL     1       0.449  -0.801   1.200  1.00  0.00    -0.028 A 
ATOM     11  C   UNL     1       0.772  -2.167   1.281  1.00  0.00     0.006 A 
ATOM     12  C   UNL     1      -0.452  -0.232   2.130  1.00  0.00     0.042 A 
ATOM     13  C   UNL     1       0.162  -2.987   2.220  1.00  0.00     0.016 A 
ATOM     14  C   UNL     1      -1.082  -1.065   3.092  1.00  0.00    -0.003 A 
ATOM     15  N   UNL     1      -0.751   1.124   2.088  1.00  0.00    -0.377 N 
ATOM     16  C   UNL     1      -1.944  -0.438   4.177  1.00  0.00     0.050 C 
ATOM     17  C   UNL     1      -1.948   1.622   2.748  1.00  0.00     0.117 C 
ATOM     18  H   UNL     1      -0.154   1.746   1.612  1.00  0.00     0.161 HD
ATOM     19  C   UNL     1      -1.933   1.114   4.204  1.00  0.00     0.031 C 
ATOM     20  C   UNL     1      -3.426  -0.703   4.137  1.00  0.00    -0.023 C 
ATOM     21  C   UNL     1      -3.218   1.467   4.976  1.00  0.00     0.034 C 
ATOM     22  C   UNL     1      -4.121   0.334   4.619  1.00  0.00    -0.030 C 
BRANCH  17  23
ATOM     23  C   UNL     1      -2.085   3.111   2.485  1.00  0.00     0.010 A 
ATOM     24  C   UNL     1      -2.526   3.519   1.209  1.00  0.00     0.009 A 
ATOM     25  C   UNL     1      -1.853   4.109   3.436  1.00  0.00     0.128 A 
ATOM     26  C   UNL     1      -2.774   4.864   0.922  1.00  0.00     0.001 A 
ATOM     27  C   UNL     1      -2.109   5.452   3.159  1.00  0.00     0.039 A 
ATOM     28  F   UNL     1      -1.407   3.800   4.661  1.00  0.00    -0.207 F 
ATOM     29  C   UNL     1      -2.579   5.830   1.903  1.00  0.00     0.003 A 
ENDBRANCH  17  23
ENDBRANCH   6   8
ENDBRANCH   5   6
ENDBRANCH   4   5
ENDBRANCH   3   4
ENDBRANCH   2   3
ENDBRANCH   1   2
BRANCH   1  30
ATOM     30  C   UNL     1       1.908  -2.156   7.143  1.00  0.00     0.261 C 
BRANCH  30  31
ATOM     31  O   UNL     1       2.421  -3.449   6.774  1.00  0.00    -0.460 OA
BRANCH  31  32
ATOM     32  C   UNL     1       2.845  -4.212   7.808  1.00  0.00     0.338 C 
ATOM     33  O   UNL     1       2.890  -3.914   8.991  1.00  0.00    -0.246 OA
BRANCH  32  34
ATOM     34  C   UNL     1       3.102  -5.578   7.331  1.00  0.00     0.060 A 
ATOM     35  C   UNL     1       2.279  -6.609   7.804  1.00  0.00     0.016 A 
ATOM     36  C   UNL     1       4.205  -5.854   6.522  1.00  0.00     0.016 A 
ATOM     37  C   UNL     1       2.577  -7.931   7.494  1.00  0.00     0.010 A 
ATOM     38  C   UNL     1       4.518  -7.183   6.234  1.00  0.00     0.010 A 
ATOM     39  C   UNL     1       3.725  -8.224   6.748  1.00  0.00    -0.014 A 
BRANCH  39  40
ATOM     40  C   UNL     1       4.193  -9.623   6.667  1.00  0.00     0.031 A 
ATOM     41  C   UNL     1       5.172 -10.113   7.696  1.00  0.00     0.074 A 
ATOM     42  C   UNL     1       3.725 -10.452   5.719  1.00  0.00     0.049 A 
ATOM     43  N   UNL     1       5.733 -11.289   7.806  1.00  0.00    -0.248 NA
ATOM     44  C   UNL     1       5.563  -9.157   8.747  1.00  0.00     0.031 C 
ATOM     45  C   UNL     1       2.722 -10.106   4.713  1.00  0.00     0.029 A 
ATOM     46  N   UNL     1       4.032 -11.762   5.457  1.00  0.00    -0.354 N 
ATOM     47  C   UNL     1       6.537 -11.214   8.935  1.00  0.00     0.074 A 
ATOM     48  C   UNL     1       6.412  -9.876   9.467  1.00  0.00     0.031 C 
ATOM     49  C   UNL     1       2.496 -11.182   3.940  1.00  0.00     0.029 A 
ATOM     50  C   UNL     1       3.360 -12.277   4.378  1.00  0.00     0.049 A 
ATOM     51  H   UNL     1       4.673 -12.284   5.992  1.00  0.00     0.167 HD
ATOM     52  C   UNL     1       7.306 -12.182   9.483  1.00  0.00     0.031 A 
ATOM     53  C   UNL     1       3.444 -13.491   3.800  1.00  0.00     0.031 A 
ATOM     54  C   UNL     1       7.439 -13.507   8.948  1.00  0.00     0.049 A 
ATOM     55  C   UNL     1       4.386 -14.517   4.368  1.00  0.00     0.074 A 
ATOM     56  C   UNL     1       8.200 -14.555   9.434  1.00  0.00     0.029 A 
ATOM     57  N   UNL     1       6.799 -13.964   7.809  1.00  0.00    -0.354 N 
ATOM     58  N   UNL     1       5.150 -14.433   5.429  1.00  0.00    -0.248 NA
ATOM     59  C   UNL     1       4.481 -15.801   3.658  1.00  0.00     0.031 C 
ATOM     60  C   UNL     1       8.057 -15.635   8.560  1.00  0.00     0.029 A 
ATOM     61  C   UNL     1       7.168 -15.273   7.560  1.00  0.00     0.049 A 
ATOM     62  H   UNL     1       6.176 -13.437   7.259  1.00  0.00     0.167 HD
ATOM     63  C   UNL     1       5.803 -15.655   5.526  1.00  0.00     0.074 A 
ATOM     64  C   UNL     1       5.341 -16.467   4.420  1.00  0.00     0.031 C 
ATOM     65  C   UNL     1       6.701 -16.065   6.453  1.00  0.00     0.031 A 
BRANCH  52  66
ATOM     66  C   UNL     1       8.080 -11.846  10.723  1.00  0.00    -0.014 A 
ATOM     67  C   UNL     1       7.447 -11.794  11.973  1.00  0.00     0.009 A 
ATOM     68  C   UNL     1       9.471 -11.674  10.651  1.00  0.00     0.009 A 
ATOM     69  C   UNL     1       8.195 -11.575  13.131  1.00  0.00     0.001 A 
ATOM     70  C   UNL     1      10.218 -11.473  11.812  1.00  0.00     0.001 A 
ATOM     71  C   UNL     1       9.579 -11.423  13.050  1.00  0.00     0.000 A 
ENDBRANCH  52  66
BRANCH  53  72
ATOM     72  C   UNL     1       2.611 -13.793   2.610  1.00  0.00    -0.014 A 
ATOM     73  C   UNL     1       1.497 -14.638   2.718  1.00  0.00     0.009 A 
ATOM     74  C   UNL     1       2.905 -13.208   1.367  1.00  0.00     0.009 A 
ATOM     75  C   UNL     1       0.694 -14.892   1.604  1.00  0.00     0.001 A 
ATOM     76  C   UNL     1       2.088 -13.449   0.261  1.00  0.00     0.001 A 
ATOM     77  C   UNL     1       0.985 -14.292   0.379  1.00  0.00     0.000 A 
ENDBRANCH  53  72
BRANCH  65  78
ATOM     78  C   UNL     1       7.251 -17.456   6.335  1.00  0.00    -0.014 A 
ATOM     79  C   UNL     1       8.261 -17.752   5.408  1.00  0.00     0.009 A 
ATOM     80  C   UNL     1       6.849 -18.442   7.250  1.00  0.00     0.009 A 
ATOM     81  C   UNL     1       8.857 -19.014   5.399  1.00  0.00     0.001 A 
ATOM     82  C   UNL     1       7.462 -19.696   7.252  1.00  0.00     0.001 A 
ATOM     83  C   UNL     1       8.465 -19.980   6.326  1.00  0.00     0.000 A 
ENDBRANCH  65  78
ENDBRANCH  39  40
ENDBRANCH  32  34
ENDBRANCH  31  32
ENDBRANCH  30  31
ENDBRANCH   1  30
TORSDOF 15
