REMARK SMILES CC(=O)Nc1cnc(N2CC=C(c3ccccc3C)CC2)c(C(=O)OCCOCCOC(=O)c2ccc(-c3c4nc(c(-c5ccccc5)c5ccc([nH]5)c(-c5ccccc5)c5nc(c(-c6ccccc6)c6ccc3[nH]6)C=C5)C=C4)cc2)c1
REMARK SMILES IDX 28 1 27 2 26 3 25 4 23 5 24 6 22 7 5 8 6 9 82 10 7 11 8 12
REMARK SMILES IDX 4 13 1 14 2 15 3 16 9 18 10 19 21 20 11 21 20 22 12 23 13 24
REMARK SMILES IDX 14 25 18 26 15 27 17 28 19 29 16 30 29 31 30 32 31 33 32 34
REMARK SMILES IDX 33 35 34 36 35 37 81 38 36 39 80 40 37 41 38 42 39 43 74 44
REMARK SMILES IDX 40 45 79 46 73 47 75 48 41 49 78 50 72 51 71 52 42 54 64 55
REMARK SMILES IDX 49 56 63 57 50 58 53 59 62 60 76 61 51 62 52 63 61 65 77 66
REMARK SMILES IDX 54 67 43 68 44 69 48 70 45 71 47 72 46 73 65 74 66 75 70 76
REMARK SMILES IDX 67 77 69 78 68 79 55 80 56 81 60 82 57 83 59 84 58 85
REMARK H PARENT 4 17 75 53 53 64
REMARK Flexibility Score: inf
ROOT
ATOM      1  O   UNL     1       6.734   2.140   1.868  1.00  0.00    -0.374 OA
ENDROOT
BRANCH   1   2
ATOM      2  C   UNL     1       6.405   1.783   0.536  1.00  0.00     0.202 C 
BRANCH   2   3
ATOM      3  C   UNL     1       5.471   0.630   0.685  1.00  0.00     0.261 C 
BRANCH   3   4
ATOM      4  O   UNL     1       4.270   1.077   1.343  1.00  0.00    -0.460 OA
BRANCH   4   5
ATOM      5  C   UNL     1       4.132   1.250   2.691  1.00  0.00     0.342 C 
ATOM      6  O   UNL     1       4.849   0.827   3.562  1.00  0.00    -0.246 OA
BRANCH   5   7
ATOM      7  C   UNL     1       2.908   2.059   2.872  1.00  0.00     0.104 A 
ATOM      8  C   UNL     1       0.905   2.841   1.740  1.00  0.00     0.060 A 
ATOM      9  C   UNL     1       0.752   3.705   2.807  1.00  0.00     0.139 A 
ATOM     10  C   UNL     1       1.997   2.015   1.806  1.00  0.00     0.047 A 
ATOM     11  N   UNL     1       1.558   3.708   3.911  1.00  0.00    -0.236 NA
ATOM     12  C   UNL     1       2.652   2.896   3.956  1.00  0.00     0.143 A 
BRANCH   8  13
ATOM     13  N   UNL     1       0.103   2.876   0.584  1.00  0.00    -0.325 N 
ATOM     14  C   UNL     1       0.273   0.469  -0.115  1.00  0.00     0.114 C 
ATOM     15  C   UNL     1      -0.047   1.924  -0.398  1.00  0.00     0.221 C 
ATOM     16  O   UNL     1      -0.490   2.259  -1.498  1.00  0.00    -0.275 OA
ATOM     17  H   UNL     1      -0.425   3.697   0.461  1.00  0.00     0.169 HD
ENDBRANCH   8  13
BRANCH  12  18
ATOM     18  N   UNL     1       3.469   3.063   5.053  1.00  0.00    -0.352 N 
ATOM     19  C   UNL     1       3.095   2.398   6.298  1.00  0.00     0.146 C 
ATOM     20  C   UNL     1       4.885   3.357   4.885  1.00  0.00     0.123 C 
ATOM     21  C   UNL     1       3.821   3.041   7.464  1.00  0.00    -0.002 C 
ATOM     22  C   UNL     1       5.328   4.337   5.968  1.00  0.00     0.057 C 
ATOM     23  C   UNL     1       4.812   3.946   7.333  1.00  0.00    -0.041 C 
BRANCH  23  24
ATOM     24  C   UNL     1       5.445   4.608   8.494  1.00  0.00    -0.020 A 
ATOM     25  C   UNL     1       6.169   3.825   9.409  1.00  0.00     0.008 A 
ATOM     26  C   UNL     1       5.391   6.006   8.684  1.00  0.00    -0.044 A 
ATOM     27  C   UNL     1       6.857   4.415  10.472  1.00  0.00     0.001 A 
ATOM     28  C   UNL     1       6.105   6.586   9.747  1.00  0.00     0.004 A 
ATOM     29  C   UNL     1       4.620   6.922   7.771  1.00  0.00     0.045 C 
ATOM     30  C   UNL     1       6.832   5.796  10.635  1.00  0.00     0.000 A 
ENDBRANCH  23  24
ENDBRANCH  12  18
ENDBRANCH   5   7
ENDBRANCH   4   5
ENDBRANCH   3   4
ENDBRANCH   2   3
ENDBRANCH   1   2
BRANCH   1  31
ATOM     31  C   UNL     1       7.368   3.387   2.025  1.00  0.00     0.202 C 
BRANCH  31  32
ATOM     32  C   UNL     1       8.721   3.425   1.316  1.00  0.00     0.261 C 
BRANCH  32  33
ATOM     33  O   UNL     1       9.599   2.433   1.897  1.00  0.00    -0.460 OA
BRANCH  33  34
ATOM     34  C   UNL     1       9.687   1.249   1.225  1.00  0.00     0.338 C 
ATOM     35  O   UNL     1       9.945   1.134   0.037  1.00  0.00    -0.246 OA
BRANCH  34  36
ATOM     36  C   UNL     1       9.138   0.139   2.063  1.00  0.00     0.060 A 
ATOM     37  C   UNL     1       8.824  -1.100   1.470  1.00  0.00     0.016 A 
ATOM     38  C   UNL     1       8.619   0.455   3.313  1.00  0.00     0.016 A 
ATOM     39  C   UNL     1       7.853  -1.936   2.045  1.00  0.00     0.010 A 
ATOM     40  C   UNL     1       7.579  -0.307   3.802  1.00  0.00     0.010 A 
ATOM     41  C   UNL     1       7.160  -1.489   3.166  1.00  0.00    -0.014 A 
BRANCH  41  42
ATOM     42  C   UNL     1       5.967  -2.114   3.756  1.00  0.00     0.031 A 
ATOM     43  C   UNL     1       6.069  -2.602   5.146  1.00  0.00     0.074 A 
ATOM     44  C   UNL     1       4.737  -2.038   3.186  1.00  0.00     0.049 A 
ATOM     45  N   UNL     1       5.224  -3.413   5.678  1.00  0.00    -0.248 NA
ATOM     46  C   UNL     1       7.169  -2.267   6.050  1.00  0.00     0.031 C 
ATOM     47  C   UNL     1       3.421  -2.105   3.832  1.00  0.00     0.029 A 
ATOM     48  N   UNL     1       4.397  -1.818   1.851  1.00  0.00    -0.354 N 
ATOM     49  C   UNL     1       5.436  -3.382   7.034  1.00  0.00     0.074 A 
ATOM     50  C   UNL     1       6.742  -2.799   7.197  1.00  0.00     0.031 C 
ATOM     51  C   UNL     1       2.460  -2.189   2.891  1.00  0.00     0.029 A 
ATOM     52  C   UNL     1       3.120  -2.338   1.604  1.00  0.00     0.049 A 
ATOM     53  H   UNL     1       4.966  -1.367   1.186  1.00  0.00     0.167 HD
ATOM     54  C   UNL     1       4.402  -3.700   7.861  1.00  0.00     0.031 A 
ATOM     55  C   UNL     1       2.961  -3.321   0.675  1.00  0.00     0.031 A 
ATOM     56  C   UNL     1       3.206  -4.101   7.097  1.00  0.00     0.049 A 
ATOM     57  C   UNL     1       2.591  -4.605   1.369  1.00  0.00     0.074 A 
ATOM     58  C   UNL     1       1.973  -3.515   6.862  1.00  0.00     0.029 A 
ATOM     59  N   UNL     1       3.318  -5.121   6.158  1.00  0.00    -0.354 N 
ATOM     60  N   UNL     1       2.531  -4.699   2.667  1.00  0.00    -0.248 NA
ATOM     61  C   UNL     1       2.313  -5.877   0.716  1.00  0.00     0.031 C 
ATOM     62  C   UNL     1       1.354  -4.203   5.771  1.00  0.00     0.029 A 
ATOM     63  C   UNL     1       2.191  -5.229   5.366  1.00  0.00     0.049 A 
ATOM     64  H   UNL     1       4.109  -5.700   6.068  1.00  0.00     0.167 HD
ATOM     65  C   UNL     1       2.239  -5.963   3.045  1.00  0.00     0.074 A 
ATOM     66  C   UNL     1       2.151  -6.686   1.782  1.00  0.00     0.031 C 
ATOM     67  C   UNL     1       2.115  -6.291   4.363  1.00  0.00     0.031 A 
BRANCH  54  68
ATOM     68  C   UNL     1       4.391  -3.432   9.351  1.00  0.00    -0.014 A 
ATOM     69  C   UNL     1       3.180  -3.536  10.058  1.00  0.00     0.009 A 
ATOM     70  C   UNL     1       5.507  -3.053  10.121  1.00  0.00     0.009 A 
ATOM     71  C   UNL     1       3.083  -3.234  11.425  1.00  0.00     0.001 A 
ATOM     72  C   UNL     1       5.419  -2.735  11.484  1.00  0.00     0.001 A 
ATOM     73  C   UNL     1       4.201  -2.822  12.137  1.00  0.00     0.000 A 
ENDBRANCH  54  68
BRANCH  55  74
ATOM     74  C   UNL     1       3.881  -3.147  -0.498  1.00  0.00    -0.014 A 
ATOM     75  C   UNL     1       3.576  -2.139  -1.441  1.00  0.00     0.009 A 
ATOM     76  C   UNL     1       5.211  -3.594  -0.427  1.00  0.00     0.009 A 
ATOM     77  C   UNL     1       4.585  -1.520  -2.195  1.00  0.00     0.001 A 
ATOM     78  C   UNL     1       6.220  -2.954  -1.164  1.00  0.00     0.001 A 
ATOM     79  C   UNL     1       5.914  -1.899  -2.021  1.00  0.00     0.000 A 
ENDBRANCH  55  74
BRANCH  67  80
ATOM     80  C   UNL     1       1.927  -7.702   4.813  1.00  0.00    -0.014 A 
ATOM     81  C   UNL     1       1.103  -8.605   4.136  1.00  0.00     0.009 A 
ATOM     82  C   UNL     1       2.558  -8.150   5.989  1.00  0.00     0.009 A 
ATOM     83  C   UNL     1       1.019  -9.937   4.546  1.00  0.00     0.001 A 
ATOM     84  C   UNL     1       2.445  -9.466   6.425  1.00  0.00     0.001 A 
ATOM     85  C   UNL     1       1.699 -10.368   5.683  1.00  0.00     0.000 A 
ENDBRANCH  67  80
ENDBRANCH  41  42
ENDBRANCH  34  36
ENDBRANCH  33  34
ENDBRANCH  32  33
ENDBRANCH  31  32
ENDBRANCH   1  31
TORSDOF 17
