REMARK SMILES CC1=C(C)C[C@@H](C(=O)N[C@H](C)C(C)(C)C)[C@@H](C(=O)OCCOCCOC(=O)c2ccc(-c3c4nc(c(-c5ccccc5)c5ccc([nH]5)c(-c5ccccc5)c5nc(c(-c6ccccc6)c6ccc3[nH]6)C=C5)C=C4)cc2)C1
REMARK SMILES IDX 21 1 20 2 19 3 17 4 18 5 16 6 1 7 2 8 3 9 76 10 4 11 5 12
REMARK SMILES IDX 6 13 7 14 8 15 9 16 10 18 11 19 12 20 13 21 14 22 15 23
REMARK SMILES IDX 22 24 23 25 24 26 25 27 26 28 27 29 28 30 29 31 75 32 30 33
REMARK SMILES IDX 74 34 31 35 32 36 33 37 68 38 34 39 73 40 67 41 69 42 35 43
REMARK SMILES IDX 72 44 66 45 65 46 36 48 58 49 43 50 57 51 44 52 47 53 56 54
REMARK SMILES IDX 70 55 45 56 46 57 55 59 71 60 48 61 37 62 38 63 42 64 39 65
REMARK SMILES IDX 41 66 40 67 59 68 60 69 64 70 61 71 63 72 62 73 49 74 50 75
REMARK SMILES IDX 54 76 51 77 53 78 52 79
REMARK H PARENT 9 17 69 47 47 58
REMARK Flexibility Score: inf
ROOT
ATOM      1  C   UNL     1       1.397   2.204   3.444  1.00  0.00     0.202 C 
ENDROOT
BRANCH   1   2
ATOM      2  C   UNL     1       1.809   1.878   1.980  1.00  0.00     0.261 C 
BRANCH   2   3
ATOM      3  O   UNL     1       0.807   1.378   1.083  1.00  0.00    -0.463 OA
BRANCH   3   4
ATOM      4  C   UNL     1       0.427   0.142   1.464  1.00  0.00     0.310 C 
ATOM      5  O   UNL     1       0.881  -0.366   2.470  1.00  0.00    -0.252 OA
BRANCH   4   6
ATOM      6  C   UNL     1      -0.584  -0.537   0.594  1.00  0.00     0.116 C 
ATOM      7  C   UNL     1       0.526  -3.784  -1.316  1.00  0.00     0.039 C 
ATOM      8  C   UNL     1      -0.405  -2.880  -0.548  1.00  0.00    -0.073 C 
ATOM      9  C   UNL     1      -1.607  -3.248  -0.056  1.00  0.00    -0.074 C 
ATOM     10  C   UNL     1       0.157  -1.484  -0.359  1.00  0.00     0.046 C 
ATOM     11  C   UNL     1      -2.266  -4.592  -0.248  1.00  0.00     0.039 C 
ATOM     12  C   UNL     1      -2.451  -2.298   0.753  1.00  0.00     0.045 C 
ATOM     13  C   UNL     1      -1.688  -1.181   1.456  1.00  0.00     0.097 C 
BRANCH  13  14
ATOM     14  C   UNL     1      -1.470  -1.463   2.968  1.00  0.00     0.224 C 
ATOM     15  O   UNL     1      -2.264  -0.944   3.768  1.00  0.00    -0.275 OA
ATOM     16  N   UNL     1      -0.494  -2.245   3.511  1.00  0.00    -0.353 N 
ATOM     17  H   UNL     1      -0.423  -2.171   4.490  1.00  0.00     0.163 HD
BRANCH  16  18
ATOM     18  C   UNL     1       0.471  -3.176   2.915  1.00  0.00     0.084 C 
ATOM     19  C   UNL     1      -0.183  -4.563   3.017  1.00  0.00     0.031 C 
BRANCH  18  20
ATOM     20  C   UNL     1       1.952  -3.168   3.516  1.00  0.00    -0.018 C 
ATOM     21  C   UNL     1       2.824  -4.132   2.674  1.00  0.00     0.013 C 
ATOM     22  C   UNL     1       2.714  -1.827   3.456  1.00  0.00     0.013 C 
ATOM     23  C   UNL     1       1.976  -3.592   4.993  1.00  0.00     0.013 C 
ENDBRANCH  18  20
ENDBRANCH  16  18
ENDBRANCH  13  14
ENDBRANCH   4   6
ENDBRANCH   3   4
ENDBRANCH   2   3
ENDBRANCH   1   2
BRANCH   1  24
ATOM     24  O   UNL     1       0.079   2.114   3.962  1.00  0.00    -0.374 OA
BRANCH  24  25
ATOM     25  C   UNL     1      -1.081   2.323   3.184  1.00  0.00     0.202 C 
BRANCH  25  26
ATOM     26  C   UNL     1      -1.296   3.667   2.492  1.00  0.00     0.261 C 
BRANCH  26  27
ATOM     27  O   UNL     1      -0.137   4.165   1.820  1.00  0.00    -0.460 OA
BRANCH  27  28
ATOM     28  C   UNL     1       0.524   5.138   2.492  1.00  0.00     0.338 C 
ATOM     29  O   UNL     1       0.219   5.651   3.554  1.00  0.00    -0.246 OA
BRANCH  28  30
ATOM     30  C   UNL     1       1.815   5.381   1.828  1.00  0.00     0.060 A 
ATOM     31  C   UNL     1       2.972   5.352   2.619  1.00  0.00     0.016 A 
ATOM     32  C   UNL     1       1.891   5.629   0.456  1.00  0.00     0.016 A 
ATOM     33  C   UNL     1       4.212   5.603   2.047  1.00  0.00     0.010 A 
ATOM     34  C   UNL     1       3.132   5.916  -0.113  1.00  0.00     0.010 A 
ATOM     35  C   UNL     1       4.286   5.940   0.691  1.00  0.00    -0.014 A 
BRANCH  35  36
ATOM     36  C   UNL     1       5.527   6.548   0.174  1.00  0.00     0.031 A 
ATOM     37  C   UNL     1       5.615   8.047   0.152  1.00  0.00     0.074 A 
ATOM     38  C   UNL     1       6.556   5.787  -0.231  1.00  0.00     0.049 A 
ATOM     39  N   UNL     1       6.572   8.815  -0.296  1.00  0.00    -0.248 NA
ATOM     40  C   UNL     1       4.464   8.778   0.712  1.00  0.00     0.031 C 
ATOM     41  C   UNL     1       6.598   4.326  -0.193  1.00  0.00     0.029 A 
ATOM     42  N   UNL     1       7.766   6.149  -0.763  1.00  0.00    -0.354 N 
ATOM     43  C   UNL     1       6.136  10.116  -0.081  1.00  0.00     0.074 A 
ATOM     44  C   UNL     1       4.819  10.037   0.509  1.00  0.00     0.031 C 
ATOM     45  C   UNL     1       7.774   3.914  -0.698  1.00  0.00     0.029 A 
ATOM     46  C   UNL     1       8.546   5.079  -1.125  1.00  0.00     0.049 A 
ATOM     47  H   UNL     1       8.048   7.085  -0.875  1.00  0.00     0.167 HD
ATOM     48  C   UNL     1       6.779  11.275  -0.348  1.00  0.00     0.031 A 
ATOM     49  C   UNL     1       9.735   5.053  -1.756  1.00  0.00     0.031 A 
ATOM     50  C   UNL     1       8.079  11.343  -0.958  1.00  0.00     0.049 A 
ATOM     51  C   UNL     1      10.390   6.357  -2.131  1.00  0.00     0.074 A 
ATOM     52  C   UNL     1       8.825  12.463  -1.277  1.00  0.00     0.029 A 
ATOM     53  N   UNL     1       8.821  10.238  -1.349  1.00  0.00    -0.354 N 
ATOM     54  N   UNL     1       9.979   7.583  -1.911  1.00  0.00    -0.248 NA
ATOM     55  C   UNL     1      11.677   6.271  -2.834  1.00  0.00     0.031 C 
ATOM     56  C   UNL     1       9.992  12.036  -1.918  1.00  0.00     0.029 A 
ATOM     57  C   UNL     1      10.005  10.650  -1.934  1.00  0.00     0.049 A 
ATOM     58  H   UNL     1       8.545   9.301  -1.228  1.00  0.00     0.167 HD
ATOM     59  C   UNL     1      10.970   8.414  -2.421  1.00  0.00     0.074 A 
ATOM     60  C   UNL     1      12.008   7.550  -2.947  1.00  0.00     0.031 C 
ATOM     61  C   UNL     1      11.021   9.769  -2.449  1.00  0.00     0.031 A 
BRANCH  48  62
ATOM     62  C   UNL     1       6.061  12.555  -0.025  1.00  0.00    -0.014 A 
ATOM     63  C   UNL     1       5.841  12.956   1.303  1.00  0.00     0.009 A 
ATOM     64  C   UNL     1       5.609  13.380  -1.066  1.00  0.00     0.009 A 
ATOM     65  C   UNL     1       5.152  14.139   1.579  1.00  0.00     0.001 A 
ATOM     66  C   UNL     1       4.948  14.577  -0.787  1.00  0.00     0.001 A 
ATOM     67  C   UNL     1       4.711  14.951   0.535  1.00  0.00     0.000 A 
ENDBRANCH  48  62
BRANCH  49  68
ATOM     68  C   UNL     1      10.368   3.753  -2.102  1.00  0.00    -0.014 A 
ATOM     69  C   UNL     1      11.559   3.345  -1.483  1.00  0.00     0.009 A 
ATOM     70  C   UNL     1       9.790   2.919  -3.073  1.00  0.00     0.009 A 
ATOM     71  C   UNL     1      12.171   2.144  -1.848  1.00  0.00     0.001 A 
ATOM     72  C   UNL     1      10.387   1.703  -3.413  1.00  0.00     0.001 A 
ATOM     73  C   UNL     1      11.583   1.322  -2.808  1.00  0.00     0.000 A 
ENDBRANCH  49  68
BRANCH  61  74
ATOM     74  C   UNL     1      12.257  10.399  -3.029  1.00  0.00    -0.014 A 
ATOM     75  C   UNL     1      12.518  10.367  -4.407  1.00  0.00     0.009 A 
ATOM     76  C   UNL     1      13.146  11.083  -2.183  1.00  0.00     0.009 A 
ATOM     77  C   UNL     1      13.663  10.978  -4.922  1.00  0.00     0.001 A 
ATOM     78  C   UNL     1      14.271  11.721  -2.705  1.00  0.00     0.001 A 
ATOM     79  C   UNL     1      14.534  11.659  -4.072  1.00  0.00     0.000 A 
ENDBRANCH  61  74
ENDBRANCH  35  36
ENDBRANCH  28  30
ENDBRANCH  27  28
ENDBRANCH  26  27
ENDBRANCH  25  26
ENDBRANCH  24  25
ENDBRANCH   1  24
TORSDOF 17
