REMARK SMILES COc1cc(OC)cc(-c2ccc([C@@H](C)C(=O)OCCOCCOC(=O)c3ccc(-c4c5nc(c(-c6ccccc6)c6ccc([nH]6)c(-c6ccccc6)c6nc(c(-c7ccccc7)c7ccc4[nH]7)C=C6)C=C5)cc3)cc2F)c1
REMARK SMILES IDX 20 1 19 2 18 3 16 4 17 5 14 6 15 7 13 8 10 9 11 10 76 11
REMARK SMILES IDX 12 12 75 13 77 14 9 15 3 16 4 17 78 18 5 19 8 20 2 21 1 22
REMARK SMILES IDX 6 23 7 24 21 25 22 26 23 27 24 28 25 29 26 30 27 31 28 32
REMARK SMILES IDX 74 33 29 34 73 35 30 36 31 37 32 38 67 39 33 40 72 41 66 42
REMARK SMILES IDX 68 43 34 44 71 45 65 46 64 47 35 49 57 50 42 51 56 52 43 53
REMARK SMILES IDX 46 54 55 55 69 56 44 57 45 58 54 60 70 61 47 62 36 63 37 64
REMARK SMILES IDX 41 65 38 66 40 67 39 68 58 69 59 70 63 71 60 72 62 73 61 74
REMARK SMILES IDX 48 75 49 76 53 77 50 78 52 79 51 80
REMARK H PARENT 68 48 46 59
REMARK Flexibility Score: inf
ROOT
ATOM      1  C   UNL     1       8.696  -2.272   5.206  1.00  0.00     0.202 C 
ENDROOT
BRANCH   1   2
ATOM      2  C   UNL     1       9.222  -1.214   6.178  1.00  0.00     0.261 C 
BRANCH   2   3
ATOM      3  O   UNL     1       8.461   0.004   6.062  1.00  0.00    -0.463 OA
BRANCH   3   4
ATOM      4  C   UNL     1       9.163   1.116   5.726  1.00  0.00     0.313 C 
ATOM      5  O   UNL     1      10.388   1.171   5.669  1.00  0.00    -0.252 OA
BRANCH   4   6
ATOM      6  C   UNL     1       8.292   2.333   5.458  1.00  0.00     0.126 C 
ATOM      7  C   UNL     1       8.286   3.225   6.698  1.00  0.00     0.025 C 
BRANCH   6   8
ATOM      8  C   UNL     1       6.883   2.099   4.918  1.00  0.00    -0.031 A 
ATOM      9  C   UNL     1       4.203   1.953   3.938  1.00  0.00     0.018 A 
ATOM     10  C   UNL     1       4.545   1.457   5.207  1.00  0.00     0.012 A 
ATOM     11  C   UNL     1       5.243   2.463   3.152  1.00  0.00     0.131 A 
ATOM     12  C   UNL     1       5.862   1.528   5.691  1.00  0.00     0.005 A 
ATOM     13  C   UNL     1       6.556   2.538   3.626  1.00  0.00     0.044 A 
ATOM     14  F   UNL     1       4.989   2.948   1.927  1.00  0.00    -0.206 F 
BRANCH   9  15
ATOM     15  C   UNL     1       2.795   2.027   3.500  1.00  0.00    -0.008 A 
ATOM     16  C   UNL     1       1.031   1.600   1.871  1.00  0.00     0.123 A 
ATOM     17  C   UNL     1       0.135   2.324   2.659  1.00  0.00     0.092 A 
ATOM     18  C   UNL     1       2.359   1.460   2.287  1.00  0.00     0.055 A 
ATOM     19  C   UNL     1       0.540   2.898   3.861  1.00  0.00     0.123 A 
ATOM     20  C   UNL     1       1.861   2.736   4.282  1.00  0.00     0.055 A 
BRANCH  16  21
ATOM     21  O   UNL     1       0.499   1.122   0.705  1.00  0.00    -0.497 OA
ATOM     22  C   UNL     1       1.193   0.052   0.078  1.00  0.00     0.278 C 
ENDBRANCH  16  21
BRANCH  19  23
ATOM     23  O   UNL     1      -0.435   3.586   4.529  1.00  0.00    -0.497 OA
ATOM     24  C   UNL     1      -0.011   4.419   5.602  1.00  0.00     0.278 C 
ENDBRANCH  19  23
ENDBRANCH   9  15
ENDBRANCH   6   8
ENDBRANCH   4   6
ENDBRANCH   3   4
ENDBRANCH   2   3
ENDBRANCH   1   2
BRANCH   1  25
ATOM     25  O   UNL     1       8.955  -2.023   3.824  1.00  0.00    -0.374 OA
BRANCH  25  26
ATOM     26  C   UNL     1       8.148  -1.042   3.173  1.00  0.00     0.202 C 
BRANCH  26  27
ATOM     27  C   UNL     1       6.750  -1.502   2.745  1.00  0.00     0.261 C 
BRANCH  27  28
ATOM     28  O   UNL     1       5.914  -1.816   3.873  1.00  0.00    -0.460 OA
BRANCH  28  29
ATOM     29  C   UNL     1       5.599  -3.124   3.994  1.00  0.00     0.338 C 
ATOM     30  O   UNL     1       5.866  -4.027   3.210  1.00  0.00    -0.246 OA
BRANCH  29  31
ATOM     31  C   UNL     1       4.997  -3.397   5.312  1.00  0.00     0.060 A 
ATOM     32  C   UNL     1       5.523  -4.471   6.042  1.00  0.00     0.016 A 
ATOM     33  C   UNL     1       3.880  -2.701   5.780  1.00  0.00     0.016 A 
ATOM     34  C   UNL     1       4.888  -4.904   7.203  1.00  0.00     0.010 A 
ATOM     35  C   UNL     1       3.239  -3.141   6.946  1.00  0.00     0.010 A 
ATOM     36  C   UNL     1       3.711  -4.275   7.632  1.00  0.00    -0.014 A 
BRANCH  36  37
ATOM     37  C   UNL     1       2.892  -4.936   8.679  1.00  0.00     0.031 A 
ATOM     38  C   UNL     1       1.727  -5.793   8.256  1.00  0.00     0.074 A 
ATOM     39  C   UNL     1       3.218  -4.842   9.980  1.00  0.00     0.049 A 
ATOM     40  N   UNL     1       0.911  -6.505   8.992  1.00  0.00    -0.248 NA
ATOM     41  C   UNL     1       1.449  -5.861   6.812  1.00  0.00     0.031 C 
ATOM     42  C   UNL     1       4.344  -4.082  10.520  1.00  0.00     0.029 A 
ATOM     43  N   UNL     1       2.630  -5.406  11.085  1.00  0.00    -0.354 N 
ATOM     44  C   UNL     1       0.023  -7.098   8.103  1.00  0.00     0.074 A 
ATOM     45  C   UNL     1       0.380  -6.643   6.777  1.00  0.00     0.031 C 
ATOM     46  C   UNL     1       4.364  -4.227  11.857  1.00  0.00     0.029 A 
ATOM     47  C   UNL     1       3.245  -5.073  12.266  1.00  0.00     0.049 A 
ATOM     48  H   UNL     1       1.841  -5.993  11.035  1.00  0.00     0.167 HD
ATOM     49  C   UNL     1      -0.994  -7.954   8.362  1.00  0.00     0.031 A 
ATOM     50  C   UNL     1       2.937  -5.409  13.534  1.00  0.00     0.031 A 
ATOM     51  C   UNL     1      -1.359  -8.411   9.675  1.00  0.00     0.049 A 
ATOM     52  C   UNL     1       1.770  -6.324  13.799  1.00  0.00     0.074 A 
ATOM     53  C   UNL     1      -2.369  -9.287  10.033  1.00  0.00     0.029 A 
ATOM     54  N   UNL     1      -0.727  -8.027  10.845  1.00  0.00    -0.354 N 
ATOM     55  N   UNL     1       0.960  -6.900  12.945  1.00  0.00    -0.248 NA
ATOM     56  C   UNL     1       1.490  -6.647  15.206  1.00  0.00     0.031 C 
ATOM     57  C   UNL     1      -2.375  -9.400  11.427  1.00  0.00     0.029 A 
ATOM     58  C   UNL     1      -1.336  -8.634  11.930  1.00  0.00     0.049 A 
ATOM     59  H   UNL     1       0.042  -7.414  10.898  1.00  0.00     0.167 HD
ATOM     60  C   UNL     1       0.096  -7.678  13.708  1.00  0.00     0.074 A 
ATOM     61  C   UNL     1       0.489  -7.509  15.091  1.00  0.00     0.031 C 
ATOM     62  C   UNL     1      -0.928  -8.465  13.299  1.00  0.00     0.031 A 
BRANCH  49  63
ATOM     63  C   UNL     1      -1.808  -8.433   7.193  1.00  0.00    -0.014 A 
ATOM     64  C   UNL     1      -1.300  -9.384   6.295  1.00  0.00     0.009 A 
ATOM     65  C   UNL     1      -3.115  -7.955   7.014  1.00  0.00     0.009 A 
ATOM     66  C   UNL     1      -2.078  -9.828   5.223  1.00  0.00     0.001 A 
ATOM     67  C   UNL     1      -3.898  -8.418   5.955  1.00  0.00     0.001 A 
ATOM     68  C   UNL     1      -3.377  -9.348   5.058  1.00  0.00     0.000 A 
ENDBRANCH  49  63
BRANCH  50  69
ATOM     69  C   UNL     1       3.738  -4.872  14.664  1.00  0.00    -0.014 A 
ATOM     70  C   UNL     1       4.570  -5.712  15.419  1.00  0.00     0.009 A 
ATOM     71  C   UNL     1       3.641  -3.517  15.017  1.00  0.00     0.009 A 
ATOM     72  C   UNL     1       5.265  -5.212  16.523  1.00  0.00     0.001 A 
ATOM     73  C   UNL     1       4.358  -3.014  16.104  1.00  0.00     0.001 A 
ATOM     74  C   UNL     1       5.160  -3.864  16.863  1.00  0.00     0.000 A 
ENDBRANCH  50  69
BRANCH  62  75
ATOM     75  C   UNL     1      -1.665  -9.241  14.354  1.00  0.00    -0.014 A 
ATOM     76  C   UNL     1      -2.549  -8.610  15.242  1.00  0.00     0.009 A 
ATOM     77  C   UNL     1      -1.498 -10.633  14.432  1.00  0.00     0.009 A 
ATOM     78  C   UNL     1      -3.223  -9.354  16.213  1.00  0.00     0.001 A 
ATOM     79  C   UNL     1      -2.193 -11.377  15.386  1.00  0.00     0.001 A 
ATOM     80  C   UNL     1      -3.047 -10.736  16.282  1.00  0.00     0.000 A 
ENDBRANCH  62  75
ENDBRANCH  36  37
ENDBRANCH  29  31
ENDBRANCH  28  29
ENDBRANCH  27  28
ENDBRANCH  26  27
ENDBRANCH  25  26
ENDBRANCH   1  25
TORSDOF 18
