REMARK SMILES [NH3+][C@H](Cc1ccc2nsnc2c1)C(=O)OCCOCCOC(=O)c1ccc(-c2c3nc(c(-c4ccccc4)c4ccc([nH]4)c(-c4ccccc4)c4nc(c(-c5ccccc5)c5ccc2[nH]5)C=C4)C=C3)cc1
REMARK SMILES IDX 18 1 17 2 16 3 15 4 13 5 14 6 2 7 1 8 3 12 4 13 5 14 12 15
REMARK SMILES IDX 6 16 11 17 7 18 10 19 8 20 9 21 19 22 20 23 21 24 22 25
REMARK SMILES IDX 23 26 24 27 25 28 71 29 26 30 70 31 27 32 28 33 29 34 64 35
REMARK SMILES IDX 30 36 69 37 63 38 65 39 31 40 68 41 62 42 61 43 32 45 54 46
REMARK SMILES IDX 39 47 53 48 40 49 43 50 52 51 66 52 41 53 42 54 51 56 67 57
REMARK SMILES IDX 44 58 33 59 34 60 38 61 35 62 37 63 36 64 55 65 56 66 60 67
REMARK SMILES IDX 57 68 59 69 58 70 45 71 46 72 50 73 47 74 49 75 48 76
REMARK H PARENT 1 9 1 10 1 11 65 44 43 55
REMARK Flexibility Score: inf
ROOT
ATOM      1  O   UNL     1      -3.431   0.013  -1.740  1.00  0.00    -0.374 OA
ENDROOT
BRANCH   1   2
ATOM      2  C   UNL     1      -3.745  -0.615  -0.495  1.00  0.00     0.202 C 
BRANCH   2   3
ATOM      3  C   UNL     1      -2.974  -1.902  -0.195  1.00  0.00     0.261 C 
BRANCH   3   4
ATOM      4  O   UNL     1      -1.591  -1.596   0.057  1.00  0.00    -0.459 OA
BRANCH   4   5
ATOM      5  C   UNL     1      -0.681  -2.342  -0.625  1.00  0.00     0.365 C 
ATOM      6  O   UNL     1      -0.964  -3.342  -1.275  1.00  0.00    -0.245 OA
BRANCH   5   7
ATOM      7  C   UNL     1       0.745  -1.746  -0.552  1.00  0.00     0.296 C 
BRANCH   7   8
ATOM      8  N   UNL     1       1.721  -2.797  -0.194  1.00  0.00    -0.346 N 
ATOM      9  H   UNL     1       1.549  -3.628  -0.760  1.00  0.00     0.345 HD
ATOM     10  H   UNL     1       1.621  -3.033   0.793  1.00  0.00     0.345 HD
ATOM     11  H   UNL     1       2.667  -2.457  -0.368  1.00  0.00     0.345 HD
ENDBRANCH   7   8
BRANCH   7  12
ATOM     12  C   UNL     1       0.909  -0.427   0.249  1.00  0.00     0.113 C 
BRANCH  12  13
ATOM     13  C   UNL     1       1.419  -0.539   1.677  1.00  0.00    -0.039 A 
ATOM     14  C   UNL     1       2.617   0.154   2.024  1.00  0.00     0.006 A 
ATOM     15  C   UNL     1       0.699  -1.301   2.623  1.00  0.00     0.035 A 
ATOM     16  C   UNL     1       3.206   0.113   3.302  1.00  0.00     0.032 A 
ATOM     17  C   UNL     1       1.258  -1.392   3.920  1.00  0.00     0.105 A 
ATOM     18  C   UNL     1       2.536  -0.675   4.264  1.00  0.00     0.104 A 
ATOM     19  N   UNL     1       0.752  -2.093   4.946  1.00  0.00    -0.173 NA
ATOM     20  N   UNL     1       2.930  -0.874   5.530  1.00  0.00    -0.173 NA
ATOM     21  S   UNL     1       1.798  -1.876   6.220  1.00  0.00     0.069 S 
ENDBRANCH  12  13
ENDBRANCH   7  12
ENDBRANCH   5   7
ENDBRANCH   4   5
ENDBRANCH   3   4
ENDBRANCH   2   3
ENDBRANCH   1   2
BRANCH   1  22
ATOM     22  C   UNL     1      -2.206   0.739  -1.823  1.00  0.00     0.202 C 
BRANCH  22  23
ATOM     23  C   UNL     1      -2.207   2.137  -1.191  1.00  0.00     0.261 C 
BRANCH  23  24
ATOM     24  O   UNL     1      -2.417   2.098   0.233  1.00  0.00    -0.460 OA
BRANCH  24  25
ATOM     25  C   UNL     1      -3.593   2.629   0.644  1.00  0.00     0.338 C 
ATOM     26  O   UNL     1      -4.430   3.198  -0.046  1.00  0.00    -0.246 OA
BRANCH  25  27
ATOM     27  C   UNL     1      -3.849   2.298   2.057  1.00  0.00     0.060 A 
ATOM     28  C   UNL     1      -5.075   1.692   2.362  1.00  0.00     0.016 A 
ATOM     29  C   UNL     1      -2.964   2.658   3.075  1.00  0.00     0.016 A 
ATOM     30  C   UNL     1      -5.444   1.492   3.691  1.00  0.00     0.010 A 
ATOM     31  C   UNL     1      -3.341   2.465   4.410  1.00  0.00     0.010 A 
ATOM     32  C   UNL     1      -4.598   1.916   4.724  1.00  0.00    -0.014 A 
BRANCH  32  33
ATOM     33  C   UNL     1      -5.102   1.915   6.120  1.00  0.00     0.031 A 
ATOM     34  C   UNL     1      -5.647   3.190   6.704  1.00  0.00     0.074 A 
ATOM     35  C   UNL     1      -5.123   0.783   6.845  1.00  0.00     0.049 A 
ATOM     36  N   UNL     1      -6.149   3.408   7.894  1.00  0.00    -0.248 NA
ATOM     37  C   UNL     1      -5.628   4.375   5.831  1.00  0.00     0.031 C 
ATOM     38  C   UNL     1      -4.668  -0.527   6.383  1.00  0.00     0.029 A 
ATOM     39  N   UNL     1      -5.552   0.559   8.130  1.00  0.00    -0.354 N 
ATOM     40  C   UNL     1      -6.501   4.752   7.913  1.00  0.00     0.074 A 
ATOM     41  C   UNL     1      -6.131   5.306   6.628  1.00  0.00     0.031 C 
ATOM     42  C   UNL     1      -4.841  -1.421   7.373  1.00  0.00     0.029 A 
ATOM     43  C   UNL     1      -5.392  -0.740   8.544  1.00  0.00     0.049 A 
ATOM     44  H   UNL     1      -5.937   1.263   8.700  1.00  0.00     0.167 HD
ATOM     45  C   UNL     1      -7.086   5.463   8.907  1.00  0.00     0.031 A 
ATOM     46  C   UNL     1      -5.646  -1.312   9.736  1.00  0.00     0.031 A 
ATOM     47  C   UNL     1      -7.445   4.924  10.191  1.00  0.00     0.049 A 
ATOM     48  C   UNL     1      -6.223  -0.482  10.852  1.00  0.00     0.074 A 
ATOM     49  C   UNL     1      -8.054   5.565  11.256  1.00  0.00     0.029 A 
ATOM     50  N   UNL     1      -7.220   3.615  10.587  1.00  0.00    -0.354 N 
ATOM     51  N   UNL     1      -6.574   0.781  10.848  1.00  0.00    -0.248 NA
ATOM     52  C   UNL     1      -6.444  -1.163  12.137  1.00  0.00     0.031 C 
ATOM     53  C   UNL     1      -8.152   4.657  12.316  1.00  0.00     0.029 A 
ATOM     54  C   UNL     1      -7.652   3.437  11.890  1.00  0.00     0.049 A 
ATOM     55  H   UNL     1      -6.814   2.917  10.025  1.00  0.00     0.167 HD
ATOM     56  C   UNL     1      -7.080   1.038  12.117  1.00  0.00     0.074 A 
ATOM     57  C   UNL     1      -7.002  -0.202  12.860  1.00  0.00     0.031 C 
ATOM     58  C   UNL     1      -7.567   2.198  12.620  1.00  0.00     0.031 A 
BRANCH  45  59
ATOM     59  C   UNL     1      -7.345   6.920   8.651  1.00  0.00    -0.014 A 
ATOM     60  C   UNL     1      -8.373   7.337   7.791  1.00  0.00     0.009 A 
ATOM     61  C   UNL     1      -6.569   7.890   9.305  1.00  0.00     0.009 A 
ATOM     62  C   UNL     1      -8.598   8.697   7.567  1.00  0.00     0.001 A 
ATOM     63  C   UNL     1      -6.813   9.249   9.098  1.00  0.00     0.001 A 
ATOM     64  C   UNL     1      -7.821   9.651   8.223  1.00  0.00     0.000 A 
ENDBRANCH  45  59
BRANCH  46  65
ATOM     65  C   UNL     1      -5.340  -2.749   9.951  1.00  0.00    -0.014 A 
ATOM     66  C   UNL     1      -6.372  -3.689  10.095  1.00  0.00     0.009 A 
ATOM     67  C   UNL     1      -4.008  -3.184  10.035  1.00  0.00     0.009 A 
ATOM     68  C   UNL     1      -6.075  -5.032  10.341  1.00  0.00     0.001 A 
ATOM     69  C   UNL     1      -3.714  -4.532  10.254  1.00  0.00     0.001 A 
ATOM     70  C   UNL     1      -4.748  -5.452  10.416  1.00  0.00     0.000 A 
ENDBRANCH  46  65
BRANCH  58  71
ATOM     71  C   UNL     1      -8.085   2.175  14.030  1.00  0.00    -0.014 A 
ATOM     72  C   UNL     1      -7.211   2.113  15.126  1.00  0.00     0.009 A 
ATOM     73  C   UNL     1      -9.467   2.259  14.265  1.00  0.00     0.009 A 
ATOM     74  C   UNL     1      -7.713   2.103  16.429  1.00  0.00     0.001 A 
ATOM     75  C   UNL     1      -9.964   2.275  15.569  1.00  0.00     0.001 A 
ATOM     76  C   UNL     1      -9.088   2.189  16.649  1.00  0.00     0.000 A 
ENDBRANCH  58  71
ENDBRANCH  32  33
ENDBRANCH  25  27
ENDBRANCH  24  25
ENDBRANCH  23  24
ENDBRANCH  22  23
ENDBRANCH   1  22
TORSDOF 17
