REMARK SMILES Cc1ccc(C)n1-c1ccccc1S[C@H](C)C(=O)OCCOCCOC(=O)c1ccc(-c2c3nc(c(-c4ccccc4)c4ccc([nH]4)c(-c4ccccc4)c4nc(c(-c5ccccc5)c5ccc2[nH]5)C=C4)C=C3)cc1
REMARK SMILES IDX 21 1 20 2 19 3 17 4 18 5 15 6 16 7 14 8 13 9 8 10 9 11 10 12
REMARK SMILES IDX 12 13 11 14 7 15 1 16 2 17 3 18 4 19 5 20 6 21 22 22 23 23
REMARK SMILES IDX 24 24 25 25 26 26 27 27 28 28 29 29 75 30 30 31 74 32 31 33
REMARK SMILES IDX 32 34 33 35 68 36 34 37 73 38 67 39 69 40 35 41 72 42 66 43
REMARK SMILES IDX 65 44 36 46 58 47 43 48 57 49 44 50 47 51 56 52 70 53 45 54
REMARK SMILES IDX 46 55 55 57 71 58 48 59 37 60 38 61 42 62 39 63 41 64 40 65
REMARK SMILES IDX 59 66 60 67 64 68 61 69 63 70 62 71 49 72 50 73 54 74 51 75
REMARK SMILES IDX 53 76 52 77
REMARK H PARENT 69 45 47 56
REMARK Flexibility Score: inf
ROOT
ATOM      1  C   UNL     1      -2.706  -0.266   4.677  1.00  0.00     0.202 C 
ENDROOT
BRANCH   1   2
ATOM      2  C   UNL     1      -1.542  -1.077   4.080  1.00  0.00     0.261 C 
BRANCH   2   3
ATOM      3  O   UNL     1      -1.186  -0.596   2.774  1.00  0.00    -0.462 OA
BRANCH   3   4
ATOM      4  C   UNL     1      -1.297  -1.472   1.738  1.00  0.00     0.319 C 
ATOM      5  O   UNL     1      -1.648  -2.638   1.849  1.00  0.00    -0.251 OA
BRANCH   4   6
ATOM      6  C   UNL     1      -0.875  -0.858   0.406  1.00  0.00     0.158 C 
ATOM      7  C   UNL     1      -1.583   0.399  -0.083  1.00  0.00     0.032 C 
BRANCH   6   8
ATOM      8  S   UNL     1       0.944  -0.800   0.299  1.00  0.00    -0.109 SA
BRANCH   8   9
ATOM      9  C   UNL     1       1.560   0.658   1.155  1.00  0.00     0.032 A 
ATOM     10  C   UNL     1       2.953   0.905   1.162  1.00  0.00     0.059 A 
ATOM     11  C   UNL     1       3.517   1.942   1.927  1.00  0.00     0.028 A 
ATOM     12  C   UNL     1       2.697   2.769   2.687  1.00  0.00     0.002 A 
ATOM     13  C   UNL     1       0.767   1.530   1.911  1.00  0.00     0.017 A 
ATOM     14  C   UNL     1       1.323   2.567   2.672  1.00  0.00     0.001 A 
BRANCH  10  15
ATOM     15  N   UNL     1       3.849   0.056   0.459  1.00  0.00    -0.317 N 
ATOM     16  C   UNL     1       3.130   0.664  -1.918  1.00  0.00     0.065 C 
ATOM     17  C   UNL     1       3.912  -0.124  -0.920  1.00  0.00     0.020 A 
ATOM     18  C   UNL     1       4.798  -1.154  -1.171  1.00  0.00     0.023 A 
ATOM     19  C   UNL     1       5.332  -1.574   0.062  1.00  0.00     0.023 A 
ATOM     20  C   UNL     1       4.758  -0.808   1.059  1.00  0.00     0.020 A 
ATOM     21  C   UNL     1       4.963  -0.931   2.530  1.00  0.00     0.065 C 
ENDBRANCH  10  15
ENDBRANCH   8   9
ENDBRANCH   6   8
ENDBRANCH   4   6
ENDBRANCH   3   4
ENDBRANCH   2   3
ENDBRANCH   1   2
BRANCH   1  22
ATOM     22  O   UNL     1      -3.904  -0.259   3.897  1.00  0.00    -0.374 OA
BRANCH  22  23
ATOM     23  C   UNL     1      -3.940   0.688   2.816  1.00  0.00     0.202 C 
BRANCH  23  24
ATOM     24  C   UNL     1      -4.517   2.089   3.155  1.00  0.00     0.261 C 
BRANCH  24  25
ATOM     25  O   UNL     1      -3.643   3.269   2.939  1.00  0.00    -0.460 OA
BRANCH  25  26
ATOM     26  C   UNL     1      -3.548   4.144   3.997  1.00  0.00     0.338 C 
ATOM     27  O   UNL     1      -3.865   3.823   5.136  1.00  0.00    -0.246 OA
BRANCH  26  28
ATOM     28  C   UNL     1      -2.970   5.553   3.761  1.00  0.00     0.060 A 
ATOM     29  C   UNL     1      -2.029   5.998   4.684  1.00  0.00     0.016 A 
ATOM     30  C   UNL     1      -3.463   6.561   2.905  1.00  0.00     0.016 A 
ATOM     31  C   UNL     1      -1.610   7.367   4.748  1.00  0.00     0.010 A 
ATOM     32  C   UNL     1      -3.087   7.990   3.031  1.00  0.00     0.010 A 
ATOM     33  C   UNL     1      -2.164   8.458   3.989  1.00  0.00    -0.014 A 
BRANCH  33  34
ATOM     34  C   UNL     1      -1.986   9.945   4.635  1.00  0.00     0.031 A 
ATOM     35  C   UNL     1      -2.121   9.700   6.098  1.00  0.00     0.074 A 
ATOM     36  C   UNL     1      -1.893  11.318   4.382  1.00  0.00     0.049 A 
ATOM     37  N   UNL     1      -3.193   9.121   6.552  1.00  0.00    -0.248 NA
ATOM     38  C   UNL     1      -1.000   9.756   7.036  1.00  0.00     0.031 C 
ATOM     39  C   UNL     1      -1.942  12.028   3.094  1.00  0.00     0.029 A 
ATOM     40  N   UNL     1      -1.725  12.444   5.264  1.00  0.00    -0.354 N 
ATOM     41  C   UNL     1      -3.006   8.991   7.901  1.00  0.00     0.074 A 
ATOM     42  C   UNL     1      -1.581   9.199   8.104  1.00  0.00     0.031 C 
ATOM     43  C   UNL     1      -1.688  13.364   3.240  1.00  0.00     0.029 A 
ATOM     44  C   UNL     1      -1.501  13.722   4.646  1.00  0.00     0.049 A 
ATOM     45  H   UNL     1      -1.763  12.344   6.243  1.00  0.00     0.167 HD
ATOM     46  C   UNL     1      -4.053   9.340   8.699  1.00  0.00     0.031 A 
ATOM     47  C   UNL     1      -1.259  14.981   5.188  1.00  0.00     0.031 A 
ATOM     48  C   UNL     1      -3.799  10.554   9.422  1.00  0.00     0.049 A 
ATOM     49  C   UNL     1      -1.804  15.004   6.555  1.00  0.00     0.074 A 
ATOM     50  C   UNL     1      -2.723  11.036  10.138  1.00  0.00     0.029 A 
ATOM     51  N   UNL     1      -4.566  11.647   9.074  1.00  0.00    -0.354 N 
ATOM     52  N   UNL     1      -3.074  15.187   6.749  1.00  0.00    -0.248 NA
ATOM     53  C   UNL     1      -0.982  15.056   7.760  1.00  0.00     0.031 C 
ATOM     54  C   UNL     1      -2.631  12.406   9.794  1.00  0.00     0.029 A 
ATOM     55  C   UNL     1      -3.782  12.781   9.111  1.00  0.00     0.049 A 
ATOM     56  H   UNL     1      -5.521  11.621   8.838  1.00  0.00     0.167 HD
ATOM     57  C   UNL     1      -3.249  14.852   8.054  1.00  0.00     0.074 A 
ATOM     58  C   UNL     1      -1.957  15.069   8.673  1.00  0.00     0.031 C 
ATOM     59  C   UNL     1      -4.192  13.911   8.308  1.00  0.00     0.031 A 
BRANCH  46  60
ATOM     60  C   UNL     1      -5.406   8.948   8.164  1.00  0.00    -0.014 A 
ATOM     61  C   UNL     1      -6.122   7.926   8.794  1.00  0.00     0.009 A 
ATOM     62  C   UNL     1      -5.915   9.474   6.956  1.00  0.00     0.009 A 
ATOM     63  C   UNL     1      -7.271   7.397   8.195  1.00  0.00     0.001 A 
ATOM     64  C   UNL     1      -7.036   8.921   6.341  1.00  0.00     0.001 A 
ATOM     65  C   UNL     1      -7.710   7.874   6.958  1.00  0.00     0.000 A 
ENDBRANCH  46  60
BRANCH  47  66
ATOM     66  C   UNL     1      -0.855  16.433   4.829  1.00  0.00    -0.014 A 
ATOM     67  C   UNL     1      -1.483  17.529   5.513  1.00  0.00     0.009 A 
ATOM     68  C   UNL     1       0.354  16.757   4.203  1.00  0.00     0.009 A 
ATOM     69  C   UNL     1      -0.898  18.799   5.675  1.00  0.00     0.001 A 
ATOM     70  C   UNL     1       0.926  18.055   4.327  1.00  0.00     0.001 A 
ATOM     71  C   UNL     1       0.326  19.059   5.091  1.00  0.00     0.000 A 
ENDBRANCH  47  66
BRANCH  59  72
ATOM     72  C   UNL     1      -5.471  13.961   7.474  1.00  0.00    -0.014 A 
ATOM     73  C   UNL     1      -5.530  14.171   6.076  1.00  0.00     0.009 A 
ATOM     74  C   UNL     1      -6.697  13.830   8.140  1.00  0.00     0.009 A 
ATOM     75  C   UNL     1      -6.743  14.326   5.395  1.00  0.00     0.001 A 
ATOM     76  C   UNL     1      -7.914  13.929   7.452  1.00  0.00     0.001 A 
ATOM     77  C   UNL     1      -7.938  14.199   6.086  1.00  0.00     0.000 A 
ENDBRANCH  59  72
ENDBRANCH  33  34
ENDBRANCH  26  28
ENDBRANCH  25  26
ENDBRANCH  24  25
ENDBRANCH  23  24
ENDBRANCH  22  23
ENDBRANCH   1  22
TORSDOF 17
