REMARK SMILES C[NH2+][C@@]1(C(=O)OCCOCCOC(=O)c2ccc(-c3c4nc(c(-c5ccccc5)c5ccc([nH]5)c(-c5ccccc5)c5nc(c(-c6ccccc6)c6ccc3[nH]6)C=C5)C=C4)cc2)CC[C@H]([NH+]2CC[NH+](C)CC2)C1
REMARK SMILES IDX 10 1 9 2 8 3 7 4 6 5 4 6 5 7 3 8 63 9 73 10 64 11 65 12 2 13
REMARK SMILES IDX 1 14 66 17 67 18 72 19 68 21 71 22 69 23 70 24 11 26 12 27
REMARK SMILES IDX 13 28 14 29 15 30 16 31 62 32 17 33 61 34 18 35 19 36 20 37
REMARK SMILES IDX 55 38 21 39 60 40 54 41 56 42 22 43 59 44 53 45 52 46 23 48
REMARK SMILES IDX 45 49 30 50 44 51 31 52 34 53 43 54 57 55 32 56 33 57 42 59
REMARK SMILES IDX 58 60 35 61 24 62 25 63 29 64 26 65 28 66 27 67 46 68 47 69
REMARK SMILES IDX 51 70 48 71 50 72 49 73 36 74 37 75 41 76 38 77 40 78 39 79
REMARK H PARENT 2 15 2 16 66 20 69 25 56 47 34 58
REMARK Flexibility Score: inf
ROOT
ATOM      1  C   UNL     1      -0.462  -2.708   4.118  1.00  0.00     0.202 C 
ENDROOT
BRANCH   1   2
ATOM      2  O   UNL     1      -0.726  -1.977   5.313  1.00  0.00    -0.374 OA
BRANCH   2   3
ATOM      3  C   UNL     1      -1.858  -1.103   5.297  1.00  0.00     0.202 C 
BRANCH   3   4
ATOM      4  C   UNL     1      -1.659   0.185   4.492  1.00  0.00     0.261 C 
BRANCH   4   5
ATOM      5  O   UNL     1      -1.699  -0.140   3.088  1.00  0.00    -0.459 OA
BRANCH   5   6
ATOM      6  C   UNL     1      -0.829   0.506   2.278  1.00  0.00     0.368 C 
ATOM      7  O   UNL     1      -0.179   1.485   2.633  1.00  0.00    -0.245 OA
BRANCH   6   8
ATOM      8  C   UNL     1      -0.713  -0.154   0.855  1.00  0.00     0.200 C 
ATOM      9  C   UNL     1      -1.311   0.842  -0.156  1.00  0.00     0.087 C 
ATOM     10  C   UNL     1      -1.536  -1.436   0.588  1.00  0.00     0.146 C 
ATOM     11  C   UNL     1      -2.796   0.490  -0.250  1.00  0.00     0.072 C 
ATOM     12  C   UNL     1      -2.896  -1.020  -0.014  1.00  0.00     0.191 C 
BRANCH   8  13
ATOM     13  N   UNL     1       0.725  -0.505   0.738  1.00  0.00    -0.334 N 
ATOM     14  C   UNL     1       1.469   0.095  -0.347  1.00  0.00     0.331 C 
ATOM     15  H   UNL     1       1.179  -0.230   1.609  1.00  0.00     0.347 HD
ATOM     16  H   UNL     1       0.735  -1.506   0.541  1.00  0.00     0.347 HD
ENDBRANCH   8  13
BRANCH  12  17
ATOM     17  N   UNL     1      -4.080  -1.606   0.628  1.00  0.00    -0.323 N 
ATOM     18  C   UNL     1      -5.374  -1.278   0.004  1.00  0.00     0.324 C 
ATOM     19  C   UNL     1      -4.232  -1.435   2.075  1.00  0.00     0.324 C 
ATOM     20  H   UNL     1      -3.847  -2.585   0.459  1.00  0.00     0.348 HD
ATOM     21  C   UNL     1      -6.018   0.061   0.452  1.00  0.00     0.324 C 
ATOM     22  C   UNL     1      -4.724  -0.052   2.530  1.00  0.00     0.324 C 
ATOM     23  N   UNL     1      -6.000   0.327   1.906  1.00  0.00    -0.328 N 
ATOM     24  C   UNL     1      -6.289   1.736   2.175  1.00  0.00     0.333 C 
ATOM     25  H   UNL     1      -6.728  -0.254   2.321  1.00  0.00     0.348 HD
ENDBRANCH  12  17
ENDBRANCH   6   8
ENDBRANCH   5   6
ENDBRANCH   4   5
ENDBRANCH   3   4
ENDBRANCH   2   3
ENDBRANCH   1   2
BRANCH   1  26
ATOM     26  C   UNL     1      -1.213  -4.039   3.973  1.00  0.00     0.261 C 
BRANCH  26  27
ATOM     27  O   UNL     1      -2.642  -3.881   3.898  1.00  0.00    -0.460 OA
BRANCH  27  28
ATOM     28  C   UNL     1      -3.306  -4.117   5.053  1.00  0.00     0.338 C 
ATOM     29  O   UNL     1      -2.825  -4.457   6.126  1.00  0.00    -0.246 OA
BRANCH  28  30
ATOM     30  C   UNL     1      -4.731  -3.760   4.908  1.00  0.00     0.060 A 
ATOM     31  C   UNL     1      -5.291  -2.910   5.869  1.00  0.00     0.016 A 
ATOM     32  C   UNL     1      -5.526  -4.288   3.888  1.00  0.00     0.016 A 
ATOM     33  C   UNL     1      -6.657  -2.626   5.843  1.00  0.00     0.010 A 
ATOM     34  C   UNL     1      -6.894  -3.987   3.854  1.00  0.00     0.010 A 
ATOM     35  C   UNL     1      -7.478  -3.191   4.857  1.00  0.00    -0.014 A 
BRANCH  35  36
ATOM     36  C   UNL     1      -8.957  -3.082   4.975  1.00  0.00     0.031 A 
ATOM     37  C   UNL     1      -9.748  -4.289   5.413  1.00  0.00     0.074 A 
ATOM     38  C   UNL     1      -9.598  -1.921   4.742  1.00  0.00     0.049 A 
ATOM     39  N   UNL     1     -11.041  -4.425   5.574  1.00  0.00    -0.248 NA
ATOM     40  C   UNL     1      -8.976  -5.509   5.704  1.00  0.00     0.031 C 
ATOM     41  C   UNL     1      -8.963  -0.665   4.346  1.00  0.00     0.029 A 
ATOM     42  N   UNL     1     -10.937  -1.615   4.809  1.00  0.00    -0.354 N 
ATOM     43  C   UNL     1     -11.236  -5.743   5.969  1.00  0.00     0.074 A 
ATOM     44  C   UNL     1      -9.936  -6.376   5.986  1.00  0.00     0.031 C 
ATOM     45  C   UNL     1      -9.911   0.280   4.216  1.00  0.00     0.029 A 
ATOM     46  C   UNL     1     -11.222  -0.313   4.477  1.00  0.00     0.049 A 
ATOM     47  H   UNL     1     -11.626  -2.267   5.072  1.00  0.00     0.167 HD
ATOM     48  C   UNL     1     -12.390  -6.373   6.299  1.00  0.00     0.031 A 
ATOM     49  C   UNL     1     -12.406   0.324   4.373  1.00  0.00     0.031 A 
ATOM     50  C   UNL     1     -13.689  -5.754   6.280  1.00  0.00     0.049 A 
ATOM     51  C   UNL     1     -13.684  -0.419   4.668  1.00  0.00     0.074 A 
ATOM     52  C   UNL     1     -14.911  -6.309   6.620  1.00  0.00     0.029 A 
ATOM     53  N   UNL     1     -13.937  -4.447   5.893  1.00  0.00    -0.354 N 
ATOM     54  N   UNL     1     -13.851  -1.656   5.071  1.00  0.00    -0.248 NA
ATOM     55  C   UNL     1     -14.940   0.329   4.499  1.00  0.00     0.031 C 
ATOM     56  C   UNL     1     -15.906  -5.358   6.375  1.00  0.00     0.029 A 
ATOM     57  C   UNL     1     -15.296  -4.188   5.954  1.00  0.00     0.049 A 
ATOM     58  H   UNL     1     -13.249  -3.799   5.617  1.00  0.00     0.167 HD
ATOM     59  C   UNL     1     -15.222  -1.822   5.233  1.00  0.00     0.074 A 
ATOM     60  C   UNL     1     -15.841  -0.556   4.902  1.00  0.00     0.031 C 
ATOM     61  C   UNL     1     -15.906  -2.925   5.625  1.00  0.00     0.031 A 
BRANCH  48  62
ATOM     62  C   UNL     1     -12.301  -7.826   6.678  1.00  0.00    -0.014 A 
ATOM     63  C   UNL     1     -11.705  -8.236   7.881  1.00  0.00     0.009 A 
ATOM     64  C   UNL     1     -12.857  -8.799   5.831  1.00  0.00     0.009 A 
ATOM     65  C   UNL     1     -11.633  -9.592   8.209  1.00  0.00     0.001 A 
ATOM     66  C   UNL     1     -12.814 -10.150   6.178  1.00  0.00     0.001 A 
ATOM     67  C   UNL     1     -12.193 -10.546   7.361  1.00  0.00     0.000 A 
ENDBRANCH  48  62
BRANCH  49  68
ATOM     68  C   UNL     1     -12.453   1.750   3.946  1.00  0.00    -0.014 A 
ATOM     69  C   UNL     1     -12.879   2.752   4.831  1.00  0.00     0.009 A 
ATOM     70  C   UNL     1     -12.105   2.110   2.634  1.00  0.00     0.009 A 
ATOM     71  C   UNL     1     -12.984   4.078   4.403  1.00  0.00     0.001 A 
ATOM     72  C   UNL     1     -12.179   3.441   2.219  1.00  0.00     0.001 A 
ATOM     73  C   UNL     1     -12.629   4.422   3.099  1.00  0.00     0.000 A 
ENDBRANCH  49  68
BRANCH  61  74
ATOM     74  C   UNL     1     -17.401  -2.808   5.764  1.00  0.00    -0.014 A 
ATOM     75  C   UNL     1     -18.236  -2.677   4.643  1.00  0.00     0.009 A 
ATOM     76  C   UNL     1     -17.985  -2.875   7.039  1.00  0.00     0.009 A 
ATOM     77  C   UNL     1     -19.622  -2.581   4.801  1.00  0.00     0.001 A 
ATOM     78  C   UNL     1     -19.372  -2.813   7.192  1.00  0.00     0.001 A 
ATOM     79  C   UNL     1     -20.188  -2.655   6.074  1.00  0.00     0.000 A 
ENDBRANCH  61  74
ENDBRANCH  35  36
ENDBRANCH  28  30
ENDBRANCH  27  28
ENDBRANCH  26  27
ENDBRANCH   1  26
TORSDOF 16
