REMARK SMILES O=C(COc1ccc(N2C[C@@H](C(=O)OCCOCCOC(=O)c3ccc(-c4c5nc(c(-c6ccccc6)c6ccc([nH]6)c(-c6ccccc6)c6nc(c(-c7ccccc7)c7ccc4[nH]7)C=C6)C=C5)cc3)CC2=O)cc1)Nc1ccc(Cl)cc1Cl
REMARK SMILES IDX 15 1 14 2 12 3 13 4 11 5 9 6 10 7 72 8 71 9 73 10 8 11 5 12
REMARK SMILES IDX 6 13 75 14 7 15 74 16 4 17 3 18 2 19 1 20 76 21 77 23 78 24
REMARK SMILES IDX 83 25 79 26 82 27 84 28 80 29 81 30 16 31 17 32 18 33 19 34
REMARK SMILES IDX 20 35 21 36 22 37 23 38 24 39 70 40 25 41 69 42 26 43 27 44
REMARK SMILES IDX 28 45 63 46 29 47 68 48 62 49 64 50 30 51 67 52 61 53 60 54
REMARK SMILES IDX 31 56 53 57 38 58 52 59 39 60 42 61 51 62 65 63 40 64 41 65
REMARK SMILES IDX 50 67 66 68 43 69 32 70 33 71 37 72 34 73 36 74 35 75 54 76
REMARK SMILES IDX 55 77 59 78 56 79 58 80 57 81 44 82 45 83 49 84 46 85 48 86
REMARK SMILES IDX 47 87
REMARK H PARENT 76 22 64 55 42 66
REMARK Flexibility Score: inf
ROOT
ATOM      1  C   UNL     1      -2.181  -6.093   7.720  1.00  0.00     0.261 C 
ENDROOT
BRANCH   1   2
ATOM      2  O   UNL     1      -1.169  -6.008   6.706  1.00  0.00    -0.463 OA
BRANCH   2   3
ATOM      3  C   UNL     1       0.064  -5.626   7.121  1.00  0.00     0.311 C 
ATOM      4  O   UNL     1       0.327  -5.159   8.222  1.00  0.00    -0.252 OA
BRANCH   3   5
ATOM      5  C   UNL     1       1.122  -5.841   6.071  1.00  0.00     0.128 C 
ATOM      6  N   UNL     1       1.968  -4.654   4.240  1.00  0.00    -0.312 N 
ATOM      7  C   UNL     1       1.613  -4.483   5.623  1.00  0.00     0.141 C 
ATOM      8  C   UNL     1       1.471  -5.844   3.710  1.00  0.00     0.227 C 
ATOM      9  C   UNL     1       0.707  -6.554   4.789  1.00  0.00     0.117 C 
ATOM     10  O   UNL     1       1.586  -6.285   2.576  1.00  0.00    -0.274 OA
BRANCH   6  11
ATOM     11  C   UNL     1       2.526  -3.599   3.489  1.00  0.00     0.044 A 
ATOM     12  C   UNL     1       3.512  -1.436   1.996  1.00  0.00     0.120 A 
ATOM     13  C   UNL     1       3.925  -1.614   3.312  1.00  0.00     0.048 A 
ATOM     14  C   UNL     1       2.637  -2.351   1.421  1.00  0.00     0.048 A 
ATOM     15  C   UNL     1       3.410  -2.677   4.065  1.00  0.00     0.030 A 
ATOM     16  C   UNL     1       2.157  -3.429   2.156  1.00  0.00     0.030 A 
BRANCH  12  17
ATOM     17  O   UNL     1       4.068  -0.419   1.266  1.00  0.00    -0.484 OA
BRANCH  17  18
ATOM     18  C   UNL     1       3.124   0.614   0.957  1.00  0.00     0.329 C 
BRANCH  18  19
ATOM     19  C   UNL     1       2.206   0.294  -0.227  1.00  0.00     0.262 C 
ATOM     20  O   UNL     1       1.013   0.575  -0.196  1.00  0.00    -0.271 OA
ATOM     21  N   UNL     1       2.864  -0.423  -1.223  1.00  0.00    -0.322 N 
ATOM     22  H   UNL     1       3.846  -0.468  -1.185  1.00  0.00     0.170 HD
BRANCH  21  23
ATOM     23  C   UNL     1       2.212  -1.091  -2.285  1.00  0.00     0.060 A 
ATOM     24  C   UNL     1       2.648  -2.406  -2.528  1.00  0.00     0.029 A 
ATOM     25  C   UNL     1       1.162  -0.573  -3.061  1.00  0.00     0.066 A 
ATOM     26  C   UNL     1       1.985  -3.219  -3.450  1.00  0.00     0.023 A 
ATOM     27  C   UNL     1       0.502  -1.390  -3.988  1.00  0.00     0.043 A 
ATOM     28  Cl  UNL     1       0.741   1.105  -3.078  1.00  0.00    -0.082 Cl
ATOM     29  C   UNL     1       0.904  -2.712  -4.163  1.00  0.00     0.042 A 
ATOM     30  Cl  UNL     1       0.079  -3.717  -5.288  1.00  0.00    -0.084 Cl
ENDBRANCH  21  23
ENDBRANCH  18  19
ENDBRANCH  17  18
ENDBRANCH  12  17
ENDBRANCH   6  11
ENDBRANCH   3   5
ENDBRANCH   2   3
ENDBRANCH   1   2
BRANCH   1  31
ATOM     31  C   UNL     1      -2.699  -7.528   7.841  1.00  0.00     0.202 C 
BRANCH  31  32
ATOM     32  O   UNL     1      -1.737  -8.516   8.208  1.00  0.00    -0.374 OA
BRANCH  32  33
ATOM     33  C   UNL     1      -0.842  -8.985   7.199  1.00  0.00     0.202 C 
BRANCH  33  34
ATOM     34  C   UNL     1      -1.418  -9.929   6.136  1.00  0.00     0.261 C 
BRANCH  34  35
ATOM     35  O   UNL     1      -2.387  -9.279   5.293  1.00  0.00    -0.460 OA
BRANCH  35  36
ATOM     36  C   UNL     1      -3.644  -9.772   5.395  1.00  0.00     0.338 C 
ATOM     37  O   UNL     1      -4.013 -10.728   6.064  1.00  0.00    -0.246 OA
BRANCH  36  38
ATOM     38  C   UNL     1      -4.601  -8.885   4.712  1.00  0.00     0.060 A 
ATOM     39  C   UNL     1      -5.671  -8.388   5.468  1.00  0.00     0.016 A 
ATOM     40  C   UNL     1      -4.516  -8.624   3.343  1.00  0.00     0.016 A 
ATOM     41  C   UNL     1      -6.688  -7.667   4.848  1.00  0.00     0.010 A 
ATOM     42  C   UNL     1      -5.545  -7.908   2.720  1.00  0.00     0.010 A 
ATOM     43  C   UNL     1      -6.651  -7.457   3.464  1.00  0.00    -0.014 A 
BRANCH  43  44
ATOM     44  C   UNL     1      -7.837  -6.885   2.782  1.00  0.00     0.031 A 
ATOM     45  C   UNL     1      -8.818  -7.810   2.115  1.00  0.00     0.074 A 
ATOM     46  C   UNL     1      -8.054  -5.558   2.781  1.00  0.00     0.049 A 
ATOM     47  N   UNL     1      -9.909  -7.521   1.453  1.00  0.00    -0.248 NA
ATOM     48  C   UNL     1      -8.531  -9.251   2.208  1.00  0.00     0.031 C 
ATOM     49  C   UNL     1      -7.201  -4.560   3.424  1.00  0.00     0.029 A 
ATOM     50  N   UNL     1      -9.062  -4.823   2.209  1.00  0.00    -0.354 N 
ATOM     51  C   UNL     1     -10.434  -8.740   1.042  1.00  0.00     0.074 A 
ATOM     52  C   UNL     1      -9.532  -9.770   1.511  1.00  0.00     0.031 C 
ATOM     53  C   UNL     1      -7.717  -3.339   3.201  1.00  0.00     0.029 A 
ATOM     54  C   UNL     1      -8.916  -3.469   2.376  1.00  0.00     0.049 A 
ATOM     55  H   UNL     1      -9.818  -5.229   1.726  1.00  0.00     0.167 HD
ATOM     56  C   UNL     1     -11.566  -8.981   0.339  1.00  0.00     0.031 A 
ATOM     57  C   UNL     1      -9.654  -2.448   1.898  1.00  0.00     0.031 A 
ATOM     58  C   UNL     1     -12.460  -7.960  -0.135  1.00  0.00     0.049 A 
ATOM     59  C   UNL     1     -10.867  -2.740   1.057  1.00  0.00     0.074 A 
ATOM     60  C   UNL     1     -13.650  -8.111  -0.827  1.00  0.00     0.029 A 
ATOM     61  N   UNL     1     -12.257  -6.599   0.023  1.00  0.00    -0.354 N 
ATOM     62  N   UNL     1     -11.376  -3.899   0.714  1.00  0.00    -0.248 NA
ATOM     63  C   UNL     1     -11.611  -1.581   0.542  1.00  0.00     0.031 C 
ATOM     64  C   UNL     1     -14.139  -6.837  -1.136  1.00  0.00     0.029 A 
ATOM     65  C   UNL     1     -13.281  -5.896  -0.589  1.00  0.00     0.049 A 
ATOM     66  H   UNL     1     -11.498  -6.192   0.499  1.00  0.00     0.167 HD
ATOM     67  C   UNL     1     -12.509  -3.608  -0.036  1.00  0.00     0.074 A 
ATOM     68  C   UNL     1     -12.622  -2.166  -0.085  1.00  0.00     0.031 C 
ATOM     69  C   UNL     1     -13.379  -4.461  -0.631  1.00  0.00     0.031 A 
BRANCH  56  70
ATOM     70  C   UNL     1     -11.883 -10.411   0.007  1.00  0.00    -0.014 A 
ATOM     71  C   UNL     1     -12.352 -11.302   0.986  1.00  0.00     0.009 A 
ATOM     72  C   UNL     1     -11.751 -10.862  -1.316  1.00  0.00     0.009 A 
ATOM     73  C   UNL     1     -12.655 -12.623   0.650  1.00  0.00     0.001 A 
ATOM     74  C   UNL     1     -12.077 -12.176  -1.653  1.00  0.00     0.001 A 
ATOM     75  C   UNL     1     -12.521 -13.058  -0.669  1.00  0.00     0.000 A 
ENDBRANCH  56  70
BRANCH  57  76
ATOM     76  C   UNL     1      -9.249  -1.045   2.172  1.00  0.00    -0.014 A 
ATOM     77  C   UNL     1     -10.012  -0.231   3.022  1.00  0.00     0.009 A 
ATOM     78  C   UNL     1      -8.105  -0.507   1.562  1.00  0.00     0.009 A 
ATOM     79  C   UNL     1      -9.651   1.102   3.235  1.00  0.00     0.001 A 
ATOM     80  C   UNL     1      -7.732   0.818   1.797  1.00  0.00     0.001 A 
ATOM     81  C   UNL     1      -8.511   1.624   2.626  1.00  0.00     0.000 A 
ENDBRANCH  57  76
BRANCH  69  82
ATOM     82  C   UNL     1     -14.544  -3.857  -1.362  1.00  0.00    -0.014 A 
ATOM     83  C   UNL     1     -14.376  -3.226  -2.604  1.00  0.00     0.009 A 
ATOM     84  C   UNL     1     -15.835  -3.962  -0.820  1.00  0.00     0.009 A 
ATOM     85  C   UNL     1     -15.475  -2.687  -3.275  1.00  0.00     0.001 A 
ATOM     86  C   UNL     1     -16.935  -3.446  -1.506  1.00  0.00     0.001 A 
ATOM     87  C   UNL     1     -16.753  -2.801  -2.729  1.00  0.00     0.000 A 
ENDBRANCH  69  82
ENDBRANCH  43  44
ENDBRANCH  36  38
ENDBRANCH  35  36
ENDBRANCH  34  35
ENDBRANCH  33  34
ENDBRANCH  32  33
ENDBRANCH  31  32
ENDBRANCH   1  31
TORSDOF 19
