REMARK SMILES CC[C@@H](C)CNC(=O)N1CCO[C@@H](CC(=O)OCCOCCOC(=O)c2ccc(-c3c4nc(c(-c5ccccc5)c5ccc([nH]5)c(-c5ccccc5)c5nc(c(-c6ccccc6)c6ccc3[nH]6)C=C5)C=C4)cc2)C1
REMARK SMILES IDX 18 1 17 2 15 3 16 4 14 5 13 6 9 7 10 8 74 9 11 10 12 11 7 12
REMARK SMILES IDX 6 13 8 15 5 16 3 17 4 18 2 19 1 20 19 21 20 22 21 23 22 24
REMARK SMILES IDX 23 25 24 26 25 27 26 28 27 29 73 30 28 31 72 32 29 33 30 34
REMARK SMILES IDX 31 35 66 36 32 37 71 38 65 39 67 40 33 41 70 42 64 43 63 44
REMARK SMILES IDX 34 46 56 47 41 48 55 49 42 50 45 51 54 52 68 53 43 54 44 55
REMARK SMILES IDX 53 57 69 58 46 59 35 60 36 61 40 62 37 63 39 64 38 65 57 66
REMARK SMILES IDX 58 67 62 68 59 69 61 70 60 71 47 72 48 73 52 74 49 75 51 76
REMARK SMILES IDX 50 77
REMARK H PARENT 6 14 67 45 45 56
REMARK Flexibility Score: inf
ROOT
ATOM      1  C   UNL     1       7.556   0.257  -6.761  1.00  0.00     0.261 C 
ENDROOT
BRANCH   1   2
ATOM      2  O   UNL     1       6.345  -0.450  -7.096  1.00  0.00    -0.463 OA
BRANCH   2   3
ATOM      3  C   UNL     1       6.460  -1.794  -7.249  1.00  0.00     0.308 C 
ATOM      4  O   UNL     1       7.503  -2.425  -7.144  1.00  0.00    -0.252 OA
BRANCH   3   5
ATOM      5  C   UNL     1       5.157  -2.433  -7.646  1.00  0.00     0.156 C 
BRANCH   5   6
ATOM      6  C   UNL     1       3.948  -2.173  -6.745  1.00  0.00     0.149 C 
ATOM      7  N   UNL     1       2.024  -0.687  -6.261  1.00  0.00    -0.320 N 
ATOM      8  C   UNL     1       1.114  -1.732  -6.710  1.00  0.00     0.150 C 
ATOM      9  C   UNL     1       3.337  -0.758  -6.913  1.00  0.00     0.154 C 
ATOM     10  C   UNL     1       1.746  -3.081  -6.397  1.00  0.00     0.182 C 
ATOM     11  O   UNL     1       2.989  -3.206  -7.104  1.00  0.00    -0.374 OA
BRANCH   7  12
ATOM     12  C   UNL     1       1.629   0.463  -5.649  1.00  0.00     0.317 C 
ATOM     13  N   UNL     1       0.741   0.425  -4.626  1.00  0.00    -0.338 N 
ATOM     14  H   UNL     1       0.381   1.306  -4.377  1.00  0.00     0.165 HD
ATOM     15  O   UNL     1       2.093   1.557  -5.967  1.00  0.00    -0.249 OA
BRANCH  13  16
ATOM     16  C   UNL     1       0.220  -0.673  -3.826  1.00  0.00     0.121 C 
BRANCH  16  17
ATOM     17  C   UNL     1       0.885  -0.812  -2.442  1.00  0.00     0.005 C 
ATOM     18  C   UNL     1       0.542  -2.201  -1.884  1.00  0.00     0.009 C 
BRANCH  17  19
ATOM     19  C   UNL     1       0.436   0.314  -1.490  1.00  0.00     0.002 C 
ATOM     20  C   UNL     1       0.988   0.184  -0.075  1.00  0.00     0.004 C 
ENDBRANCH  17  19
ENDBRANCH  16  17
ENDBRANCH  13  16
ENDBRANCH   7  12
ENDBRANCH   5   6
ENDBRANCH   3   5
ENDBRANCH   2   3
ENDBRANCH   1   2
BRANCH   1  21
ATOM     21  C   UNL     1       7.498   0.830  -5.343  1.00  0.00     0.202 C 
BRANCH  21  22
ATOM     22  O   UNL     1       7.582  -0.126  -4.287  1.00  0.00    -0.374 OA
BRANCH  22  23
ATOM     23  C   UNL     1       6.380  -0.816  -3.952  1.00  0.00     0.202 C 
BRANCH  23  24
ATOM     24  C   UNL     1       5.408  -0.058  -3.038  1.00  0.00     0.261 C 
BRANCH  24  25
ATOM     25  O   UNL     1       4.865   1.107  -3.682  1.00  0.00    -0.460 OA
BRANCH  25  26
ATOM     26  C   UNL     1       5.292   2.296  -3.192  1.00  0.00     0.338 C 
ATOM     27  O   UNL     1       6.003   2.483  -2.214  1.00  0.00    -0.246 OA
BRANCH  26  28
ATOM     28  C   UNL     1       4.921   3.378  -4.120  1.00  0.00     0.060 A 
ATOM     29  C   UNL     1       5.938   4.186  -4.643  1.00  0.00     0.016 A 
ATOM     30  C   UNL     1       3.591   3.619  -4.456  1.00  0.00     0.016 A 
ATOM     31  C   UNL     1       5.622   5.242  -5.500  1.00  0.00     0.010 A 
ATOM     32  C   UNL     1       3.276   4.664  -5.329  1.00  0.00     0.010 A 
ATOM     33  C   UNL     1       4.285   5.499  -5.837  1.00  0.00    -0.014 A 
BRANCH  33  34
ATOM     34  C   UNL     1       3.923   6.701  -6.627  1.00  0.00     0.031 A 
ATOM     35  C   UNL     1       3.303   7.879  -5.929  1.00  0.00     0.074 A 
ATOM     36  C   UNL     1       4.140   6.749  -7.954  1.00  0.00     0.049 A 
ATOM     37  N   UNL     1       2.874   9.011  -6.430  1.00  0.00    -0.248 NA
ATOM     38  C   UNL     1       3.140   7.764  -4.471  1.00  0.00     0.031 C 
ATOM     39  C   UNL     1       4.759   5.690  -8.749  1.00  0.00     0.029 A 
ATOM     40  N   UNL     1       3.855   7.734  -8.866  1.00  0.00    -0.354 N 
ATOM     41  C   UNL     1       2.379   9.734  -5.352  1.00  0.00     0.074 A 
ATOM     42  C   UNL     1       2.530   8.902  -4.178  1.00  0.00     0.031 C 
ATOM     43  C   UNL     1       4.817   6.087 -10.032  1.00  0.00     0.029 A 
ATOM     44  C   UNL     1       4.200   7.407 -10.154  1.00  0.00     0.049 A 
ATOM     45  H   UNL     1       3.443   8.594  -8.620  1.00  0.00     0.167 HD
ATOM     46  C   UNL     1       1.853  10.982  -5.337  1.00  0.00     0.031 A 
ATOM     47  C   UNL     1       4.020   8.084 -11.305  1.00  0.00     0.031 A 
ATOM     48  C   UNL     1       1.687  11.807  -6.504  1.00  0.00     0.049 A 
ATOM     49  C   UNL     1       3.341   9.427 -11.278  1.00  0.00     0.074 A 
ATOM     50  C   UNL     1       1.201  13.101  -6.585  1.00  0.00     0.029 A 
ATOM     51  N   UNL     1       1.986  11.410  -7.798  1.00  0.00    -0.354 N 
ATOM     52  N   UNL     1       2.917  10.119 -10.249  1.00  0.00    -0.248 NA
ATOM     53  C   UNL     1       3.109  10.076 -12.577  1.00  0.00     0.031 C 
ATOM     54  C   UNL     1       1.144  13.461  -7.936  1.00  0.00     0.029 A 
ATOM     55  C   UNL     1       1.650  12.415  -8.690  1.00  0.00     0.049 A 
ATOM     56  H   UNL     1       2.378  10.542  -8.046  1.00  0.00     0.167 HD
ATOM     57  C   UNL     1       2.382  11.290 -10.773  1.00  0.00     0.074 A 
ATOM     58  C   UNL     1       2.551  11.222 -12.210  1.00  0.00     0.031 C 
ATOM     59  C   UNL     1       1.803  12.328 -10.120  1.00  0.00     0.031 A 
BRANCH  46  60
ATOM     60  C   UNL     1       1.379  11.508  -4.010  1.00  0.00    -0.014 A 
ATOM     61  C   UNL     1       2.284  11.845  -2.990  1.00  0.00     0.009 A 
ATOM     62  C   UNL     1       0.004  11.668  -3.778  1.00  0.00     0.009 A 
ATOM     63  C   UNL     1       1.818  12.286  -1.750  1.00  0.00     0.001 A 
ATOM     64  C   UNL     1      -0.457  12.137  -2.547  1.00  0.00     0.001 A 
ATOM     65  C   UNL     1       0.449  12.433  -1.530  1.00  0.00     0.000 A 
ENDBRANCH  46  60
BRANCH  47  66
ATOM     66  C   UNL     1       4.477   7.493 -12.589  1.00  0.00    -0.014 A 
ATOM     67  C   UNL     1       5.580   8.032 -13.267  1.00  0.00     0.009 A 
ATOM     68  C   UNL     1       3.815   6.385 -13.142  1.00  0.00     0.009 A 
ATOM     69  C   UNL     1       6.006   7.479 -14.477  1.00  0.00     0.001 A 
ATOM     70  C   UNL     1       4.259   5.818 -14.338  1.00  0.00     0.001 A 
ATOM     71  C   UNL     1       5.351   6.369 -15.007  1.00  0.00     0.000 A 
ENDBRANCH  47  66
BRANCH  59  72
ATOM     72  C   UNL     1       1.311  13.479 -10.953  1.00  0.00    -0.014 A 
ATOM     73  C   UNL     1       0.152  13.363 -11.736  1.00  0.00     0.009 A 
ATOM     74  C   UNL     1       1.985  14.710 -10.914  1.00  0.00     0.009 A 
ATOM     75  C   UNL     1      -0.307  14.449 -12.484  1.00  0.00     0.001 A 
ATOM     76  C   UNL     1       1.508  15.802 -11.641  1.00  0.00     0.001 A 
ATOM     77  C   UNL     1       0.367  15.669 -12.431  1.00  0.00     0.000 A 
ENDBRANCH  59  72
ENDBRANCH  33  34
ENDBRANCH  26  28
ENDBRANCH  25  26
ENDBRANCH  24  25
ENDBRANCH  23  24
ENDBRANCH  22  23
ENDBRANCH  21  22
ENDBRANCH   1  21
TORSDOF 19
