REMARK SMILES C[C@@H]1CCc2nc(NC(=O)[C@H]3CC=CC[C@@H]3C(=O)OCCOCCOC(=O)c3ccc(-c4c5nc(c(-c6ccccc6)c6ccc([nH]6)c(-c6ccccc6)c6nc(c(-c7ccccc7)c7ccc4[nH]7)C=C6)C=C5)cc3)sc2C1
REMARK SMILES IDX 22 1 21 2 20 3 19 4 17 5 18 6 16 7 11 8 12 9 13 10 15 11
REMARK SMILES IDX 14 12 9 13 8 14 10 16 7 17 1 18 2 19 3 20 78 21 4 22 77 23
REMARK SMILES IDX 5 24 76 25 6 26 23 27 24 28 25 29 26 30 27 31 28 32 29 33
REMARK SMILES IDX 75 34 30 35 74 36 31 37 32 38 33 39 68 40 34 41 73 42 67 43
REMARK SMILES IDX 69 44 35 45 72 46 66 47 65 48 36 50 58 51 43 52 57 53 44 54
REMARK SMILES IDX 47 55 56 56 70 57 45 58 46 59 55 61 71 62 48 63 37 64 38 65
REMARK SMILES IDX 42 66 39 67 41 68 40 69 59 70 60 71 64 72 61 73 63 74 62 75
REMARK SMILES IDX 49 76 50 77 54 78 51 79 53 80 52 81
REMARK H PARENT 8 15 69 49 47 60
REMARK Flexibility Score: inf
ROOT
ATOM      1  O   UNL     1       1.643   5.035  -1.875  1.00  0.00    -0.374 OA
ENDROOT
BRANCH   1   2
ATOM      2  C   UNL     1       1.821   5.123  -0.458  1.00  0.00     0.202 C 
BRANCH   2   3
ATOM      3  C   UNL     1       0.882   6.147   0.183  1.00  0.00     0.261 C 
BRANCH   3   4
ATOM      4  O   UNL     1      -0.412   5.538   0.333  1.00  0.00    -0.463 OA
BRANCH   4   5
ATOM      5  C   UNL     1      -1.474   6.079  -0.333  1.00  0.00     0.310 C 
ATOM      6  O   UNL     1      -1.463   7.132  -0.949  1.00  0.00    -0.252 OA
BRANCH   5   7
ATOM      7  C   UNL     1      -2.590   5.038  -0.375  1.00  0.00     0.116 C 
ATOM      8  C   UNL     1      -3.890   5.497  -1.024  1.00  0.00     0.097 C 
ATOM      9  C   UNL     1      -4.600   6.506  -0.074  1.00  0.00     0.041 C 
ATOM     10  C   UNL     1      -4.382   6.282   1.403  1.00  0.00    -0.030 C 
ATOM     11  C   UNL     1      -2.834   4.409   1.003  1.00  0.00     0.043 C 
ATOM     12  C   UNL     1      -3.587   5.327   1.899  1.00  0.00    -0.030 C 
BRANCH   8  13
ATOM     13  C   UNL     1      -4.936   4.510  -1.638  1.00  0.00     0.230 C 
ATOM     14  N   UNL     1      -5.045   3.159  -1.577  1.00  0.00    -0.302 N 
ATOM     15  H   UNL     1      -5.931   2.847  -1.871  1.00  0.00     0.172 HD
ATOM     16  O   UNL     1      -5.897   5.041  -2.229  1.00  0.00    -0.274 OA
BRANCH  14  17
ATOM     17  C   UNL     1      -4.238   2.130  -1.211  1.00  0.00     0.189 A 
ATOM     18  C   UNL     1      -0.460  -0.917  -0.422  1.00  0.00     0.008 C 
ATOM     19  C   UNL     1      -1.018  -0.427   0.905  1.00  0.00    -0.009 C 
ATOM     20  C   UNL     1      -2.282  -1.204   1.354  1.00  0.00     0.010 C 
ATOM     21  C   UNL     1      -1.285   1.068   0.799  1.00  0.00     0.052 C 
ATOM     22  C   UNL     1      -3.513  -1.001   0.442  1.00  0.00     0.058 C 
ATOM     23  C   UNL     1      -2.458   1.215  -0.078  1.00  0.00     0.030 A 
ATOM     24  C   UNL     1      -3.558   0.382  -0.116  1.00  0.00     0.057 A 
ATOM     25  S   UNL     1      -2.562   2.142  -1.494  1.00  0.00    -0.101 S 
ATOM     26  N   UNL     1      -4.643   0.955  -0.760  1.00  0.00    -0.225 NA
ENDBRANCH  14  17
ENDBRANCH   8  13
ENDBRANCH   5   7
ENDBRANCH   4   5
ENDBRANCH   3   4
ENDBRANCH   2   3
ENDBRANCH   1   2
BRANCH   1  27
ATOM     27  C   UNL     1       0.751   4.012  -2.312  1.00  0.00     0.202 C 
BRANCH  27  28
ATOM     28  C   UNL     1       1.425   2.657  -2.504  1.00  0.00     0.261 C 
BRANCH  28  29
ATOM     29  O   UNL     1       1.905   2.151  -1.254  1.00  0.00    -0.460 OA
BRANCH  29  30
ATOM     30  C   UNL     1       3.242   2.239  -1.015  1.00  0.00     0.338 C 
ATOM     31  O   UNL     1       4.101   2.737  -1.719  1.00  0.00    -0.246 OA
BRANCH  30  32
ATOM     32  C   UNL     1       3.484   1.359   0.141  1.00  0.00     0.060 A 
ATOM     33  C   UNL     1       4.383   0.315  -0.068  1.00  0.00     0.016 A 
ATOM     34  C   UNL     1       2.541   1.299   1.164  1.00  0.00     0.016 A 
ATOM     35  C   UNL     1       4.071  -0.932   0.452  1.00  0.00     0.010 A 
ATOM     36  C   UNL     1       2.290   0.066   1.732  1.00  0.00     0.010 A 
ATOM     37  C   UNL     1       2.908  -1.078   1.207  1.00  0.00    -0.014 A 
BRANCH  37  38
ATOM     38  C   UNL     1       2.322  -2.404   1.446  1.00  0.00     0.031 A 
ATOM     39  C   UNL     1       2.138  -2.735   2.873  1.00  0.00     0.074 A 
ATOM     40  C   UNL     1       1.860  -3.275   0.516  1.00  0.00     0.049 A 
ATOM     41  N   UNL     1       3.071  -3.186   3.641  1.00  0.00    -0.248 NA
ATOM     42  C   UNL     1       0.905  -2.366   3.582  1.00  0.00     0.031 C 
ATOM     43  C   UNL     1       1.661  -3.108  -0.931  1.00  0.00     0.029 A 
ATOM     44  N   UNL     1       1.380  -4.540   0.728  1.00  0.00    -0.354 N 
ATOM     45  C   UNL     1       2.477  -3.360   4.877  1.00  0.00     0.074 A 
ATOM     46  C   UNL     1       1.270  -2.579   4.848  1.00  0.00     0.031 C 
ATOM     47  C   UNL     1       0.915  -4.138  -1.417  1.00  0.00     0.029 A 
ATOM     48  C   UNL     1       0.778  -5.141  -0.375  1.00  0.00     0.049 A 
ATOM     49  H   UNL     1       1.456  -4.993   1.599  1.00  0.00     0.167 HD
ATOM     50  C   UNL     1       2.849  -4.376   5.701  1.00  0.00     0.031 A 
ATOM     51  C   UNL     1       0.277  -6.401  -0.428  1.00  0.00     0.031 A 
ATOM     52  C   UNL     1       3.951  -5.119   5.133  1.00  0.00     0.049 A 
ATOM     53  C   UNL     1       1.033  -7.188   0.570  1.00  0.00     0.074 A 
ATOM     54  C   UNL     1       5.276  -4.871   4.848  1.00  0.00     0.029 A 
ATOM     55  N   UNL     1       3.574  -6.205   4.375  1.00  0.00    -0.354 N 
ATOM     56  N   UNL     1       2.308  -7.425   0.462  1.00  0.00    -0.248 NA
ATOM     57  C   UNL     1       0.459  -7.446   1.881  1.00  0.00     0.031 C 
ATOM     58  C   UNL     1       5.564  -5.627   3.672  1.00  0.00     0.029 A 
ATOM     59  C   UNL     1       4.422  -6.343   3.307  1.00  0.00     0.049 A 
ATOM     60  H   UNL     1       2.809  -6.794   4.571  1.00  0.00     0.167 HD
ATOM     61  C   UNL     1       2.772  -7.403   1.763  1.00  0.00     0.074 A 
ATOM     62  C   UNL     1       1.584  -7.598   2.587  1.00  0.00     0.031 C 
ATOM     63  C   UNL     1       4.020  -6.931   2.045  1.00  0.00     0.031 A 
BRANCH  50  64
ATOM     64  C   UNL     1       1.978  -4.987   6.767  1.00  0.00    -0.014 A 
ATOM     65  C   UNL     1       2.546  -5.963   7.603  1.00  0.00     0.009 A 
ATOM     66  C   UNL     1       0.583  -4.819   6.852  1.00  0.00     0.009 A 
ATOM     67  C   UNL     1       1.756  -6.758   8.440  1.00  0.00     0.001 A 
ATOM     68  C   UNL     1      -0.205  -5.581   7.718  1.00  0.00     0.001 A 
ATOM     69  C   UNL     1       0.380  -6.568   8.496  1.00  0.00     0.000 A 
ENDBRANCH  50  64
BRANCH  51  70
ATOM     70  C   UNL     1      -0.830  -7.029  -1.181  1.00  0.00    -0.014 A 
ATOM     71  C   UNL     1      -0.803  -8.398  -1.503  1.00  0.00     0.009 A 
ATOM     72  C   UNL     1      -2.064  -6.363  -1.263  1.00  0.00     0.009 A 
ATOM     73  C   UNL     1      -1.977  -9.088  -1.841  1.00  0.00     0.001 A 
ATOM     74  C   UNL     1      -3.239  -7.055  -1.592  1.00  0.00     0.001 A 
ATOM     75  C   UNL     1      -3.198  -8.420  -1.864  1.00  0.00     0.000 A 
ENDBRANCH  51  70
BRANCH  63  76
ATOM     76  C   UNL     1       4.988  -6.810   0.891  1.00  0.00    -0.014 A 
ATOM     77  C   UNL     1       4.803  -5.930  -0.190  1.00  0.00     0.009 A 
ATOM     78  C   UNL     1       6.185  -7.537   0.957  1.00  0.00     0.009 A 
ATOM     79  C   UNL     1       5.781  -5.795  -1.182  1.00  0.00     0.001 A 
ATOM     80  C   UNL     1       7.170  -7.387  -0.021  1.00  0.00     0.001 A 
ATOM     81  C   UNL     1       6.968  -6.519  -1.092  1.00  0.00     0.000 A 
ENDBRANCH  63  76
ENDBRANCH  37  38
ENDBRANCH  30  32
ENDBRANCH  29  30
ENDBRANCH  28  29
ENDBRANCH  27  28
ENDBRANCH   1  27
TORSDOF 16
