REMARK SMILES O=C(OCCOCCOC(=O)[C@H]1CCCC[C@H]1C(=O)N1CCN(S(=O)(=O)c2ccc(F)cc2)CC1)c1ccc(-c2c3nc(c(-c4ccccc4)c4ccc([nH]4)c(-c4ccccc4)c4nc(c(-c5ccccc5)c5ccc2[nH]5)C=C4)C=C3)cc1
REMARK SMILES IDX 7 1 6 2 5 3 4 4 3 5 2 6 1 7 36 8 37 9 83 10 38 11 82 12
REMARK SMILES IDX 39 13 40 14 41 15 76 16 42 17 81 18 75 19 77 20 43 21 80 22
REMARK SMILES IDX 74 23 73 24 44 26 66 27 51 28 65 29 52 30 55 31 64 32 78 33
REMARK SMILES IDX 53 34 54 35 63 37 79 38 56 39 45 40 46 41 50 42 47 43 49 44
REMARK SMILES IDX 48 45 67 46 68 47 72 48 69 49 71 50 70 51 57 52 58 53 62 54
REMARK SMILES IDX 59 55 61 56 60 57 8 58 9 59 10 60 11 61 12 62 13 63 17 64
REMARK SMILES IDX 14 65 16 66 15 67 18 68 19 69 20 70 21 71 35 72 22 73 34 74
REMARK SMILES IDX 23 75 24 76 25 77 26 78 27 79 28 80 33 81 29 82 32 83 30 84
REMARK SMILES IDX 31 85
REMARK H PARENT 77 25 55 36
REMARK Flexibility Score: inf
ROOT
ATOM      1  C   UNL     1       6.256   3.083  -3.752  1.00  0.00     0.202 C 
ENDROOT
BRANCH   1   2
ATOM      2  O   UNL     1       5.809   1.935  -3.042  1.00  0.00    -0.374 OA
BRANCH   2   3
ATOM      3  C   UNL     1       6.619   1.528  -1.936  1.00  0.00     0.202 C 
BRANCH   3   4
ATOM      4  C   UNL     1       7.542   0.363  -2.297  1.00  0.00     0.261 C 
BRANCH   4   5
ATOM      5  O   UNL     1       8.133   0.555  -3.592  1.00  0.00    -0.460 OA
BRANCH   5   6
ATOM      6  C   UNL     1       7.540   0.344  -4.795  1.00  0.00     0.338 C 
ATOM      7  O   UNL     1       8.091   0.783  -5.803  1.00  0.00    -0.246 OA
BRANCH   6   8
ATOM      8  C   UNL     1       6.274  -0.442  -4.976  1.00  0.00     0.060 A 
ATOM      9  C   UNL     1       5.285  -0.629  -4.008  1.00  0.00     0.016 A 
ATOM     10  C   UNL     1       6.050  -0.999  -6.247  1.00  0.00     0.016 A 
ATOM     11  C   UNL     1       4.162  -1.393  -4.238  1.00  0.00     0.010 A 
ATOM     12  C   UNL     1       4.894  -1.742  -6.509  1.00  0.00     0.010 A 
ATOM     13  C   UNL     1       3.963  -1.956  -5.485  1.00  0.00    -0.014 A 
BRANCH  13  14
ATOM     14  C   UNL     1       2.854  -2.905  -5.606  1.00  0.00     0.031 A 
ATOM     15  C   UNL     1       3.190  -4.359  -5.616  1.00  0.00     0.074 A 
ATOM     16  C   UNL     1       1.585  -2.476  -5.509  1.00  0.00     0.049 A 
ATOM     17  N   UNL     1       2.394  -5.381  -5.741  1.00  0.00    -0.248 NA
ATOM     18  C   UNL     1       4.604  -4.710  -5.379  1.00  0.00     0.031 C 
ATOM     19  C   UNL     1       1.169  -1.105  -5.213  1.00  0.00     0.029 A 
ATOM     20  N   UNL     1       0.405  -3.143  -5.671  1.00  0.00    -0.354 N 
ATOM     21  C   UNL     1       3.196  -6.493  -5.537  1.00  0.00     0.074 A 
ATOM     22  C   UNL     1       4.553  -6.032  -5.363  1.00  0.00     0.031 C 
ATOM     23  C   UNL     1      -0.159  -0.996  -5.368  1.00  0.00     0.029 A 
ATOM     24  C   UNL     1      -0.670  -2.292  -5.769  1.00  0.00     0.049 A 
ATOM     25  H   UNL     1       0.332  -4.124  -5.713  1.00  0.00     0.167 HD
ATOM     26  C   UNL     1       2.807  -7.783  -5.456  1.00  0.00     0.031 A 
ATOM     27  C   UNL     1      -1.913  -2.541  -6.206  1.00  0.00     0.031 A 
ATOM     28  C   UNL     1       1.454  -8.199  -5.689  1.00  0.00     0.049 A 
ATOM     29  C   UNL     1      -2.264  -3.972  -6.458  1.00  0.00     0.074 A 
ATOM     30  C   UNL     1       0.930  -9.475  -5.730  1.00  0.00     0.029 A 
ATOM     31  N   UNL     1       0.406  -7.320  -5.941  1.00  0.00    -0.354 N 
ATOM     32  N   UNL     1      -1.502  -5.033  -6.335  1.00  0.00    -0.248 NA
ATOM     33  C   UNL     1      -3.648  -4.250  -6.840  1.00  0.00     0.031 C 
ATOM     34  C   UNL     1      -0.425  -9.369  -6.068  1.00  0.00     0.029 A 
ATOM     35  C   UNL     1      -0.758  -8.025  -6.175  1.00  0.00     0.049 A 
ATOM     36  H   UNL     1       0.483  -6.339  -5.952  1.00  0.00     0.167 HD
ATOM     37  C   UNL     1      -2.332  -6.118  -6.547  1.00  0.00     0.074 A 
ATOM     38  C   UNL     1      -3.650  -5.576  -6.832  1.00  0.00     0.031 C 
ATOM     39  C   UNL     1      -2.044  -7.441  -6.473  1.00  0.00     0.031 A 
BRANCH  26  40
ATOM     40  C   UNL     1       3.879  -8.786  -5.149  1.00  0.00    -0.014 A 
ATOM     41  C   UNL     1       4.452  -8.863  -3.868  1.00  0.00     0.009 A 
ATOM     42  C   UNL     1       4.373  -9.613  -6.166  1.00  0.00     0.009 A 
ATOM     43  C   UNL     1       5.524  -9.725  -3.623  1.00  0.00     0.001 A 
ATOM     44  C   UNL     1       5.430 -10.490  -5.912  1.00  0.00     0.001 A 
ATOM     45  C   UNL     1       6.011 -10.537  -4.645  1.00  0.00     0.000 A 
ENDBRANCH  26  40
BRANCH  27  46
ATOM     46  C   UNL     1      -2.856  -1.431  -6.481  1.00  0.00    -0.014 A 
ATOM     47  C   UNL     1      -3.964  -1.188  -5.662  1.00  0.00     0.009 A 
ATOM     48  C   UNL     1      -2.651  -0.615  -7.607  1.00  0.00     0.009 A 
ATOM     49  C   UNL     1      -4.872  -0.176  -5.987  1.00  0.00     0.001 A 
ATOM     50  C   UNL     1      -3.549   0.407  -7.919  1.00  0.00     0.001 A 
ATOM     51  C   UNL     1      -4.666   0.619  -7.114  1.00  0.00     0.000 A 
ENDBRANCH  27  46
BRANCH  39  52
ATOM     52  C   UNL     1      -3.204  -8.371  -6.646  1.00  0.00    -0.014 A 
ATOM     53  C   UNL     1      -3.816  -8.552  -7.894  1.00  0.00     0.009 A 
ATOM     54  C   UNL     1      -3.685  -9.073  -5.531  1.00  0.00     0.009 A 
ATOM     55  C   UNL     1      -4.926  -9.387  -8.011  1.00  0.00     0.001 A 
ATOM     56  C   UNL     1      -4.769  -9.938  -5.660  1.00  0.00     0.001 A 
ATOM     57  C   UNL     1      -5.396 -10.083  -6.896  1.00  0.00     0.000 A 
ENDBRANCH  39  52
ENDBRANCH  13  14
ENDBRANCH   6   8
ENDBRANCH   5   6
ENDBRANCH   4   5
ENDBRANCH   3   4
ENDBRANCH   2   3
ENDBRANCH   1   2
BRANCH   1  58
ATOM     58  C   UNL     1       5.201   4.175  -3.650  1.00  0.00     0.261 C 
BRANCH  58  59
ATOM     59  O   UNL     1       5.090   4.688  -2.312  1.00  0.00    -0.463 OA
BRANCH  59  60
ATOM     60  C   UNL     1       4.578   3.938  -1.306  1.00  0.00     0.309 C 
ATOM     61  O   UNL     1       4.026   2.852  -1.420  1.00  0.00    -0.252 OA
BRANCH  60  62
ATOM     62  C   UNL     1       4.799   4.588   0.042  1.00  0.00     0.111 C 
ATOM     63  C   UNL     1       6.306   4.756   0.300  1.00  0.00     0.016 C 
ATOM     64  C   UNL     1       4.050   5.912   0.226  1.00  0.00     0.093 C 
ATOM     65  C   UNL     1       6.947   5.867  -0.532  1.00  0.00     0.001 C 
ATOM     66  C   UNL     1       4.629   7.031  -0.647  1.00  0.00     0.014 C 
ATOM     67  C   UNL     1       6.152   7.172  -0.489  1.00  0.00     0.001 C 
BRANCH  64  68
ATOM     68  C   UNL     1       2.513   5.796   0.157  1.00  0.00     0.226 C 
ATOM     69  O   UNL     1       1.813   6.033   1.139  1.00  0.00    -0.275 OA
ATOM     70  N   UNL     1       1.958   5.428  -1.054  1.00  0.00    -0.340 N 
ATOM     71  C   UNL     1       1.115   6.385  -1.764  1.00  0.00     0.136 C 
ATOM     72  C   UNL     1       1.397   4.084  -1.174  1.00  0.00     0.136 C 
ATOM     73  C   UNL     1       1.011   6.054  -3.270  1.00  0.00     0.124 C 
ATOM     74  C   UNL     1       1.480   3.642  -2.631  1.00  0.00     0.124 C 
ATOM     75  N   UNL     1       0.829   4.597  -3.556  1.00  0.00    -0.194 NA
BRANCH  75  76
ATOM     76  S   UNL     1      -0.421   4.055  -4.533  1.00  0.00     0.243 S 
ATOM     77  O   UNL     1      -1.232   3.154  -3.728  1.00  0.00    -0.207 OA
ATOM     78  O   UNL     1      -0.994   5.191  -5.204  1.00  0.00    -0.207 OA
BRANCH  76  79
ATOM     79  C   UNL     1       0.320   3.041  -5.816  1.00  0.00     0.082 A 
ATOM     80  C   UNL     1       1.592   2.466  -5.717  1.00  0.00     0.025 A 
ATOM     81  C   UNL     1      -0.455   2.813  -6.964  1.00  0.00     0.025 A 
ATOM     82  C   UNL     1       2.067   1.641  -6.746  1.00  0.00     0.040 A 
ATOM     83  C   UNL     1       0.022   1.982  -7.982  1.00  0.00     0.040 A 
ATOM     84  C   UNL     1       1.271   1.389  -7.856  1.00  0.00     0.123 A 
ATOM     85  F   UNL     1       1.704   0.549  -8.805  1.00  0.00    -0.207 F 
ENDBRANCH  76  79
ENDBRANCH  75  76
ENDBRANCH  64  68
ENDBRANCH  60  62
ENDBRANCH  59  60
ENDBRANCH  58  59
ENDBRANCH   1  58
TORSDOF 17
