REMARK SMILES O=C(OCCOCCOC(=O)c1cc(NC(=O)c2ccccc2Cl)ccc1N1CCC[C@H](C[NH+]2CCCC2)C1)c1ccc(-c2c3nc(c(-c4ccccc4)c4ccc([nH]4)c(-c4ccccc4)c4nc(c(-c5ccccc5)c5ccc2[nH]5)C=C4)C=C3)cc1
REMARK SMILES IDX 7 1 6 2 5 3 4 4 3 5 2 6 1 7 40 8 41 9 87 10 42 11 86 12
REMARK SMILES IDX 43 13 44 14 45 15 80 16 46 17 85 18 79 19 81 20 47 21 84 22
REMARK SMILES IDX 78 23 77 24 48 26 70 27 55 28 69 29 56 30 59 31 68 32 82 33
REMARK SMILES IDX 57 34 58 35 67 37 83 38 60 39 49 40 50 41 54 42 51 43 53 44
REMARK SMILES IDX 52 45 71 46 72 47 76 48 73 49 75 50 74 51 61 52 62 53 66 54
REMARK SMILES IDX 63 55 65 56 64 57 8 58 9 59 10 60 11 61 12 62 13 63 27 64
REMARK SMILES IDX 14 65 26 66 25 67 28 68 29 69 39 70 30 71 32 72 31 73 33 74
REMARK SMILES IDX 34 75 35 76 38 77 36 79 37 80 15 81 16 82 17 84 18 85 19 86
REMARK SMILES IDX 23 87 20 88 22 89 24 90 21 91
REMARK H PARENT 81 25 59 36 34 78 15 83
REMARK Flexibility Score: inf
ROOT
ATOM      1  C   UNL     1       2.520   1.939   0.142  1.00  0.00     0.202 C 
ENDROOT
BRANCH   1   2
ATOM      2  O   UNL     1       3.733   1.210  -0.050  1.00  0.00    -0.374 OA
BRANCH   2   3
ATOM      3  C   UNL     1       3.799   0.422  -1.236  1.00  0.00     0.202 C 
BRANCH   3   4
ATOM      4  C   UNL     1       3.484  -1.042  -0.936  1.00  0.00     0.261 C 
BRANCH   4   5
ATOM      5  O   UNL     1       2.159  -1.169  -0.396  1.00  0.00    -0.460 OA
BRANCH   5   6
ATOM      6  C   UNL     1       1.774  -1.169   0.900  1.00  0.00     0.338 C 
ATOM      7  O   UNL     1       0.568  -1.223   1.141  1.00  0.00    -0.246 OA
BRANCH   6   8
ATOM      8  C   UNL     1       2.701  -1.095   2.078  1.00  0.00     0.060 A 
ATOM      9  C   UNL     1       3.986  -0.547   2.080  1.00  0.00     0.016 A 
ATOM     10  C   UNL     1       2.173  -1.505   3.316  1.00  0.00     0.016 A 
ATOM     11  C   UNL     1       4.685  -0.314   3.251  1.00  0.00     0.010 A 
ATOM     12  C   UNL     1       2.886  -1.319   4.503  1.00  0.00     0.010 A 
ATOM     13  C   UNL     1       4.135  -0.696   4.465  1.00  0.00    -0.014 A 
BRANCH  13  14
ATOM     14  C   UNL     1       4.986  -0.552   5.648  1.00  0.00     0.031 A 
ATOM     15  C   UNL     1       5.783  -1.740   6.072  1.00  0.00     0.074 A 
ATOM     16  C   UNL     1       5.158   0.663   6.196  1.00  0.00     0.049 A 
ATOM     17  N   UNL     1       6.568  -1.883   7.101  1.00  0.00    -0.248 NA
ATOM     18  C   UNL     1       5.699  -2.926   5.200  1.00  0.00     0.031 C 
ATOM     19  C   UNL     1       4.553   1.905   5.705  1.00  0.00     0.029 A 
ATOM     20  N   UNL     1       5.922   1.059   7.257  1.00  0.00    -0.354 N 
ATOM     21  C   UNL     1       7.042  -3.184   7.024  1.00  0.00     0.074 A 
ATOM     22  C   UNL     1       6.474  -3.786   5.840  1.00  0.00     0.031 C 
ATOM     23  C   UNL     1       4.981   2.928   6.463  1.00  0.00     0.029 A 
ATOM     24  C   UNL     1       5.825   2.401   7.529  1.00  0.00     0.049 A 
ATOM     25  H   UNL     1       6.486   0.442   7.777  1.00  0.00     0.167 HD
ATOM     26  C   UNL     1       7.861  -3.819   7.891  1.00  0.00     0.031 A 
ATOM     27  C   UNL     1       6.334   3.102   8.559  1.00  0.00     0.031 A 
ATOM     28  C   UNL     1       8.378  -3.187   9.072  1.00  0.00     0.049 A 
ATOM     29  C   UNL     1       7.135   2.342   9.582  1.00  0.00     0.074 A 
ATOM     30  C   UNL     1       9.133  -3.732  10.091  1.00  0.00     0.029 A 
ATOM     31  N   UNL     1       8.180  -1.847   9.383  1.00  0.00    -0.354 N 
ATOM     32  N   UNL     1       7.498   1.080   9.573  1.00  0.00    -0.248 NA
ATOM     33  C   UNL     1       7.577   3.090  10.763  1.00  0.00     0.031 C 
ATOM     34  C   UNL     1       9.350  -2.730  11.044  1.00  0.00     0.029 A 
ATOM     35  C   UNL     1       8.783  -1.548  10.589  1.00  0.00     0.049 A 
ATOM     36  H   UNL     1       7.683  -1.205   8.826  1.00  0.00     0.167 HD
ATOM     37  C   UNL     1       8.222   0.883  10.739  1.00  0.00     0.074 A 
ATOM     38  C   UNL     1       8.265   2.165  11.418  1.00  0.00     0.031 C 
ATOM     39  C   UNL     1       8.796  -0.250  11.217  1.00  0.00     0.031 A 
BRANCH  26  40
ATOM     40  C   UNL     1       8.121  -5.273   7.630  1.00  0.00    -0.014 A 
ATOM     41  C   UNL     1       8.935  -5.702   6.570  1.00  0.00     0.009 A 
ATOM     42  C   UNL     1       7.472  -6.235   8.420  1.00  0.00     0.009 A 
ATOM     43  C   UNL     1       9.057  -7.064   6.280  1.00  0.00     0.001 A 
ATOM     44  C   UNL     1       7.617  -7.596   8.145  1.00  0.00     0.001 A 
ATOM     45  C   UNL     1       8.398  -8.009   7.067  1.00  0.00     0.000 A 
ENDBRANCH  26  40
BRANCH  27  46
ATOM     46  C   UNL     1       6.032   4.550   8.718  1.00  0.00    -0.014 A 
ATOM     47  C   UNL     1       7.050   5.514   8.666  1.00  0.00     0.009 A 
ATOM     48  C   UNL     1       4.713   4.979   8.944  1.00  0.00     0.009 A 
ATOM     49  C   UNL     1       6.757   6.868   8.861  1.00  0.00     0.001 A 
ATOM     50  C   UNL     1       4.417   6.334   9.107  1.00  0.00     0.001 A 
ATOM     51  C   UNL     1       5.441   7.277   9.076  1.00  0.00     0.000 A 
ENDBRANCH  27  46
BRANCH  39  52
ATOM     52  C   UNL     1       9.544  -0.128  12.510  1.00  0.00    -0.014 A 
ATOM     53  C   UNL     1       8.867  -0.001  13.732  1.00  0.00     0.009 A 
ATOM     54  C   UNL     1      10.945  -0.201  12.503  1.00  0.00     0.009 A 
ATOM     55  C   UNL     1       9.586   0.080  14.925  1.00  0.00     0.001 A 
ATOM     56  C   UNL     1      11.658  -0.151  13.699  1.00  0.00     0.001 A 
ATOM     57  C   UNL     1      10.979  -0.002  14.907  1.00  0.00     0.000 A 
ENDBRANCH  39  52
ENDBRANCH  13  14
ENDBRANCH   6   8
ENDBRANCH   5   6
ENDBRANCH   4   5
ENDBRANCH   3   4
ENDBRANCH   2   3
ENDBRANCH   1   2
BRANCH   1  58
ATOM     58  C   UNL     1       2.855   3.400  -0.049  1.00  0.00     0.261 C 
BRANCH  58  59
ATOM     59  O   UNL     1       3.482   3.472  -1.331  1.00  0.00    -0.460 OA
BRANCH  59  60
ATOM     60  C   UNL     1       4.822   3.630  -1.388  1.00  0.00     0.340 C 
ATOM     61  O   UNL     1       5.596   3.792  -0.460  1.00  0.00    -0.246 OA
BRANCH  60  62
ATOM     62  C   UNL     1       5.218   3.446  -2.802  1.00  0.00     0.085 A 
ATOM     63  C   UNL     1       6.364   2.648  -3.015  1.00  0.00     0.044 A 
ATOM     64  C   UNL     1       4.459   3.956  -3.877  1.00  0.00     0.051 A 
ATOM     65  C   UNL     1       6.766   2.323  -4.306  1.00  0.00     0.042 A 
ATOM     66  C   UNL     1       4.890   3.610  -5.167  1.00  0.00     0.029 A 
ATOM     67  C   UNL     1       6.027   2.821  -5.380  1.00  0.00     0.028 A 
BRANCH  64  68
ATOM     68  N   UNL     1       3.351   4.797  -3.770  1.00  0.00    -0.370 N 
ATOM     69  C   UNL     1       2.056   4.241  -4.176  1.00  0.00     0.116 C 
ATOM     70  C   UNL     1       3.309   5.830  -2.729  1.00  0.00     0.126 C 
ATOM     71  C   UNL     1       1.114   5.370  -4.593  1.00  0.00     0.022 C 
ATOM     72  C   UNL     1       2.481   7.019  -3.197  1.00  0.00     0.064 C 
ATOM     73  C   UNL     1       1.077   6.498  -3.561  1.00  0.00     0.013 C 
BRANCH  72  74
ATOM     74  C   UNL     1       3.279   7.751  -4.295  1.00  0.00     0.267 C 
BRANCH  74  75
ATOM     75  N   UNL     1       2.933   9.135  -4.615  1.00  0.00    -0.335 N 
ATOM     76  C   UNL     1       2.981  10.057  -3.483  1.00  0.00     0.262 C 
ATOM     77  C   UNL     1       1.654   9.316  -5.290  1.00  0.00     0.262 C 
ATOM     78  H   UNL     1       3.680   9.369  -5.269  1.00  0.00     0.348 HD
ATOM     79  C   UNL     1       1.541  10.246  -3.049  1.00  0.00     0.067 C 
ATOM     80  C   UNL     1       0.737  10.051  -4.321  1.00  0.00     0.067 C 
ENDBRANCH  74  75
ENDBRANCH  72  74
ENDBRANCH  64  68
BRANCH  65  81
ATOM     81  N   UNL     1       7.917   1.581  -4.618  1.00  0.00    -0.322 N 
ATOM     82  C   UNL     1       8.698   0.726  -3.880  1.00  0.00     0.257 C 
ATOM     83  H   UNL     1       8.224   1.697  -5.546  1.00  0.00     0.170 HD
ATOM     84  O   UNL     1       9.820   0.413  -4.275  1.00  0.00    -0.269 OA
BRANCH  82  85
ATOM     85  C   UNL     1       8.193   0.065  -2.668  1.00  0.00     0.058 A 
ATOM     86  C   UNL     1       8.808   0.367  -1.446  1.00  0.00     0.015 A 
ATOM     87  C   UNL     1       7.238  -0.955  -2.738  1.00  0.00     0.053 A 
ATOM     88  C   UNL     1       8.429  -0.313  -0.287  1.00  0.00     0.001 A 
ATOM     89  C   UNL     1       6.890  -1.656  -1.578  1.00  0.00     0.021 A 
ATOM     90  Cl  UNL     1       6.467  -1.417  -4.212  1.00  0.00    -0.083 Cl
ATOM     91  C   UNL     1       7.472  -1.325  -0.353  1.00  0.00     0.002 A 
ENDBRANCH  82  85
ENDBRANCH  65  81
ENDBRANCH  60  62
ENDBRANCH  59  60
ENDBRANCH  58  59
ENDBRANCH   1  58
TORSDOF 19
