REMARK SMILES Cc1ccc(C(=O)Nc2ccc(C(=O)OCCOCCOC(=O)c3ccc(-c4c5nc(c(-c6ccccc6)c6ccc([nH]6)c(-c6ccccc6)c6nc(c(-c7ccccc7)c7ccc4[nH]7)C=C6)C=C5)cc3)c(Cl)c2)cc1C
REMARK SMILES IDX 18 1 17 2 16 3 15 4 13 5 14 6 12 7 9 8 10 9 74 10 11 11
REMARK SMILES IDX 72 12 73 13 8 14 6 15 7 16 5 18 1 19 2 20 3 21 76 22 4 23
REMARK SMILES IDX 75 24 77 25 19 26 20 27 21 28 22 29 23 30 24 31 25 32 71 33
REMARK SMILES IDX 26 34 70 35 27 36 28 37 29 38 64 39 30 40 69 41 63 42 65 43
REMARK SMILES IDX 31 44 68 45 62 46 61 47 32 49 54 50 39 51 53 52 40 53 43 54
REMARK SMILES IDX 52 55 66 56 41 57 42 58 51 60 67 61 44 62 33 63 34 64 38 65
REMARK SMILES IDX 35 66 37 67 36 68 55 69 56 70 60 71 57 72 59 73 58 74 45 75
REMARK SMILES IDX 46 76 50 77 47 78 49 79 48 80
REMARK H PARENT 8 17 65 48 43 59
REMARK Flexibility Score: inf
ROOT
ATOM      1  O   UNL     1      -3.067   7.031   0.312  1.00  0.00    -0.374 OA
ENDROOT
BRANCH   1   2
ATOM      2  C   UNL     1      -4.364   7.491   0.697  1.00  0.00     0.202 C 
BRANCH   2   3
ATOM      3  C   UNL     1      -5.520   6.919  -0.126  1.00  0.00     0.261 C 
BRANCH   3   4
ATOM      4  O   UNL     1      -5.616   5.499   0.075  1.00  0.00    -0.460 OA
BRANCH   4   5
ATOM      5  C   UNL     1      -5.647   4.740  -1.043  1.00  0.00     0.339 C 
ATOM      6  O   UNL     1      -5.704   5.136  -2.198  1.00  0.00    -0.246 OA
BRANCH   5   7
ATOM      7  C   UNL     1      -5.382   3.328  -0.701  1.00  0.00     0.078 A 
ATOM      8  C   UNL     1      -4.633   0.685  -0.122  1.00  0.00     0.043 A 
ATOM      9  C   UNL     1      -4.027   1.363  -1.179  1.00  0.00     0.027 A 
ATOM     10  C   UNL     1      -5.669   1.300   0.589  1.00  0.00     0.047 A 
ATOM     11  C   UNL     1      -4.399   2.679  -1.467  1.00  0.00     0.019 A 
ATOM     12  C   UNL     1      -6.030   2.628   0.321  1.00  0.00     0.057 A 
ATOM     13  Cl  UNL     1      -7.285   3.314   1.289  1.00  0.00    -0.083 Cl
BRANCH   8  14
ATOM     14  N   UNL     1      -4.256  -0.608   0.267  1.00  0.00    -0.322 N 
ATOM     15  C   UNL     1      -3.044  -1.266   0.215  1.00  0.00     0.255 C 
ATOM     16  O   UNL     1      -3.048  -2.495   0.298  1.00  0.00    -0.269 OA
ATOM     17  H   UNL     1      -4.989  -1.144   0.647  1.00  0.00     0.170 HD
BRANCH  15  18
ATOM     18  C   UNL     1      -1.731  -0.548   0.201  1.00  0.00     0.040 A 
ATOM     19  C   UNL     1       2.136   1.406   0.123  1.00  0.00     0.044 C 
ATOM     20  C   UNL     1       0.819   0.682   0.172  1.00  0.00    -0.048 A 
ATOM     21  C   UNL     1      -0.323   1.394   0.563  1.00  0.00     0.004 A 
ATOM     22  C   UNL     1       0.700  -0.690  -0.112  1.00  0.00    -0.047 A 
ATOM     23  C   UNL     1      -1.572   0.774   0.620  1.00  0.00     0.014 A 
ATOM     24  C   UNL     1      -0.580  -1.280  -0.126  1.00  0.00     0.017 A 
ATOM     25  C   UNL     1       1.888  -1.588  -0.329  1.00  0.00     0.044 C 
ENDBRANCH  15  18
ENDBRANCH   8  14
ENDBRANCH   5   7
ENDBRANCH   4   5
ENDBRANCH   3   4
ENDBRANCH   2   3
ENDBRANCH   1   2
BRANCH   1  26
ATOM     26  C   UNL     1      -2.659   5.762   0.829  1.00  0.00     0.202 C 
BRANCH  26  27
ATOM     27  C   UNL     1      -2.110   5.783   2.261  1.00  0.00     0.261 C 
BRANCH  27  28
ATOM     28  O   UNL     1      -3.142   6.067   3.224  1.00  0.00    -0.460 OA
BRANCH  28  29
ATOM     29  C   UNL     1      -3.038   7.272   3.834  1.00  0.00     0.338 C 
ATOM     30  O   UNL     1      -2.130   8.082   3.723  1.00  0.00    -0.246 OA
BRANCH  29  31
ATOM     31  C   UNL     1      -4.284   7.583   4.560  1.00  0.00     0.060 A 
ATOM     32  C   UNL     1      -4.878   8.827   4.316  1.00  0.00     0.016 A 
ATOM     33  C   UNL     1      -4.826   6.714   5.510  1.00  0.00     0.016 A 
ATOM     34  C   UNL     1      -5.988   9.229   5.056  1.00  0.00     0.010 A 
ATOM     35  C   UNL     1      -5.938   7.122   6.257  1.00  0.00     0.010 A 
ATOM     36  C   UNL     1      -6.502   8.395   6.058  1.00  0.00    -0.014 A 
BRANCH  36  37
ATOM     37  C   UNL     1      -7.548   8.915   6.972  1.00  0.00     0.031 A 
ATOM     38  C   UNL     1      -7.152   9.422   8.332  1.00  0.00     0.074 A 
ATOM     39  C   UNL     1      -8.833   8.978   6.580  1.00  0.00     0.049 A 
ATOM     40  N   UNL     1      -7.900   9.941   9.273  1.00  0.00    -0.248 NA
ATOM     41  C   UNL     1      -5.724   9.335   8.676  1.00  0.00     0.031 C 
ATOM     42  C   UNL     1      -9.343   8.552   5.278  1.00  0.00     0.029 A 
ATOM     43  N   UNL     1      -9.944   9.431   7.247  1.00  0.00    -0.354 N 
ATOM     44  C   UNL     1      -7.036  10.238  10.320  1.00  0.00     0.074 A 
ATOM     45  C   UNL     1      -5.714   9.813   9.911  1.00  0.00     0.031 C 
ATOM     46  C   UNL     1     -10.669   8.766   5.239  1.00  0.00     0.029 A 
ATOM     47  C   UNL     1     -11.104   9.318   6.521  1.00  0.00     0.049 A 
ATOM     48  H   UNL     1      -9.912   9.802   8.158  1.00  0.00     0.167 HD
ATOM     49  C   UNL     1      -7.314  10.819  11.512  1.00  0.00     0.031 A 
ATOM     50  C   UNL     1     -12.373   9.616   6.856  1.00  0.00     0.031 A 
ATOM     51  C   UNL     1      -8.628  11.230  11.930  1.00  0.00     0.049 A 
ATOM     52  C   UNL     1     -12.667  10.197   8.213  1.00  0.00     0.074 A 
ATOM     53  C   UNL     1      -9.005  11.845  13.111  1.00  0.00     0.029 A 
ATOM     54  N   UNL     1      -9.783  11.057  11.183  1.00  0.00    -0.354 N 
ATOM     55  N   UNL     1     -11.835  10.505   9.179  1.00  0.00    -0.248 NA
ATOM     56  C   UNL     1     -14.077  10.480   8.519  1.00  0.00     0.031 C 
ATOM     57  C   UNL     1     -10.396  11.995  13.102  1.00  0.00     0.029 A 
ATOM     58  C   UNL     1     -10.877  11.526  11.890  1.00  0.00     0.049 A 
ATOM     59  H   UNL     1      -9.819  10.659  10.283  1.00  0.00     0.167 HD
ATOM     60  C   UNL     1     -12.617  11.041  10.195  1.00  0.00     0.074 A 
ATOM     61  C   UNL     1     -13.986  11.031   9.722  1.00  0.00     0.031 C 
ATOM     62  C   UNL     1     -12.235  11.502  11.412  1.00  0.00     0.031 A 
BRANCH  49  63
ATOM     63  C   UNL     1      -6.169  11.015  12.466  1.00  0.00    -0.014 A 
ATOM     64  C   UNL     1      -5.182  11.986  12.231  1.00  0.00     0.009 A 
ATOM     65  C   UNL     1      -6.092  10.235  13.630  1.00  0.00     0.009 A 
ATOM     66  C   UNL     1      -4.122  12.147  13.127  1.00  0.00     0.001 A 
ATOM     67  C   UNL     1      -5.046  10.416  14.537  1.00  0.00     0.001 A 
ATOM     68  C   UNL     1      -4.058  11.365  14.280  1.00  0.00     0.000 A 
ENDBRANCH  49  63
BRANCH  50  69
ATOM     69  C   UNL     1     -13.475   9.359   5.893  1.00  0.00    -0.014 A 
ATOM     70  C   UNL     1     -14.153  10.424   5.279  1.00  0.00     0.009 A 
ATOM     71  C   UNL     1     -13.865   8.044   5.596  1.00  0.00     0.009 A 
ATOM     72  C   UNL     1     -15.216  10.175   4.407  1.00  0.00     0.001 A 
ATOM     73  C   UNL     1     -14.909   7.799   4.702  1.00  0.00     0.001 A 
ATOM     74  C   UNL     1     -15.589   8.864   4.115  1.00  0.00     0.000 A 
ENDBRANCH  50  69
BRANCH  62  75
ATOM     75  C   UNL     1     -13.310  12.060  12.303  1.00  0.00    -0.014 A 
ATOM     76  C   UNL     1     -14.249  11.223  12.925  1.00  0.00     0.009 A 
ATOM     77  C   UNL     1     -13.365  13.442  12.545  1.00  0.00     0.009 A 
ATOM     78  C   UNL     1     -15.245  11.763  13.742  1.00  0.00     0.001 A 
ATOM     79  C   UNL     1     -14.344  13.976  13.384  1.00  0.00     0.001 A 
ATOM     80  C   UNL     1     -15.290  13.138  13.973  1.00  0.00     0.000 A 
ENDBRANCH  62  75
ENDBRANCH  36  37
ENDBRANCH  29  31
ENDBRANCH  28  29
ENDBRANCH  27  28
ENDBRANCH  26  27
ENDBRANCH   1  26
TORSDOF 16
