REMARK SMILES CO[C@H]1C[C@@H](C(=O)OCCOCCOC(=O)c2ccc(-c3c4nc(c(-c5ccccc5)c5ccc([nH]5)c(-c5ccccc5)c5nc(c(-c6ccccc6)c6ccc3[nH]6)C=C5)C=C4)cc2)N(C(=O)Nc2cc(C)cc(F)c2)C1
REMARK SMILES IDX 11 1 10 2 9 3 8 4 6 5 7 6 5 7 3 8 4 9 77 10 65 11 2 12 1 13
REMARK SMILES IDX 66 14 67 15 68 16 69 18 70 19 76 20 71 21 74 22 72 23 73 24
REMARK SMILES IDX 75 25 12 26 13 27 14 28 15 29 16 30 17 31 18 32 64 33 19 34
REMARK SMILES IDX 63 35 20 36 21 37 22 38 57 39 23 40 62 41 56 42 58 43 24 44
REMARK SMILES IDX 61 45 55 46 54 47 25 49 47 50 32 51 46 52 33 53 36 54 45 55
REMARK SMILES IDX 59 56 34 57 35 58 44 60 60 61 37 62 26 63 27 64 31 65 28 66
REMARK SMILES IDX 30 67 29 68 48 69 49 70 53 71 50 72 52 73 51 74 38 75 39 76
REMARK SMILES IDX 43 77 40 78 42 79 41 80
REMARK H PARENT 68 17 58 48 36 59
REMARK Flexibility Score: inf
ROOT
ATOM      1  O   UNL     1      -1.915   3.498  -5.105  1.00  0.00    -0.374 OA
ENDROOT
BRANCH   1   2
ATOM      2  C   UNL     1      -0.760   3.577  -6.243  1.00  0.00     0.202 C 
BRANCH   2   3
ATOM      3  C   UNL     1       0.713   3.278  -5.835  1.00  0.00     0.261 C 
BRANCH   3   4
ATOM      4  O   UNL     1       0.937   1.890  -5.502  1.00  0.00    -0.462 OA
BRANCH   4   5
ATOM      5  C   UNL     1       1.547   1.662  -4.311  1.00  0.00     0.329 C 
ATOM      6  O   UNL     1       2.299   2.465  -3.766  1.00  0.00    -0.250 OA
BRANCH   5   7
ATOM      7  C   UNL     1       0.999   0.417  -3.583  1.00  0.00     0.199 C 
ATOM      8  C   UNL     1       1.505  -1.496  -2.281  1.00  0.00     0.140 C 
ATOM      9  C   UNL     1       2.103  -0.176  -2.734  1.00  0.00     0.071 C 
ATOM     10  C   UNL     1       0.684  -1.927  -3.518  1.00  0.00     0.154 C 
ATOM     11  N   UNL     1       0.324  -0.689  -4.238  1.00  0.00    -0.308 N 
BRANCH   8  12
ATOM     12  O   UNL     1       2.526  -2.416  -1.912  1.00  0.00    -0.380 OA
ATOM     13  C   UNL     1       3.380  -1.907  -0.884  1.00  0.00     0.195 C 
ENDBRANCH   8  12
BRANCH  11  14
ATOM     14  C   UNL     1      -0.652  -0.743  -5.189  1.00  0.00     0.322 C 
ATOM     15  O   UNL     1      -0.975  -1.850  -5.648  1.00  0.00    -0.248 OA
ATOM     16  N   UNL     1      -1.307   0.306  -5.749  1.00  0.00    -0.308 N 
ATOM     17  H   UNL     1      -1.549   0.113  -6.683  1.00  0.00     0.171 HD
BRANCH  16  18
ATOM     18  C   UNL     1      -1.741   1.604  -5.366  1.00  0.00     0.046 A 
ATOM     19  C   UNL     1      -2.925   2.608  -6.414  1.00  0.00     0.029 A 
ATOM     20  C   UNL     1      -1.325   2.280  -3.750  1.00  0.00     0.065 A 
ATOM     21  C   UNL     1      -3.637   4.136  -5.746  1.00  0.00    -0.046 A 
ATOM     22  C   UNL     1      -2.029   3.788  -3.183  1.00  0.00     0.125 A 
ATOM     23  C   UNL     1      -4.853   4.835  -6.271  1.00  0.00     0.044 C 
ATOM     24  C   UNL     1      -3.151   4.698  -4.136  1.00  0.00     0.042 A 
ATOM     25  F   UNL     1      -1.573   4.294  -2.028  1.00  0.00    -0.207 F 
ENDBRANCH  16  18
ENDBRANCH  11  14
ENDBRANCH   5   7
ENDBRANCH   4   5
ENDBRANCH   3   4
ENDBRANCH   2   3
ENDBRANCH   1   2
BRANCH   1  26
ATOM     26  C   UNL     1      -3.428   2.346  -4.451  1.00  0.00     0.202 C 
BRANCH  26  27
ATOM     27  C   UNL     1      -4.346   1.018  -5.317  1.00  0.00     0.261 C 
BRANCH  27  28
ATOM     28  O   UNL     1      -3.771   0.235  -6.460  1.00  0.00    -0.460 OA
BRANCH  28  29
ATOM     29  C   UNL     1      -4.303   0.335  -7.724  1.00  0.00     0.338 C 
ATOM     30  O   UNL     1      -5.391   0.820  -7.990  1.00  0.00    -0.246 OA
BRANCH  29  31
ATOM     31  C   UNL     1      -3.247   0.125  -8.799  1.00  0.00     0.060 A 
ATOM     32  C   UNL     1      -2.778   1.235  -9.539  1.00  0.00     0.016 A 
ATOM     33  C   UNL     1      -2.773  -1.135  -9.160  1.00  0.00     0.016 A 
ATOM     34  C   UNL     1      -1.861   1.104 -10.598  1.00  0.00     0.010 A 
ATOM     35  C   UNL     1      -1.890  -1.274 -10.264  1.00  0.00     0.010 A 
ATOM     36  C   UNL     1      -1.451  -0.162 -11.016  1.00  0.00    -0.014 A 
BRANCH  36  37
ATOM     37  C   UNL     1      -0.822  -0.325 -12.370  1.00  0.00     0.031 A 
ATOM     38  C   UNL     1      -1.712  -0.732 -13.524  1.00  0.00     0.074 A 
ATOM     39  C   UNL     1       0.480  -0.085 -12.633  1.00  0.00     0.049 A 
ATOM     40  N   UNL     1      -1.407  -0.987 -14.774  1.00  0.00    -0.248 NA
ATOM     41  C   UNL     1      -3.143  -0.872 -13.216  1.00  0.00     0.031 C 
ATOM     42  C   UNL     1       1.474   0.383 -11.672  1.00  0.00     0.029 A 
ATOM     43  N   UNL     1       1.192  -0.223 -13.809  1.00  0.00    -0.354 N 
ATOM     44  C   UNL     1      -2.601  -1.352 -15.388  1.00  0.00     0.074 A 
ATOM     45  C   UNL     1      -3.627  -1.303 -14.369  1.00  0.00     0.031 C 
ATOM     46  C   UNL     1       2.669   0.468 -12.287  1.00  0.00     0.029 A 
ATOM     47  C   UNL     1       2.537   0.032 -13.680  1.00  0.00     0.049 A 
ATOM     48  H   UNL     1       0.773  -0.479 -14.662  1.00  0.00     0.167 HD
ATOM     49  C   UNL     1      -2.836  -1.700 -16.677  1.00  0.00     0.031 A 
ATOM     50  C   UNL     1       3.554  -0.095 -14.561  1.00  0.00     0.031 A 
ATOM     51  C   UNL     1      -1.834  -1.764 -17.709  1.00  0.00     0.049 A 
ATOM     52  C   UNL     1       3.290  -0.558 -15.976  1.00  0.00     0.074 A 
ATOM     53  C   UNL     1      -1.999  -2.075 -19.048  1.00  0.00     0.029 A 
ATOM     54  N   UNL     1      -0.483  -1.533 -17.517  1.00  0.00    -0.354 N 
ATOM     55  N   UNL     1       2.153  -0.870 -16.548  1.00  0.00    -0.248 NA
ATOM     56  C   UNL     1       4.456  -0.677 -16.869  1.00  0.00     0.031 C 
ATOM     57  C   UNL     1      -0.738  -2.108 -19.650  1.00  0.00     0.029 A 
ATOM     58  C   UNL     1       0.203  -1.736 -18.705  1.00  0.00     0.049 A 
ATOM     59  H   UNL     1      -0.070  -1.265 -16.665  1.00  0.00     0.167 HD
ATOM     60  C   UNL     1       2.461  -1.189 -17.868  1.00  0.00     0.074 A 
ATOM     61  C   UNL     1       3.890  -1.023 -18.018  1.00  0.00     0.031 C 
ATOM     62  C   UNL     1       1.627  -1.579 -18.864  1.00  0.00     0.031 A 
BRANCH  49  63
ATOM     63  C   UNL     1      -4.243  -2.105 -17.033  1.00  0.00    -0.014 A 
ATOM     64  C   UNL     1      -5.299  -1.180 -17.047  1.00  0.00     0.009 A 
ATOM     65  C   UNL     1      -4.509  -3.442 -17.372  1.00  0.00     0.009 A 
ATOM     66  C   UNL     1      -6.600  -1.597 -17.341  1.00  0.00     0.001 A 
ATOM     67  C   UNL     1      -5.802  -3.848 -17.702  1.00  0.00     0.001 A 
ATOM     68  C   UNL     1      -6.849  -2.928 -17.672  1.00  0.00     0.000 A 
ENDBRANCH  49  63
BRANCH  50  69
ATOM     69  C   UNL     1       4.952   0.190 -14.127  1.00  0.00    -0.014 A 
ATOM     70  C   UNL     1       5.655   1.297 -14.629  1.00  0.00     0.009 A 
ATOM     71  C   UNL     1       5.599  -0.664 -13.219  1.00  0.00     0.009 A 
ATOM     72  C   UNL     1       6.977   1.535 -14.238  1.00  0.00     0.001 A 
ATOM     73  C   UNL     1       6.909  -0.406 -12.806  1.00  0.00     0.001 A 
ATOM     74  C   UNL     1       7.599   0.690 -13.321  1.00  0.00     0.000 A 
ENDBRANCH  50  69
BRANCH  62  75
ATOM     75  C   UNL     1       2.217  -1.815 -20.231  1.00  0.00    -0.014 A 
ATOM     76  C   UNL     1       3.052  -2.913 -20.498  1.00  0.00     0.009 A 
ATOM     77  C   UNL     1       1.885  -0.951 -21.289  1.00  0.00     0.009 A 
ATOM     78  C   UNL     1       3.566  -3.118 -21.782  1.00  0.00     0.001 A 
ATOM     79  C   UNL     1       2.373  -1.177 -22.578  1.00  0.00     0.001 A 
ATOM     80  C   UNL     1       3.221  -2.255 -22.821  1.00  0.00     0.000 A 
ENDBRANCH  62  75
ENDBRANCH  36  37
ENDBRANCH  29  31
ENDBRANCH  28  29
ENDBRANCH  27  28
ENDBRANCH  26  27
ENDBRANCH   1  26
TORSDOF 17
