REMARK SMILES CC(C)CCc1cc2c(cc1Cl)C=C(C(=O)OCCOCCOC(=O)c1ccc(-c3c4nc(c(-c5ccccc5)c5ccc([nH]5)c(-c5ccccc5)c5nc(c(-c6ccccc6)c6ccc3[nH]6)C=C5)C=C4)cc1)[C@H](C(F)(F)F)O2
REMARK SMILES IDX 19 1 18 2 17 3 15 4 16 5 14 6 6 7 7 8 11 9 8 10 10 11 12 12
REMARK SMILES IDX 9 13 79 14 13 15 74 16 5 17 4 18 2 19 1 20 3 21 75 22 76 23
REMARK SMILES IDX 77 24 78 25 20 26 21 27 22 28 23 29 24 30 25 31 26 32 27 33
REMARK SMILES IDX 73 34 28 35 72 36 29 37 30 38 31 39 66 40 32 41 71 42 65 43
REMARK SMILES IDX 67 44 33 45 70 46 64 47 63 48 34 50 56 51 41 52 55 53 42 54
REMARK SMILES IDX 45 55 54 56 68 57 43 58 44 59 53 61 69 62 46 63 35 64 36 65
REMARK SMILES IDX 40 66 37 67 39 68 38 69 57 70 58 71 62 72 59 73 61 74 60 75
REMARK SMILES IDX 47 76 48 77 52 78 49 79 51 80 50 81
REMARK H PARENT 67 49 45 60
REMARK Flexibility Score: inf
ROOT
ATOM      1  C   UNL     1       0.599  11.877   0.994  1.00  0.00     0.202 C 
ENDROOT
BRANCH   1   2
ATOM      2  C   UNL     1       0.260  11.463  -0.441  1.00  0.00     0.261 C 
BRANCH   2   3
ATOM      3  O   UNL     1      -0.460  10.220  -0.453  1.00  0.00    -0.460 OA
BRANCH   3   4
ATOM      4  C   UNL     1       0.243   9.171  -0.928  1.00  0.00     0.338 C 
ATOM      5  O   UNL     1       1.297   9.222  -1.541  1.00  0.00    -0.246 OA
BRANCH   4   6
ATOM      6  C   UNL     1      -0.361   7.910  -0.471  1.00  0.00     0.087 C 
ATOM      7  C   UNL     1      -0.879   2.992   0.373  1.00  0.00    -0.026 A 
ATOM      8  C   UNL     1      -1.729   4.003  -0.129  1.00  0.00     0.052 A 
ATOM      9  C   UNL     1       0.364   3.374   0.906  1.00  0.00     0.045 A 
ATOM     10  C   UNL     1      -1.310   5.333  -0.174  1.00  0.00     0.128 A 
ATOM     11  C   UNL     1       0.809   4.692   0.793  1.00  0.00     0.032 A 
ATOM     12  Cl  UNL     1       1.418   2.278   1.721  1.00  0.00    -0.084 Cl
ATOM     13  C   UNL     1      -0.012   5.658   0.218  1.00  0.00     0.019 A 
ATOM     14  O   UNL     1      -2.180   6.261  -0.690  1.00  0.00    -0.475 OA
ATOM     15  C   UNL     1       0.516   6.970  -0.097  1.00  0.00     0.027 C 
ATOM     16  C   UNL     1      -1.846   7.670  -0.463  1.00  0.00     0.316 C 
BRANCH   7  17
ATOM     17  C   UNL     1      -1.316   1.546   0.253  1.00  0.00     0.037 C 
BRANCH  17  18
ATOM     18  C   UNL     1      -0.907   0.882  -1.081  1.00  0.00     0.008 C 
BRANCH  18  19
ATOM     19  C   UNL     1       0.594   0.564  -1.252  1.00  0.00    -0.017 C 
ATOM     20  C   UNL     1       1.076  -0.523  -0.287  1.00  0.00     0.007 C 
ATOM     21  C   UNL     1       0.894   0.114  -2.686  1.00  0.00     0.007 C 
ENDBRANCH  18  19
ENDBRANCH  17  18
ENDBRANCH   7  17
BRANCH  16  22
ATOM     22  C   UNL     1      -2.551   8.186   0.811  1.00  0.00     0.430 C 
ATOM     23  F   UNL     1      -1.969   7.733   1.946  1.00  0.00    -0.167 F 
ATOM     24  F   UNL     1      -2.560   9.538   0.878  1.00  0.00    -0.167 F 
ATOM     25  F   UNL     1      -3.851   7.799   0.845  1.00  0.00    -0.167 F 
ENDBRANCH  16  22
ENDBRANCH   4   6
ENDBRANCH   3   4
ENDBRANCH   2   3
ENDBRANCH   1   2
BRANCH   1  26
ATOM     26  O   UNL     1       1.457  11.001   1.722  1.00  0.00    -0.374 OA
BRANCH  26  27
ATOM     27  C   UNL     1       0.856   9.879   2.373  1.00  0.00     0.202 C 
BRANCH  27  28
ATOM     28  C   UNL     1       0.080  10.151   3.669  1.00  0.00     0.261 C 
BRANCH  28  29
ATOM     29  O   UNL     1      -1.161  10.832   3.409  1.00  0.00    -0.460 OA
BRANCH  29  30
ATOM     30  C   UNL     1      -1.202  12.132   3.789  1.00  0.00     0.338 C 
ATOM     31  O   UNL     1      -0.346  12.750   4.402  1.00  0.00    -0.246 OA
BRANCH  30  32
ATOM     32  C   UNL     1      -2.357  12.788   3.141  1.00  0.00     0.060 A 
ATOM     33  C   UNL     1      -3.642  12.248   3.208  1.00  0.00     0.016 A 
ATOM     34  C   UNL     1      -2.127  13.989   2.456  1.00  0.00     0.016 A 
ATOM     35  C   UNL     1      -4.705  12.938   2.617  1.00  0.00     0.010 A 
ATOM     36  C   UNL     1      -3.188  14.674   1.865  1.00  0.00     0.010 A 
ATOM     37  C   UNL     1      -4.490  14.167   1.962  1.00  0.00    -0.014 A 
BRANCH  37  38
ATOM     38  C   UNL     1      -5.642  14.991   1.518  1.00  0.00     0.031 A 
ATOM     39  C   UNL     1      -5.986  15.156   0.068  1.00  0.00     0.074 A 
ATOM     40  C   UNL     1      -6.371  15.624   2.459  1.00  0.00     0.049 A 
ATOM     41  N   UNL     1      -6.998  15.796  -0.463  1.00  0.00    -0.248 NA
ATOM     42  C   UNL     1      -5.087  14.531  -0.914  1.00  0.00     0.031 C 
ATOM     43  C   UNL     1      -6.110  15.563   3.898  1.00  0.00     0.029 A 
ATOM     44  N   UNL     1      -7.478  16.427   2.354  1.00  0.00    -0.354 N 
ATOM     45  C   UNL     1      -6.871  15.637  -1.836  1.00  0.00     0.074 A 
ATOM     46  C   UNL     1      -5.657  14.880  -2.062  1.00  0.00     0.031 C 
ATOM     47  C   UNL     1      -7.054  16.262   4.544  1.00  0.00     0.029 A 
ATOM     48  C   UNL     1      -7.962  16.857   3.567  1.00  0.00     0.049 A 
ATOM     49  H   UNL     1      -7.887  16.673   1.493  1.00  0.00     0.167 HD
ATOM     50  C   UNL     1      -7.705  16.068  -2.812  1.00  0.00     0.031 A 
ATOM     51  C   UNL     1      -9.018  17.639   3.867  1.00  0.00     0.031 A 
ATOM     52  C   UNL     1      -8.903  16.834  -2.578  1.00  0.00     0.049 A 
ATOM     53  C   UNL     1      -9.894  18.148   2.756  1.00  0.00     0.074 A 
ATOM     54  C   UNL     1      -9.831  17.273  -3.509  1.00  0.00     0.029 A 
ATOM     55  N   UNL     1      -9.335  17.286  -1.341  1.00  0.00    -0.354 N 
ATOM     56  N   UNL     1      -9.812  17.911   1.469  1.00  0.00    -0.248 NA
ATOM     57  C   UNL     1     -11.016  19.019   3.135  1.00  0.00     0.031 C 
ATOM     58  C   UNL     1     -10.776  18.057  -2.848  1.00  0.00     0.029 A 
ATOM     59  C   UNL     1     -10.492  18.033  -1.492  1.00  0.00     0.049 A 
ATOM     60  H   UNL     1      -8.887  17.103  -0.484  1.00  0.00     0.167 HD
ATOM     61  C   UNL     1     -10.883  18.580   0.890  1.00  0.00     0.074 A 
ATOM     62  C   UNL     1     -11.614  19.214   1.967  1.00  0.00     0.031 C 
ATOM     63  C   UNL     1     -11.223  18.660  -0.419  1.00  0.00     0.031 A 
BRANCH  50  64
ATOM     64  C   UNL     1      -7.385  15.717  -4.241  1.00  0.00    -0.014 A 
ATOM     65  C   UNL     1      -7.092  16.736  -5.164  1.00  0.00     0.009 A 
ATOM     66  C   UNL     1      -7.538  14.403  -4.709  1.00  0.00     0.009 A 
ATOM     67  C   UNL     1      -6.991  16.451  -6.527  1.00  0.00     0.001 A 
ATOM     68  C   UNL     1      -7.407  14.117  -6.070  1.00  0.00     0.001 A 
ATOM     69  C   UNL     1      -7.149  15.142  -6.979  1.00  0.00     0.000 A 
ENDBRANCH  50  64
BRANCH  51  70
ATOM     70  C   UNL     1      -9.318  17.951   5.291  1.00  0.00    -0.014 A 
ATOM     71  C   UNL     1      -8.427  18.719   6.060  1.00  0.00     0.009 A 
ATOM     72  C   UNL     1     -10.476  17.450   5.904  1.00  0.00     0.009 A 
ATOM     73  C   UNL     1      -8.674  18.954   7.414  1.00  0.00     0.001 A 
ATOM     74  C   UNL     1     -10.741  17.720   7.248  1.00  0.00     0.001 A 
ATOM     75  C   UNL     1      -9.835  18.461   8.005  1.00  0.00     0.000 A 
ENDBRANCH  51  70
BRANCH  63  76
ATOM     76  C   UNL     1     -12.450  19.451  -0.790  1.00  0.00    -0.014 A 
ATOM     77  C   UNL     1     -13.555  18.796  -1.362  1.00  0.00     0.009 A 
ATOM     78  C   UNL     1     -12.469  20.851  -0.696  1.00  0.00     0.009 A 
ATOM     79  C   UNL     1     -14.636  19.526  -1.857  1.00  0.00     0.001 A 
ATOM     80  C   UNL     1     -13.569  21.576  -1.158  1.00  0.00     0.001 A 
ATOM     81  C   UNL     1     -14.644  20.916  -1.752  1.00  0.00     0.000 A 
ENDBRANCH  63  76
ENDBRANCH  37  38
ENDBRANCH  30  32
ENDBRANCH  29  30
ENDBRANCH  28  29
ENDBRANCH  27  28
ENDBRANCH  26  27
ENDBRANCH   1  26
TORSDOF 18
