REMARK SMILES CCC[C@@]1(C(=O)N[C@@](C)(C(=O)OCCOCCOC(=O)c2ccc(-c3c4nc(c(-c5ccccc5)c5ccc([nH]5)c(-c5ccccc5)c5nc(c(-c6ccccc6)c6ccc3[nH]6)C=C5)C=C4)cc2)C(F)(F)F)CC[NH2+]C1
REMARK SMILES IDX 14 1 13 2 12 3 10 4 11 5 8 6 9 7 7 8 5 9 6 10 4 12 73 13
REMARK SMILES IDX 76 14 74 15 75 16 3 19 2 20 1 21 69 22 70 23 71 24 72 25
REMARK SMILES IDX 15 26 16 27 17 28 18 29 19 30 20 31 21 32 22 33 68 34 23 35
REMARK SMILES IDX 67 36 24 37 25 38 26 39 61 40 27 41 66 42 60 43 62 44 28 45
REMARK SMILES IDX 65 46 59 47 58 48 29 50 51 51 36 52 50 53 37 54 40 55 49 56
REMARK SMILES IDX 63 57 38 58 39 59 48 61 64 62 41 63 30 64 31 65 35 66 32 67
REMARK SMILES IDX 34 68 33 69 52 70 53 71 57 72 54 73 56 74 55 75 42 76 43 77
REMARK SMILES IDX 47 78 44 79 46 80 45 81
REMARK H PARENT 7 11 75 17 75 18 62 49 40 60
REMARK Flexibility Score: inf
ROOT
ATOM      1  C   UNL     1       5.373  -1.540   0.964  1.00  0.00     0.202 C 
ENDROOT
BRANCH   1   2
ATOM      2  C   UNL     1       5.987  -0.835  -0.251  1.00  0.00     0.261 C 
BRANCH   2   3
ATOM      3  O   UNL     1       5.016  -0.127  -1.042  1.00  0.00    -0.461 OA
BRANCH   3   4
ATOM      4  C   UNL     1       5.170  -0.264  -2.392  1.00  0.00     0.341 C 
ATOM      5  O   UNL     1       6.200  -0.688  -2.905  1.00  0.00    -0.249 OA
BRANCH   4   6
ATOM      6  C   UNL     1       3.946   0.220  -3.200  1.00  0.00     0.231 C 
ATOM      7  C   UNL     1       4.429   1.447  -3.990  1.00  0.00     0.058 C 
BRANCH   6   8
ATOM      8  N   UNL     1       2.828   0.686  -2.294  1.00  0.00    -0.332 N 
ATOM      9  C   UNL     1       1.500   0.650  -2.076  1.00  0.00     0.233 C 
ATOM     10  O   UNL     1       1.204   1.446  -1.163  1.00  0.00    -0.274 OA
ATOM     11  H   UNL     1       3.231   1.232  -1.580  1.00  0.00     0.164 HD
BRANCH   9  12
ATOM     12  C   UNL     1       0.327  -0.095  -2.801  1.00  0.00     0.103 C 
ATOM     13  C   UNL     1      -0.809  -0.239  -1.744  1.00  0.00     0.084 C 
ATOM     14  C   UNL     1       0.477  -1.576  -3.126  1.00  0.00     0.277 C 
ATOM     15  C   UNL     1      -0.491  -1.532  -0.998  1.00  0.00     0.261 C 
ATOM     16  N   UNL     1       0.460  -2.261  -1.835  1.00  0.00    -0.345 N 
ATOM     17  H   UNL     1       0.159  -3.228  -1.953  1.00  0.00     0.346 HD
ATOM     18  H   UNL     1       1.389  -2.280  -1.413  1.00  0.00     0.346 HD
BRANCH  12  19
ATOM     19  C   UNL     1      -0.101   0.786  -4.005  1.00  0.00     0.023 C 
BRANCH  19  20
ATOM     20  C   UNL     1      -1.087   0.239  -5.058  1.00  0.00    -0.002 C 
ATOM     21  C   UNL     1      -2.549   0.150  -4.638  1.00  0.00     0.004 C 
ENDBRANCH  19  20
ENDBRANCH  12  19
ENDBRANCH   9  12
ENDBRANCH   6   8
BRANCH   6  22
ATOM     22  C   UNL     1       3.676  -0.939  -4.149  1.00  0.00     0.422 C 
ATOM     23  F   UNL     1       3.426  -2.086  -3.482  1.00  0.00    -0.168 F 
ATOM     24  F   UNL     1       2.606  -0.662  -4.936  1.00  0.00    -0.168 F 
ATOM     25  F   UNL     1       4.698  -1.185  -4.998  1.00  0.00    -0.168 F 
ENDBRANCH   6  22
ENDBRANCH   4   6
ENDBRANCH   3   4
ENDBRANCH   2   3
ENDBRANCH   1   2
BRANCH   1  26
ATOM     26  O   UNL     1       4.196  -2.308   0.763  1.00  0.00    -0.374 OA
BRANCH  26  27
ATOM     27  C   UNL     1       3.000  -1.617   0.403  1.00  0.00     0.202 C 
BRANCH  27  28
ATOM     28  C   UNL     1       2.401  -0.614   1.402  1.00  0.00     0.261 C 
BRANCH  28  29
ATOM     29  O   UNL     1       3.303   0.433   1.794  1.00  0.00    -0.460 OA
BRANCH  29  30
ATOM     30  C   UNL     1       3.594   0.457   3.119  1.00  0.00     0.338 C 
ATOM     31  O   UNL     1       3.166  -0.270   3.997  1.00  0.00    -0.246 OA
BRANCH  30  32
ATOM     32  C   UNL     1       4.696   1.403   3.350  1.00  0.00     0.060 A 
ATOM     33  C   UNL     1       5.929   0.885   3.765  1.00  0.00     0.016 A 
ATOM     34  C   UNL     1       4.496   2.778   3.234  1.00  0.00     0.016 A 
ATOM     35  C   UNL     1       6.972   1.747   4.082  1.00  0.00     0.010 A 
ATOM     36  C   UNL     1       5.539   3.643   3.571  1.00  0.00     0.010 A 
ATOM     37  C   UNL     1       6.771   3.131   4.017  1.00  0.00    -0.014 A 
BRANCH  37  38
ATOM     38  C   UNL     1       7.809   4.044   4.544  1.00  0.00     0.031 A 
ATOM     39  C   UNL     1       7.643   4.614   5.923  1.00  0.00     0.074 A 
ATOM     40  C   UNL     1       8.890   4.344   3.804  1.00  0.00     0.049 A 
ATOM     41  N   UNL     1       8.395   5.474   6.558  1.00  0.00    -0.248 NA
ATOM     42  C   UNL     1       6.472   4.154   6.687  1.00  0.00     0.031 C 
ATOM     43  C   UNL     1       9.182   3.807   2.475  1.00  0.00     0.029 A 
ATOM     44  N   UNL     1       9.941   5.184   4.067  1.00  0.00    -0.354 N 
ATOM     45  C   UNL     1       7.783   5.669   7.790  1.00  0.00     0.074 A 
ATOM     46  C   UNL     1       6.586   4.856   7.804  1.00  0.00     0.031 C 
ATOM     47  C   UNL     1      10.333   4.341   2.034  1.00  0.00     0.029 A 
ATOM     48  C   UNL     1      10.834   5.286   3.029  1.00  0.00     0.049 A 
ATOM     49  H   UNL     1      10.046   5.668   4.918  1.00  0.00     0.167 HD
ATOM     50  C   UNL     1       8.185   6.454   8.817  1.00  0.00     0.031 A 
ATOM     51  C   UNL     1      11.915   6.076   2.889  1.00  0.00     0.031 A 
ATOM     52  C   UNL     1       9.368   7.272   8.787  1.00  0.00     0.049 A 
ATOM     53  C   UNL     1      12.290   7.009   4.009  1.00  0.00     0.074 A 
ATOM     54  C   UNL     1       9.874   8.092   9.781  1.00  0.00     0.029 A 
ATOM     55  N   UNL     1      10.223   7.381   7.702  1.00  0.00    -0.354 N 
ATOM     56  N   UNL     1      11.720   7.167   5.180  1.00  0.00    -0.248 NA
ATOM     57  C   UNL     1      13.459   7.872   3.789  1.00  0.00     0.031 C 
ATOM     58  C   UNL     1      10.999   8.747   9.272  1.00  0.00     0.029 A 
ATOM     59  C   UNL     1      11.233   8.284   7.987  1.00  0.00     0.049 A 
ATOM     60  H   UNL     1      10.126   6.890   6.854  1.00  0.00     0.167 HD
ATOM     61  C   UNL     1      12.476   8.124   5.845  1.00  0.00     0.074 A 
ATOM     62  C   UNL     1      13.553   8.500   4.953  1.00  0.00     0.031 C 
ATOM     63  C   UNL     1      12.296   8.646   7.084  1.00  0.00     0.031 A 
BRANCH  50  64
ATOM     64  C   UNL     1       7.311   6.501  10.039  1.00  0.00    -0.014 A 
ATOM     65  C   UNL     1       7.208   5.404  10.909  1.00  0.00     0.009 A 
ATOM     66  C   UNL     1       6.604   7.675  10.341  1.00  0.00     0.009 A 
ATOM     67  C   UNL     1       6.388   5.472  12.038  1.00  0.00     0.001 A 
ATOM     68  C   UNL     1       5.809   7.751  11.485  1.00  0.00     0.001 A 
ATOM     69  C   UNL     1       5.694   6.647  12.328  1.00  0.00     0.000 A 
ENDBRANCH  50  64
BRANCH  51  70
ATOM     70  C   UNL     1      12.702   6.046   1.628  1.00  0.00    -0.014 A 
ATOM     71  C   UNL     1      14.013   5.549   1.611  1.00  0.00     0.009 A 
ATOM     72  C   UNL     1      12.146   6.531   0.433  1.00  0.00     0.009 A 
ATOM     73  C   UNL     1      14.760   5.561   0.430  1.00  0.00     0.001 A 
ATOM     74  C   UNL     1      12.883   6.514  -0.753  1.00  0.00     0.001 A 
ATOM     75  C   UNL     1      14.193   6.038  -0.751  1.00  0.00     0.000 A 
ENDBRANCH  51  70
BRANCH  63  76
ATOM     76  C   UNL     1      13.304   9.653   7.562  1.00  0.00    -0.014 A 
ATOM     77  C   UNL     1      13.342  10.954   7.037  1.00  0.00     0.009 A 
ATOM     78  C   UNL     1      14.191   9.310   8.595  1.00  0.00     0.009 A 
ATOM     79  C   UNL     1      14.268  11.882   7.517  1.00  0.00     0.001 A 
ATOM     80  C   UNL     1      15.094  10.249   9.095  1.00  0.00     0.001 A 
ATOM     81  C   UNL     1      15.138  11.531   8.550  1.00  0.00     0.000 A 
ENDBRANCH  63  76
ENDBRANCH  37  38
ENDBRANCH  30  32
ENDBRANCH  29  30
ENDBRANCH  28  29
ENDBRANCH  27  28
ENDBRANCH  26  27
ENDBRANCH   1  26
TORSDOF 19
