REMARK SMILES COc1ccc(/C=C/c2nc(C(=O)OCCOCCOC(=O)c3ccc(-c4c5nc(c(-c6ccccc6)c6ccc([nH]6)c(-c6ccccc6)c6nc(c(-c7ccccc7)c7ccc4[nH]7)C=C6)C=C5)cc3)ccc2C#N)cc1F
REMARK SMILES IDX 16 1 15 2 14 3 12 4 13 5 11 6 9 7 10 8 73 9 72 10 71 11 8 12
REMARK SMILES IDX 7 13 6 14 3 15 4 16 77 17 5 18 76 19 78 20 2 21 1 22 74 23
REMARK SMILES IDX 75 24 17 25 18 26 19 27 20 28 21 29 22 30 23 31 24 32 70 33
REMARK SMILES IDX 25 34 69 35 26 36 27 37 28 38 63 39 29 40 68 41 62 42 64 43
REMARK SMILES IDX 30 44 67 45 61 46 60 47 31 49 53 50 38 51 52 52 39 53 42 54
REMARK SMILES IDX 51 55 65 56 40 57 41 58 50 60 66 61 43 62 32 63 33 64 37 65
REMARK SMILES IDX 34 66 36 67 35 68 54 69 55 70 59 71 56 72 58 73 57 74 44 75
REMARK SMILES IDX 45 76 49 77 46 78 48 79 47 80
REMARK H PARENT 64 48 42 59
REMARK Flexibility Score: inf
ROOT
ATOM      1  C   UNL     1      -0.635 -10.712   8.604  1.00  0.00     0.202 C 
ENDROOT
BRANCH   1   2
ATOM      2  C   UNL     1       0.684 -10.729   7.827  1.00  0.00     0.261 C 
BRANCH   2   3
ATOM      3  O   UNL     1       1.440  -9.525   8.015  1.00  0.00    -0.459 OA
BRANCH   3   4
ATOM      4  C   UNL     1       1.467  -8.704   6.931  1.00  0.00     0.357 C 
ATOM      5  O   UNL     1       1.036  -8.965   5.820  1.00  0.00    -0.244 OA
BRANCH   4   6
ATOM      6  C   UNL     1       1.972  -7.357   7.333  1.00  0.00     0.149 A 
ATOM      7  C   UNL     1       1.887  -5.073   6.900  1.00  0.00     0.082 A 
ATOM      8  N   UNL     1       1.447  -6.321   6.629  1.00  0.00    -0.240 NA
ATOM      9  C   UNL     1       2.832  -4.809   7.891  1.00  0.00     0.078 A 
ATOM     10  C   UNL     1       3.324  -5.885   8.640  1.00  0.00     0.024 A 
ATOM     11  C   UNL     1       2.889  -7.181   8.362  1.00  0.00     0.037 A 
BRANCH   7  12
ATOM     12  C   UNL     1       1.293  -4.058   6.027  1.00  0.00     0.030 C 
ATOM     13  C   UNL     1       2.053  -3.389   5.146  1.00  0.00     0.010 C 
BRANCH  13  14
ATOM     14  C   UNL     1       1.609  -2.392   4.162  1.00  0.00    -0.022 A 
ATOM     15  C   UNL     1       0.930  -0.513   2.175  1.00  0.00     0.154 A 
ATOM     16  C   UNL     1      -0.049  -1.012   3.033  1.00  0.00     0.050 A 
ATOM     17  C   UNL     1       2.252  -0.916   2.346  1.00  0.00     0.165 A 
ATOM     18  C   UNL     1       0.286  -1.956   4.014  1.00  0.00     0.012 A 
ATOM     19  C   UNL     1       2.590  -1.848   3.322  1.00  0.00     0.051 A 
ATOM     20  F   UNL     1       3.237  -0.410   1.591  1.00  0.00    -0.203 F 
BRANCH  15  21
ATOM     21  O   UNL     1       0.519   0.398   1.240  1.00  0.00    -0.494 OA
ATOM     22  C   UNL     1       0.980   0.082  -0.074  1.00  0.00     0.278 C 
ENDBRANCH  15  21
ENDBRANCH  13  14
ENDBRANCH   7  12
BRANCH   9  23
ATOM     23  C   UNL     1       3.325  -3.487   8.141  1.00  0.00     0.101 C 
ATOM     24  N   UNL     1       3.759  -2.433   8.342  1.00  0.00    -0.192 NA
ENDBRANCH   9  23
ENDBRANCH   4   6
ENDBRANCH   3   4
ENDBRANCH   2   3
ENDBRANCH   1   2
BRANCH   1  25
ATOM     25  O   UNL     1      -1.574  -9.673   8.348  1.00  0.00    -0.374 OA
BRANCH  25  26
ATOM     26  C   UNL     1      -1.292  -8.356   8.811  1.00  0.00     0.202 C 
BRANCH  26  27
ATOM     27  C   UNL     1      -1.335  -8.067  10.320  1.00  0.00     0.261 C 
BRANCH  27  28
ATOM     28  O   UNL     1      -0.485  -8.918  11.106  1.00  0.00    -0.460 OA
BRANCH  28  29
ATOM     29  C   UNL     1      -1.158  -9.872  11.799  1.00  0.00     0.338 C 
ATOM     30  O   UNL     1      -2.365 -10.040  11.845  1.00  0.00    -0.246 OA
BRANCH  29  31
ATOM     31  C   UNL     1      -0.217 -10.845  12.381  1.00  0.00     0.060 A 
ATOM     32  C   UNL     1      -0.376 -12.187  12.012  1.00  0.00     0.016 A 
ATOM     33  C   UNL     1       0.726 -10.477  13.341  1.00  0.00     0.016 A 
ATOM     34  C   UNL     1       0.373 -13.173  12.644  1.00  0.00     0.010 A 
ATOM     35  C   UNL     1       1.479 -11.473  13.974  1.00  0.00     0.010 A 
ATOM     36  C   UNL     1       1.280 -12.829  13.656  1.00  0.00    -0.014 A 
BRANCH  36  37
ATOM     37  C   UNL     1       1.943 -13.915  14.421  1.00  0.00     0.031 A 
ATOM     38  C   UNL     1       1.510 -14.220  15.830  1.00  0.00     0.074 A 
ATOM     39  C   UNL     1       2.880 -14.676  13.827  1.00  0.00     0.049 A 
ATOM     40  N   UNL     1       1.910 -15.177  16.629  1.00  0.00    -0.248 NA
ATOM     41  C   UNL     1       0.496 -13.330  16.417  1.00  0.00     0.031 C 
ATOM     42  C   UNL     1       3.364 -14.501  12.458  1.00  0.00     0.029 A 
ATOM     43  N   UNL     1       3.575 -15.762  14.295  1.00  0.00    -0.354 N 
ATOM     44  C   UNL     1       1.202 -15.004  17.813  1.00  0.00     0.074 A 
ATOM     45  C   UNL     1       0.382 -13.823  17.641  1.00  0.00     0.031 C 
ATOM     46  C   UNL     1       4.258 -15.465  12.186  1.00  0.00     0.029 A 
ATOM     47  C   UNL     1       4.440 -16.297  13.372  1.00  0.00     0.049 A 
ATOM     48  H   UNL     1       3.464 -16.123  15.204  1.00  0.00     0.167 HD
ATOM     49  C   UNL     1       1.225 -15.762  18.936  1.00  0.00     0.031 A 
ATOM     50  C   UNL     1       5.289 -17.336  13.472  1.00  0.00     0.031 A 
ATOM     51  C   UNL     1       2.060 -16.924  19.114  1.00  0.00     0.049 A 
ATOM     52  C   UNL     1       5.347 -18.118  14.756  1.00  0.00     0.074 A 
ATOM     53  C   UNL     1       2.140 -17.770  20.208  1.00  0.00     0.029 A 
ATOM     54  N   UNL     1       2.971 -17.395  18.181  1.00  0.00    -0.354 N 
ATOM     55  N   UNL     1       4.642 -17.968  15.851  1.00  0.00    -0.248 NA
ATOM     56  C   UNL     1       6.310 -19.225  14.805  1.00  0.00     0.031 C 
ATOM     57  C   UNL     1       3.155 -18.703  19.967  1.00  0.00     0.029 A 
ATOM     58  C   UNL     1       3.646 -18.495  18.689  1.00  0.00     0.049 A 
ATOM     59  H   UNL     1       3.118 -17.006  17.289  1.00  0.00     0.167 HD
ATOM     60  C   UNL     1       5.057 -18.978  16.710  1.00  0.00     0.074 A 
ATOM     61  C   UNL     1       6.050 -19.752  15.993  1.00  0.00     0.031 C 
ATOM     62  C   UNL     1       4.653 -19.244  17.978  1.00  0.00     0.031 A 
BRANCH  49  63
ATOM     63  C   UNL     1       0.346 -15.330  20.083  1.00  0.00    -0.014 A 
ATOM     64  C   UNL     1      -1.055 -15.385  20.001  1.00  0.00     0.009 A 
ATOM     65  C   UNL     1       0.933 -14.888  21.280  1.00  0.00     0.009 A 
ATOM     66  C   UNL     1      -1.846 -14.965  21.073  1.00  0.00     0.001 A 
ATOM     67  C   UNL     1       0.141 -14.504  22.364  1.00  0.00     0.001 A 
ATOM     68  C   UNL     1      -1.248 -14.530  22.255  1.00  0.00     0.000 A 
ENDBRANCH  49  63
BRANCH  50  69
ATOM     69  C   UNL     1       6.162 -17.696  12.323  1.00  0.00    -0.014 A 
ATOM     70  C   UNL     1       5.995 -18.912  11.643  1.00  0.00     0.009 A 
ATOM     71  C   UNL     1       7.182 -16.823  11.908  1.00  0.00     0.009 A 
ATOM     72  C   UNL     1       6.847 -19.259  10.593  1.00  0.00     0.001 A 
ATOM     73  C   UNL     1       8.008 -17.156  10.833  1.00  0.00     0.001 A 
ATOM     74  C   UNL     1       7.848 -18.378  10.184  1.00  0.00     0.000 A 
ENDBRANCH  50  69
BRANCH  62  75
ATOM     75  C   UNL     1       5.271 -20.442  18.654  1.00  0.00    -0.014 A 
ATOM     76  C   UNL     1       6.638 -20.483  18.978  1.00  0.00     0.009 A 
ATOM     77  C   UNL     1       4.473 -21.556  18.959  1.00  0.00     0.009 A 
ATOM     78  C   UNL     1       7.203 -21.637  19.526  1.00  0.00     0.001 A 
ATOM     79  C   UNL     1       5.032 -22.692  19.547  1.00  0.00     0.001 A 
ATOM     80  C   UNL     1       6.399 -22.739  19.811  1.00  0.00     0.000 A 
ENDBRANCH  62  75
ENDBRANCH  36  37
ENDBRANCH  29  31
ENDBRANCH  28  29
ENDBRANCH  27  28
ENDBRANCH  26  27
ENDBRANCH  25  26
ENDBRANCH   1  25
TORSDOF 18
