REMARK SMILES CC(C)CN(C)c1cc2c(cc1Cl)C=C(C(=O)OCCOCCOC(=O)c1ccc(-c3c4nc(c(-c5ccccc5)c5ccc([nH]5)c(-c5ccccc5)c5nc(c(-c6ccccc6)c6ccc3[nH]6)C=C5)C=C4)cc1)[C@H](C(F)(F)F)O2
REMARK SMILES IDX 20 1 19 2 18 3 16 4 17 5 15 6 7 7 8 8 12 9 9 10 11 11 13 12
REMARK SMILES IDX 10 13 80 14 14 15 75 16 5 17 6 18 4 19 2 20 1 21 3 22 76 23
REMARK SMILES IDX 77 24 78 25 79 26 21 27 22 28 23 29 24 30 25 31 26 32 27 33
REMARK SMILES IDX 28 34 74 35 29 36 73 37 30 38 31 39 32 40 67 41 33 42 72 43
REMARK SMILES IDX 66 44 68 45 34 46 71 47 65 48 64 49 35 51 57 52 42 53 56 54
REMARK SMILES IDX 43 55 46 56 55 57 69 58 44 59 45 60 54 62 70 63 47 64 36 65
REMARK SMILES IDX 37 66 41 67 38 68 40 69 39 70 58 71 59 72 63 73 60 74 62 75
REMARK SMILES IDX 61 76 48 77 49 78 53 79 50 80 52 81 51 82
REMARK H PARENT 68 50 46 61
REMARK Flexibility Score: inf
ROOT
ATOM      1  C   UNL     1      -0.523  -2.152  -9.885  1.00  0.00     0.202 C 
ENDROOT
BRANCH   1   2
ATOM      2  C   UNL     1      -0.771  -3.485  -9.179  1.00  0.00     0.261 C 
BRANCH   2   3
ATOM      3  O   UNL     1      -1.385  -3.260  -7.899  1.00  0.00    -0.460 OA
BRANCH   3   4
ATOM      4  C   UNL     1      -0.578  -3.502  -6.852  1.00  0.00     0.338 C 
ATOM      5  O   UNL     1       0.481  -4.112  -6.902  1.00  0.00    -0.246 OA
BRANCH   4   6
ATOM      6  C   UNL     1      -1.069  -2.847  -5.620  1.00  0.00     0.087 C 
ATOM      7  C   UNL     1      -0.966  -1.866  -0.680  1.00  0.00     0.059 A 
ATOM      8  C   UNL     1      -1.987  -1.872  -1.657  1.00  0.00     0.074 A 
ATOM      9  C   UNL     1       0.340  -2.176  -1.117  1.00  0.00     0.065 A 
ATOM     10  C   UNL     1      -1.707  -2.136  -3.005  1.00  0.00     0.130 A 
ATOM     11  C   UNL     1       0.637  -2.290  -2.470  1.00  0.00     0.034 A 
ATOM     12  Cl  UNL     1       1.629  -2.578  -0.033  1.00  0.00    -0.082 Cl
ATOM     13  C   UNL     1      -0.388  -2.274  -3.409  1.00  0.00     0.019 A 
ATOM     14  O   UNL     1      -2.766  -2.302  -3.853  1.00  0.00    -0.475 OA
ATOM     15  C   UNL     1      -0.064  -2.574  -4.780  1.00  0.00     0.027 C 
ATOM     16  C   UNL     1      -2.524  -2.665  -5.259  1.00  0.00     0.316 C 
BRANCH   7  17
ATOM     17  N   UNL     1      -1.246  -1.587   0.664  1.00  0.00    -0.373 N 
ATOM     18  C   UNL     1      -2.303  -2.385   1.278  1.00  0.00     0.143 C 
BRANCH  17  19
ATOM     19  C   UNL     1      -1.093  -0.190   1.138  1.00  0.00     0.119 C 
BRANCH  19  20
ATOM     20  C   UNL     1       0.379   0.244   1.312  1.00  0.00     0.002 C 
ATOM     21  C   UNL     1       0.935   0.934   0.061  1.00  0.00     0.009 C 
ATOM     22  C   UNL     1       0.573   1.174   2.513  1.00  0.00     0.009 C 
ENDBRANCH  19  20
ENDBRANCH  17  19
ENDBRANCH   7  17
BRANCH  16  23
ATOM     23  C   UNL     1      -3.293  -1.622  -6.099  1.00  0.00     0.430 C 
ATOM     24  F   UNL     1      -2.733  -0.393  -6.014  1.00  0.00    -0.167 F 
ATOM     25  F   UNL     1      -3.379  -1.940  -7.408  1.00  0.00    -0.167 F 
ATOM     26  F   UNL     1      -4.576  -1.507  -5.664  1.00  0.00    -0.167 F 
ENDBRANCH  16  23
ENDBRANCH   4   6
ENDBRANCH   3   4
ENDBRANCH   2   3
ENDBRANCH   1   2
BRANCH   1  27
ATOM     27  O   UNL     1       0.398  -1.264  -9.251  1.00  0.00    -0.374 OA
BRANCH  27  28
ATOM     28  C   UNL     1      -0.108  -0.416  -8.217  1.00  0.00     0.202 C 
BRANCH  28  29
ATOM     29  C   UNL     1      -0.932   0.803  -8.651  1.00  0.00     0.261 C 
BRANCH  29  30
ATOM     30  O   UNL     1      -2.220   0.418  -9.165  1.00  0.00    -0.460 OA
BRANCH  30  31
ATOM     31  C   UNL     1      -2.369   0.531 -10.507  1.00  0.00     0.338 C 
ATOM     32  O   UNL     1      -1.574   1.008 -11.301  1.00  0.00    -0.246 OA
BRANCH  31  33
ATOM     33  C   UNL     1      -3.559  -0.240 -10.924  1.00  0.00     0.060 A 
ATOM     34  C   UNL     1      -4.790  -0.100 -10.283  1.00  0.00     0.016 A 
ATOM     35  C   UNL     1      -3.415  -1.135 -11.994  1.00  0.00     0.016 A 
ATOM     36  C   UNL     1      -5.887  -0.839 -10.737  1.00  0.00     0.010 A 
ATOM     37  C   UNL     1      -4.509  -1.873 -12.444  1.00  0.00     0.010 A 
ATOM     38  C   UNL     1      -5.759  -1.716 -11.831  1.00  0.00    -0.014 A 
BRANCH  38  39
ATOM     39  C   UNL     1      -6.956  -2.369 -12.415  1.00  0.00     0.031 A 
ATOM     40  C   UNL     1      -7.218  -3.834 -12.245  1.00  0.00     0.074 A 
ATOM     41  C   UNL     1      -7.809  -1.615 -13.134  1.00  0.00     0.049 A 
ATOM     42  N   UNL     1      -8.251  -4.532 -12.645  1.00  0.00    -0.248 NA
ATOM     43  C   UNL     1      -6.192  -4.619 -11.544  1.00  0.00     0.031 C 
ATOM     44  C   UNL     1      -7.645  -0.183 -13.389  1.00  0.00     0.029 A 
ATOM     45  N   UNL     1      -8.982  -1.938 -13.769  1.00  0.00    -0.354 N 
ATOM     46  C   UNL     1      -8.017  -5.832 -12.219  1.00  0.00     0.074 A 
ATOM     47  C   UNL     1      -6.714  -5.838 -11.587  1.00  0.00     0.031 C 
ATOM     48  C   UNL     1      -8.701   0.258 -14.088  1.00  0.00     0.029 A 
ATOM     49  C   UNL     1      -9.594  -0.864 -14.367  1.00  0.00     0.049 A 
ATOM     50  H   UNL     1      -9.349  -2.851 -13.793  1.00  0.00     0.167 HD
ATOM     51  C   UNL     1      -8.828  -6.913 -12.325  1.00  0.00     0.031 A 
ATOM     52  C   UNL     1     -10.748  -0.780 -15.058  1.00  0.00     0.031 A 
ATOM     53  C   UNL     1     -10.106  -6.907 -12.992  1.00  0.00     0.049 A 
ATOM     54  C   UNL     1     -11.597  -2.008 -15.228  1.00  0.00     0.074 A 
ATOM     55  C   UNL     1     -11.002  -7.953 -13.138  1.00  0.00     0.029 A 
ATOM     56  N   UNL     1     -10.666  -5.813 -13.635  1.00  0.00    -0.354 N 
ATOM     57  N   UNL     1     -11.394  -3.218 -14.765  1.00  0.00    -0.248 NA
ATOM     58  C   UNL     1     -12.838  -1.860 -16.001  1.00  0.00     0.031 C 
ATOM     59  C   UNL     1     -12.063  -7.515 -13.932  1.00  0.00     0.029 A 
ATOM     60  C   UNL     1     -11.877  -6.169 -14.206  1.00  0.00     0.049 A 
ATOM     61  H   UNL     1     -10.262  -4.916 -13.679  1.00  0.00     0.167 HD
ATOM     62  C   UNL     1     -12.492  -3.969 -15.167  1.00  0.00     0.074 A 
ATOM     63  C   UNL     1     -13.364  -3.075 -15.900  1.00  0.00     0.031 C 
ATOM     64  C   UNL     1     -12.746  -5.281 -14.941  1.00  0.00     0.031 A 
BRANCH  51  65
ATOM     65  C   UNL     1      -8.369  -8.202 -11.694  1.00  0.00    -0.014 A 
ATOM     66  C   UNL     1      -8.119  -9.331 -12.491  1.00  0.00     0.009 A 
ATOM     67  C   UNL     1      -8.281  -8.328 -10.298  1.00  0.00     0.009 A 
ATOM     68  C   UNL     1      -7.804 -10.559 -11.904  1.00  0.00     0.001 A 
ATOM     69  C   UNL     1      -7.930  -9.548  -9.716  1.00  0.00     0.001 A 
ATOM     70  C   UNL     1      -7.703 -10.665 -10.518  1.00  0.00     0.000 A 
ENDBRANCH  51  65
BRANCH  52  71
ATOM     71  C   UNL     1     -11.175   0.545 -15.580  1.00  0.00    -0.014 A 
ATOM     72  C   UNL     1     -10.446   1.182 -16.599  1.00  0.00     0.009 A 
ATOM     73  C   UNL     1     -12.254   1.223 -14.995  1.00  0.00     0.009 A 
ATOM     74  C   UNL     1     -10.761   2.485 -16.988  1.00  0.00     0.001 A 
ATOM     75  C   UNL     1     -12.588   2.514 -15.410  1.00  0.00     0.001 A 
ATOM     76  C   UNL     1     -11.832   3.150 -16.395  1.00  0.00     0.000 A 
ENDBRANCH  52  71
BRANCH  64  77
ATOM     77  C   UNL     1     -14.029  -5.863 -15.477  1.00  0.00    -0.014 A 
ATOM     78  C   UNL     1     -15.008  -6.330 -14.584  1.00  0.00     0.009 A 
ATOM     79  C   UNL     1     -14.215  -6.072 -16.852  1.00  0.00     0.009 A 
ATOM     80  C   UNL     1     -16.128  -7.020 -15.050  1.00  0.00     0.001 A 
ATOM     81  C   UNL     1     -15.354  -6.733 -17.319  1.00  0.00     0.001 A 
ATOM     82  C   UNL     1     -16.301  -7.219 -16.418  1.00  0.00     0.000 A 
ENDBRANCH  64  77
ENDBRANCH  38  39
ENDBRANCH  31  33
ENDBRANCH  30  31
ENDBRANCH  29  30
ENDBRANCH  28  29
ENDBRANCH  27  28
ENDBRANCH   1  27
TORSDOF 18
