REMARK SMILES Cc1nn2c(nnc3c(=O)n(CCCC(=O)OCCOCCOC(=O)c4ccc(-c5c6nc(c(-c7ccccc7)c7ccc([nH]7)c(-c7ccccc7)c7nc(c(-c8ccccc8)c8ccc5[nH]8)C=C7)C=C6)cc4)ccc32)c1-c1ccc(F)cc1
REMARK SMILES IDX 19 1 18 2 17 3 15 4 16 5 14 6 13 7 12 8 11 9 1 10 2 11 3 12
REMARK SMILES IDX 77 13 4 14 5 15 76 16 6 17 8 18 75 19 7 20 9 21 74 22 10 23
REMARK SMILES IDX 78 24 79 25 84 26 80 27 83 28 81 29 82 30 20 31 21 32 22 33
REMARK SMILES IDX 23 34 24 35 25 36 26 37 27 38 73 39 28 40 72 41 29 42 30 43
REMARK SMILES IDX 31 44 66 45 32 46 71 47 65 48 67 49 33 50 70 51 64 52 63 53
REMARK SMILES IDX 34 55 56 56 41 57 55 58 42 59 45 60 54 61 68 62 43 63 44 64
REMARK SMILES IDX 53 66 69 67 46 68 35 69 36 70 40 71 37 72 39 73 38 74 57 75
REMARK SMILES IDX 58 76 62 77 59 78 61 79 60 80 47 81 48 82 52 83 49 84 51 85
REMARK SMILES IDX 50 86
REMARK H PARENT 67 54 45 65
REMARK Flexibility Score: inf
ROOT
ATOM      1  C   UNL     1      -3.751  -8.709  -7.782  1.00  0.00     0.202 C 
ENDROOT
BRANCH   1   2
ATOM      2  C   UNL     1      -2.897  -7.997  -6.737  1.00  0.00     0.261 C 
BRANCH   2   3
ATOM      3  O   UNL     1      -2.201  -6.869  -7.287  1.00  0.00    -0.463 OA
BRANCH   3   4
ATOM      4  C   UNL     1      -0.854  -6.886  -7.124  1.00  0.00     0.305 C 
ATOM      5  O   UNL     1      -0.209  -7.826  -6.670  1.00  0.00    -0.252 OA
BRANCH   4   6
ATOM      6  C   UNL     1      -0.169  -5.634  -7.630  1.00  0.00     0.124 C 
BRANCH   6   7
ATOM      7  C   UNL     1      -0.999  -4.518  -8.272  1.00  0.00     0.034 C 
BRANCH   7   8
ATOM      8  C   UNL     1      -2.085  -3.828  -7.427  1.00  0.00     0.126 C 
BRANCH   8   9
ATOM      9  N   UNL     1      -1.619  -3.281  -6.161  1.00  0.00    -0.313 N 
ATOM     10  C   UNL     1       1.038   0.291   0.020  1.00  0.00     0.069 C 
ATOM     11  C   UNL     1       0.762  -0.857  -0.877  1.00  0.00     0.070 A 
ATOM     12  N   UNL     1       0.193  -0.661  -2.078  1.00  0.00    -0.170 NA
ATOM     13  C   UNL     1       1.035  -2.221  -0.638  1.00  0.00     0.051 A 
ATOM     14  N   UNL     1       0.015  -1.914  -2.585  1.00  0.00    -0.210 N 
ATOM     15  C   UNL     1       0.512  -2.880  -1.723  1.00  0.00     0.186 A 
ATOM     16  C   UNL     1      -0.596  -2.319  -3.770  1.00  0.00     0.102 A 
ATOM     17  N   UNL     1       0.411  -4.207  -2.015  1.00  0.00    -0.129 NA
ATOM     18  C   UNL     1      -0.722  -3.649  -3.920  1.00  0.00     0.177 A 
ATOM     19  C   UNL     1      -1.058  -1.415  -4.806  1.00  0.00     0.049 A 
ATOM     20  N   UNL     1      -0.219  -4.574  -3.033  1.00  0.00    -0.141 NA
ATOM     21  C   UNL     1      -1.455  -4.169  -5.098  1.00  0.00     0.280 A 
ATOM     22  C   UNL     1      -1.481  -1.913  -5.978  1.00  0.00     0.091 A 
ATOM     23  O   UNL     1      -1.855  -5.329  -5.103  1.00  0.00    -0.267 OA
BRANCH  13  24
ATOM     24  C   UNL     1       1.631  -2.952   0.455  1.00  0.00    -0.012 A 
ATOM     25  C   UNL     1       0.910  -3.170   1.634  1.00  0.00     0.012 A 
ATOM     26  C   UNL     1       2.873  -3.578   0.266  1.00  0.00     0.012 A 
ATOM     27  C   UNL     1       1.428  -4.018   2.615  1.00  0.00     0.040 A 
ATOM     28  C   UNL     1       3.386  -4.423   1.248  1.00  0.00     0.040 A 
ATOM     29  C   UNL     1       2.657  -4.638   2.411  1.00  0.00     0.123 A 
ATOM     30  F   UNL     1       3.137  -5.470   3.344  1.00  0.00    -0.207 F 
ENDBRANCH  13  24
ENDBRANCH   8   9
ENDBRANCH   7   8
ENDBRANCH   6   7
ENDBRANCH   4   6
ENDBRANCH   3   4
ENDBRANCH   2   3
ENDBRANCH   1   2
BRANCH   1  31
ATOM     31  O   UNL     1      -3.132  -9.188  -8.976  1.00  0.00    -0.374 OA
BRANCH  31  32
ATOM     32  C   UNL     1      -2.367  -8.318  -9.806  1.00  0.00     0.202 C 
BRANCH  32  33
ATOM     33  C   UNL     1      -3.098  -7.242 -10.605  1.00  0.00     0.261 C 
BRANCH  33  34
ATOM     34  O   UNL     1      -3.858  -6.387  -9.762  1.00  0.00    -0.460 OA
BRANCH  34  35
ATOM     35  C   UNL     1      -5.160  -6.750  -9.692  1.00  0.00     0.338 C 
ATOM     36  O   UNL     1      -5.690  -7.690 -10.255  1.00  0.00    -0.246 OA
BRANCH  35  37
ATOM     37  C   UNL     1      -5.909  -5.775  -8.869  1.00  0.00     0.060 A 
ATOM     38  C   UNL     1      -7.268  -6.087  -8.796  1.00  0.00     0.016 A 
ATOM     39  C   UNL     1      -5.455  -4.456  -8.958  1.00  0.00     0.016 A 
ATOM     40  C   UNL     1      -8.131  -5.174  -9.344  1.00  0.00     0.010 A 
ATOM     41  C   UNL     1      -6.314  -3.539  -9.497  1.00  0.00     0.010 A 
ATOM     42  C   UNL     1      -7.596  -3.972  -9.815  1.00  0.00    -0.014 A 
BRANCH  42  43
ATOM     43  C   UNL     1      -8.406  -3.171 -10.690  1.00  0.00     0.031 A 
ATOM     44  C   UNL     1      -9.334  -2.291  -9.967  1.00  0.00     0.074 A 
ATOM     45  C   UNL     1      -8.274  -3.190 -12.027  1.00  0.00     0.049 A 
ATOM     46  N   UNL     1     -10.610  -2.429  -9.868  1.00  0.00    -0.248 NA
ATOM     47  C   UNL     1      -8.752  -1.254  -9.106  1.00  0.00     0.031 C 
ATOM     48  C   UNL     1      -7.247  -3.801 -12.873  1.00  0.00     0.029 A 
ATOM     49  N   UNL     1      -9.059  -2.545 -12.920  1.00  0.00    -0.354 N 
ATOM     50  C   UNL     1     -11.025  -1.420  -9.015  1.00  0.00     0.074 A 
ATOM     51  C   UNL     1      -9.833  -0.838  -8.449  1.00  0.00     0.031 C 
ATOM     52  C   UNL     1      -7.351  -3.293 -14.128  1.00  0.00     0.029 A 
ATOM     53  C   UNL     1      -8.529  -2.441 -14.194  1.00  0.00     0.049 A 
ATOM     54  H   UNL     1      -9.941  -2.178 -12.682  1.00  0.00     0.167 HD
ATOM     55  C   UNL     1     -12.314  -0.998  -8.964  1.00  0.00     0.031 A 
ATOM     56  C   UNL     1      -9.014  -1.631 -15.168  1.00  0.00     0.031 A 
ATOM     57  C   UNL     1     -13.208  -1.885  -9.655  1.00  0.00     0.049 A 
ATOM     58  C   UNL     1     -10.426  -1.325 -14.811  1.00  0.00     0.074 A 
ATOM     59  C   UNL     1     -13.637  -3.179  -9.437  1.00  0.00     0.029 A 
ATOM     60  N   UNL     1     -13.462  -1.618 -10.981  1.00  0.00    -0.354 N 
ATOM     61  N   UNL     1     -11.367  -2.226 -14.802  1.00  0.00    -0.248 NA
ATOM     62  C   UNL     1     -10.694  -0.141 -14.003  1.00  0.00     0.031 C 
ATOM     63  C   UNL     1     -13.685  -3.774 -10.732  1.00  0.00     0.029 A 
ATOM     64  C   UNL     1     -13.332  -2.800 -11.668  1.00  0.00     0.049 A 
ATOM     65  H   UNL     1     -13.693  -0.741 -11.366  1.00  0.00     0.167 HD
ATOM     66  C   UNL     1     -12.139  -1.933 -13.687  1.00  0.00     0.074 A 
ATOM     67  C   UNL     1     -11.733  -0.586 -13.286  1.00  0.00     0.031 C 
ATOM     68  C   UNL     1     -12.818  -2.911 -13.017  1.00  0.00     0.031 A 
BRANCH  55  69
ATOM     69  C   UNL     1     -12.690   0.386  -8.542  1.00  0.00    -0.014 A 
ATOM     70  C   UNL     1     -14.018   0.671  -8.203  1.00  0.00     0.009 A 
ATOM     71  C   UNL     1     -11.806   1.477  -8.670  1.00  0.00     0.009 A 
ATOM     72  C   UNL     1     -14.441   1.991  -8.012  1.00  0.00     0.001 A 
ATOM     73  C   UNL     1     -12.213   2.789  -8.437  1.00  0.00     0.001 A 
ATOM     74  C   UNL     1     -13.539   3.047  -8.124  1.00  0.00     0.000 A 
ENDBRANCH  55  69
BRANCH  56  75
ATOM     75  C   UNL     1      -8.253  -0.833 -16.157  1.00  0.00    -0.014 A 
ATOM     76  C   UNL     1      -8.921  -0.159 -17.194  1.00  0.00     0.009 A 
ATOM     77  C   UNL     1      -6.908  -0.494 -15.923  1.00  0.00     0.009 A 
ATOM     78  C   UNL     1      -8.283   0.853 -17.927  1.00  0.00     0.001 A 
ATOM     79  C   UNL     1      -6.270   0.512 -16.658  1.00  0.00     0.001 A 
ATOM     80  C   UNL     1      -6.964   1.199 -17.647  1.00  0.00     0.000 A 
ENDBRANCH  56  75
BRANCH  68  81
ATOM     81  C   UNL     1     -12.786  -4.303 -13.604  1.00  0.00    -0.014 A 
ATOM     82  C   UNL     1     -11.607  -5.072 -13.647  1.00  0.00     0.009 A 
ATOM     83  C   UNL     1     -13.994  -4.923 -13.946  1.00  0.00     0.009 A 
ATOM     84  C   UNL     1     -11.636  -6.417 -14.032  1.00  0.00     0.001 A 
ATOM     85  C   UNL     1     -14.025  -6.271 -14.315  1.00  0.00     0.001 A 
ATOM     86  C   UNL     1     -12.848  -7.018 -14.358  1.00  0.00     0.000 A 
ENDBRANCH  68  81
ENDBRANCH  42  43
ENDBRANCH  35  37
ENDBRANCH  34  35
ENDBRANCH  33  34
ENDBRANCH  32  33
ENDBRANCH  31  32
ENDBRANCH   1  31
TORSDOF 18
