REMARK SMILES Cc1cccc(C(=O)Nc2cc(C(=O)OCCOCCOC(=O)c3ccc(-c4c5nc(c(-c6ccccc6)c6ccc([nH]6)c(-c6ccccc6)c6nc(c(-c7ccccc7)c7ccc4[nH]7)C=C6)C=C5)cc3)ccc2N2CC[NH+](CC(=O)NC(C)(C)C)CC2)c1
REMARK SMILES IDX 17 1 16 2 15 3 13 4 14 5 12 6 10 7 11 8 74 9 73 10 72 11
REMARK SMILES IDX 9 12 7 13 8 14 6 16 1 17 2 18 3 19 89 20 4 21 5 22 75 23
REMARK SMILES IDX 76 24 88 25 77 26 87 27 78 28 79 30 80 31 81 32 82 33 83 35
REMARK SMILES IDX 84 36 85 37 86 38 18 39 19 40 20 41 21 42 22 43 23 44 24 45
REMARK SMILES IDX 25 46 71 47 26 48 70 49 27 50 28 51 29 52 64 53 30 54 69 55
REMARK SMILES IDX 63 56 65 57 31 58 68 59 62 60 61 61 32 63 54 64 39 65 53 66
REMARK SMILES IDX 40 67 43 68 52 69 66 70 41 71 42 72 51 74 67 75 44 76 33 77
REMARK SMILES IDX 34 78 38 79 35 80 37 81 36 82 55 83 56 84 60 85 57 86 59 87
REMARK SMILES IDX 58 88 45 89 46 90 50 91 47 92 49 93 48 94
REMARK H PARENT 9 15 78 29 82 34 65 62 43 73
REMARK Flexibility Score: inf
ROOT
ATOM      1  C   UNL     1       2.757   2.731  -4.229  1.00  0.00     0.202 C 
ENDROOT
BRANCH   1   2
ATOM      2  C   UNL     1       2.558   1.490  -3.410  1.00  0.00     0.261 C 
BRANCH   2   3
ATOM      3  O   UNL     1       2.385   1.813  -2.045  1.00  0.00    -0.460 OA
BRANCH   3   4
ATOM      4  C   UNL     1       3.329   2.495  -1.359  1.00  0.00     0.338 C 
ATOM      5  O   UNL     1       4.527   2.342  -1.317  1.00  0.00    -0.246 OA
BRANCH   4   6
ATOM      6  C   UNL     1       2.545   3.576  -0.736  1.00  0.00     0.062 A 
ATOM      7  C   UNL     1       0.369   4.477  -0.305  1.00  0.00     0.065 A 
ATOM      8  C   UNL     1       1.157   3.530  -0.883  1.00  0.00     0.044 A 
ATOM      9  C   UNL     1       0.954   5.607   0.323  1.00  0.00     0.061 A 
ATOM     10  C   UNL     1       2.353   5.651   0.457  1.00  0.00     0.029 A 
ATOM     11  C   UNL     1       3.152   4.615  -0.039  1.00  0.00     0.018 A 
BRANCH   7  12
ATOM     12  N   UNL     1      -1.010   4.188  -0.231  1.00  0.00    -0.320 N 
ATOM     13  C   UNL     1      -1.627   3.040   0.280  1.00  0.00     0.255 C 
ATOM     14  O   UNL     1      -2.854   2.955   0.186  1.00  0.00    -0.269 OA
ATOM     15  H   UNL     1      -1.614   4.880  -0.583  1.00  0.00     0.170 HD
BRANCH  13  16
ATOM     16  C   UNL     1      -0.905   1.958   1.062  1.00  0.00     0.040 A 
ATOM     17  C   UNL     1       2.495   1.166   2.537  1.00  0.00     0.044 C 
ATOM     18  C   UNL     1       1.017   1.052   2.289  1.00  0.00    -0.050 A 
ATOM     19  C   UNL     1       0.346  -0.160   2.468  1.00  0.00     0.003 A 
ATOM     20  C   UNL     1       0.348   2.117   1.671  1.00  0.00     0.017 A 
ATOM     21  C   UNL     1      -0.942  -0.318   1.957  1.00  0.00     0.001 A 
ATOM     22  C   UNL     1      -1.554   0.726   1.248  1.00  0.00     0.014 A 
ENDBRANCH  13  16
ENDBRANCH   7  12
BRANCH   9  23
ATOM     23  N   UNL     1       0.130   6.487   1.000  1.00  0.00    -0.359 N 
ATOM     24  C   UNL     1       0.440   7.871   1.384  1.00  0.00     0.178 C 
ATOM     25  C   UNL     1      -0.581   5.796   2.061  1.00  0.00     0.178 C 
ATOM     26  C   UNL     1      -0.880   8.569   1.874  1.00  0.00     0.284 C 
ATOM     27  C   UNL     1      -1.950   6.444   2.198  1.00  0.00     0.284 C 
ATOM     28  N   UNL     1      -1.828   7.798   2.729  1.00  0.00    -0.324 N 
ATOM     29  H   UNL     1      -2.715   8.298   2.663  1.00  0.00     0.348 HD
BRANCH  28  30
ATOM     30  C   UNL     1      -1.617   7.825   4.196  1.00  0.00     0.363 C 
BRANCH  30  31
ATOM     31  C   UNL     1      -0.487   6.968   4.779  1.00  0.00     0.275 C 
ATOM     32  O   UNL     1       0.657   7.445   4.843  1.00  0.00    -0.268 OA
ATOM     33  N   UNL     1      -0.609   5.682   5.229  1.00  0.00    -0.347 N 
ATOM     34  H   UNL     1       0.238   5.398   5.643  1.00  0.00     0.164 HD
BRANCH  33  35
ATOM     35  C   UNL     1      -1.599   4.560   5.302  1.00  0.00     0.032 C 
ATOM     36  C   UNL     1      -1.428   3.546   4.157  1.00  0.00     0.034 C 
ATOM     37  C   UNL     1      -1.252   3.753   6.572  1.00  0.00     0.034 C 
ATOM     38  C   UNL     1      -3.061   4.990   5.398  1.00  0.00     0.034 C 
ENDBRANCH  33  35
ENDBRANCH  30  31
ENDBRANCH  28  30
ENDBRANCH   9  23
ENDBRANCH   4   6
ENDBRANCH   3   4
ENDBRANCH   2   3
ENDBRANCH   1   2
BRANCH   1  39
ATOM     39  O   UNL     1       4.057   3.183  -3.885  1.00  0.00    -0.374 OA
BRANCH  39  40
ATOM     40  C   UNL     1       4.436   4.442  -4.389  1.00  0.00     0.202 C 
BRANCH  40  41
ATOM     41  C   UNL     1       4.493   4.413  -5.916  1.00  0.00     0.261 C 
BRANCH  41  42
ATOM     42  O   UNL     1       5.378   3.341  -6.329  1.00  0.00    -0.460 OA
BRANCH  42  43
ATOM     43  C   UNL     1       4.784   2.200  -6.785  1.00  0.00     0.338 C 
ATOM     44  O   UNL     1       3.860   2.161  -7.583  1.00  0.00    -0.246 OA
BRANCH  43  45
ATOM     45  C   UNL     1       5.202   1.017  -5.958  1.00  0.00     0.060 A 
ATOM     46  C   UNL     1       4.471  -0.189  -6.030  1.00  0.00     0.016 A 
ATOM     47  C   UNL     1       6.061   1.224  -4.885  1.00  0.00     0.016 A 
ATOM     48  C   UNL     1       4.478  -1.103  -4.955  1.00  0.00     0.010 A 
ATOM     49  C   UNL     1       5.981   0.377  -3.791  1.00  0.00     0.010 A 
ATOM     50  C   UNL     1       5.162  -0.775  -3.780  1.00  0.00    -0.014 A 
BRANCH  50  51
ATOM     51  C   UNL     1       4.873  -1.306  -2.419  1.00  0.00     0.031 A 
ATOM     52  C   UNL     1       5.963  -1.421  -1.416  1.00  0.00     0.074 A 
ATOM     53  C   UNL     1       3.626  -1.176  -1.917  1.00  0.00     0.049 A 
ATOM     54  N   UNL     1       5.810  -1.519  -0.139  1.00  0.00    -0.248 NA
ATOM     55  C   UNL     1       7.356  -1.491  -1.822  1.00  0.00     0.031 C 
ATOM     56  C   UNL     1       3.317  -0.585  -0.609  1.00  0.00     0.029 A 
ATOM     57  N   UNL     1       2.385  -1.290  -2.501  1.00  0.00    -0.354 N 
ATOM     58  C   UNL     1       7.042  -1.449   0.461  1.00  0.00     0.074 A 
ATOM     59  C   UNL     1       7.975  -1.468  -0.641  1.00  0.00     0.031 C 
ATOM     60  C   UNL     1       1.992  -0.482  -0.496  1.00  0.00     0.029 A 
ATOM     61  C   UNL     1       1.372  -1.188  -1.560  1.00  0.00     0.049 A 
ATOM     62  H   UNL     1       2.235  -1.425  -3.464  1.00  0.00     0.167 HD
ATOM     63  C   UNL     1       7.129  -1.368   1.821  1.00  0.00     0.031 A 
ATOM     64  C   UNL     1       0.395  -2.106  -1.363  1.00  0.00     0.031 A 
ATOM     65  C   UNL     1       5.827  -1.605   2.496  1.00  0.00     0.049 A 
ATOM     66  C   UNL     1       0.750  -2.990  -0.161  1.00  0.00     0.074 A 
ATOM     67  C   UNL     1       5.092  -1.001   3.503  1.00  0.00     0.029 A 
ATOM     68  N   UNL     1       5.001  -2.635   2.025  1.00  0.00    -0.354 N 
ATOM     69  N   UNL     1       1.673  -2.715   0.740  1.00  0.00    -0.248 NA
ATOM     70  C   UNL     1       0.142  -4.290   0.088  1.00  0.00     0.031 C 
ATOM     71  C   UNL     1       3.852  -1.709   3.648  1.00  0.00     0.029 A 
ATOM     72  C   UNL     1       3.798  -2.717   2.701  1.00  0.00     0.049 A 
ATOM     73  H   UNL     1       5.252  -3.238   1.288  1.00  0.00     0.167 HD
ATOM     74  C   UNL     1       1.903  -3.799   1.552  1.00  0.00     0.074 A 
ATOM     75  C   UNL     1       0.893  -4.753   1.105  1.00  0.00     0.031 C 
ATOM     76  C   UNL     1       2.919  -3.874   2.479  1.00  0.00     0.031 A 
BRANCH  63  77
ATOM     77  C   UNL     1       8.428  -1.040   2.559  1.00  0.00    -0.014 A 
ATOM     78  C   UNL     1       8.457  -0.953   3.963  1.00  0.00     0.009 A 
ATOM     79  C   UNL     1       9.660  -0.752   1.933  1.00  0.00     0.009 A 
ATOM     80  C   UNL     1       9.621  -0.602   4.675  1.00  0.00     0.001 A 
ATOM     81  C   UNL     1      10.836  -0.439   2.631  1.00  0.00     0.001 A 
ATOM     82  C   UNL     1      10.815  -0.353   4.009  1.00  0.00     0.000 A 
ENDBRANCH  63  77
BRANCH  64  83
ATOM     83  C   UNL     1      -0.338  -2.321  -2.659  1.00  0.00    -0.014 A 
ATOM     84  C   UNL     1      -1.121  -1.192  -3.025  1.00  0.00     0.009 A 
ATOM     85  C   UNL     1       0.317  -3.013  -3.693  1.00  0.00     0.009 A 
ATOM     86  C   UNL     1      -0.940  -0.572  -4.269  1.00  0.00     0.001 A 
ATOM     87  C   UNL     1       0.487  -2.389  -4.946  1.00  0.00     0.001 A 
ATOM     88  C   UNL     1      -0.076  -1.137  -5.202  1.00  0.00     0.000 A 
ENDBRANCH  64  83
BRANCH  76  89
ATOM     89  C   UNL     1       3.279  -5.130   3.263  1.00  0.00    -0.014 A 
ATOM     90  C   UNL     1       2.379  -6.140   3.614  1.00  0.00     0.009 A 
ATOM     91  C   UNL     1       4.610  -5.305   3.721  1.00  0.00     0.009 A 
ATOM     92  C   UNL     1       2.810  -7.319   4.243  1.00  0.00     0.001 A 
ATOM     93  C   UNL     1       5.038  -6.457   4.384  1.00  0.00     0.001 A 
ATOM     94  C   UNL     1       4.141  -7.484   4.612  1.00  0.00     0.000 A 
ENDBRANCH  76  89
ENDBRANCH  50  51
ENDBRANCH  43  45
ENDBRANCH  42  43
ENDBRANCH  41  42
ENDBRANCH  40  41
ENDBRANCH  39  40
ENDBRANCH   1  39
TORSDOF 20
