REMARK SMILES CCOc1c(F)cccc1C(=O)OCCOCCOC(=O)c1ccc(-c2c3nc(c(-c4ccccc4)c4ccc([nH]4)c(-c4ccccc4)c4nc(c(-c5ccccc5)c5ccc2[nH]5)C=C4)C=C3)cc1
REMARK SMILES IDX 16 1 15 2 14 3 13 4 11 5 12 6 10 7 4 8 5 9 6 10 7 11 9 12
REMARK SMILES IDX 8 13 3 14 2 15 1 16 17 17 18 18 19 19 20 20 21 21 22 22
REMARK SMILES IDX 23 23 69 24 24 25 68 26 25 27 26 28 27 29 62 30 28 31 67 32
REMARK SMILES IDX 61 33 63 34 29 35 66 36 60 37 59 38 30 40 52 41 37 42 51 43
REMARK SMILES IDX 38 44 41 45 50 46 64 47 39 48 40 49 49 51 65 52 42 53 31 54
REMARK SMILES IDX 32 55 36 56 33 57 35 58 34 59 53 60 54 61 58 62 55 63 57 64
REMARK SMILES IDX 56 65 43 66 44 67 48 68 45 69 47 70 46 71
REMARK H PARENT 63 39 41 50
REMARK Flexibility Score: inf
ROOT
ATOM      1  O   UNL     1       1.681   5.079   5.145  1.00  0.00    -0.374 OA
ENDROOT
BRANCH   1   2
ATOM      2  C   UNL     1       0.398   5.116   4.520  1.00  0.00     0.202 C 
BRANCH   2   3
ATOM      3  C   UNL     1       0.390   5.382   3.013  1.00  0.00     0.261 C 
BRANCH   3   4
ATOM      4  O   UNL     1       1.064   4.331   2.297  1.00  0.00    -0.460 OA
BRANCH   4   5
ATOM      5  C   UNL     1       2.062   4.754   1.484  1.00  0.00     0.342 C 
ATOM      6  O   UNL     1       2.340   5.912   1.213  1.00  0.00    -0.246 OA
BRANCH   5   7
ATOM      7  C   UNL     1       2.962   3.642   1.125  1.00  0.00     0.105 A 
ATOM      8  C   UNL     1       2.543   2.458   0.512  1.00  0.00     0.169 A 
ATOM      9  C   UNL     1       3.523   1.567   0.062  1.00  0.00     0.165 A 
ATOM     10  F   UNL     1       3.186   0.493  -0.664  1.00  0.00    -0.203 F 
ATOM     11  C   UNL     1       4.878   1.783   0.303  1.00  0.00     0.043 A 
ATOM     12  C   UNL     1       4.331   3.860   1.377  1.00  0.00     0.020 A 
ATOM     13  C   UNL     1       5.285   2.923   0.985  1.00  0.00     0.004 A 
BRANCH   8  14
ATOM     14  O   UNL     1       1.220   2.228   0.248  1.00  0.00    -0.490 OA
BRANCH  14  15
ATOM     15  C   UNL     1       0.682   1.146   1.028  1.00  0.00     0.226 C 
ATOM     16  C   UNL     1       0.552  -0.130   0.210  1.00  0.00     0.049 C 
ENDBRANCH  14  15
ENDBRANCH   8  14
ENDBRANCH   5   7
ENDBRANCH   4   5
ENDBRANCH   3   4
ENDBRANCH   2   3
ENDBRANCH   1   2
BRANCH   1  17
ATOM     17  C   UNL     1       2.464   3.898   4.965  1.00  0.00     0.202 C 
BRANCH  17  18
ATOM     18  C   UNL     1       2.070   2.682   5.812  1.00  0.00     0.261 C 
BRANCH  18  19
ATOM     19  O   UNL     1       0.772   2.169   5.461  1.00  0.00    -0.460 OA
BRANCH  19  20
ATOM     20  C   UNL     1      -0.181   2.344   6.406  1.00  0.00     0.338 C 
ATOM     21  O   UNL     1      -0.036   2.802   7.532  1.00  0.00    -0.246 OA
BRANCH  20  22
ATOM     22  C   UNL     1      -1.513   2.060   5.841  1.00  0.00     0.060 A 
ATOM     23  C   UNL     1      -2.502   3.041   5.987  1.00  0.00     0.016 A 
ATOM     24  C   UNL     1      -1.812   0.833   5.245  1.00  0.00     0.016 A 
ATOM     25  C   UNL     1      -3.808   2.782   5.581  1.00  0.00     0.010 A 
ATOM     26  C   UNL     1      -3.127   0.571   4.846  1.00  0.00     0.010 A 
ATOM     27  C   UNL     1      -4.137   1.531   5.044  1.00  0.00    -0.014 A 
BRANCH  27  28
ATOM     28  C   UNL     1      -5.560   1.179   4.824  1.00  0.00     0.031 A 
ATOM     29  C   UNL     1      -6.277   0.353   5.857  1.00  0.00     0.074 A 
ATOM     30  C   UNL     1      -6.216   1.612   3.733  1.00  0.00     0.049 A 
ATOM     31  N   UNL     1      -7.511  -0.084   5.858  1.00  0.00    -0.248 NA
ATOM     32  C   UNL     1      -5.499  -0.030   7.047  1.00  0.00     0.031 C 
ATOM     33  C   UNL     1      -5.650   2.457   2.684  1.00  0.00     0.029 A 
ATOM     34  N   UNL     1      -7.510   1.394   3.331  1.00  0.00    -0.354 N 
ATOM     35  C   UNL     1      -7.654  -0.801   7.040  1.00  0.00     0.074 A 
ATOM     36  C   UNL     1      -6.377  -0.762   7.718  1.00  0.00     0.031 C 
ATOM     37  C   UNL     1      -6.593   2.684   1.753  1.00  0.00     0.029 A 
ATOM     38  C   UNL     1      -7.816   1.976   2.126  1.00  0.00     0.049 A 
ATOM     39  H   UNL     1      -8.157   0.870   3.857  1.00  0.00     0.167 HD
ATOM     40  C   UNL     1      -8.752  -1.432   7.520  1.00  0.00     0.031 A 
ATOM     41  C   UNL     1      -8.948   1.928   1.399  1.00  0.00     0.031 A 
ATOM     42  C   UNL     1     -10.020  -1.482   6.844  1.00  0.00     0.049 A 
ATOM     43  C   UNL     1     -10.130   1.153   1.917  1.00  0.00     0.074 A 
ATOM     44  C   UNL     1     -11.197  -2.079   7.262  1.00  0.00     0.029 A 
ATOM     45  N   UNL     1     -10.274  -0.919   5.604  1.00  0.00    -0.354 N 
ATOM     46  N   UNL     1     -10.261   0.502   3.048  1.00  0.00    -0.248 NA
ATOM     47  C   UNL     1     -11.322   1.110   1.057  1.00  0.00     0.031 C 
ATOM     48  C   UNL     1     -12.149  -1.924   6.248  1.00  0.00     0.029 A 
ATOM     49  C   UNL     1     -11.580  -1.181   5.226  1.00  0.00     0.049 A 
ATOM     50  H   UNL     1      -9.623  -0.408   5.071  1.00  0.00     0.167 HD
ATOM     51  C   UNL     1     -11.557  -0.000   3.049  1.00  0.00     0.074 A 
ATOM     52  C   UNL     1     -12.174   0.430   1.811  1.00  0.00     0.031 C 
ATOM     53  C   UNL     1     -12.181  -0.748   3.991  1.00  0.00     0.031 A 
BRANCH  40  54
ATOM     54  C   UNL     1      -8.614  -2.155   8.830  1.00  0.00    -0.014 A 
ATOM     55  C   UNL     1      -8.507  -1.457  10.043  1.00  0.00     0.009 A 
ATOM     56  C   UNL     1      -8.621  -3.559   8.852  1.00  0.00     0.009 A 
ATOM     57  C   UNL     1      -8.378  -2.150  11.248  1.00  0.00     0.001 A 
ATOM     58  C   UNL     1      -8.518  -4.249  10.061  1.00  0.00     0.001 A 
ATOM     59  C   UNL     1      -8.388  -3.545  11.257  1.00  0.00     0.000 A 
ENDBRANCH  40  54
BRANCH  41  60
ATOM     60  C   UNL     1      -9.021   2.623   0.087  1.00  0.00    -0.014 A 
ATOM     61  C   UNL     1      -9.829   3.758  -0.076  1.00  0.00     0.009 A 
ATOM     62  C   UNL     1      -8.297   2.140  -1.014  1.00  0.00     0.009 A 
ATOM     63  C   UNL     1      -9.928   4.381  -1.322  1.00  0.00     0.001 A 
ATOM     64  C   UNL     1      -8.377   2.781  -2.252  1.00  0.00     0.001 A 
ATOM     65  C   UNL     1      -9.200   3.895  -2.407  1.00  0.00     0.000 A 
ENDBRANCH  41  60
BRANCH  53  66
ATOM     66  C   UNL     1     -13.615  -1.118   3.740  1.00  0.00    -0.014 A 
ATOM     67  C   UNL     1     -13.963  -2.087   2.786  1.00  0.00     0.009 A 
ATOM     68  C   UNL     1     -14.631  -0.517   4.501  1.00  0.00     0.009 A 
ATOM     69  C   UNL     1     -15.303  -2.423   2.578  1.00  0.00     0.001 A 
ATOM     70  C   UNL     1     -15.966  -0.875   4.311  1.00  0.00     0.001 A 
ATOM     71  C   UNL     1     -16.301  -1.821   3.343  1.00  0.00     0.000 A 
ENDBRANCH  53  66
ENDBRANCH  27  28
ENDBRANCH  20  22
ENDBRANCH  19  20
ENDBRANCH  18  19
ENDBRANCH  17  18
ENDBRANCH   1  17
TORSDOF 16
