REMARK SMILES COc1ccc(-n2c(SCc3cn(-c4ccc(C(=O)OCCOCCOC(=O)c5ccc(-c6c7nc(c(-c8ccccc8)c8ccc([nH]8)c(-c8ccccc8)c8nc(c(-c9ccccc9)c9ccc6[nH]9)C=C8)C=C7)cc5)cc4)nn3)nc3ccccc3c2=O)cc1
REMARK SMILES IDX 21 1 20 2 18 3 19 4 17 5 14 6 15 7 78 8 16 9 77 10 13 11
REMARK SMILES IDX 11 12 12 13 80 14 79 15 10 16 9 17 8 18 7 19 88 20 81 21
REMARK SMILES IDX 87 22 89 23 82 24 86 25 83 26 85 27 84 28 6 29 3 30 4 31
REMARK SMILES IDX 91 32 5 33 90 34 2 35 1 36 22 37 23 38 24 39 25 40 26 41
REMARK SMILES IDX 27 42 28 43 29 44 30 45 76 46 31 47 75 48 32 49 33 50 34 51
REMARK SMILES IDX 69 52 35 53 74 54 68 55 70 56 36 57 73 58 67 59 66 60 37 62
REMARK SMILES IDX 59 63 44 64 58 65 45 66 48 67 57 68 71 69 46 70 47 71 56 73
REMARK SMILES IDX 72 74 49 75 38 76 39 77 43 78 40 79 42 80 41 81 60 82 61 83
REMARK SMILES IDX 65 84 62 85 64 86 63 87 50 88 51 89 55 90 52 91 54 92 53 93
REMARK H PARENT 70 61 48 72
REMARK Flexibility Score: inf
ROOT
ATOM      1  C   UNL     1      -4.114  -0.487   5.281  1.00  0.00     0.261 C 
ENDROOT
BRANCH   1   2
ATOM      2  O   UNL     1      -2.952   0.036   4.629  1.00  0.00    -0.460 OA
BRANCH   2   3
ATOM      3  C   UNL     1      -3.135   0.351   3.323  1.00  0.00     0.338 C 
ATOM      4  O   UNL     1      -4.125   0.173   2.644  1.00  0.00    -0.246 OA
BRANCH   3   5
ATOM      5  C   UNL     1      -1.978   1.147   2.874  1.00  0.00     0.060 A 
ATOM      6  C   UNL     1       0.133   2.642   1.928  1.00  0.00     0.066 A 
ATOM      7  C   UNL     1      -1.168   3.010   1.573  1.00  0.00     0.029 A 
ATOM      8  C   UNL     1       0.383   1.575   2.802  1.00  0.00     0.029 A 
ATOM      9  C   UNL     1      -2.227   2.237   2.029  1.00  0.00     0.018 A 
ATOM     10  C   UNL     1      -0.682   0.837   3.293  1.00  0.00     0.018 A 
BRANCH   6  11
ATOM     11  N   UNL     1       1.211   3.301   1.328  1.00  0.00    -0.220 N 
ATOM     12  C   UNL     1       3.092   3.772   0.373  1.00  0.00     0.093 A 
ATOM     13  C   UNL     1       2.454   2.784   1.077  1.00  0.00     0.141 A 
ATOM     14  N   UNL     1       2.267   4.861   0.293  1.00  0.00    -0.134 NA
ATOM     15  N   UNL     1       1.103   4.543   0.824  1.00  0.00    -0.062 NA
BRANCH  12  16
ATOM     16  C   UNL     1       4.404   3.707  -0.287  1.00  0.00     0.138 C 
BRANCH  16  17
ATOM     17  S   UNL     1       4.957   5.260  -0.955  1.00  0.00    -0.081 SA
BRANCH  17  18
ATOM     18  C   UNL     1       3.536   5.866  -1.909  1.00  0.00     0.176 A 
ATOM     19  N   UNL     1       3.326   5.148  -3.073  1.00  0.00    -0.255 N 
ATOM     20  C   UNL     1       3.953   5.634  -4.215  1.00  0.00     0.266 A 
ATOM     21  N   UNL     1       3.446   7.163  -1.956  1.00  0.00    -0.223 NA
ATOM     22  C   UNL     1       4.783   6.857  -3.960  1.00  0.00     0.066 A 
ATOM     23  O   UNL     1       3.916   5.137  -5.335  1.00  0.00    -0.268 OA
ATOM     24  C   UNL     1       4.421   7.648  -2.851  1.00  0.00     0.079 A 
ATOM     25  C   UNL     1       6.014   7.042  -4.580  1.00  0.00     0.016 A 
ATOM     26  C   UNL     1       5.242   8.690  -2.428  1.00  0.00     0.029 A 
ATOM     27  C   UNL     1       6.878   8.024  -4.083  1.00  0.00     0.001 A 
ATOM     28  C   UNL     1       6.485   8.861  -3.030  1.00  0.00     0.002 A 
BRANCH  19  29
ATOM     29  C   UNL     1       2.468   4.020  -3.068  1.00  0.00     0.052 A 
ATOM     30  C   UNL     1       0.959   1.756  -2.400  1.00  0.00     0.119 A 
ATOM     31  C   UNL     1       0.362   3.014  -2.378  1.00  0.00     0.048 A 
ATOM     32  C   UNL     1       2.260   1.614  -2.883  1.00  0.00     0.048 A 
ATOM     33  C   UNL     1       1.126   4.149  -2.678  1.00  0.00     0.030 A 
ATOM     34  C   UNL     1       3.002   2.743  -3.253  1.00  0.00     0.030 A 
BRANCH  30  35
ATOM     35  O   UNL     1       0.208   0.680  -2.015  1.00  0.00    -0.497 OA
ATOM     36  C   UNL     1       0.757  -0.011  -0.891  1.00  0.00     0.278 C 
ENDBRANCH  30  35
ENDBRANCH  19  29
ENDBRANCH  17  18
ENDBRANCH  16  17
ENDBRANCH  12  16
ENDBRANCH   6  11
ENDBRANCH   3   5
ENDBRANCH   2   3
ENDBRANCH   1   2
BRANCH   1  37
ATOM     37  C   UNL     1      -4.695   0.505   6.288  1.00  0.00     0.202 C 
BRANCH  37  38
ATOM     38  O   UNL     1      -5.238   1.731   5.800  1.00  0.00    -0.374 OA
BRANCH  38  39
ATOM     39  C   UNL     1      -4.386   2.736   5.263  1.00  0.00     0.202 C 
BRANCH  39  40
ATOM     40  C   UNL     1      -3.476   3.507   6.207  1.00  0.00     0.261 C 
BRANCH  40  41
ATOM     41  O   UNL     1      -2.589   2.656   6.915  1.00  0.00    -0.460 OA
BRANCH  41  42
ATOM     42  C   UNL     1      -2.994   2.397   8.181  1.00  0.00     0.338 C 
ATOM     43  O   UNL     1      -4.097   2.574   8.656  1.00  0.00    -0.246 OA
BRANCH  42  44
ATOM     44  C   UNL     1      -1.814   2.042   8.974  1.00  0.00     0.060 A 
ATOM     45  C   UNL     1      -2.023   1.980  10.351  1.00  0.00     0.016 A 
ATOM     46  C   UNL     1      -0.533   2.152   8.411  1.00  0.00     0.016 A 
ATOM     47  C   UNL     1      -0.974   2.315  11.169  1.00  0.00     0.010 A 
ATOM     48  C   UNL     1       0.512   2.495   9.231  1.00  0.00     0.010 A 
ATOM     49  C   UNL     1       0.248   2.670  10.585  1.00  0.00    -0.014 A 
BRANCH  49  50
ATOM     50  C   UNL     1       1.306   3.093  11.469  1.00  0.00     0.031 A 
ATOM     51  C   UNL     1       1.808   1.964  12.276  1.00  0.00     0.074 A 
ATOM     52  C   UNL     1       1.796   4.345  11.500  1.00  0.00     0.049 A 
ATOM     53  N   UNL     1       1.591   1.760  13.530  1.00  0.00    -0.248 NA
ATOM     54  C   UNL     1       2.410   0.824  11.566  1.00  0.00     0.031 C 
ATOM     55  C   UNL     1       1.530   5.458  10.587  1.00  0.00     0.029 A 
ATOM     56  N   UNL     1       2.741   4.855  12.331  1.00  0.00    -0.354 N 
ATOM     57  C   UNL     1       2.233   0.566  13.819  1.00  0.00     0.074 A 
ATOM     58  C   UNL     1       2.516  -0.063  12.555  1.00  0.00     0.031 C 
ATOM     59  C   UNL     1       2.477   6.411  10.763  1.00  0.00     0.029 A 
ATOM     60  C   UNL     1       3.325   6.032  11.883  1.00  0.00     0.049 A 
ATOM     61  H   UNL     1       2.991   4.426  13.181  1.00  0.00     0.167 HD
ATOM     62  C   UNL     1       2.776   0.361  15.048  1.00  0.00     0.031 A 
ATOM     63  C   UNL     1       4.462   6.596  12.365  1.00  0.00     0.031 A 
ATOM     64  C   UNL     1       2.225   1.265  16.029  1.00  0.00     0.049 A 
ATOM     65  C   UNL     1       4.704   6.030  13.715  1.00  0.00     0.074 A 
ATOM     66  C   UNL     1       0.953   1.533  16.498  1.00  0.00     0.029 A 
ATOM     67  N   UNL     1       2.993   2.352  16.375  1.00  0.00    -0.354 N 
ATOM     68  N   UNL     1       3.948   6.295  14.740  1.00  0.00    -0.248 NA
ATOM     69  C   UNL     1       5.481   4.803  13.815  1.00  0.00     0.031 C 
ATOM     70  C   UNL     1       0.916   2.948  16.679  1.00  0.00     0.029 A 
ATOM     71  C   UNL     1       2.182   3.457  16.388  1.00  0.00     0.049 A 
ATOM     72  H   UNL     1       3.956   2.339  16.577  1.00  0.00     0.167 HD
ATOM     73  C   UNL     1       3.786   5.074  15.379  1.00  0.00     0.074 A 
ATOM     74  C   UNL     1       4.831   4.214  14.824  1.00  0.00     0.031 C 
ATOM     75  C   UNL     1       2.640   4.790  16.068  1.00  0.00     0.031 A 
BRANCH  62  76
ATOM     76  C   UNL     1       4.132  -0.278  15.216  1.00  0.00    -0.014 A 
ATOM     77  C   UNL     1       4.632  -0.443  16.517  1.00  0.00     0.009 A 
ATOM     78  C   UNL     1       5.052  -0.433  14.159  1.00  0.00     0.009 A 
ATOM     79  C   UNL     1       5.995  -0.657  16.746  1.00  0.00     0.001 A 
ATOM     80  C   UNL     1       6.405  -0.688  14.381  1.00  0.00     0.001 A 
ATOM     81  C   UNL     1       6.882  -0.768  15.679  1.00  0.00     0.000 A 
ENDBRANCH  62  76
BRANCH  63  82
ATOM     82  C   UNL     1       5.512   7.344  11.637  1.00  0.00    -0.014 A 
ATOM     83  C   UNL     1       6.489   8.076  12.333  1.00  0.00     0.009 A 
ATOM     84  C   UNL     1       5.730   7.107  10.267  1.00  0.00     0.009 A 
ATOM     85  C   UNL     1       7.657   8.515  11.691  1.00  0.00     0.001 A 
ATOM     86  C   UNL     1       6.893   7.547   9.627  1.00  0.00     0.001 A 
ATOM     87  C   UNL     1       7.865   8.238  10.343  1.00  0.00     0.000 A 
ENDBRANCH  63  82
BRANCH  75  88
ATOM     88  C   UNL     1       1.668   5.920  16.310  1.00  0.00    -0.014 A 
ATOM     89  C   UNL     1       1.053   6.653  15.278  1.00  0.00     0.009 A 
ATOM     90  C   UNL     1       1.264   6.170  17.630  1.00  0.00     0.009 A 
ATOM     91  C   UNL     1       0.097   7.634  15.566  1.00  0.00     0.001 A 
ATOM     92  C   UNL     1       0.294   7.132  17.915  1.00  0.00     0.001 A 
ATOM     93  C   UNL     1      -0.283   7.871  16.885  1.00  0.00     0.000 A 
ENDBRANCH  75  88
ENDBRANCH  49  50
ENDBRANCH  42  44
ENDBRANCH  41  42
ENDBRANCH  40  41
ENDBRANCH  39  40
ENDBRANCH  38  39
ENDBRANCH  37  38
ENDBRANCH   1  37
TORSDOF 20
