REMARK SMILES COc1cc(C)c(S(=O)(=O)Nc2cc(C(=O)OCCOCCOC(=O)c3ccc(-c4c5nc(c(-c6ccccc6)c6ccc([nH]6)c(-c6ccccc6)c6nc(c(-c7ccccc7)c7ccc4[nH]7)C=C6)C=C5)cc3)ccc2F)cc1OC
REMARK SMILES IDX 19 1 18 2 17 3 15 4 16 5 14 6 12 7 13 8 76 9 75 10 77 11
REMARK SMILES IDX 74 12 11 13 8 15 9 16 10 17 7 18 3 19 4 20 79 21 5 22 78 23
REMARK SMILES IDX 6 24 2 25 1 26 80 27 81 28 20 29 21 30 22 31 23 32 24 33
REMARK SMILES IDX 25 34 26 35 27 36 73 37 28 38 72 39 29 40 30 41 31 42 66 43
REMARK SMILES IDX 32 44 71 45 65 46 67 47 33 48 70 49 64 50 63 51 34 53 56 54
REMARK SMILES IDX 41 55 55 56 42 57 45 58 54 59 68 60 43 61 44 62 53 64 69 65
REMARK SMILES IDX 46 66 35 67 36 68 40 69 37 70 39 71 38 72 57 73 58 74 62 75
REMARK SMILES IDX 59 76 61 77 60 78 47 79 48 80 52 81 49 82 51 83 50 84
REMARK H PARENT 11 14 67 52 45 63
REMARK Flexibility Score: inf
ROOT
ATOM      1  C   UNL     1       5.533  -6.061   0.623  1.00  0.00     0.202 C 
ENDROOT
BRANCH   1   2
ATOM      2  C   UNL     1       4.496  -5.393  -0.163  1.00  0.00     0.261 C 
BRANCH   2   3
ATOM      3  O   UNL     1       4.869  -4.135  -0.720  1.00  0.00    -0.460 OA
BRANCH   3   4
ATOM      4  C   UNL     1       6.082  -3.651  -1.043  1.00  0.00     0.338 C 
ATOM      5  O   UNL     1       6.552  -2.610  -0.605  1.00  0.00    -0.246 OA
BRANCH   4   6
ATOM      6  C   UNL     1       6.449  -4.178  -2.362  1.00  0.00     0.062 A 
ATOM      7  C   UNL     1       5.238  -5.076  -4.176  1.00  0.00     0.085 A 
ATOM      8  C   UNL     1       5.666  -5.192  -2.890  1.00  0.00     0.045 A 
ATOM      9  C   UNL     1       5.950  -4.253  -5.050  1.00  0.00     0.147 A 
ATOM     10  C   UNL     1       6.958  -3.409  -4.567  1.00  0.00     0.042 A 
ATOM     11  F   UNL     1       5.625  -4.207  -6.346  1.00  0.00    -0.205 F 
ATOM     12  C   UNL     1       7.159  -3.315  -3.195  1.00  0.00     0.019 A 
BRANCH   7  13
ATOM     13  N   UNL     1       3.994  -5.724  -4.441  1.00  0.00    -0.277 N 
ATOM     14  H   UNL     1       3.990  -6.576  -4.934  1.00  0.00     0.180 HD
BRANCH  13  15
ATOM     15  S   UNL     1       2.494  -5.046  -3.916  1.00  0.00     0.262 S 
ATOM     16  O   UNL     1       1.621  -6.202  -3.803  1.00  0.00    -0.201 OA
ATOM     17  O   UNL     1       2.208  -4.014  -4.895  1.00  0.00    -0.201 OA
BRANCH  15  18
ATOM     18  C   UNL     1       2.382  -4.136  -2.024  1.00  0.00     0.094 A 
ATOM     19  C   UNL     1       0.989  -1.691   0.354  1.00  0.00     0.161 A 
ATOM     20  C   UNL     1       2.750  -1.064  -0.505  1.00  0.00     0.055 A 
ATOM     21  C   UNL     1      -0.296  -3.215   0.003  1.00  0.00     0.162 A 
ATOM     22  C   UNL     1       3.537  -2.487  -1.749  1.00  0.00    -0.027 A 
ATOM     23  C   UNL     1       0.424  -4.403  -1.524  1.00  0.00     0.073 A 
ATOM     24  C   UNL     1       4.244  -1.933  -3.034  1.00  0.00     0.046 C 
BRANCH  19  25
ATOM     25  O   UNL     1       0.793  -1.359   1.735  1.00  0.00    -0.493 OA
ATOM     26  C   UNL     1       0.770   0.020   1.860  1.00  0.00     0.278 C 
ENDBRANCH  19  25
BRANCH  21  27
ATOM     27  O   UNL     1      -1.562  -3.442   0.465  1.00  0.00    -0.493 OA
ATOM     28  C   UNL     1      -2.007  -2.535   1.460  1.00  0.00     0.278 C 
ENDBRANCH  21  27
ENDBRANCH  15  18
ENDBRANCH  13  15
ENDBRANCH   7  13
ENDBRANCH   4   6
ENDBRANCH   3   4
ENDBRANCH   2   3
ENDBRANCH   1   2
BRANCH   1  29
ATOM     29  O   UNL     1       6.568  -5.130   0.791  1.00  0.00    -0.374 OA
BRANCH  29  30
ATOM     30  C   UNL     1       7.872  -5.611   0.759  1.00  0.00     0.202 C 
BRANCH  30  31
ATOM     31  C   UNL     1       7.943  -6.746   1.768  1.00  0.00     0.261 C 
BRANCH  31  32
ATOM     32  O   UNL     1       7.526  -6.209   3.080  1.00  0.00    -0.460 OA
BRANCH  32  33
ATOM     33  C   UNL     1       6.245  -6.418   3.557  1.00  0.00     0.338 C 
ATOM     34  O   UNL     1       5.700  -7.513   3.584  1.00  0.00    -0.246 OA
BRANCH  33  35
ATOM     35  C   UNL     1       5.465  -5.094   3.713  1.00  0.00     0.060 A 
ATOM     36  C   UNL     1       4.077  -5.021   3.856  1.00  0.00     0.016 A 
ATOM     37  C   UNL     1       5.998  -3.991   3.101  1.00  0.00     0.016 A 
ATOM     38  C   UNL     1       3.303  -4.079   3.056  1.00  0.00     0.010 A 
ATOM     39  C   UNL     1       5.206  -3.343   2.095  1.00  0.00     0.010 A 
ATOM     40  C   UNL     1       3.805  -3.504   1.859  1.00  0.00    -0.014 A 
BRANCH  40  41
ATOM     41  C   UNL     1       3.044  -2.613   0.487  1.00  0.00     0.031 A 
ATOM     42  C   UNL     1       3.690  -1.045   1.517  1.00  0.00     0.074 A 
ATOM     43  C   UNL     1       1.978  -2.446  -1.065  1.00  0.00     0.049 A 
ATOM     44  N   UNL     1       3.602   0.254   1.206  1.00  0.00    -0.248 NA
ATOM     45  C   UNL     1       4.453  -0.907   2.870  1.00  0.00     0.031 C 
ATOM     46  C   UNL     1       1.676  -0.870  -2.201  1.00  0.00     0.029 A 
ATOM     47  N   UNL     1       1.532  -2.690  -2.769  1.00  0.00    -0.354 N 
ATOM     48  C   UNL     1       4.113   1.192   2.093  1.00  0.00     0.074 A 
ATOM     49  C   UNL     1       4.768   0.396   3.068  1.00  0.00     0.031 C 
ATOM     50  C   UNL     1       0.690  -0.945  -3.133  1.00  0.00     0.029 A 
ATOM     51  C   UNL     1       0.324  -2.257  -2.834  1.00  0.00     0.049 A 
ATOM     52  H   UNL     1       2.082  -3.068  -3.492  1.00  0.00     0.167 HD
ATOM     53  C   UNL     1       3.903   2.542   1.911  1.00  0.00     0.031 A 
ATOM     54  C   UNL     1       0.209  -2.621  -1.502  1.00  0.00     0.031 A 
ATOM     55  C   UNL     1       2.886   2.772   0.872  1.00  0.00     0.049 A 
ATOM     56  C   UNL     1      -0.756  -1.119  -1.144  1.00  0.00     0.074 A 
ATOM     57  C   UNL     1       3.004   2.777  -0.501  1.00  0.00     0.029 A 
ATOM     58  N   UNL     1       1.519   2.775   1.150  1.00  0.00    -0.354 N 
ATOM     59  N   UNL     1      -0.189   0.055  -0.918  1.00  0.00    -0.248 NA
ATOM     60  C   UNL     1      -2.201  -0.974  -1.297  1.00  0.00     0.031 C 
ATOM     61  C   UNL     1       1.704   2.579  -1.045  1.00  0.00     0.029 A 
ATOM     62  C   UNL     1       0.767   2.510  -0.016  1.00  0.00     0.049 A 
ATOM     63  H   UNL     1       1.131   2.941   2.039  1.00  0.00     0.167 HD
ATOM     64  C   UNL     1      -1.099   1.013  -0.664  1.00  0.00     0.074 A 
ATOM     65  C   UNL     1      -2.356   0.333  -0.989  1.00  0.00     0.031 C 
ATOM     66  C   UNL     1      -0.687   2.128   0.034  1.00  0.00     0.031 A 
BRANCH  53  67
ATOM     67  C   UNL     1       4.703   3.752   2.456  1.00  0.00    -0.014 A 
ATOM     68  C   UNL     1       4.700   4.915   1.639  1.00  0.00     0.009 A 
ATOM     69  C   UNL     1       5.511   3.853   3.605  1.00  0.00     0.009 A 
ATOM     70  C   UNL     1       5.476   6.059   1.887  1.00  0.00     0.001 A 
ATOM     71  C   UNL     1       6.293   5.016   3.869  1.00  0.00     0.001 A 
ATOM     72  C   UNL     1       6.288   6.109   3.003  1.00  0.00     0.000 A 
ENDBRANCH  53  67
BRANCH  54  73
ATOM     73  C   UNL     1       1.284  -3.981  -0.068  1.00  0.00    -0.014 A 
ATOM     74  C   UNL     1       1.672  -5.656  -0.353  1.00  0.00     0.009 A 
ATOM     75  C   UNL     1       1.008  -4.320   1.419  1.00  0.00     0.009 A 
ATOM     76  C   UNL     1       1.884  -6.862   0.378  1.00  0.00     0.001 A 
ATOM     77  C   UNL     1       1.164  -5.598   2.185  1.00  0.00     0.001 A 
ATOM     78  C   UNL     1       1.700  -6.790   1.709  1.00  0.00     0.000 A 
ENDBRANCH  54  73
BRANCH  66  79
ATOM     79  C   UNL     1      -1.646   2.759   1.008  1.00  0.00    -0.014 A 
ATOM     80  C   UNL     1      -2.833   2.130   1.425  1.00  0.00     0.009 A 
ATOM     81  C   UNL     1      -1.326   3.967   1.644  1.00  0.00     0.009 A 
ATOM     82  C   UNL     1      -3.771   2.780   2.222  1.00  0.00     0.001 A 
ATOM     83  C   UNL     1      -2.216   4.578   2.530  1.00  0.00     0.001 A 
ATOM     84  C   UNL     1      -3.469   4.021   2.756  1.00  0.00     0.000 A 
ENDBRANCH  66  79
ENDBRANCH  40  41
ENDBRANCH  33  35
ENDBRANCH  32  33
ENDBRANCH  31  32
ENDBRANCH  30  31
ENDBRANCH  29  30
ENDBRANCH   1  29
TORSDOF 19
