REMARK SMILES COc1ccccc1NC1=[NH+]C(=O)/C(=C\c2ccccc2OCC(=O)OCCOCCOC(=O)c2ccc(-c3c4nc(c(-c5ccccc5)c5ccc([nH]5)c(-c5ccccc5)c5nc(c(-c6ccccc6)c6ccc3[nH]6)C=C5)C=C4)cc2)S1
REMARK SMILES IDX 27 1 26 2 24 3 25 4 23 5 22 6 21 7 16 8 17 9 18 10 20 11
REMARK SMILES IDX 19 12 15 13 9 14 10 15 11 17 83 18 12 19 14 21 13 22 8 23
REMARK SMILES IDX 3 24 4 25 5 26 7 27 6 28 2 29 1 30 28 31 29 32 30 33 31 34
REMARK SMILES IDX 32 35 33 36 34 37 35 38 36 39 82 40 37 41 81 42 38 43 39 44
REMARK SMILES IDX 40 45 75 46 41 47 80 48 74 49 76 50 42 51 79 52 73 53 72 54
REMARK SMILES IDX 43 56 65 57 50 58 64 59 51 60 54 61 63 62 77 63 52 64 53 65
REMARK SMILES IDX 62 67 78 68 55 69 44 70 45 71 49 72 46 73 48 74 47 75 66 76
REMARK SMILES IDX 67 77 71 78 68 79 70 80 69 81 56 82 57 83 61 84 58 85 60 86
REMARK SMILES IDX 59 87
REMARK H PARENT 9 16 11 20 76 55 54 66
REMARK Flexibility Score: inf
ROOT
ATOM      1  C   UNL     1       6.092  -1.252  -1.416  1.00  0.00     0.261 C 
ENDROOT
BRANCH   1   2
ATOM      2  O   UNL     1       6.840  -0.577  -2.451  1.00  0.00    -0.461 OA
BRANCH   2   3
ATOM      3  C   UNL     1       6.133  -0.267  -3.564  1.00  0.00     0.344 C 
ATOM      4  O   UNL     1       4.949  -0.540  -3.733  1.00  0.00    -0.248 OA
BRANCH   3   5
ATOM      5  C   UNL     1       6.965   0.467  -4.616  1.00  0.00     0.351 C 
BRANCH   5   6
ATOM      6  O   UNL     1       8.368   0.521  -4.477  1.00  0.00    -0.481 OA
BRANCH   6   7
ATOM      7  C   UNL     1       9.042   1.472  -3.766  1.00  0.00     0.127 A 
ATOM      8  C   UNL     1       8.661   2.766  -3.364  1.00  0.00     0.018 A 
ATOM      9  C   UNL     1       9.583   3.560  -2.652  1.00  0.00     0.012 A 
ATOM     10  C   UNL     1      10.861   3.091  -2.345  1.00  0.00     0.001 A 
ATOM     11  C   UNL     1      10.344   1.031  -3.468  1.00  0.00     0.047 A 
ATOM     12  C   UNL     1      11.245   1.824  -2.760  1.00  0.00     0.004 A 
BRANCH   8  13
ATOM     13  C   UNL     1       7.357   3.380  -3.638  1.00  0.00     0.036 C 
ATOM     14  N   UNL     1       2.984   1.782  -2.006  1.00  0.00    -0.231 N 
ATOM     15  C   UNL     1       4.190   2.413  -2.044  1.00  0.00     0.322 C 
ATOM     16  H   UNL     1       2.806   1.360  -1.135  1.00  0.00     0.313 HD
ATOM     17  N   UNL     1       5.103   2.119  -1.169  1.00  0.00    -0.199 N 
ATOM     18  S   UNL     1       4.689   3.608  -3.229  1.00  0.00     0.006 SA
ATOM     19  C   UNL     1       6.317   2.715  -1.431  1.00  0.00     0.346 C 
ATOM     20  H   UNL     1       4.944   1.530  -0.397  1.00  0.00     0.316 HD
ATOM     21  C   UNL     1       6.320   3.301  -2.795  1.00  0.00     0.110 C 
ATOM     22  O   UNL     1       7.258   2.817  -0.663  1.00  0.00    -0.240 OA
BRANCH  14  23
ATOM     23  C   UNL     1       1.931   1.592  -2.921  1.00  0.00     0.167 A 
ATOM     24  C   UNL     1       0.831   0.776  -2.562  1.00  0.00     0.165 A 
ATOM     25  C   UNL     1      -0.205   0.513  -3.471  1.00  0.00     0.051 A 
ATOM     26  C   UNL     1      -0.184   1.070  -4.746  1.00  0.00     0.004 A 
ATOM     27  C   UNL     1       1.904   2.154  -4.205  1.00  0.00     0.056 A 
ATOM     28  C   UNL     1       0.872   1.890  -5.112  1.00  0.00     0.005 A 
BRANCH  24  29
ATOM     29  O   UNL     1       0.779   0.034  -1.405  1.00  0.00    -0.492 OA
ATOM     30  C   UNL     1       0.742   0.781  -0.192  1.00  0.00     0.278 C 
ENDBRANCH  24  29
ENDBRANCH  14  23
ENDBRANCH   8  13
ENDBRANCH   6   7
ENDBRANCH   5   6
ENDBRANCH   3   5
ENDBRANCH   2   3
ENDBRANCH   1   2
BRANCH   1  31
ATOM     31  C   UNL     1       6.867  -1.118  -0.110  1.00  0.00     0.202 C 
BRANCH  31  32
ATOM     32  O   UNL     1       6.745   0.220   0.351  1.00  0.00    -0.374 OA
BRANCH  32  33
ATOM     33  C   UNL     1       7.667   0.657   1.353  1.00  0.00     0.202 C 
BRANCH  33  34
ATOM     34  C   UNL     1       9.127   0.754   0.866  1.00  0.00     0.261 C 
BRANCH  34  35
ATOM     35  O   UNL     1       9.744  -0.541   0.760  1.00  0.00    -0.460 OA
BRANCH  35  36
ATOM     36  C   UNL     1       9.767  -1.242   1.915  1.00  0.00     0.338 C 
ATOM     37  O   UNL     1       9.753  -0.799   3.049  1.00  0.00    -0.246 OA
BRANCH  36  38
ATOM     38  C   UNL     1       9.457  -2.641   1.563  1.00  0.00     0.060 A 
ATOM     39  C   UNL     1       8.497  -3.301   2.339  1.00  0.00     0.016 A 
ATOM     40  C   UNL     1      10.023  -3.260   0.442  1.00  0.00     0.016 A 
ATOM     41  C   UNL     1       8.162  -4.617   2.046  1.00  0.00     0.010 A 
ATOM     42  C   UNL     1       9.688  -4.580   0.146  1.00  0.00     0.010 A 
ATOM     43  C   UNL     1       8.806  -5.275   0.989  1.00  0.00    -0.014 A 
BRANCH  43  44
ATOM     44  C   UNL     1       8.789  -6.750   0.983  1.00  0.00     0.031 A 
ATOM     45  C   UNL     1       9.889  -7.447   1.735  1.00  0.00     0.074 A 
ATOM     46  C   UNL     1       7.791  -7.441   0.410  1.00  0.00     0.049 A 
ATOM     47  N   UNL     1      10.036  -8.716   2.005  1.00  0.00    -0.248 NA
ATOM     48  C   UNL     1      10.967  -6.590   2.266  1.00  0.00     0.031 C 
ATOM     49  C   UNL     1       6.665  -6.864  -0.321  1.00  0.00     0.029 A 
ATOM     50  N   UNL     1       7.564  -8.792   0.376  1.00  0.00    -0.354 N 
ATOM     51  C   UNL     1      11.205  -8.803   2.750  1.00  0.00     0.074 A 
ATOM     52  C   UNL     1      11.757  -7.474   2.850  1.00  0.00     0.031 C 
ATOM     53  C   UNL     1       5.855  -7.860  -0.725  1.00  0.00     0.029 A 
ATOM     54  C   UNL     1       6.412  -9.137  -0.284  1.00  0.00     0.049 A 
ATOM     55  H   UNL     1       8.169  -9.451   0.786  1.00  0.00     0.167 HD
ATOM     56  C   UNL     1      11.764  -9.895   3.318  1.00  0.00     0.031 A 
ATOM     57  C   UNL     1       5.872 -10.352  -0.494  1.00  0.00     0.031 A 
ATOM     58  C   UNL     1      11.231 -11.219   3.192  1.00  0.00     0.049 A 
ATOM     59  C   UNL     1       6.551 -11.564   0.088  1.00  0.00     0.074 A 
ATOM     60  C   UNL     1      11.714 -12.400   3.720  1.00  0.00     0.029 A 
ATOM     61  N   UNL     1      10.091 -11.533   2.468  1.00  0.00    -0.354 N 
ATOM     62  N   UNL     1       7.629 -11.630   0.833  1.00  0.00    -0.248 NA
ATOM     63  C   UNL     1       5.929 -12.866  -0.188  1.00  0.00     0.031 C 
ATOM     64  C   UNL     1      10.889 -13.439   3.278  1.00  0.00     0.029 A 
ATOM     65  C   UNL     1       9.867 -12.895   2.514  1.00  0.00     0.049 A 
ATOM     66  H   UNL     1       9.525 -10.882   1.993  1.00  0.00     0.167 HD
ATOM     67  C   UNL     1       7.800 -12.975   1.136  1.00  0.00     0.074 A 
ATOM     68  C   UNL     1       6.708 -13.687   0.504  1.00  0.00     0.031 C 
ATOM     69  C   UNL     1       8.771 -13.571   1.871  1.00  0.00     0.031 A 
BRANCH  56  70
ATOM     70  C   UNL     1      13.029  -9.683   4.097  1.00  0.00    -0.014 A 
ATOM     71  C   UNL     1      13.010  -9.056   5.353  1.00  0.00     0.009 A 
ATOM     72  C   UNL     1      14.256 -10.098   3.560  1.00  0.00     0.009 A 
ATOM     73  C   UNL     1      14.200  -8.822   6.043  1.00  0.00     0.001 A 
ATOM     74  C   UNL     1      15.443  -9.883   4.263  1.00  0.00     0.001 A 
ATOM     75  C   UNL     1      15.415  -9.238   5.499  1.00  0.00     0.000 A 
ENDBRANCH  56  70
BRANCH  57  76
ATOM     76  C   UNL     1       4.619 -10.485  -1.281  1.00  0.00    -0.014 A 
ATOM     77  C   UNL     1       3.413 -10.839  -0.657  1.00  0.00     0.009 A 
ATOM     78  C   UNL     1       4.627 -10.267  -2.668  1.00  0.00     0.009 A 
ATOM     79  C   UNL     1       2.246 -10.994  -1.410  1.00  0.00     0.001 A 
ATOM     80  C   UNL     1       3.454 -10.400  -3.414  1.00  0.00     0.001 A 
ATOM     81  C   UNL     1       2.266 -10.771  -2.786  1.00  0.00     0.000 A 
ENDBRANCH  57  76
BRANCH  69  82
ATOM     82  C   UNL     1       8.681 -15.058   2.047  1.00  0.00    -0.014 A 
ATOM     83  C   UNL     1       9.017 -15.932   1.002  1.00  0.00     0.009 A 
ATOM     84  C   UNL     1       8.312 -15.589   3.293  1.00  0.00     0.009 A 
ATOM     85  C   UNL     1       8.960 -17.312   1.196  1.00  0.00     0.001 A 
ATOM     86  C   UNL     1       8.280 -16.969   3.490  1.00  0.00     0.001 A 
ATOM     87  C   UNL     1       8.596 -17.829   2.439  1.00  0.00     0.000 A 
ENDBRANCH  69  82
ENDBRANCH  43  44
ENDBRANCH  36  38
ENDBRANCH  35  36
ENDBRANCH  34  35
ENDBRANCH  33  34
ENDBRANCH  32  33
ENDBRANCH  31  32
ENDBRANCH   1  31
TORSDOF 19
