REMARK SMILES Cc1ccsc1C(=O)N1CCN(C(=O)OC(C)(C)C)C[C@@H]1C(=O)OCCOCCOC(=O)c1ccc(-c2c3nc(c(-c4ccccc4)c4ccc([nH]4)c(-c4ccccc4)c4nc(c(-c5ccccc5)c5ccc2[nH]5)C=C4)C=C3)cc1
REMARK SMILES IDX 26 1 25 2 24 3 22 4 23 5 21 6 9 7 10 8 11 9 20 10 12 11 7 12
REMARK SMILES IDX 8 13 6 14 1 15 2 16 3 17 4 18 5 19 13 20 14 21 15 22 16 23
REMARK SMILES IDX 17 24 18 25 19 26 27 27 28 28 29 29 30 30 31 31 32 32 33 33
REMARK SMILES IDX 34 34 80 35 35 36 79 37 36 38 37 39 38 40 73 41 39 42 78 43
REMARK SMILES IDX 72 44 74 45 40 46 77 47 71 48 70 49 41 51 63 52 48 53 62 54
REMARK SMILES IDX 49 55 52 56 61 57 75 58 50 59 51 60 60 62 76 63 53 64 42 65
REMARK SMILES IDX 43 66 47 67 44 68 46 69 45 70 64 71 65 72 69 73 66 74 68 75
REMARK SMILES IDX 67 76 54 77 55 78 59 79 56 80 58 81 57 82
REMARK H PARENT 74 50 52 61
REMARK Flexibility Score: inf
ROOT
ATOM      1  C   UNL     1       4.193  -6.673   2.929  1.00  0.00     0.202 C 
ENDROOT
BRANCH   1   2
ATOM      2  C   UNL     1       3.007  -6.146   2.109  1.00  0.00     0.261 C 
BRANCH   2   3
ATOM      3  O   UNL     1       3.319  -4.985   1.308  1.00  0.00    -0.462 OA
BRANCH   3   4
ATOM      4  C   UNL     1       2.621  -3.852   1.602  1.00  0.00     0.330 C 
ATOM      5  O   UNL     1       1.764  -3.774   2.477  1.00  0.00    -0.250 OA
BRANCH   4   6
ATOM      6  C   UNL     1       2.929  -2.668   0.660  1.00  0.00     0.215 C 
ATOM      7  N   UNL     1       2.062  -2.745  -0.522  1.00  0.00    -0.321 N 
ATOM      8  C   UNL     1       2.507  -3.689  -1.538  1.00  0.00     0.142 C 
ATOM      9  C   UNL     1       3.912  -3.326  -2.020  1.00  0.00     0.144 C 
ATOM     10  C   UNL     1       4.423  -2.475   0.289  1.00  0.00     0.160 C 
ATOM     11  N   UNL     1       4.890  -3.130  -0.943  1.00  0.00    -0.304 N 
BRANCH   7  12
ATOM     12  C   UNL     1       0.708  -2.418  -0.474  1.00  0.00     0.265 C 
ATOM     13  O   UNL     1      -0.112  -3.272  -0.822  1.00  0.00    -0.268 OA
BRANCH  12  14
ATOM     14  C   UNL     1       0.332  -1.035  -0.148  1.00  0.00     0.095 A 
ATOM     15  C   UNL     1       2.474   0.383  -0.510  1.00  0.00     0.046 C 
ATOM     16  C   UNL     1       1.033   0.171  -0.188  1.00  0.00    -0.027 A 
ATOM     17  C   UNL     1       0.168   1.291   0.074  1.00  0.00     0.016 A 
ATOM     18  C   UNL     1      -1.138   0.926   0.282  1.00  0.00     0.066 A 
ATOM     19  S   UNL     1      -1.335  -0.761   0.227  1.00  0.00    -0.138 S 
ENDBRANCH  12  14
ENDBRANCH   7  12
BRANCH  11  20
ATOM     20  C   UNL     1       6.240  -3.240  -1.285  1.00  0.00     0.410 C 
ATOM     21  O   UNL     1       6.604  -3.655  -2.382  1.00  0.00    -0.224 OA
BRANCH  20  22
ATOM     22  O   UNL     1       7.106  -2.850  -0.306  1.00  0.00    -0.444 OA
BRANCH  22  23
ATOM     23  C   UNL     1       8.556  -3.007  -0.468  1.00  0.00     0.106 C 
ATOM     24  C   UNL     1       8.978  -4.479  -0.493  1.00  0.00     0.056 C 
ATOM     25  C   UNL     1       9.109  -2.287  -1.703  1.00  0.00     0.056 C 
ATOM     26  C   UNL     1       9.190  -2.367   0.780  1.00  0.00     0.056 C 
ENDBRANCH  22  23
ENDBRANCH  20  22
ENDBRANCH  11  20
ENDBRANCH   4   6
ENDBRANCH   3   4
ENDBRANCH   2   3
ENDBRANCH   1   2
BRANCH   1  27
ATOM     27  O   UNL     1       4.815  -5.762   3.827  1.00  0.00    -0.374 OA
BRANCH  27  28
ATOM     28  C   UNL     1       5.460  -4.627   3.267  1.00  0.00     0.202 C 
BRANCH  28  29
ATOM     29  C   UNL     1       6.566  -4.880   2.236  1.00  0.00     0.261 C 
BRANCH  29  30
ATOM     30  O   UNL     1       6.139  -5.560   1.032  1.00  0.00    -0.460 OA
BRANCH  30  31
ATOM     31  C   UNL     1       6.862  -6.672   0.742  1.00  0.00     0.338 C 
ATOM     32  O   UNL     1       7.809  -7.104   1.385  1.00  0.00    -0.246 OA
BRANCH  31  33
ATOM     33  C   UNL     1       6.328  -7.463  -0.382  1.00  0.00     0.060 A 
ATOM     34  C   UNL     1       6.040  -8.798  -0.088  1.00  0.00     0.016 A 
ATOM     35  C   UNL     1       6.326  -7.024  -1.709  1.00  0.00     0.016 A 
ATOM     36  C   UNL     1       5.810  -9.704  -1.116  1.00  0.00     0.010 A 
ATOM     37  C   UNL     1       6.081  -7.936  -2.747  1.00  0.00     0.010 A 
ATOM     38  C   UNL     1       5.848  -9.287  -2.454  1.00  0.00    -0.014 A 
BRANCH  38  39
ATOM     39  C   UNL     1       5.590 -10.290  -3.514  1.00  0.00     0.031 A 
ATOM     40  C   UNL     1       6.707 -10.872  -4.331  1.00  0.00     0.074 A 
ATOM     41  C   UNL     1       4.329 -10.733  -3.666  1.00  0.00     0.049 A 
ATOM     42  N   UNL     1       6.658 -11.827  -5.227  1.00  0.00    -0.248 NA
ATOM     43  C   UNL     1       8.052 -10.318  -4.115  1.00  0.00     0.031 C 
ATOM     44  C   UNL     1       3.177 -10.254  -2.900  1.00  0.00     0.029 A 
ATOM     45  N   UNL     1       3.809 -11.695  -4.491  1.00  0.00    -0.354 N 
ATOM     46  C   UNL     1       7.961 -11.993  -5.680  1.00  0.00     0.074 A 
ATOM     47  C   UNL     1       8.774 -11.019  -4.980  1.00  0.00     0.031 C 
ATOM     48  C   UNL     1       2.089 -10.944  -3.270  1.00  0.00     0.029 A 
ATOM     49  C   UNL     1       2.457 -11.874  -4.332  1.00  0.00     0.049 A 
ATOM     50  H   UNL     1       4.351 -12.207  -5.134  1.00  0.00     0.167 HD
ATOM     51  C   UNL     1       8.431 -12.878  -6.594  1.00  0.00     0.031 A 
ATOM     52  C   UNL     1       1.604 -12.686  -4.982  1.00  0.00     0.031 A 
ATOM     53  C   UNL     1       7.604 -13.825  -7.301  1.00  0.00     0.049 A 
ATOM     54  C   UNL     1       2.140 -13.597  -6.047  1.00  0.00     0.074 A 
ATOM     55  C   UNL     1       7.984 -14.779  -8.229  1.00  0.00     0.029 A 
ATOM     56  N   UNL     1       6.226 -13.925  -7.169  1.00  0.00    -0.354 N 
ATOM     57  N   UNL     1       3.381 -13.776  -6.431  1.00  0.00    -0.248 NA
ATOM     58  C   UNL     1       1.159 -14.418  -6.767  1.00  0.00     0.031 C 
ATOM     59  C   UNL     1       6.829 -15.406  -8.710  1.00  0.00     0.029 A 
ATOM     60  C   UNL     1       5.736 -14.892  -8.032  1.00  0.00     0.049 A 
ATOM     61  H   UNL     1       5.678 -13.387  -6.552  1.00  0.00     0.167 HD
ATOM     62  C   UNL     1       3.333 -14.737  -7.430  1.00  0.00     0.074 A 
ATOM     63  C   UNL     1       1.943 -15.125  -7.570  1.00  0.00     0.031 C 
ATOM     64  C   UNL     1       4.346 -15.249  -8.170  1.00  0.00     0.031 A 
BRANCH  51  65
ATOM     65  C   UNL     1       9.902 -12.841  -6.918  1.00  0.00    -0.014 A 
ATOM     66  C   UNL     1      10.868 -13.276  -5.997  1.00  0.00     0.009 A 
ATOM     67  C   UNL     1      10.324 -12.415  -8.188  1.00  0.00     0.009 A 
ATOM     68  C   UNL     1      12.226 -13.254  -6.330  1.00  0.00     0.001 A 
ATOM     69  C   UNL     1      11.679 -12.421  -8.528  1.00  0.00     0.001 A 
ATOM     70  C   UNL     1      12.630 -12.831  -7.595  1.00  0.00     0.000 A 
ENDBRANCH  51  65
BRANCH  52  71
ATOM     71  C   UNL     1       0.154 -12.639  -4.662  1.00  0.00    -0.014 A 
ATOM     72  C   UNL     1      -0.488 -13.729  -4.057  1.00  0.00     0.009 A 
ATOM     73  C   UNL     1      -0.596 -11.487  -4.955  1.00  0.00     0.009 A 
ATOM     74  C   UNL     1      -1.855 -13.672  -3.771  1.00  0.00     0.001 A 
ATOM     75  C   UNL     1      -1.952 -11.421  -4.637  1.00  0.00     0.001 A 
ATOM     76  C   UNL     1      -2.583 -12.518  -4.054  1.00  0.00     0.000 A 
ENDBRANCH  52  71
BRANCH  64  77
ATOM     77  C   UNL     1       3.982 -16.289  -9.193  1.00  0.00    -0.014 A 
ATOM     78  C   UNL     1       3.284 -15.944 -10.361  1.00  0.00     0.009 A 
ATOM     79  C   UNL     1       4.368 -17.625  -9.001  1.00  0.00     0.009 A 
ATOM     80  C   UNL     1       2.949 -16.923 -11.299  1.00  0.00     0.001 A 
ATOM     81  C   UNL     1       4.061 -18.595  -9.955  1.00  0.00     0.001 A 
ATOM     82  C   UNL     1       3.344 -18.245 -11.098  1.00  0.00     0.000 A 
ENDBRANCH  64  77
ENDBRANCH  38  39
ENDBRANCH  31  33
ENDBRANCH  30  31
ENDBRANCH  29  30
ENDBRANCH  28  29
ENDBRANCH  27  28
ENDBRANCH   1  27
TORSDOF 19
