REMARK SMILES COc1cc(NS(=O)(=O)c2cc(C)c(C(=O)OCCOCCOC(=O)c3ccc(-c4c5nc(c(-c6ccccc6)c6ccc([nH]6)c(-c6ccccc6)c6nc(c(-c7ccccc7)c7ccc4[nH]7)C=C6)C=C5)cc3)s2)cc(OC)c1
REMARK SMILES IDX 19 1 18 2 17 3 15 4 16 5 14 6 10 7 11 8 74 9 12 10 13 11
REMARK SMILES IDX 7 12 8 13 9 14 6 15 5 17 3 18 4 19 79 20 76 21 75 22 2 23
REMARK SMILES IDX 1 24 77 25 78 26 20 27 21 28 22 29 23 30 24 31 25 32 26 33
REMARK SMILES IDX 27 34 73 35 28 36 72 37 29 38 30 39 31 40 66 41 32 42 71 43
REMARK SMILES IDX 65 44 67 45 33 46 70 47 64 48 63 49 34 51 56 52 41 53 55 54
REMARK SMILES IDX 42 55 45 56 54 57 68 58 43 59 44 60 53 62 69 63 46 64 35 65
REMARK SMILES IDX 36 66 40 67 37 68 39 69 38 70 57 71 58 72 62 73 59 74 61 75
REMARK SMILES IDX 60 76 47 77 48 78 52 79 49 80 51 81 50 82
REMARK H PARENT 6 16 67 50 45 61
REMARK Flexibility Score: inf
ROOT
ATOM      1  C   UNL     1      -3.596  -1.503   2.091  1.00  0.00     0.202 C 
ENDROOT
BRANCH   1   2
ATOM      2  C   UNL     1      -4.448  -1.726   0.836  1.00  0.00     0.261 C 
BRANCH   2   3
ATOM      3  O   UNL     1      -3.790  -1.314  -0.376  1.00  0.00    -0.459 OA
BRANCH   3   4
ATOM      4  C   UNL     1      -4.394  -0.305  -1.075  1.00  0.00     0.348 C 
ATOM      5  O   UNL     1      -5.451   0.219  -0.741  1.00  0.00    -0.245 OA
BRANCH   4   6
ATOM      6  C   UNL     1      -3.568   0.113  -2.202  1.00  0.00     0.116 A 
ATOM      7  C   UNL     1      -2.464   1.607  -3.855  1.00  0.00     0.141 A 
ATOM      8  C   UNL     1      -2.117   0.282  -4.018  1.00  0.00     0.038 A 
ATOM      9  S   UNL     1      -3.642   1.785  -2.639  1.00  0.00    -0.115 S 
ATOM     10  C   UNL     1      -2.676  -0.582  -3.014  1.00  0.00    -0.024 A 
ATOM     11  C   UNL     1      -2.305  -2.028  -2.935  1.00  0.00     0.046 C 
BRANCH   7  12
ATOM     12  S   UNL     1      -1.818   3.083  -4.614  1.00  0.00     0.271 S 
ATOM     13  O   UNL     1      -2.918   4.016  -4.722  1.00  0.00    -0.200 OA
ATOM     14  O   UNL     1      -1.122   2.618  -5.795  1.00  0.00    -0.200 OA
BRANCH  12  15
ATOM     15  N   UNL     1      -0.663   3.803  -3.585  1.00  0.00    -0.279 N 
ATOM     16  H   UNL     1      -0.781   4.727  -3.269  1.00  0.00     0.180 HD
BRANCH  15  17
ATOM     17  C   UNL     1       0.486   3.035  -3.187  1.00  0.00     0.056 A 
ATOM     18  C   UNL     1       1.452   1.175  -1.966  1.00  0.00     0.124 A 
ATOM     19  C   UNL     1       0.343   1.903  -2.388  1.00  0.00     0.073 A 
ATOM     20  C   UNL     1       2.730   1.608  -2.302  1.00  0.00     0.093 A 
ATOM     21  C   UNL     1       2.896   2.792  -3.022  1.00  0.00     0.124 A 
ATOM     22  C   UNL     1       1.772   3.488  -3.491  1.00  0.00     0.073 A 
BRANCH  18  23
ATOM     23  O   UNL     1       1.174   0.045  -1.246  1.00  0.00    -0.497 OA
ATOM     24  C   UNL     1       2.173  -0.320  -0.301  1.00  0.00     0.278 C 
ENDBRANCH  18  23
BRANCH  21  25
ATOM     25  O   UNL     1       4.111   3.351  -3.320  1.00  0.00    -0.497 OA
ATOM     26  C   UNL     1       5.210   2.910  -2.521  1.00  0.00     0.278 C 
ENDBRANCH  21  25
ENDBRANCH  15  17
ENDBRANCH  12  15
ENDBRANCH   7  12
ENDBRANCH   4   6
ENDBRANCH   3   4
ENDBRANCH   2   3
ENDBRANCH   1   2
BRANCH   1  27
ATOM     27  O   UNL     1      -3.272  -0.152   2.411  1.00  0.00    -0.374 OA
BRANCH  27  28
ATOM     28  C   UNL     1      -2.306   0.508   1.596  1.00  0.00     0.202 C 
BRANCH  28  29
ATOM     29  C   UNL     1      -0.859   0.030   1.745  1.00  0.00     0.261 C 
BRANCH  29  30
ATOM     30  O   UNL     1      -0.696  -1.352   1.369  1.00  0.00    -0.460 OA
BRANCH  30  31
ATOM     31  C   UNL     1       0.025  -2.094   2.244  1.00  0.00     0.338 C 
ATOM     32  O   UNL     1       0.622  -1.706   3.233  1.00  0.00    -0.246 OA
BRANCH  31  33
ATOM     33  C   UNL     1      -0.032  -3.519   1.881  1.00  0.00     0.060 A 
ATOM     34  C   UNL     1      -0.812  -4.377   2.662  1.00  0.00     0.016 A 
ATOM     35  C   UNL     1       0.807  -4.030   0.888  1.00  0.00     0.016 A 
ATOM     36  C   UNL     1      -0.727  -5.758   2.473  1.00  0.00     0.010 A 
ATOM     37  C   UNL     1       0.889  -5.413   0.700  1.00  0.00     0.010 A 
ATOM     38  C   UNL     1       0.147  -6.287   1.511  1.00  0.00    -0.014 A 
BRANCH  38  39
ATOM     39  C   UNL     1       0.340  -7.754   1.398  1.00  0.00     0.031 A 
ATOM     40  C   UNL     1       1.574  -8.399   1.968  1.00  0.00     0.074 A 
ATOM     41  C   UNL     1      -0.586  -8.511   0.782  1.00  0.00     0.049 A 
ATOM     42  N   UNL     1       1.931  -9.659   1.953  1.00  0.00    -0.248 NA
ATOM     43  C   UNL     1       2.533  -7.509   2.641  1.00  0.00     0.031 C 
ATOM     44  C   UNL     1      -1.832  -8.014   0.201  1.00  0.00     0.029 A 
ATOM     45  N   UNL     1      -0.614  -9.861   0.539  1.00  0.00    -0.354 N 
ATOM     46  C   UNL     1       3.155  -9.714   2.609  1.00  0.00     0.074 A 
ATOM     47  C   UNL     1       3.494  -8.357   2.982  1.00  0.00     0.031 C 
ATOM     48  C   UNL     1      -2.506  -9.047  -0.332  1.00  0.00     0.029 A 
ATOM     49  C   UNL     1      -1.725 -10.270  -0.157  1.00  0.00     0.049 A 
ATOM     50  H   UNL     1       0.094 -10.478   0.835  1.00  0.00     0.167 HD
ATOM     51  C   UNL     1       3.924 -10.796   2.883  1.00  0.00     0.031 A 
ATOM     52  C   UNL     1      -2.069 -11.488  -0.616  1.00  0.00     0.031 A 
ATOM     53  C   UNL     1       3.598 -12.146   2.503  1.00  0.00     0.049 A 
ATOM     54  C   UNL     1      -1.167 -12.663  -0.354  1.00  0.00     0.074 A 
ATOM     55  C   UNL     1       4.303 -13.309   2.763  1.00  0.00     0.029 A 
ATOM     56  N   UNL     1       2.478 -12.513   1.773  1.00  0.00    -0.354 N 
ATOM     57  N   UNL     1      -0.035 -12.706   0.305  1.00  0.00    -0.248 NA
ATOM     58  C   UNL     1      -1.599 -13.961  -0.894  1.00  0.00     0.031 C 
ATOM     59  C   UNL     1       3.637 -14.373   2.144  1.00  0.00     0.029 A 
ATOM     60  C   UNL     1       2.488 -13.880   1.549  1.00  0.00     0.049 A 
ATOM     61  H   UNL     1       1.780 -11.893   1.461  1.00  0.00     0.167 HD
ATOM     62  C   UNL     1       0.365 -14.036   0.284  1.00  0.00     0.074 A 
ATOM     63  C   UNL     1      -0.651 -14.769  -0.442  1.00  0.00     0.031 C 
ATOM     64  C   UNL     1       1.474 -14.599   0.823  1.00  0.00     0.031 A 
BRANCH  51  65
ATOM     65  C   UNL     1       5.217 -10.561   3.614  1.00  0.00    -0.014 A 
ATOM     66  C   UNL     1       5.232 -10.224   4.976  1.00  0.00     0.009 A 
ATOM     67  C   UNL     1       6.438 -10.726   2.942  1.00  0.00     0.009 A 
ATOM     68  C   UNL     1       6.444 -10.026   5.643  1.00  0.00     0.001 A 
ATOM     69  C   UNL     1       7.648 -10.553   3.616  1.00  0.00     0.001 A 
ATOM     70  C   UNL     1       7.650 -10.194   4.963  1.00  0.00     0.000 A 
ENDBRANCH  51  65
BRANCH  52  71
ATOM     71  C   UNL     1      -3.330 -11.661  -1.382  1.00  0.00    -0.014 A 
ATOM     72  C   UNL     1      -4.417 -12.348  -0.822  1.00  0.00     0.009 A 
ATOM     73  C   UNL     1      -3.447 -11.145  -2.682  1.00  0.00     0.009 A 
ATOM     74  C   UNL     1      -5.589 -12.536  -1.559  1.00  0.00     0.001 A 
ATOM     75  C   UNL     1      -4.630 -11.310  -3.405  1.00  0.00     0.001 A 
ATOM     76  C   UNL     1      -5.696 -12.013  -2.847  1.00  0.00     0.000 A 
ENDBRANCH  52  71
BRANCH  64  77
ATOM     77  C   UNL     1       1.631 -16.088   0.679  1.00  0.00    -0.014 A 
ATOM     78  C   UNL     1       1.964 -16.672  -0.553  1.00  0.00     0.009 A 
ATOM     79  C   UNL     1       1.478 -16.913   1.804  1.00  0.00     0.009 A 
ATOM     80  C   UNL     1       2.110 -18.057  -0.661  1.00  0.00     0.001 A 
ATOM     81  C   UNL     1       1.651 -18.294   1.699  1.00  0.00     0.001 A 
ATOM     82  C   UNL     1       1.958 -18.866   0.465  1.00  0.00     0.000 A 
ENDBRANCH  64  77
ENDBRANCH  38  39
ENDBRANCH  31  33
ENDBRANCH  30  31
ENDBRANCH  29  30
ENDBRANCH  28  29
ENDBRANCH  27  28
ENDBRANCH   1  27
TORSDOF 19
