REMARK SMILES O=C(NN1C(=O)/C(=C/c2ccc(C(=O)OCCOCCOC(=O)c3ccc(-c4c5nc(c(-c6ccccc6)c6ccc([nH]6)c(-c6ccccc6)c6nc(c(-c7ccccc7)c7ccc4[nH]7)C=C6)C=C5)cc3)cc2)SC1=S)c1ccc(Cl)cc1
REMARK SMILES IDX 17 1 16 2 15 3 13 4 14 5 12 6 9 7 10 8 73 9 11 10 72 11 8 12
REMARK SMILES IDX 4 13 5 14 75 15 6 16 7 17 74 18 76 19 3 20 1 21 2 22 77 24
REMARK SMILES IDX 78 25 83 26 79 27 82 28 80 29 81 30 18 31 19 32 20 33 21 34
REMARK SMILES IDX 22 35 23 36 24 37 25 38 71 39 26 40 70 41 27 42 28 43 29 44
REMARK SMILES IDX 64 45 30 46 69 47 63 48 65 49 31 50 68 51 62 52 61 53 32 55
REMARK SMILES IDX 54 56 39 57 53 58 40 59 43 60 52 61 66 62 41 63 42 64 51 66
REMARK SMILES IDX 67 67 44 68 33 69 34 70 38 71 35 72 37 73 36 74 55 75 56 76
REMARK SMILES IDX 60 77 57 78 59 79 58 80 45 81 46 82 50 83 47 84 49 85 48 86
REMARK H PARENT 3 23 65 54 43 65
REMARK Flexibility Score: inf
ROOT
ATOM      1  C   UNL     1      15.778   2.290   0.567  1.00  0.00     0.202 C 
ENDROOT
BRANCH   1   2
ATOM      2  C   UNL     1      14.911   1.318  -0.237  1.00  0.00     0.261 C 
BRANCH   2   3
ATOM      3  O   UNL     1      13.518   1.641  -0.102  1.00  0.00    -0.460 OA
BRANCH   3   4
ATOM      4  C   UNL     1      12.805   0.762   0.639  1.00  0.00     0.338 C 
ATOM      5  O   UNL     1      13.191  -0.317   1.064  1.00  0.00    -0.246 OA
BRANCH   4   6
ATOM      6  C   UNL     1      11.479   1.324   0.989  1.00  0.00     0.060 A 
ATOM      7  C   UNL     1       8.860   2.077   1.614  1.00  0.00    -0.024 A 
ATOM      8  C   UNL     1       9.552   1.193   2.447  1.00  0.00     0.009 A 
ATOM      9  C   UNL     1       9.532   2.687   0.545  1.00  0.00     0.009 A 
ATOM     10  C   UNL     1      10.854   0.814   2.132  1.00  0.00     0.016 A 
ATOM     11  C   UNL     1      10.837   2.301   0.221  1.00  0.00     0.016 A 
BRANCH   7  12
ATOM     12  C   UNL     1       7.413   2.212   1.826  1.00  0.00     0.029 C 
ATOM     13  N   UNL     1       4.339   1.402   0.107  1.00  0.00    -0.198 N 
ATOM     14  C   UNL     1       5.040   1.789   1.241  1.00  0.00     0.285 C 
ATOM     15  C   UNL     1       5.035   1.296  -1.082  1.00  0.00     0.168 C 
ATOM     16  O   UNL     1       4.569   2.042   2.341  1.00  0.00    -0.266 OA
ATOM     17  C   UNL     1       6.491   1.861   0.916  1.00  0.00     0.082 C 
ATOM     18  S   UNL     1       6.751   1.376  -0.722  1.00  0.00    -0.052 SA
ATOM     19  S   UNL     1       4.446   1.147  -2.634  1.00  0.00    -0.050 S 
BRANCH  13  20
ATOM     20  N   UNL     1       2.954   1.246   0.208  1.00  0.00    -0.255 N 
ATOM     21  O   UNL     1       1.054   0.007   0.196  1.00  0.00    -0.267 OA
ATOM     22  C   UNL     1       2.277   0.049   0.088  1.00  0.00     0.270 C 
ATOM     23  H   UNL     1       2.418   2.054   0.379  1.00  0.00     0.192 HD
BRANCH  22  24
ATOM     24  C   UNL     1       3.012  -1.192  -0.251  1.00  0.00     0.041 A 
ATOM     25  C   UNL     1       4.087  -1.651   0.518  1.00  0.00     0.015 A 
ATOM     26  C   UNL     1       2.608  -1.900  -1.391  1.00  0.00     0.015 A 
ATOM     27  C   UNL     1       4.797  -2.783   0.105  1.00  0.00     0.021 A 
ATOM     28  C   UNL     1       3.320  -3.029  -1.800  1.00  0.00     0.021 A 
ATOM     29  C   UNL     1       4.418  -3.458  -1.057  1.00  0.00     0.041 A 
ATOM     30  Cl  UNL     1       5.314  -4.832  -1.576  1.00  0.00    -0.084 Cl
ENDBRANCH  22  24
ENDBRANCH  13  20
ENDBRANCH   7  12
ENDBRANCH   4   6
ENDBRANCH   3   4
ENDBRANCH   2   3
ENDBRANCH   1   2
BRANCH   1  31
ATOM     31  O   UNL     1      15.586   2.277   1.981  1.00  0.00    -0.374 OA
BRANCH  31  32
ATOM     32  C   UNL     1      14.493   3.038   2.499  1.00  0.00     0.202 C 
BRANCH  32  33
ATOM     33  C   UNL     1      14.718   4.550   2.615  1.00  0.00     0.261 C 
BRANCH  33  34
ATOM     34  O   UNL     1      14.751   5.183   1.322  1.00  0.00    -0.460 OA
BRANCH  34  35
ATOM     35  C   UNL     1      15.963   5.646   0.940  1.00  0.00     0.338 C 
ATOM     36  O   UNL     1      16.997   5.654   1.592  1.00  0.00    -0.246 OA
BRANCH  35  37
ATOM     37  C   UNL     1      15.927   5.998  -0.491  1.00  0.00     0.060 A 
ATOM     38  C   UNL     1      16.902   5.438  -1.328  1.00  0.00     0.016 A 
ATOM     39  C   UNL     1      14.990   6.901  -0.997  1.00  0.00     0.016 A 
ATOM     40  C   UNL     1      16.969   5.808  -2.669  1.00  0.00     0.010 A 
ATOM     41  C   UNL     1      15.065   7.279  -2.340  1.00  0.00     0.010 A 
ATOM     42  C   UNL     1      16.071   6.757  -3.173  1.00  0.00    -0.014 A 
BRANCH  42  43
ATOM     43  C   UNL     1      16.254   7.309  -4.536  1.00  0.00     0.031 A 
ATOM     44  C   UNL     1      16.907   8.652  -4.696  1.00  0.00     0.074 A 
ATOM     45  C   UNL     1      15.816   6.636  -5.613  1.00  0.00     0.049 A 
ATOM     46  N   UNL     1      17.069   9.371  -5.777  1.00  0.00    -0.248 NA
ATOM     47  C   UNL     1      17.439   9.271  -3.472  1.00  0.00     0.031 C 
ATOM     48  C   UNL     1      15.197   5.312  -5.591  1.00  0.00     0.029 A 
ATOM     49  N   UNL     1      15.805   6.994  -6.938  1.00  0.00    -0.354 N 
ATOM     50  C   UNL     1      17.700  10.536  -5.361  1.00  0.00     0.074 A 
ATOM     51  C   UNL     1      17.876  10.435  -3.928  1.00  0.00     0.031 C 
ATOM     52  C   UNL     1      14.841   4.979  -6.843  1.00  0.00     0.029 A 
ATOM     53  C   UNL     1      15.174   6.080  -7.745  1.00  0.00     0.049 A 
ATOM     54  H   UNL     1      16.211   7.824  -7.277  1.00  0.00     0.167 HD
ATOM     55  C   UNL     1      18.093  11.597  -6.105  1.00  0.00     0.031 A 
ATOM     56  C   UNL     1      14.868   6.141  -9.055  1.00  0.00     0.031 A 
ATOM     57  C   UNL     1      17.908  11.700  -7.528  1.00  0.00     0.049 A 
ATOM     58  C   UNL     1      15.263   7.353  -9.853  1.00  0.00     0.074 A 
ATOM     59  C   UNL     1      18.305  12.717  -8.377  1.00  0.00     0.029 A 
ATOM     60  N   UNL     1      17.261  10.755  -8.308  1.00  0.00    -0.354 N 
ATOM     61  N   UNL     1      15.891   8.433  -9.457  1.00  0.00    -0.248 NA
ATOM     62  C   UNL     1      14.913   7.349 -11.281  1.00  0.00     0.031 C 
ATOM     63  C   UNL     1      17.846  12.415  -9.664  1.00  0.00     0.029 A 
ATOM     64  C   UNL     1      17.217  11.180  -9.625  1.00  0.00     0.049 A 
ATOM     65  H   UNL     1      16.887   9.906  -7.976  1.00  0.00     0.167 HD
ATOM     66  C   UNL     1      16.035   9.226 -10.590  1.00  0.00     0.074 A 
ATOM     67  C   UNL     1      15.436   8.497 -11.689  1.00  0.00     0.031 C 
ATOM     68  C   UNL     1      16.615  10.445 -10.708  1.00  0.00     0.031 A 
BRANCH  55  69
ATOM     69  C   UNL     1      18.718  12.754  -5.378  1.00  0.00    -0.014 A 
ATOM     70  C   UNL     1      20.005  12.665  -4.824  1.00  0.00     0.009 A 
ATOM     71  C   UNL     1      18.010  13.960  -5.261  1.00  0.00     0.009 A 
ATOM     72  C   UNL     1      20.552  13.749  -4.132  1.00  0.00     0.001 A 
ATOM     73  C   UNL     1      18.571  15.051  -4.595  1.00  0.00     0.001 A 
ATOM     74  C   UNL     1      19.836  14.941  -4.021  1.00  0.00     0.000 A 
ENDBRANCH  55  69
BRANCH  56  75
ATOM     75  C   UNL     1      14.115   5.026  -9.685  1.00  0.00    -0.014 A 
ATOM     76  C   UNL     1      14.743   4.154 -10.585  1.00  0.00     0.009 A 
ATOM     77  C   UNL     1      12.760   4.824  -9.376  1.00  0.00     0.009 A 
ATOM     78  C   UNL     1      14.025   3.112 -11.177  1.00  0.00     0.001 A 
ATOM     79  C   UNL     1      12.052   3.766  -9.948  1.00  0.00     0.001 A 
ATOM     80  C   UNL     1      12.683   2.915 -10.853  1.00  0.00     0.000 A 
ENDBRANCH  56  75
BRANCH  68  81
ATOM     81  C   UNL     1      16.666  11.057 -12.080  1.00  0.00    -0.014 A 
ATOM     82  C   UNL     1      15.518  11.591 -12.685  1.00  0.00     0.009 A 
ATOM     83  C   UNL     1      17.895  11.150 -12.752  1.00  0.00     0.009 A 
ATOM     84  C   UNL     1      15.597  12.182 -13.948  1.00  0.00     0.001 A 
ATOM     85  C   UNL     1      17.975  11.765 -14.002  1.00  0.00     0.001 A 
ATOM     86  C   UNL     1      16.825  12.273 -14.602  1.00  0.00     0.000 A 
ENDBRANCH  68  81
ENDBRANCH  42  43
ENDBRANCH  35  37
ENDBRANCH  34  35
ENDBRANCH  33  34
ENDBRANCH  32  33
ENDBRANCH  31  32
ENDBRANCH   1  31
TORSDOF 17
