REMARK SMILES CCc1cc(C(=O)N2CCO[C@@H](CC(=O)OCCOCCOC(=O)c3ccc(-c4c5nc(c(-c6ccccc6)c6ccc([nH]6)c(-c6ccccc6)c6nc(c(-c7ccccc7)c7ccc4[nH]7)C=C6)C=C5)cc3)C2)sc1C
REMARK SMILES IDX 18 1 17 2 16 3 14 4 15 5 13 6 12 7 8 8 9 9 73 10 10 11 11 12
REMARK SMILES IDX 6 13 7 14 5 15 3 16 4 17 75 18 74 19 76 20 2 21 1 22 19 23
REMARK SMILES IDX 20 24 21 25 22 26 23 27 24 28 25 29 26 30 72 31 27 32 71 33
REMARK SMILES IDX 28 34 29 35 30 36 65 37 31 38 70 39 64 40 66 41 32 42 69 43
REMARK SMILES IDX 63 44 62 45 33 47 55 48 40 49 54 50 41 51 44 52 53 53 67 54
REMARK SMILES IDX 42 55 43 56 52 58 68 59 45 60 34 61 35 62 39 63 36 64 38 65
REMARK SMILES IDX 37 66 56 67 57 68 61 69 58 70 60 71 59 72 46 73 47 74 51 75
REMARK SMILES IDX 48 76 50 77 49 78
REMARK H PARENT 66 46 44 57
REMARK Flexibility Score: inf
ROOT
ATOM      1  C   UNL     1       8.016   5.340   2.660  1.00  0.00     0.202 C 
ENDROOT
BRANCH   1   2
ATOM      2  C   UNL     1       8.964   5.365   1.460  1.00  0.00     0.261 C 
BRANCH   2   3
ATOM      3  O   UNL     1       8.368   4.739   0.304  1.00  0.00    -0.463 OA
BRANCH   3   4
ATOM      4  C   UNL     1       8.964   3.603  -0.139  1.00  0.00     0.308 C 
ATOM      5  O   UNL     1       9.948   3.082   0.368  1.00  0.00    -0.252 OA
BRANCH   4   6
ATOM      6  C   UNL     1       8.312   3.076  -1.390  1.00  0.00     0.156 C 
BRANCH   6   7
ATOM      7  C   UNL     1       6.817   2.779  -1.291  1.00  0.00     0.148 C 
ATOM      8  N   UNL     1       4.516   3.632  -1.528  1.00  0.00    -0.333 N 
ATOM      9  C   UNL     1       4.241   2.636  -2.559  1.00  0.00     0.148 C 
ATOM     10  C   UNL     1       5.921   4.033  -1.432  1.00  0.00     0.152 C 
ATOM     11  C   UNL     1       5.153   1.431  -2.368  1.00  0.00     0.182 C 
ATOM     12  O   UNL     1       6.529   1.837  -2.358  1.00  0.00    -0.374 OA
BRANCH   8  13
ATOM     13  C   UNL     1       3.518   4.449  -1.006  1.00  0.00     0.264 C 
ATOM     14  O   UNL     1       3.688   5.667  -0.959  1.00  0.00    -0.268 OA
BRANCH  13  15
ATOM     15  C   UNL     1       2.362   3.767  -0.422  1.00  0.00     0.093 A 
ATOM     16  C   UNL     1       0.964   2.143   0.584  1.00  0.00    -0.034 A 
ATOM     17  C   UNL     1       2.213   2.442  -0.059  1.00  0.00     0.029 A 
ATOM     18  C   UNL     1       0.250   3.312   0.801  1.00  0.00     0.005 A 
ATOM     19  S   UNL     1       0.972   4.659   0.023  1.00  0.00    -0.135 S 
ATOM     20  C   UNL     1      -0.998   3.533   1.595  1.00  0.00     0.056 C 
BRANCH  16  21
ATOM     21  C   UNL     1       0.557   0.763   1.031  1.00  0.00     0.033 C 
ATOM     22  C   UNL     1       0.919  -0.332   0.034  1.00  0.00     0.009 C 
ENDBRANCH  16  21
ENDBRANCH  13  15
ENDBRANCH   8  13
ENDBRANCH   6   7
ENDBRANCH   4   6
ENDBRANCH   3   4
ENDBRANCH   2   3
ENDBRANCH   1   2
BRANCH   1  23
ATOM     23  O   UNL     1       7.864   4.069   3.292  1.00  0.00    -0.374 OA
BRANCH  23  24
ATOM     24  C   UNL     1       6.965   3.152   2.674  1.00  0.00     0.202 C 
BRANCH  24  25
ATOM     25  C   UNL     1       5.483   3.344   3.019  1.00  0.00     0.261 C 
BRANCH  25  26
ATOM     26  O   UNL     1       4.976   4.595   2.524  1.00  0.00    -0.460 OA
BRANCH  26  27
ATOM     27  C   UNL     1       4.755   5.543   3.468  1.00  0.00     0.338 C 
ATOM     28  O   UNL     1       4.859   5.417   4.681  1.00  0.00    -0.246 OA
BRANCH  27  29
ATOM     29  C   UNL     1       4.524   6.849   2.823  1.00  0.00     0.060 A 
ATOM     30  C   UNL     1       5.251   7.957   3.269  1.00  0.00     0.016 A 
ATOM     31  C   UNL     1       3.585   6.996   1.806  1.00  0.00     0.016 A 
ATOM     32  C   UNL     1       5.016   9.216   2.712  1.00  0.00     0.010 A 
ATOM     33  C   UNL     1       3.362   8.250   1.232  1.00  0.00     0.010 A 
ATOM     34  C   UNL     1       4.052   9.376   1.705  1.00  0.00    -0.014 A 
BRANCH  34  35
ATOM     35  C   UNL     1       3.682  10.731   1.228  1.00  0.00     0.031 A 
ATOM     36  C   UNL     1       2.392  11.348   1.695  1.00  0.00     0.074 A 
ATOM     37  C   UNL     1       4.489  11.411   0.394  1.00  0.00     0.049 A 
ATOM     38  N   UNL     1       1.884  12.521   1.411  1.00  0.00    -0.248 NA
ATOM     39  C   UNL     1       1.561  10.536   2.599  1.00  0.00     0.031 C 
ATOM     40  C   UNL     1       5.765  10.928  -0.132  1.00  0.00     0.029 A 
ATOM     41  N   UNL     1       4.346  12.659  -0.161  1.00  0.00    -0.354 N 
ATOM     42  C   UNL     1       0.677  12.585   2.095  1.00  0.00     0.074 A 
ATOM     43  C   UNL     1       0.509  11.321   2.779  1.00  0.00     0.031 C 
ATOM     44  C   UNL     1       6.293  11.873  -0.929  1.00  0.00     0.029 A 
ATOM     45  C   UNL     1       5.379  13.012  -0.993  1.00  0.00     0.049 A 
ATOM     46  H   UNL     1       3.576  13.244   0.021  1.00  0.00     0.167 HD
ATOM     47  C   UNL     1      -0.209  13.607   2.161  1.00  0.00     0.031 A 
ATOM     48  C   UNL     1       5.561  14.122  -1.734  1.00  0.00     0.031 A 
ATOM     49  C   UNL     1      -0.054  14.861   1.474  1.00  0.00     0.049 A 
ATOM     50  C   UNL     1       4.530  15.218  -1.695  1.00  0.00     0.074 A 
ATOM     51  C   UNL     1      -0.878  15.973   1.514  1.00  0.00     0.029 A 
ATOM     52  N   UNL     1       0.987  15.164   0.612  1.00  0.00    -0.354 N 
ATOM     53  N   UNL     1       3.425  15.290  -0.994  1.00  0.00    -0.248 NA
ATOM     54  C   UNL     1       4.777  16.389  -2.550  1.00  0.00     0.031 C 
ATOM     55  C   UNL     1      -0.364  16.928   0.631  1.00  0.00     0.029 A 
ATOM     56  C   UNL     1       0.808  16.431   0.085  1.00  0.00     0.049 A 
ATOM     57  H   UNL     1       1.741  14.566   0.405  1.00  0.00     0.167 HD
ATOM     58  C   UNL     1       2.855  16.518  -1.307  1.00  0.00     0.074 A 
ATOM     59  C   UNL     1       3.747  17.167  -2.246  1.00  0.00     0.031 C 
ATOM     60  C   UNL     1       1.697  17.060  -0.858  1.00  0.00     0.031 A 
BRANCH  47  61
ATOM     61  C   UNL     1      -1.442  13.399   2.994  1.00  0.00    -0.014 A 
ATOM     62  C   UNL     1      -1.377  13.370   4.396  1.00  0.00     0.009 A 
ATOM     63  C   UNL     1      -2.691  13.263   2.369  1.00  0.00     0.009 A 
ATOM     64  C   UNL     1      -2.534  13.176   5.154  1.00  0.00     0.001 A 
ATOM     65  C   UNL     1      -3.850  13.096   3.130  1.00  0.00     0.001 A 
ATOM     66  C   UNL     1      -3.769  13.044   4.521  1.00  0.00     0.000 A 
ENDBRANCH  47  61
BRANCH  48  67
ATOM     67  C   UNL     1       6.767  14.254  -2.592  1.00  0.00    -0.014 A 
ATOM     68  C   UNL     1       7.776  15.174  -2.272  1.00  0.00     0.009 A 
ATOM     69  C   UNL     1       6.904  13.470  -3.749  1.00  0.00     0.009 A 
ATOM     70  C   UNL     1       8.889  15.322  -3.104  1.00  0.00     0.001 A 
ATOM     71  C   UNL     1       8.030  13.602  -4.565  1.00  0.00     0.001 A 
ATOM     72  C   UNL     1       9.016  14.533  -4.247  1.00  0.00     0.000 A 
ENDBRANCH  48  67
BRANCH  60  73
ATOM     73  C   UNL     1       1.334  18.427  -1.365  1.00  0.00    -0.014 A 
ATOM     74  C   UNL     1       0.884  18.617  -2.681  1.00  0.00     0.009 A 
ATOM     75  C   UNL     1       1.404  19.533  -0.503  1.00  0.00     0.009 A 
ATOM     76  C   UNL     1       0.540  19.893  -3.132  1.00  0.00     0.001 A 
ATOM     77  C   UNL     1       1.034  20.803  -0.948  1.00  0.00     0.001 A 
ATOM     78  C   UNL     1       0.611  20.983  -2.264  1.00  0.00     0.000 A 
ENDBRANCH  60  73
ENDBRANCH  34  35
ENDBRANCH  27  29
ENDBRANCH  26  27
ENDBRANCH  25  26
ENDBRANCH  24  25
ENDBRANCH  23  24
ENDBRANCH   1  23
TORSDOF 18
