REMARK SMILES Cc1cc(Br)cc2c1O[C@H](C(F)(F)F)C(C(=O)OCCOCCOC(=O)c1ccc(-c3c4nc(c(-c5ccccc5)c5ccc([nH]5)c(-c5ccccc5)c5nc(c(-c6ccccc6)c6ccc3[nH]6)C=C5)C=C4)cc1)=C2
REMARK SMILES IDX 22 1 21 2 20 3 19 4 18 5 16 6 17 7 15 8 1 9 2 10 3 11 8 12
REMARK SMILES IDX 4 13 7 14 9 15 5 16 6 17 75 18 10 19 11 20 12 21 13 22 14 23
REMARK SMILES IDX 23 24 24 25 25 26 26 27 27 28 28 29 74 30 29 31 73 32 30 33
REMARK SMILES IDX 31 34 32 35 67 36 33 37 72 38 66 39 68 40 34 41 71 42 65 43
REMARK SMILES IDX 64 44 35 46 57 47 42 48 56 49 43 50 46 51 55 52 69 53 44 54
REMARK SMILES IDX 45 55 54 57 70 58 47 59 36 60 37 61 41 62 38 63 40 64 39 65
REMARK SMILES IDX 58 66 59 67 63 68 60 69 62 70 61 71 48 72 49 73 53 74 50 75
REMARK SMILES IDX 52 76 51 77
REMARK H PARENT 68 45 46 56
REMARK Flexibility Score: inf
ROOT
ATOM      1  C   UNL     1      -0.441  -0.415   7.784  1.00  0.00     0.202 C 
ENDROOT
BRANCH   1   2
ATOM      2  O   UNL     1      -1.622  -0.552   8.577  1.00  0.00    -0.374 OA
BRANCH   2   3
ATOM      3  C   UNL     1      -2.442  -1.696   8.347  1.00  0.00     0.202 C 
BRANCH   3   4
ATOM      4  C   UNL     1      -3.383  -1.619   7.141  1.00  0.00     0.261 C 
BRANCH   4   5
ATOM      5  O   UNL     1      -2.652  -1.420   5.920  1.00  0.00    -0.460 OA
BRANCH   5   6
ATOM      6  C   UNL     1      -2.896  -0.242   5.301  1.00  0.00     0.338 C 
ATOM      7  O   UNL     1      -3.754   0.576   5.597  1.00  0.00    -0.246 OA
BRANCH   6   8
ATOM      8  C   UNL     1      -1.886  -0.006   4.253  1.00  0.00     0.087 C 
ATOM      9  C   UNL     1       1.126  -0.122   0.067  1.00  0.00     0.048 C 
ATOM     10  C   UNL     1       0.708   0.890   1.096  1.00  0.00    -0.007 A 
ATOM     11  C   UNL     1       1.121   2.222   0.924  1.00  0.00     0.023 A 
ATOM     12  C   UNL     1      -0.100   0.563   2.198  1.00  0.00     0.130 A 
ATOM     13  C   UNL     1       0.740   3.204   1.836  1.00  0.00     0.019 A 
ATOM     14  C   UNL     1      -0.504   1.562   3.091  1.00  0.00     0.019 A 
ATOM     15  O   UNL     1      -0.450  -0.750   2.354  1.00  0.00    -0.475 OA
ATOM     16  Br  UNL     1       1.302   4.991   1.587  1.00  0.00    -0.051 Br
ATOM     17  C   UNL     1      -0.071   2.881   2.918  1.00  0.00     0.027 A 
ATOM     18  C   UNL     1      -1.422   1.246   4.170  1.00  0.00     0.027 C 
ATOM     19  C   UNL     1      -1.450  -1.119   3.344  1.00  0.00     0.316 C 
BRANCH  19  20
ATOM     20  C   UNL     1      -2.627  -1.783   2.614  1.00  0.00     0.430 C 
ATOM     21  F   UNL     1      -2.196  -2.754   1.772  1.00  0.00    -0.167 F 
ATOM     22  F   UNL     1      -3.484  -2.377   3.478  1.00  0.00    -0.167 F 
ATOM     23  F   UNL     1      -3.337  -0.896   1.882  1.00  0.00    -0.167 F 
ENDBRANCH  19  20
ENDBRANCH   6   8
ENDBRANCH   5   6
ENDBRANCH   4   5
ENDBRANCH   3   4
ENDBRANCH   2   3
ENDBRANCH   1   2
BRANCH   1  24
ATOM     24  C   UNL     1       0.733  -1.335   8.139  1.00  0.00     0.261 C 
BRANCH  24  25
ATOM     25  O   UNL     1       0.456  -2.709   7.809  1.00  0.00    -0.460 OA
BRANCH  25  26
ATOM     26  C   UNL     1       0.412  -3.551   8.870  1.00  0.00     0.338 C 
ATOM     27  O   UNL     1       0.658  -3.288  10.038  1.00  0.00    -0.246 OA
BRANCH  26  28
ATOM     28  C   UNL     1      -0.163  -4.844   8.463  1.00  0.00     0.060 A 
ATOM     29  C   UNL     1      -1.304  -5.287   9.143  1.00  0.00     0.016 A 
ATOM     30  C   UNL     1       0.451  -5.649   7.503  1.00  0.00     0.016 A 
ATOM     31  C   UNL     1      -1.810  -6.562   8.900  1.00  0.00     0.010 A 
ATOM     32  C   UNL     1      -0.048  -6.936   7.269  1.00  0.00     0.010 A 
ATOM     33  C   UNL     1      -1.158  -7.409   7.993  1.00  0.00    -0.014 A 
BRANCH  33  34
ATOM     34  C   UNL     1      -1.550  -8.836   7.926  1.00  0.00     0.031 A 
ATOM     35  C   UNL     1      -0.777  -9.842   8.733  1.00  0.00     0.074 A 
ATOM     36  C   UNL     1      -2.613  -9.225   7.201  1.00  0.00     0.049 A 
ATOM     37  N   UNL     1      -0.953 -11.135   8.831  1.00  0.00    -0.248 NA
ATOM     38  C   UNL     1       0.335  -9.321   9.545  1.00  0.00     0.031 C 
ATOM     39  C   UNL     1      -3.478  -8.339   6.425  1.00  0.00     0.029 A 
ATOM     40  N   UNL     1      -3.148 -10.474   7.009  1.00  0.00    -0.354 N 
ATOM     41  C   UNL     1       0.020 -11.580   9.717  1.00  0.00     0.074 A 
ATOM     42  C   UNL     1       0.803 -10.428  10.105  1.00  0.00     0.031 C 
ATOM     43  C   UNL     1      -4.444  -9.073   5.845  1.00  0.00     0.029 A 
ATOM     44  C   UNL     1      -4.244 -10.481   6.183  1.00  0.00     0.049 A 
ATOM     45  H   UNL     1      -2.781 -11.287   7.425  1.00  0.00     0.167 HD
ATOM     46  C   UNL     1       0.237 -12.835  10.175  1.00  0.00     0.031 A 
ATOM     47  C   UNL     1      -4.994 -11.509   5.740  1.00  0.00     0.031 A 
ATOM     48  C   UNL     1      -0.527 -13.987   9.778  1.00  0.00     0.049 A 
ATOM     49  C   UNL     1      -4.667 -12.910   6.181  1.00  0.00     0.074 A 
ATOM     50  C   UNL     1      -0.378 -15.301  10.186  1.00  0.00     0.029 A 
ATOM     51  N   UNL     1      -1.580 -13.962   8.879  1.00  0.00    -0.354 N 
ATOM     52  N   UNL     1      -3.746 -13.317   7.022  1.00  0.00    -0.248 NA
ATOM     53  C   UNL     1      -5.482 -13.993   5.612  1.00  0.00     0.031 C 
ATOM     54  C   UNL     1      -1.309 -16.080   9.493  1.00  0.00     0.029 A 
ATOM     55  C   UNL     1      -2.073 -15.242   8.696  1.00  0.00     0.049 A 
ATOM     56  H   UNL     1      -1.926 -13.154   8.435  1.00  0.00     0.167 HD
ATOM     57  C   UNL     1      -3.885 -14.697   7.098  1.00  0.00     0.074 A 
ATOM     58  C   UNL     1      -4.987 -15.058   6.229  1.00  0.00     0.031 C 
ATOM     59  C   UNL     1      -3.165 -15.586   7.824  1.00  0.00     0.031 A 
BRANCH  46  60
ATOM     60  C   UNL     1       1.365 -13.034  11.146  1.00  0.00    -0.014 A 
ATOM     61  C   UNL     1       1.251 -12.617  12.481  1.00  0.00     0.009 A 
ATOM     62  C   UNL     1       2.533 -13.694  10.735  1.00  0.00     0.009 A 
ATOM     63  C   UNL     1       2.295 -12.840  13.381  1.00  0.00     0.001 A 
ATOM     64  C   UNL     1       3.565 -13.936  11.642  1.00  0.00     0.001 A 
ATOM     65  C   UNL     1       3.448 -13.504  12.963  1.00  0.00     0.000 A 
ENDBRANCH  46  60
BRANCH  47  66
ATOM     66  C   UNL     1      -6.128 -11.254   4.815  1.00  0.00    -0.014 A 
ATOM     67  C   UNL     1      -7.453 -11.405   5.252  1.00  0.00     0.009 A 
ATOM     68  C   UNL     1      -5.891 -10.859   3.489  1.00  0.00     0.009 A 
ATOM     69  C   UNL     1      -8.516 -11.180   4.374  1.00  0.00     0.001 A 
ATOM     70  C   UNL     1      -6.956 -10.611   2.621  1.00  0.00     0.001 A 
ATOM     71  C   UNL     1      -8.267 -10.778   3.062  1.00  0.00     0.000 A 
ENDBRANCH  47  66
BRANCH  59  72
ATOM     72  C   UNL     1      -3.548 -17.035   7.730  1.00  0.00    -0.014 A 
ATOM     73  C   UNL     1      -3.230 -17.796   6.595  1.00  0.00     0.009 A 
ATOM     74  C   UNL     1      -4.166 -17.665   8.822  1.00  0.00     0.009 A 
ATOM     75  C   UNL     1      -3.540 -19.157   6.549  1.00  0.00     0.001 A 
ATOM     76  C   UNL     1      -4.452 -19.031   8.783  1.00  0.00     0.001 A 
ATOM     77  C   UNL     1      -4.144 -19.774   7.645  1.00  0.00     0.000 A 
ENDBRANCH  59  72
ENDBRANCH  33  34
ENDBRANCH  26  28
ENDBRANCH  25  26
ENDBRANCH  24  25
ENDBRANCH   1  24
TORSDOF 15
