REMARK SMILES C[C@H]([NH2+]C1CC1)[C@H](C)C(=O)OCCOCCOC(=O)c1ccc(-c2c3nc(c(-c4ccccc4)c4ccc([nH]4)c(-c4ccccc4)c4nc(c(-c5ccccc5)c5ccc2[nH]5)C=C4)C=C3)cc1
REMARK SMILES IDX 13 1 12 2 11 3 9 4 10 5 7 6 8 7 2 8 1 9 3 10 4 13 5 14 6 15
REMARK SMILES IDX 14 16 15 17 16 18 17 19 18 20 19 21 20 22 21 23 67 24 22 25
REMARK SMILES IDX 66 26 23 27 24 28 25 29 60 30 26 31 65 32 59 33 61 34 27 35
REMARK SMILES IDX 64 36 58 37 57 38 28 40 50 41 35 42 49 43 36 44 39 45 48 46
REMARK SMILES IDX 62 47 37 48 38 49 47 51 63 52 40 53 29 54 30 55 34 56 31 57
REMARK SMILES IDX 33 58 32 59 51 60 52 61 56 62 53 63 55 64 54 65 41 66 42 67
REMARK SMILES IDX 46 68 43 69 45 70 44 71
REMARK H PARENT 3 11 3 12 61 39 39 50
REMARK Flexibility Score: inf
ROOT
ATOM      1  C   UNL     1      -2.059  -0.466  -5.778  1.00  0.00     0.202 C 
ENDROOT
BRANCH   1   2
ATOM      2  C   UNL     1      -2.682   0.412  -4.691  1.00  0.00     0.261 C 
BRANCH   2   3
ATOM      3  O   UNL     1      -1.794   0.566  -3.570  1.00  0.00    -0.463 OA
BRANCH   3   4
ATOM      4  C   UNL     1      -2.283   0.190  -2.355  1.00  0.00     0.314 C 
ATOM      5  O   UNL     1      -3.418  -0.223  -2.153  1.00  0.00    -0.252 OA
BRANCH   4   6
ATOM      6  C   UNL     1      -1.275   0.412  -1.239  1.00  0.00     0.154 C 
ATOM      7  C   UNL     1       0.185   0.328  -1.702  1.00  0.00     0.026 C 
BRANCH   6   8
ATOM      8  C   UNL     1      -1.644   1.711  -0.485  1.00  0.00     0.193 C 
ATOM      9  C   UNL     1      -1.702   2.941  -1.403  1.00  0.00     0.076 C 
BRANCH   8  10
ATOM     10  N   UNL     1      -0.682   1.923   0.612  1.00  0.00    -0.341 N 
ATOM     11  H   UNL     1       0.163   2.336   0.219  1.00  0.00     0.346 HD
ATOM     12  H   UNL     1      -0.520   1.009   1.036  1.00  0.00     0.346 HD
BRANCH  10  13
ATOM     13  C   UNL     1      -1.165   2.797   1.681  1.00  0.00     0.183 C 
ATOM     14  C   UNL     1      -0.148   3.431   2.592  1.00  0.00     0.071 C 
ATOM     15  C   UNL     1      -0.921   4.279   1.627  1.00  0.00     0.071 C 
ENDBRANCH  10  13
ENDBRANCH   8  10
ENDBRANCH   6   8
ENDBRANCH   4   6
ENDBRANCH   3   4
ENDBRANCH   2   3
ENDBRANCH   1   2
BRANCH   1  16
ATOM     16  O   UNL     1      -1.918  -1.849  -5.462  1.00  0.00    -0.374 OA
BRANCH  16  17
ATOM     17  C   UNL     1      -0.904  -2.215  -4.528  1.00  0.00     0.202 C 
BRANCH  17  18
ATOM     18  C   UNL     1       0.540  -2.175  -5.045  1.00  0.00     0.261 C 
BRANCH  18  19
ATOM     19  O   UNL     1       1.000  -0.835  -5.312  1.00  0.00    -0.460 OA
BRANCH  19  20
ATOM     20  C   UNL     1       1.275  -0.578  -6.611  1.00  0.00     0.338 C 
ATOM     21  O   UNL     1       1.207  -1.359  -7.555  1.00  0.00    -0.246 OA
BRANCH  20  22
ATOM     22  C   UNL     1       1.552   0.854  -6.815  1.00  0.00     0.060 A 
ATOM     23  C   UNL     1       0.791   1.535  -7.775  1.00  0.00     0.016 A 
ATOM     24  C   UNL     1       2.628   1.483  -6.186  1.00  0.00     0.016 A 
ATOM     25  C   UNL     1       1.140   2.831  -8.153  1.00  0.00     0.010 A 
ATOM     26  C   UNL     1       2.983   2.779  -6.575  1.00  0.00     0.010 A 
ATOM     27  C   UNL     1       2.268   3.442  -7.590  1.00  0.00    -0.014 A 
BRANCH  27  28
ATOM     28  C   UNL     1       2.812   4.685  -8.189  1.00  0.00     0.031 A 
ATOM     29  C   UNL     1       3.952   4.578  -9.166  1.00  0.00     0.074 A 
ATOM     30  C   UNL     1       2.292   5.889  -7.893  1.00  0.00     0.049 A 
ATOM     31  N   UNL     1       4.645   5.528  -9.741  1.00  0.00    -0.248 NA
ATOM     32  C   UNL     1       4.364   3.216  -9.547  1.00  0.00     0.031 C 
ATOM     33  C   UNL     1       1.142   6.128  -7.024  1.00  0.00     0.029 A 
ATOM     34  N   UNL     1       2.679   7.144  -8.294  1.00  0.00    -0.354 N 
ATOM     35  C   UNL     1       5.578   4.880 -10.542  1.00  0.00     0.074 A 
ATOM     36  C   UNL     1       5.378   3.458 -10.365  1.00  0.00     0.031 C 
ATOM     37  C   UNL     1       0.922   7.452  -6.949  1.00  0.00     0.029 A 
ATOM     38  C   UNL     1       1.939   8.153  -7.730  1.00  0.00     0.049 A 
ATOM     39  H   UNL     1       3.416   7.304  -8.927  1.00  0.00     0.167 HD
ATOM     40  C   UNL     1       6.517   5.419 -11.355  1.00  0.00     0.031 A 
ATOM     41  C   UNL     1       2.086   9.490  -7.812  1.00  0.00     0.031 A 
ATOM     42  C   UNL     1       6.731   6.830 -11.525  1.00  0.00     0.049 A 
ATOM     43  C   UNL     1       3.204  10.065  -8.642  1.00  0.00     0.074 A 
ATOM     44  C   UNL     1       7.673   7.472 -12.309  1.00  0.00     0.029 A 
ATOM     45  N   UNL     1       5.987   7.817 -10.900  1.00  0.00    -0.354 N 
ATOM     46  N   UNL     1       4.092   9.443  -9.379  1.00  0.00    -0.248 NA
ATOM     47  C   UNL     1       3.338  11.530  -8.650  1.00  0.00     0.031 C 
ATOM     48  C   UNL     1       7.525   8.851 -12.127  1.00  0.00     0.029 A 
ATOM     49  C   UNL     1       6.457   9.065 -11.271  1.00  0.00     0.049 A 
ATOM     50  H   UNL     1       5.235   7.656 -10.285  1.00  0.00     0.167 HD
ATOM     51  C   UNL     1       4.863  10.439  -9.966  1.00  0.00     0.074 A 
ATOM     52  C   UNL     1       4.338  11.706  -9.502  1.00  0.00     0.031 C 
ATOM     53  C   UNL     1       5.910  10.316 -10.817  1.00  0.00     0.031 A 
BRANCH  40  54
ATOM     54  C   UNL     1       7.410   4.470 -12.101  1.00  0.00    -0.014 A 
ATOM     55  C   UNL     1       6.936   3.744 -13.205  1.00  0.00     0.009 A 
ATOM     56  C   UNL     1       8.752   4.327 -11.717  1.00  0.00     0.009 A 
ATOM     57  C   UNL     1       7.784   2.873 -13.893  1.00  0.00     0.001 A 
ATOM     58  C   UNL     1       9.603   3.474 -12.421  1.00  0.00     0.001 A 
ATOM     59  C   UNL     1       9.116   2.742 -13.504  1.00  0.00     0.000 A 
ENDBRANCH  40  54
BRANCH  41  60
ATOM     60  C   UNL     1       1.172  10.392  -7.064  1.00  0.00    -0.014 A 
ATOM     61  C   UNL     1       0.251  11.201  -7.746  1.00  0.00     0.009 A 
ATOM     62  C   UNL     1       1.245  10.478  -5.665  1.00  0.00     0.009 A 
ATOM     63  C   UNL     1      -0.558  12.099  -7.045  1.00  0.00     0.001 A 
ATOM     64  C   UNL     1       0.416  11.356  -4.964  1.00  0.00     0.001 A 
ATOM     65  C   UNL     1      -0.476  12.173  -5.655  1.00  0.00     0.000 A 
ENDBRANCH  41  60
BRANCH  53  66
ATOM     66  C   UNL     1       6.519  11.578 -11.356  1.00  0.00    -0.014 A 
ATOM     67  C   UNL     1       7.352  12.384 -10.566  1.00  0.00     0.009 A 
ATOM     68  C   UNL     1       6.298  11.932 -12.697  1.00  0.00     0.009 A 
ATOM     69  C   UNL     1       7.934  13.534 -11.104  1.00  0.00     0.001 A 
ATOM     70  C   UNL     1       6.900  13.068 -13.238  1.00  0.00     0.001 A 
ATOM     71  C   UNL     1       7.712  13.872 -12.440  1.00  0.00     0.000 A 
ENDBRANCH  53  66
ENDBRANCH  27  28
ENDBRANCH  20  22
ENDBRANCH  19  20
ENDBRANCH  18  19
ENDBRANCH  17  18
ENDBRANCH  16  17
ENDBRANCH   1  16
TORSDOF 17
