REMARK SMILES CCc1cc(C)c2c(c1)C=C(C(=O)OCCOCCOC(=O)c1ccc(-c3c4nc(c(-c5ccccc5)c5ccc([nH]5)c(-c5ccccc5)c5nc(c(-c6ccccc6)c6ccc3[nH]6)C=C5)C=C4)cc1)[C@@H](C(F)(F)F)O2
REMARK SMILES IDX 18 1 17 2 16 3 15 4 14 5 12 6 13 7 11 8 3 9 4 10 9 11 5 12
REMARK SMILES IDX 8 13 6 14 7 15 10 16 76 17 71 18 2 19 1 20 72 21 73 22 74 23
REMARK SMILES IDX 75 24 19 25 20 26 21 27 22 28 23 29 24 30 70 31 25 32 69 33
REMARK SMILES IDX 26 34 27 35 28 36 63 37 29 38 68 39 62 40 64 41 30 42 67 43
REMARK SMILES IDX 61 44 60 45 31 47 53 48 38 49 52 50 39 51 42 52 51 53 65 54
REMARK SMILES IDX 40 55 41 56 50 58 66 59 43 60 32 61 33 62 37 63 34 64 36 65
REMARK SMILES IDX 35 66 54 67 55 68 59 69 56 70 58 71 57 72 44 73 45 74 49 75
REMARK SMILES IDX 46 76 48 77 47 78
REMARK H PARENT 64 46 42 57
REMARK Flexibility Score: inf
ROOT
ATOM      1  C   UNL     1       5.830   2.581  -5.611  1.00  0.00     0.202 C 
ENDROOT
BRANCH   1   2
ATOM      2  O   UNL     1       5.731   2.022  -6.924  1.00  0.00    -0.374 OA
BRANCH   2   3
ATOM      3  C   UNL     1       5.427   2.907  -7.998  1.00  0.00     0.202 C 
BRANCH   3   4
ATOM      4  C   UNL     1       3.954   3.283  -8.173  1.00  0.00     0.261 C 
BRANCH   4   5
ATOM      5  O   UNL     1       3.401   3.838  -6.970  1.00  0.00    -0.460 OA
BRANCH   5   6
ATOM      6  C   UNL     1       2.454   3.067  -6.386  1.00  0.00     0.338 C 
ATOM      7  O   UNL     1       1.943   2.059  -6.850  1.00  0.00    -0.246 OA
BRANCH   6   8
ATOM      8  C   UNL     1       2.186   3.545  -5.019  1.00  0.00     0.087 C 
ATOM      9  C   UNL     1       0.927   2.317  -0.538  1.00  0.00    -0.047 A 
ATOM     10  C   UNL     1       0.688   3.672  -0.255  1.00  0.00     0.011 A 
ATOM     11  C   UNL     1       1.430   1.986  -1.800  1.00  0.00     0.015 A 
ATOM     12  C   UNL     1       0.953   4.681  -1.199  1.00  0.00    -0.008 A 
ATOM     13  C   UNL     1       1.678   2.977  -2.757  1.00  0.00     0.018 A 
ATOM     14  C   UNL     1       0.652   6.115  -0.868  1.00  0.00     0.048 C 
ATOM     15  C   UNL     1       1.459   4.322  -2.456  1.00  0.00     0.130 A 
ATOM     16  C   UNL     1       2.087   2.586  -4.092  1.00  0.00     0.027 C 
ATOM     17  O   UNL     1       1.721   5.333  -3.341  1.00  0.00    -0.475 OA
ATOM     18  C   UNL     1       1.998   5.006  -4.733  1.00  0.00     0.316 C 
BRANCH   9  19
ATOM     19  C   UNL     1       0.570   1.283   0.506  1.00  0.00     0.032 C 
ATOM     20  C   UNL     1       0.990  -0.155   0.221  1.00  0.00     0.009 C 
ENDBRANCH   9  19
BRANCH  18  21
ATOM     21  C   UNL     1       0.906   5.642  -5.606  1.00  0.00     0.430 C 
ATOM     22  F   UNL     1       0.740   6.953  -5.306  1.00  0.00    -0.167 F 
ATOM     23  F   UNL     1       1.224   5.587  -6.922  1.00  0.00    -0.167 F 
ATOM     24  F   UNL     1      -0.291   5.034  -5.453  1.00  0.00    -0.167 F 
ENDBRANCH  18  21
ENDBRANCH   6   8
ENDBRANCH   5   6
ENDBRANCH   4   5
ENDBRANCH   3   4
ENDBRANCH   2   3
ENDBRANCH   1   2
BRANCH   1  25
ATOM     25  C   UNL     1       7.042   3.478  -5.335  1.00  0.00     0.261 C 
BRANCH  25  26
ATOM     26  O   UNL     1       6.914   4.755  -5.992  1.00  0.00    -0.460 OA
BRANCH  26  27
ATOM     27  C   UNL     1       7.910   5.053  -6.857  1.00  0.00     0.338 C 
ATOM     28  O   UNL     1       8.921   4.405  -7.086  1.00  0.00    -0.246 OA
BRANCH  27  29
ATOM     29  C   UNL     1       7.544   6.232  -7.654  1.00  0.00     0.060 A 
ATOM     30  C   UNL     1       7.342   6.060  -9.031  1.00  0.00     0.016 A 
ATOM     31  C   UNL     1       7.540   7.506  -7.084  1.00  0.00     0.016 A 
ATOM     32  C   UNL     1       7.183   7.171  -9.854  1.00  0.00     0.010 A 
ATOM     33  C   UNL     1       7.405   8.621  -7.915  1.00  0.00     0.010 A 
ATOM     34  C   UNL     1       7.269   8.457  -9.306  1.00  0.00    -0.014 A 
BRANCH  34  35
ATOM     35  C   UNL     1       7.414   9.624 -10.203  1.00  0.00     0.031 A 
ATOM     36  C   UNL     1       8.798  10.064 -10.594  1.00  0.00     0.074 A 
ATOM     37  C   UNL     1       6.337  10.267 -10.684  1.00  0.00     0.049 A 
ATOM     38  N   UNL     1       9.165  11.095 -11.309  1.00  0.00    -0.248 NA
ATOM     39  C   UNL     1       9.915   9.225 -10.124  1.00  0.00     0.031 C 
ATOM     40  C   UNL     1       4.947   9.889 -10.442  1.00  0.00     0.029 A 
ATOM     41  N   UNL     1       6.255  11.380 -11.480  1.00  0.00    -0.354 N 
ATOM     42  C   UNL     1      10.551  11.029 -11.376  1.00  0.00     0.074 A 
ATOM     43  C   UNL     1      10.963   9.868 -10.620  1.00  0.00     0.031 C 
ATOM     44  C   UNL     1       4.145  10.764 -11.074  1.00  0.00     0.029 A 
ATOM     45  C   UNL     1       4.966  11.779 -11.731  1.00  0.00     0.049 A 
ATOM     46  H   UNL     1       7.044  11.848 -11.838  1.00  0.00     0.167 HD
ATOM     47  C   UNL     1      11.404  11.863 -12.012  1.00  0.00     0.031 A 
ATOM     48  C   UNL     1       4.504  12.856 -12.394  1.00  0.00     0.031 A 
ATOM     49  C   UNL     1      11.001  13.031 -12.745  1.00  0.00     0.049 A 
ATOM     50  C   UNL     1       5.476  13.836 -12.990  1.00  0.00     0.074 A 
ATOM     51  C   UNL     1      11.797  13.945 -13.411  1.00  0.00     0.029 A 
ATOM     52  N   UNL     1       9.690  13.447 -12.901  1.00  0.00    -0.354 N 
ATOM     53  N   UNL     1       6.785  13.781 -13.023  1.00  0.00    -0.248 NA
ATOM     54  C   UNL     1       4.907  15.032 -13.629  1.00  0.00     0.031 C 
ATOM     55  C   UNL     1      10.968  14.942 -13.934  1.00  0.00     0.029 A 
ATOM     56  C   UNL     1       9.655  14.621 -13.630  1.00  0.00     0.049 A 
ATOM     57  H   UNL     1       8.901  12.977 -12.546  1.00  0.00     0.167 HD
ATOM     58  C   UNL     1       7.197  14.928 -13.688  1.00  0.00     0.074 A 
ATOM     59  C   UNL     1       5.998  15.655 -14.055  1.00  0.00     0.031 C 
ATOM     60  C   UNL     1       8.456  15.341 -13.970  1.00  0.00     0.031 A 
BRANCH  47  61
ATOM     61  C   UNL     1      12.869  11.559 -11.922  1.00  0.00    -0.014 A 
ATOM     62  C   UNL     1      13.446  10.557 -12.716  1.00  0.00     0.009 A 
ATOM     63  C   UNL     1      13.691  12.326 -11.083  1.00  0.00     0.009 A 
ATOM     64  C   UNL     1      14.822  10.322 -12.663  1.00  0.00     0.001 A 
ATOM     65  C   UNL     1      15.067  12.101 -11.044  1.00  0.00     0.001 A 
ATOM     66  C   UNL     1      15.631  11.098 -11.832  1.00  0.00     0.000 A 
ENDBRANCH  47  61
BRANCH  48  67
ATOM     67  C   UNL     1       3.041  13.078 -12.498  1.00  0.00    -0.014 A 
ATOM     68  C   UNL     1       2.371  12.840 -13.707  1.00  0.00     0.009 A 
ATOM     69  C   UNL     1       2.305  13.503 -11.381  1.00  0.00     0.009 A 
ATOM     70  C   UNL     1       0.989  13.027 -13.794  1.00  0.00     0.001 A 
ATOM     71  C   UNL     1       0.921  13.671 -11.468  1.00  0.00     0.001 A 
ATOM     72  C   UNL     1       0.265  13.435 -12.674  1.00  0.00     0.000 A 
ENDBRANCH  48  67
BRANCH  60  73
ATOM     73  C   UNL     1       8.617  16.639 -14.704  1.00  0.00    -0.014 A 
ATOM     74  C   UNL     1       8.485  17.863 -14.033  1.00  0.00     0.009 A 
ATOM     75  C   UNL     1       8.996  16.636 -16.055  1.00  0.00     0.009 A 
ATOM     76  C   UNL     1       8.722  19.063 -14.706  1.00  0.00     0.001 A 
ATOM     77  C   UNL     1       9.252  17.836 -16.720  1.00  0.00     0.001 A 
ATOM     78  C   UNL     1       9.111  19.048 -16.046  1.00  0.00     0.000 A 
ENDBRANCH  60  73
ENDBRANCH  34  35
ENDBRANCH  27  29
ENDBRANCH  26  27
ENDBRANCH  25  26
ENDBRANCH   1  25
TORSDOF 16
