REMARK SMILES NS(=O)(=O)c1ccc(-n2nc(C(=O)NCCCCCCCCCCC(=O)OCCOCCOC(=O)c3ccc(-c4c5nc(c(-c6ccccc6)c6ccc([nH]6)c(-c6ccccc6)c6nc(c(-c7ccccc7)c7ccc4[nH]7)C=C6)C=C5)cc3)cc2-c2ccccc2)cc1
REMARK SMILES IDX 23 1 22 2 21 3 20 4 19 5 18 6 17 7 16 8 15 9 14 10 12 11
REMARK SMILES IDX 13 12 11 14 9 15 10 16 85 17 84 18 8 19 5 20 6 21 93 22 7 23
REMARK SMILES IDX 92 24 2 25 3 26 4 27 1 28 86 31 87 32 91 33 88 34 90 35
REMARK SMILES IDX 89 36 24 37 25 38 26 39 27 40 28 41 29 42 30 43 31 44 32 45
REMARK SMILES IDX 33 46 34 47 35 48 36 49 37 50 83 51 38 52 82 53 39 54 40 55
REMARK SMILES IDX 41 56 76 57 42 58 81 59 75 60 77 61 43 62 80 63 74 64 73 65
REMARK SMILES IDX 44 67 66 68 51 69 65 70 52 71 55 72 64 73 78 74 53 75 54 76
REMARK SMILES IDX 63 78 79 79 56 80 45 81 46 82 50 83 47 84 49 85 48 86 67 87
REMARK SMILES IDX 68 88 72 89 69 90 71 91 70 92 57 93 58 94 62 95 59 96 61 97
REMARK SMILES IDX 60 98
REMARK H PARENT 14 13 1 29 1 30 77 66 55 77
REMARK Flexibility Score: inf
ROOT
ATOM      1  C   UNL     1       0.918 -13.129 -12.622  1.00  0.00     0.012 C 
ENDROOT
BRANCH   1   2
ATOM      2  C   UNL     1       2.273 -12.966 -11.932  1.00  0.00     0.001 C 
BRANCH   2   3
ATOM      3  C   UNL     1       2.736 -11.514 -11.865  1.00  0.00     0.000 C 
BRANCH   3   4
ATOM      4  C   UNL     1       1.867 -10.689 -10.914  1.00  0.00     0.000 C 
BRANCH   4   5
ATOM      5  C   UNL     1       1.940 -11.200  -9.472  1.00  0.00     0.000 C 
BRANCH   5   6
ATOM      6  C   UNL     1       3.377 -11.228  -8.938  1.00  0.00     0.000 C 
BRANCH   6   7
ATOM      7  C   UNL     1       4.011  -9.831  -8.863  1.00  0.00     0.002 C 
BRANCH   7   8
ATOM      8  C   UNL     1       3.182  -8.851  -8.030  1.00  0.00     0.021 C 
BRANCH   8   9
ATOM      9  C   UNL     1       3.015  -9.365  -6.606  1.00  0.00     0.116 C 
BRANCH   9  10
ATOM     10  N   UNL     1       4.118  -8.928  -5.790  1.00  0.00    -0.351 N 
ATOM     11  C   UNL     1       4.253  -7.913  -4.879  1.00  0.00     0.271 C 
ATOM     12  O   UNL     1       5.397  -7.742  -4.449  1.00  0.00    -0.267 OA
ATOM     13  H   UNL     1       4.935  -9.463  -5.911  1.00  0.00     0.163 HD
BRANCH  11  14
ATOM     14  C   UNL     1       3.098  -7.122  -4.406  1.00  0.00     0.151 A 
ATOM     15  N   UNL     1       2.043  -5.795  -3.087  1.00  0.00    -0.232 N 
ATOM     16  N   UNL     1       3.280  -6.172  -3.466  1.00  0.00    -0.162 NA
ATOM     17  C   UNL     1       1.056  -6.359  -3.867  1.00  0.00     0.075 A 
ATOM     18  C   UNL     1       1.730  -7.152  -4.764  1.00  0.00     0.065 A 
BRANCH  15  19
ATOM     19  C   UNL     1       1.855  -4.844  -2.067  1.00  0.00     0.065 A 
ATOM     20  C   UNL     1       1.163  -2.790  -0.360  1.00  0.00     0.082 A 
ATOM     21  C   UNL     1       0.521  -4.026  -0.239  1.00  0.00     0.024 A 
ATOM     22  C   UNL     1       2.180  -2.589  -1.303  1.00  0.00     0.024 A 
ATOM     23  C   UNL     1       0.863  -5.058  -1.103  1.00  0.00     0.030 A 
ATOM     24  C   UNL     1       2.552  -3.634  -2.145  1.00  0.00     0.030 A 
BRANCH  20  25
ATOM     25  S   UNL     1       0.614  -1.484   0.691  1.00  0.00     0.238 S 
ATOM     26  O   UNL     1       1.235  -1.646   1.977  1.00  0.00    -0.207 OA
ATOM     27  O   UNL     1      -0.819  -1.340   0.519  1.00  0.00    -0.207 OA
BRANCH  25  28
ATOM     28  N   UNL     1       1.276  -0.093   0.022  1.00  0.00    -0.225 NA
ATOM     29  H   UNL     1       1.001   0.716   0.580  1.00  0.00     0.137 HD
ATOM     30  H   UNL     1       0.935   0.020  -0.932  1.00  0.00     0.137 HD
ENDBRANCH  25  28
ENDBRANCH  20  25
ENDBRANCH  15  19
BRANCH  17  31
ATOM     31  C   UNL     1      -0.371  -6.065  -3.842  1.00  0.00     0.000 A 
ATOM     32  C   UNL     1      -0.837  -4.758  -4.023  1.00  0.00     0.010 A 
ATOM     33  C   UNL     1      -1.291  -7.109  -3.686  1.00  0.00     0.010 A 
ATOM     34  C   UNL     1      -2.205  -4.495  -4.021  1.00  0.00     0.001 A 
ATOM     35  C   UNL     1      -2.660  -6.845  -3.690  1.00  0.00     0.001 A 
ATOM     36  C   UNL     1      -3.115  -5.537  -3.854  1.00  0.00     0.000 A 
ENDBRANCH  17  31
ENDBRANCH  11  14
ENDBRANCH   9  10
ENDBRANCH   8   9
ENDBRANCH   7   8
ENDBRANCH   6   7
ENDBRANCH   5   6
ENDBRANCH   4   5
ENDBRANCH   3   4
ENDBRANCH   2   3
ENDBRANCH   1   2
BRANCH   1  37
ATOM     37  C   UNL     1       0.769 -12.434 -13.984  1.00  0.00     0.123 C 
BRANCH  37  38
ATOM     38  C   UNL     1       1.696 -12.857 -15.110  1.00  0.00     0.305 C 
ATOM     39  O   UNL     1       1.433 -12.660 -16.288  1.00  0.00    -0.252 OA
BRANCH  38  40
ATOM     40  O   UNL     1       2.808 -13.482 -14.659  1.00  0.00    -0.463 OA
BRANCH  40  41
ATOM     41  C   UNL     1       3.631 -14.156 -15.623  1.00  0.00     0.261 C 
BRANCH  41  42
ATOM     42  C   UNL     1       3.553 -15.669 -15.413  1.00  0.00     0.202 C 
BRANCH  42  43
ATOM     43  O   UNL     1       2.311 -16.297 -15.740  1.00  0.00    -0.374 OA
BRANCH  43  44
ATOM     44  C   UNL     1       1.210 -16.150 -14.849  1.00  0.00     0.202 C 
BRANCH  44  45
ATOM     45  C   UNL     1       1.223 -16.994 -13.583  1.00  0.00     0.261 C 
BRANCH  45  46
ATOM     46  O   UNL     1       2.280 -16.615 -12.710  1.00  0.00    -0.460 OA
BRANCH  46  47
ATOM     47  C   UNL     1       3.364 -17.424 -12.752  1.00  0.00     0.338 C 
ATOM     48  O   UNL     1       3.608 -18.294 -13.568  1.00  0.00    -0.246 OA
BRANCH  47  49
ATOM     49  C   UNL     1       4.139 -17.209 -11.525  1.00  0.00     0.060 A 
ATOM     50  C   UNL     1       5.113 -18.166 -11.246  1.00  0.00     0.016 A 
ATOM     51  C   UNL     1       3.679 -16.311 -10.550  1.00  0.00     0.016 A 
ATOM     52  C   UNL     1       5.409 -18.411  -9.927  1.00  0.00     0.010 A 
ATOM     53  C   UNL     1       3.976 -16.553  -9.234  1.00  0.00     0.010 A 
ATOM     54  C   UNL     1       4.744 -17.672  -8.940  1.00  0.00    -0.014 A 
BRANCH  54  55
ATOM     55  C   UNL     1       4.979 -18.025  -7.560  1.00  0.00     0.031 A 
ATOM     56  C   UNL     1       6.331 -17.614  -7.139  1.00  0.00     0.074 A 
ATOM     57  C   UNL     1       4.040 -18.585  -6.774  1.00  0.00     0.049 A 
ATOM     58  N   UNL     1       7.368 -18.372  -7.017  1.00  0.00    -0.248 NA
ATOM     59  C   UNL     1       6.627 -16.171  -7.115  1.00  0.00     0.031 C 
ATOM     60  C   UNL     1       2.610 -18.766  -7.045  1.00  0.00     0.029 A 
ATOM     61  N   UNL     1       4.162 -19.041  -5.501  1.00  0.00    -0.354 N 
ATOM     62  C   UNL     1       8.396 -17.515  -6.648  1.00  0.00     0.074 A 
ATOM     63  C   UNL     1       7.953 -16.188  -6.981  1.00  0.00     0.031 C 
ATOM     64  C   UNL     1       1.969 -19.059  -5.887  1.00  0.00     0.029 A 
ATOM     65  C   UNL     1       2.957 -19.231  -4.835  1.00  0.00     0.049 A 
ATOM     66  H   UNL     1       5.034 -19.222  -5.082  1.00  0.00     0.167 HD
ATOM     67  C   UNL     1       9.341 -17.928  -5.760  1.00  0.00     0.031 A 
ATOM     68  C   UNL     1       2.802 -19.456  -3.505  1.00  0.00     0.031 A 
ATOM     69  C   UNL     1       9.350 -19.369  -5.650  1.00  0.00     0.049 A 
ATOM     70  C   UNL     1       4.112 -19.907  -2.981  1.00  0.00     0.074 A 
ATOM     71  C   UNL     1       9.597 -20.426  -6.499  1.00  0.00     0.029 A 
ATOM     72  N   UNL     1       8.648 -19.880  -4.585  1.00  0.00    -0.354 N 
ATOM     73  N   UNL     1       4.657 -21.046  -3.300  1.00  0.00    -0.248 NA
ATOM     74  C   UNL     1       5.028 -18.897  -2.474  1.00  0.00     0.031 C 
ATOM     75  C   UNL     1       8.693 -21.453  -6.094  1.00  0.00     0.029 A 
ATOM     76  C   UNL     1       7.987 -21.010  -4.973  1.00  0.00     0.049 A 
ATOM     77  H   UNL     1       8.625 -19.491  -3.681  1.00  0.00     0.167 HD
ATOM     78  C   UNL     1       6.004 -20.758  -3.467  1.00  0.00     0.074 A 
ATOM     79  C   UNL     1       6.189 -19.450  -2.837  1.00  0.00     0.031 C 
ATOM     80  C   UNL     1       6.762 -21.471  -4.353  1.00  0.00     0.031 A 
BRANCH  67  81
ATOM     81  C   UNL     1       9.805 -17.046  -4.616  1.00  0.00    -0.014 A 
ATOM     82  C   UNL     1      10.675 -17.607  -3.665  1.00  0.00     0.009 A 
ATOM     83  C   UNL     1       9.195 -15.826  -4.261  1.00  0.00     0.009 A 
ATOM     84  C   UNL     1      10.829 -17.041  -2.394  1.00  0.00     0.001 A 
ATOM     85  C   UNL     1       9.375 -15.238  -3.007  1.00  0.00     0.001 A 
ATOM     86  C   UNL     1      10.167 -15.865  -2.061  1.00  0.00     0.000 A 
ENDBRANCH  67  81
BRANCH  68  87
ATOM     87  C   UNL     1       1.725 -18.991  -2.600  1.00  0.00    -0.014 A 
ATOM     88  C   UNL     1       1.521 -19.585  -1.343  1.00  0.00     0.009 A 
ATOM     89  C   UNL     1       1.082 -17.764  -2.851  1.00  0.00     0.009 A 
ATOM     90  C   UNL     1       0.726 -18.963  -0.368  1.00  0.00     0.001 A 
ATOM     91  C   UNL     1       0.292 -17.142  -1.878  1.00  0.00     0.001 A 
ATOM     92  C   UNL     1       0.122 -17.735  -0.632  1.00  0.00     0.000 A 
ENDBRANCH  68  87
BRANCH  80  93
ATOM     93  C   UNL     1       6.193 -22.764  -4.883  1.00  0.00    -0.014 A 
ATOM     94  C   UNL     1       5.044 -22.847  -5.688  1.00  0.00     0.009 A 
ATOM     95  C   UNL     1       6.943 -23.930  -4.667  1.00  0.00     0.009 A 
ATOM     96  C   UNL     1       4.651 -24.071  -6.243  1.00  0.00     0.001 A 
ATOM     97  C   UNL     1       6.563 -25.145  -5.238  1.00  0.00     0.001 A 
ATOM     98  C   UNL     1       5.415 -25.217  -6.022  1.00  0.00     0.000 A 
ENDBRANCH  80  93
ENDBRANCH  54  55
ENDBRANCH  47  49
ENDBRANCH  46  47
ENDBRANCH  45  46
ENDBRANCH  44  45
ENDBRANCH  43  44
ENDBRANCH  42  43
ENDBRANCH  41  42
ENDBRANCH  40  41
ENDBRANCH  38  40
ENDBRANCH  37  38
ENDBRANCH   1  37
TORSDOF 29
