REMARK SMILES COc1ccc(-c2nc(NCC(=O)OCCOCCOC(=O)c3ccc(-c4c5nc(c(-c6ccccc6)c6ccc([nH]6)c(-c6ccccc6)c6nc(c(-c7ccccc7)c7ccc4[nH]7)C=C6)C=C5)cc3)sc2-c2ccc(OC)cc2)cc1
REMARK SMILES IDX 16 1 15 2 14 3 12 4 13 5 11 6 10 7 9 9 7 10 8 11 72 12 71 13
REMARK SMILES IDX 6 14 3 15 4 16 82 17 5 18 81 19 2 20 1 21 73 22 74 23 80 24
REMARK SMILES IDX 75 25 79 26 76 27 77 28 78 29 17 30 18 31 19 32 20 33 21 34
REMARK SMILES IDX 22 35 23 36 24 37 70 38 25 39 69 40 26 41 27 42 28 43 63 44
REMARK SMILES IDX 29 45 68 46 62 47 64 48 30 49 67 50 61 51 60 52 31 54 53 55
REMARK SMILES IDX 38 56 52 57 39 58 42 59 51 60 65 61 40 62 41 63 50 65 66 66
REMARK SMILES IDX 43 67 32 68 33 69 37 70 34 71 36 72 35 73 54 74 55 75 59 76
REMARK SMILES IDX 56 77 58 78 57 79 44 80 45 81 49 82 46 83 48 84 47 85
REMARK H PARENT 10 8 64 53 42 64
REMARK Flexibility Score: inf
ROOT
ATOM      1  C   UNL     1       7.994  10.680  -0.700  1.00  0.00     0.202 C 
ENDROOT
BRANCH   1   2
ATOM      2  C   UNL     1       6.747  11.277  -0.041  1.00  0.00     0.261 C 
BRANCH   2   3
ATOM      3  O   UNL     1       5.576  10.589  -0.509  1.00  0.00    -0.462 OA
BRANCH   3   4
ATOM      4  C   UNL     1       4.536  11.377  -0.894  1.00  0.00     0.325 C 
ATOM      5  O   UNL     1       4.448  12.578  -0.657  1.00  0.00    -0.250 OA
BRANCH   4   6
ATOM      6  C   UNL     1       3.546  10.645  -1.796  1.00  0.00     0.238 C 
BRANCH   6   7
ATOM      7  N   UNL     1       3.682   9.193  -1.813  1.00  0.00    -0.351 N 
ATOM      8  H   UNL     1       4.452   8.812  -2.294  1.00  0.00     0.163 HD
BRANCH   7   9
ATOM      9  C   UNL     1       2.829   8.336  -1.219  1.00  0.00     0.184 A 
ATOM     10  C   UNL     1       1.805   6.406  -0.841  1.00  0.00     0.091 A 
ATOM     11  N   UNL     1       2.828   7.055  -1.515  1.00  0.00    -0.220 NA
ATOM     12  C   UNL     1       1.093   7.194   0.050  1.00  0.00     0.064 A 
ATOM     13  S   UNL     1       1.682   8.798  -0.025  1.00  0.00    -0.096 S 
BRANCH  10  14
ATOM     14  C   UNL     1       1.538   4.988  -1.037  1.00  0.00     0.002 A 
ATOM     15  C   UNL     1       0.949   2.248  -1.152  1.00  0.00     0.118 A 
ATOM     16  C   UNL     1      -0.026   3.186  -1.485  1.00  0.00     0.047 A 
ATOM     17  C   UNL     1       2.240   2.673  -0.831  1.00  0.00     0.047 A 
ATOM     18  C   UNL     1       0.263   4.551  -1.422  1.00  0.00     0.014 A 
ATOM     19  C   UNL     1       2.535   4.041  -0.779  1.00  0.00     0.014 A 
BRANCH  15  20
ATOM     20  O   UNL     1       0.560   0.937  -1.209  1.00  0.00    -0.497 OA
ATOM     21  C   UNL     1       1.081   0.128  -0.159  1.00  0.00     0.278 C 
ENDBRANCH  15  20
ENDBRANCH  10  14
BRANCH  12  22
ATOM     22  C   UNL     1       0.038   6.861   1.004  1.00  0.00    -0.006 A 
ATOM     23  C   UNL     1      -1.206   7.498   0.956  1.00  0.00     0.013 A 
ATOM     24  C   UNL     1       0.267   5.890   1.986  1.00  0.00     0.013 A 
ATOM     25  C   UNL     1      -2.197   7.171   1.884  1.00  0.00     0.047 A 
ATOM     26  C   UNL     1      -0.727   5.564   2.912  1.00  0.00     0.047 A 
ATOM     27  C   UNL     1      -1.964   6.207   2.866  1.00  0.00     0.118 A 
BRANCH  27  28
ATOM     28  O   UNL     1      -3.013   5.988   3.715  1.00  0.00    -0.497 OA
ATOM     29  C   UNL     1      -2.828   4.992   4.713  1.00  0.00     0.278 C 
ENDBRANCH  27  28
ENDBRANCH  12  22
ENDBRANCH   7   9
ENDBRANCH   6   7
ENDBRANCH   4   6
ENDBRANCH   3   4
ENDBRANCH   2   3
ENDBRANCH   1   2
BRANCH   1  30
ATOM     30  O   UNL     1       8.113  10.902  -2.108  1.00  0.00    -0.374 OA
BRANCH  30  31
ATOM     31  C   UNL     1       7.258  10.153  -2.970  1.00  0.00     0.202 C 
BRANCH  31  32
ATOM     32  C   UNL     1       7.655   8.695  -3.230  1.00  0.00     0.261 C 
BRANCH  32  33
ATOM     33  O   UNL     1       7.673   7.904  -2.028  1.00  0.00    -0.460 OA
BRANCH  33  34
ATOM     34  C   UNL     1       8.904   7.483  -1.656  1.00  0.00     0.338 C 
ATOM     35  O   UNL     1       9.953   7.631  -2.274  1.00  0.00    -0.246 OA
BRANCH  34  36
ATOM     36  C   UNL     1       8.887   6.929  -0.290  1.00  0.00     0.060 A 
ATOM     37  C   UNL     1       9.860   7.405   0.597  1.00  0.00     0.016 A 
ATOM     38  C   UNL     1       8.024   5.900   0.094  1.00  0.00     0.016 A 
ATOM     39  C   UNL     1      10.019   6.810   1.845  1.00  0.00     0.010 A 
ATOM     40  C   UNL     1       8.188   5.298   1.350  1.00  0.00     0.010 A 
ATOM     41  C   UNL     1       9.215   5.722   2.213  1.00  0.00    -0.014 A 
BRANCH  41  42
ATOM     42  C   UNL     1       9.571   4.963   3.439  1.00  0.00     0.031 A 
ATOM     43  C   UNL     1      10.400   3.711   3.316  1.00  0.00     0.074 A 
ATOM     44  C   UNL     1       9.258   5.441   4.657  1.00  0.00     0.049 A 
ATOM     45  N   UNL     1      10.921   2.967   4.259  1.00  0.00    -0.248 NA
ATOM     46  C   UNL     1      10.688   3.243   1.950  1.00  0.00     0.031 C 
ATOM     47  C   UNL     1       8.498   6.663   4.918  1.00  0.00     0.029 A 
ATOM     48  N   UNL     1       9.566   4.961   5.906  1.00  0.00    -0.354 N 
ATOM     49  C   UNL     1      11.613   1.956   3.602  1.00  0.00     0.074 A 
ATOM     50  C   UNL     1      11.409   2.155   2.184  1.00  0.00     0.031 C 
ATOM     51  C   UNL     1       8.415   6.847   6.248  1.00  0.00     0.029 A 
ATOM     52  C   UNL     1       9.100   5.751   6.928  1.00  0.00     0.049 A 
ATOM     53  H   UNL     1      10.073   4.130   6.054  1.00  0.00     0.167 HD
ATOM     54  C   UNL     1      12.368   0.961   4.128  1.00  0.00     0.031 A 
ATOM     55  C   UNL     1       9.219   5.609   8.262  1.00  0.00     0.031 A 
ATOM     56  C   UNL     1      12.562   0.740   5.536  1.00  0.00     0.049 A 
ATOM     57  C   UNL     1      10.000   4.449   8.820  1.00  0.00     0.074 A 
ATOM     58  C   UNL     1      13.291  -0.258   6.161  1.00  0.00     0.029 A 
ATOM     59  N   UNL     1      12.022   1.529   6.538  1.00  0.00    -0.354 N 
ATOM     60  N   UNL     1      10.662   3.513   8.185  1.00  0.00    -0.248 NA
ATOM     61  C   UNL     1      10.062   4.341  10.286  1.00  0.00     0.031 C 
ATOM     62  C   UNL     1      13.162  -0.093   7.545  1.00  0.00     0.029 A 
ATOM     63  C   UNL     1      12.392   1.034   7.778  1.00  0.00     0.049 A 
ATOM     64  H   UNL     1      11.460   2.323   6.391  1.00  0.00     0.167 HD
ATOM     65  C   UNL     1      11.243   2.725   9.172  1.00  0.00     0.074 A 
ATOM     66  C   UNL     1      10.871   3.304  10.446  1.00  0.00     0.031 C 
ATOM     67  C   UNL     1      12.017   1.621   9.036  1.00  0.00     0.031 A 
BRANCH  54  68
ATOM     68  C   UNL     1      13.038   0.024   3.164  1.00  0.00    -0.014 A 
ATOM     69  C   UNL     1      14.162   0.431   2.427  1.00  0.00     0.009 A 
ATOM     70  C   UNL     1      12.571  -1.292   3.024  1.00  0.00     0.009 A 
ATOM     71  C   UNL     1      14.790  -0.455   1.550  1.00  0.00     0.001 A 
ATOM     72  C   UNL     1      13.215  -2.182   2.162  1.00  0.00     0.001 A 
ATOM     73  C   UNL     1      14.319  -1.762   1.421  1.00  0.00     0.000 A 
ENDBRANCH  54  68
BRANCH  55  74
ATOM     74  C   UNL     1       8.587   6.590   9.183  1.00  0.00    -0.014 A 
ATOM     75  C   UNL     1       9.373   7.455   9.959  1.00  0.00     0.009 A 
ATOM     76  C   UNL     1       7.192   6.624   9.330  1.00  0.00     0.009 A 
ATOM     77  C   UNL     1       8.777   8.309  10.890  1.00  0.00     0.001 A 
ATOM     78  C   UNL     1       6.597   7.498  10.241  1.00  0.00     0.001 A 
ATOM     79  C   UNL     1       7.390   8.331  11.029  1.00  0.00     0.000 A 
ENDBRANCH  55  74
BRANCH  67  80
ATOM     80  C   UNL     1      12.543   0.996  10.298  1.00  0.00    -0.014 A 
ATOM     81  C   UNL     1      11.700   0.286  11.166  1.00  0.00     0.009 A 
ATOM     82  C   UNL     1      13.905   1.113  10.616  1.00  0.00     0.009 A 
ATOM     83  C   UNL     1      12.203  -0.257  12.351  1.00  0.00     0.001 A 
ATOM     84  C   UNL     1      14.411   0.545  11.786  1.00  0.00     0.001 A 
ATOM     85  C   UNL     1      13.557  -0.128  12.659  1.00  0.00     0.000 A 
ENDBRANCH  67  80
ENDBRANCH  41  42
ENDBRANCH  34  36
ENDBRANCH  33  34
ENDBRANCH  32  33
ENDBRANCH  31  32
ENDBRANCH  30  31
ENDBRANCH   1  30
TORSDOF 20
