REMARK SMILES Cc1cc(C)cc(OCC(=O)Nc2ccc(O)cc2C(=O)OCCOCCOC(=O)c2ccc(-c3c4nc(c(-c5ccccc5)c5ccc([nH]5)c(-c5ccccc5)c5nc(c(-c6ccccc6)c6ccc3[nH]6)C=C5)C=C4)cc2)c1
REMARK SMILES IDX 24 1 23 2 22 3 20 4 21 5 19 6 13 7 14 8 15 9 18 10 16 11
REMARK SMILES IDX 12 12 10 13 11 14 9 16 8 17 7 18 1 19 2 20 3 21 79 22 4 23
REMARK SMILES IDX 5 24 6 25 17 26 25 28 26 29 27 30 28 31 29 32 30 33 31 34
REMARK SMILES IDX 32 35 78 36 33 37 77 38 34 39 35 40 36 41 71 42 37 43 76 44
REMARK SMILES IDX 70 45 72 46 38 47 75 48 69 49 68 50 39 52 61 53 46 54 60 55
REMARK SMILES IDX 47 56 50 57 59 58 73 59 48 60 49 61 58 63 74 64 51 65 40 66
REMARK SMILES IDX 41 67 45 68 42 69 44 70 43 71 62 72 63 73 67 74 64 75 66 76
REMARK SMILES IDX 65 77 52 78 53 79 57 80 54 81 56 82 55 83
REMARK H PARENT 12 15 17 27 72 51 50 62
REMARK Flexibility Score: inf
ROOT
ATOM      1  C   UNL     1       3.314  -6.879  -5.368  1.00  0.00     0.202 C 
ENDROOT
BRANCH   1   2
ATOM      2  C   UNL     1       2.697  -5.575  -5.880  1.00  0.00     0.261 C 
BRANCH   2   3
ATOM      3  O   UNL     1       1.776  -5.042  -4.909  1.00  0.00    -0.460 OA
BRANCH   3   4
ATOM      4  C   UNL     1       0.488  -4.967  -5.320  1.00  0.00     0.340 C 
ATOM      5  O   UNL     1       0.098  -5.097  -6.472  1.00  0.00    -0.246 OA
BRANCH   4   6
ATOM      6  C   UNL     1      -0.449  -4.849  -4.168  1.00  0.00     0.087 A 
ATOM      7  C   UNL     1      -0.158  -4.255  -2.917  1.00  0.00     0.056 A 
ATOM      8  C   UNL     1      -1.204  -4.162  -1.994  1.00  0.00     0.031 A 
ATOM      9  C   UNL     1      -2.461  -4.726  -2.231  1.00  0.00     0.048 A 
ATOM     10  C   UNL     1      -1.707  -5.443  -4.390  1.00  0.00     0.064 A 
ATOM     11  C   UNL     1      -2.690  -5.396  -3.417  1.00  0.00     0.116 A 
BRANCH   7  12
ATOM     12  N   UNL     1       1.130  -3.750  -2.642  1.00  0.00    -0.322 N 
ATOM     13  C   UNL     1       1.799  -3.413  -1.498  1.00  0.00     0.262 C 
ATOM     14  O   UNL     1       2.946  -2.962  -1.633  1.00  0.00    -0.271 OA
ATOM     15  H   UNL     1       1.667  -3.608  -3.454  1.00  0.00     0.170 HD
BRANCH  13  16
ATOM     16  C   UNL     1       1.266  -3.704  -0.077  1.00  0.00     0.329 C 
BRANCH  16  17
ATOM     17  O   UNL     1       0.231  -2.955   0.532  1.00  0.00    -0.484 OA
BRANCH  17  18
ATOM     18  C   UNL     1       0.266  -1.599   0.389  1.00  0.00     0.120 A 
ATOM     19  C   UNL     1       2.593   1.378   0.026  1.00  0.00     0.044 C 
ATOM     20  C   UNL     1       1.347   0.548   0.122  1.00  0.00    -0.047 A 
ATOM     21  C   UNL     1       0.089   1.162   0.036  1.00  0.00     0.007 A 
ATOM     22  C   UNL     1       1.427  -0.837   0.316  1.00  0.00     0.049 A 
ATOM     23  C   UNL     1      -1.085   0.407   0.142  1.00  0.00    -0.047 A 
ATOM     24  C   UNL     1      -2.424   1.077   0.054  1.00  0.00     0.044 C 
ATOM     25  C   UNL     1      -0.984  -0.973   0.338  1.00  0.00     0.049 A 
ENDBRANCH  17  18
ENDBRANCH  16  17
ENDBRANCH  13  16
ENDBRANCH   7  12
BRANCH  11  26
ATOM     26  O   UNL     1      -3.875  -6.013  -3.669  1.00  0.00    -0.508 OA
ATOM     27  H   UNL     1      -4.557  -5.997  -3.028  1.00  0.00     0.293 HD
ENDBRANCH  11  26
ENDBRANCH   4   6
ENDBRANCH   3   4
ENDBRANCH   2   3
ENDBRANCH   1   2
BRANCH   1  28
ATOM     28  O   UNL     1       2.403  -7.966  -5.200  1.00  0.00    -0.374 OA
BRANCH  28  29
ATOM     29  C   UNL     1       1.629  -7.988  -3.999  1.00  0.00     0.202 C 
BRANCH  29  30
ATOM     30  C   UNL     1       2.339  -8.531  -2.754  1.00  0.00     0.261 C 
BRANCH  30  31
ATOM     31  O   UNL     1       3.393  -7.654  -2.318  1.00  0.00    -0.460 OA
BRANCH  31  32
ATOM     32  C   UNL     1       4.644  -8.123  -2.528  1.00  0.00     0.338 C 
ATOM     33  O   UNL     1       4.960  -9.230  -2.947  1.00  0.00    -0.246 OA
BRANCH  32  34
ATOM     34  C   UNL     1       5.629  -7.042  -2.346  1.00  0.00     0.060 A 
ATOM     35  C   UNL     1       6.585  -6.864  -3.355  1.00  0.00     0.016 A 
ATOM     36  C   UNL     1       5.665  -6.262  -1.188  1.00  0.00     0.016 A 
ATOM     37  C   UNL     1       7.617  -5.945  -3.185  1.00  0.00     0.010 A 
ATOM     38  C   UNL     1       6.706  -5.344  -1.016  1.00  0.00     0.010 A 
ATOM     39  C   UNL     1       7.707  -5.212  -1.995  1.00  0.00    -0.014 A 
BRANCH  39  40
ATOM     40  C   UNL     1       8.934  -4.431  -1.712  1.00  0.00     0.031 A 
ATOM     41  C   UNL     1      10.001  -5.039  -0.844  1.00  0.00     0.074 A 
ATOM     42  C   UNL     1       9.118  -3.214  -2.251  1.00  0.00     0.049 A 
ATOM     43  N   UNL     1      11.153  -4.543  -0.471  1.00  0.00    -0.248 NA
ATOM     44  C   UNL     1       9.730  -6.391  -0.328  1.00  0.00     0.031 C 
ATOM     45  C   UNL     1       8.187  -2.537  -3.151  1.00  0.00     0.029 A 
ATOM     46  N   UNL     1      10.164  -2.336  -2.120  1.00  0.00    -0.354 N 
ATOM     47  C   UNL     1      11.742  -5.516   0.326  1.00  0.00     0.074 A 
ATOM     48  C   UNL     1      10.806  -6.617   0.410  1.00  0.00     0.031 C 
ATOM     49  C   UNL     1       8.710  -1.349  -3.502  1.00  0.00     0.029 A 
ATOM     50  C   UNL     1       9.992  -1.170  -2.824  1.00  0.00     0.049 A 
ATOM     51  H   UNL     1      10.961  -2.523  -1.573  1.00  0.00     0.167 HD
ATOM     52  C   UNL     1      12.954  -5.500   0.931  1.00  0.00     0.031 A 
ATOM     53  C   UNL     1      10.777  -0.080  -2.903  1.00  0.00     0.031 A 
ATOM     54  C   UNL     1      13.875  -4.398   0.869  1.00  0.00     0.049 A 
ATOM     55  C   UNL     1      12.073  -0.042  -2.139  1.00  0.00     0.074 A 
ATOM     56  C   UNL     1      15.132  -4.289   1.438  1.00  0.00     0.029 A 
ATOM     57  N   UNL     1      13.632  -3.205   0.205  1.00  0.00    -0.354 N 
ATOM     58  N   UNL     1      12.629  -0.975  -1.405  1.00  0.00    -0.248 NA
ATOM     59  C   UNL     1      12.851   1.203  -2.220  1.00  0.00     0.031 C 
ATOM     60  C   UNL     1      15.625  -3.007   1.165  1.00  0.00     0.029 A 
ATOM     61  C   UNL     1      14.700  -2.341   0.377  1.00  0.00     0.049 A 
ATOM     62  H   UNL     1      12.819  -3.003  -0.312  1.00  0.00     0.167 HD
ATOM     63  C   UNL     1      13.834  -0.443  -0.962  1.00  0.00     0.074 A 
ATOM     64  C   UNL     1      13.931   0.892  -1.516  1.00  0.00     0.031 C 
ATOM     65  C   UNL     1      14.780  -1.013  -0.175  1.00  0.00     0.031 A 
BRANCH  52  66
ATOM     66  C   UNL     1      13.321  -6.705   1.751  1.00  0.00    -0.014 A 
ATOM     67  C   UNL     1      13.614  -7.940   1.148  1.00  0.00     0.009 A 
ATOM     68  C   UNL     1      13.368  -6.606   3.150  1.00  0.00     0.009 A 
ATOM     69  C   UNL     1      13.897  -9.060   1.932  1.00  0.00     0.001 A 
ATOM     70  C   UNL     1      13.681  -7.721   3.930  1.00  0.00     0.001 A 
ATOM     71  C   UNL     1      13.932  -8.949   3.322  1.00  0.00     0.000 A 
ENDBRANCH  52  66
BRANCH  53  72
ATOM     72  C   UNL     1      10.363   1.072  -3.744  1.00  0.00    -0.014 A 
ATOM     73  C   UNL     1      11.040   1.359  -4.938  1.00  0.00     0.009 A 
ATOM     74  C   UNL     1       9.290   1.891  -3.357  1.00  0.00     0.009 A 
ATOM     75  C   UNL     1      10.662   2.450  -5.722  1.00  0.00     0.001 A 
ATOM     76  C   UNL     1       8.897   2.967  -4.156  1.00  0.00     0.001 A 
ATOM     77  C   UNL     1       9.588   3.250  -5.333  1.00  0.00     0.000 A 
ENDBRANCH  53  72
BRANCH  65  78
ATOM     78  C   UNL     1      16.019  -0.209   0.103  1.00  0.00    -0.014 A 
ATOM     79  C   UNL     1      15.997   0.892   0.974  1.00  0.00     0.009 A 
ATOM     80  C   UNL     1      17.236  -0.584  -0.488  1.00  0.00     0.009 A 
ATOM     81  C   UNL     1      17.164   1.620   1.220  1.00  0.00     0.001 A 
ATOM     82  C   UNL     1      18.406   0.128  -0.218  1.00  0.00     0.001 A 
ATOM     83  C   UNL     1      18.367   1.234   0.629  1.00  0.00     0.000 A 
ENDBRANCH  65  78
ENDBRANCH  39  40
ENDBRANCH  32  34
ENDBRANCH  31  32
ENDBRANCH  30  31
ENDBRANCH  29  30
ENDBRANCH  28  29
ENDBRANCH   1  28
TORSDOF 19
