REMARK SMILES C[C@H]1CCC[C@@H]([NH2+]Cc2ccc(C(=O)OCCOCCOC(=O)c3ccc(-c4c5nc(c(-c6ccccc6)c6ccc([nH]6)c(-c6ccccc6)c6nc(c(-c7ccccc7)c7ccc4[nH]7)C=C6)C=C5)cc3)cn2)C1
REMARK SMILES IDX 17 1 16 2 15 3 13 4 14 5 12 6 9 7 10 8 73 9 11 10 72 11 8 12
REMARK SMILES IDX 7 13 6 16 1 17 2 18 3 19 74 20 4 21 5 22 18 23 19 24 20 25
REMARK SMILES IDX 21 26 22 27 23 28 24 29 25 30 71 31 26 32 70 33 27 34 28 35
REMARK SMILES IDX 29 36 64 37 30 38 69 39 63 40 65 41 31 42 68 43 62 44 61 45
REMARK SMILES IDX 32 47 54 48 39 49 53 50 40 51 43 52 52 53 66 54 41 55 42 56
REMARK SMILES IDX 51 58 67 59 44 60 33 61 34 62 38 63 35 64 37 65 36 66 55 67
REMARK SMILES IDX 56 68 60 69 57 70 59 71 58 72 45 73 46 74 50 75 47 76 49 77
REMARK SMILES IDX 48 78
REMARK H PARENT 7 14 7 15 65 46 43 57
REMARK Flexibility Score: inf
ROOT
ATOM      1  C   UNL     1      -6.631  -9.625  -2.857  1.00  0.00     0.202 C 
ENDROOT
BRANCH   1   2
ATOM      2  C   UNL     1      -5.695  -8.896  -3.825  1.00  0.00     0.261 C 
BRANCH   2   3
ATOM      3  O   UNL     1      -4.914  -7.901  -3.144  1.00  0.00    -0.460 OA
BRANCH   3   4
ATOM      4  C   UNL     1      -5.254  -6.621  -3.425  1.00  0.00     0.339 C 
ATOM      5  O   UNL     1      -6.038  -6.244  -4.284  1.00  0.00    -0.246 OA
BRANCH   4   6
ATOM      6  C   UNL     1      -4.658  -5.707  -2.437  1.00  0.00     0.078 A 
ATOM      7  C   UNL     1      -3.693  -3.809  -0.693  1.00  0.00     0.094 A 
ATOM      8  C   UNL     1      -3.006  -5.019  -0.836  1.00  0.00     0.031 A 
ATOM      9  N   UNL     1      -4.870  -3.571  -1.323  1.00  0.00    -0.254 NA
ATOM     10  C   UNL     1      -3.492  -5.979  -1.724  1.00  0.00     0.019 A 
ATOM     11  C   UNL     1      -5.318  -4.514  -2.184  1.00  0.00     0.127 A 
BRANCH   7  12
ATOM     12  C   UNL     1      -3.107  -2.665   0.122  1.00  0.00     0.318 C 
BRANCH  12  13
ATOM     13  N   UNL     1      -1.732  -2.369  -0.297  1.00  0.00    -0.339 N 
ATOM     14  H   UNL     1      -1.143  -3.156  -0.025  1.00  0.00     0.346 HD
ATOM     15  H   UNL     1      -1.769  -2.218  -1.305  1.00  0.00     0.346 HD
BRANCH  13  16
ATOM     16  C   UNL     1      -1.155  -1.152   0.277  1.00  0.00     0.182 C 
ATOM     17  C   UNL     1       2.531   0.057  -0.088  1.00  0.00     0.008 C 
ATOM     18  C   UNL     1       1.073   0.096   0.368  1.00  0.00    -0.008 C 
ATOM     19  C   UNL     1       0.377   1.359  -0.149  1.00  0.00     0.004 C 
ATOM     20  C   UNL     1       0.337  -1.162  -0.104  1.00  0.00     0.068 C 
ATOM     21  C   UNL     1      -1.099   1.381   0.234  1.00  0.00     0.006 C 
ATOM     22  C   UNL     1      -1.827   0.127  -0.245  1.00  0.00     0.065 C 
ENDBRANCH  13  16
ENDBRANCH  12  13
ENDBRANCH   7  12
ENDBRANCH   4   6
ENDBRANCH   3   4
ENDBRANCH   2   3
ENDBRANCH   1   2
BRANCH   1  23
ATOM     23  O   UNL     1      -7.630  -8.839  -2.211  1.00  0.00    -0.374 OA
BRANCH  23  24
ATOM     24  C   UNL     1      -7.234  -8.063  -1.079  1.00  0.00     0.202 C 
BRANCH  24  25
ATOM     25  C   UNL     1      -7.041  -8.809   0.247  1.00  0.00     0.261 C 
BRANCH  25  26
ATOM     26  O   UNL     1      -5.938  -9.732   0.200  1.00  0.00    -0.460 OA
BRANCH  26  27
ATOM     27  C   UNL     1      -6.294 -11.038   0.187  1.00  0.00     0.338 C 
ATOM     28  O   UNL     1      -7.420 -11.503   0.281  1.00  0.00    -0.246 OA
BRANCH  27  29
ATOM     29  C   UNL     1      -5.125 -11.872  -0.144  1.00  0.00     0.060 A 
ATOM     30  C   UNL     1      -5.244 -12.757  -1.223  1.00  0.00     0.016 A 
ATOM     31  C   UNL     1      -3.965 -11.848   0.632  1.00  0.00     0.016 A 
ATOM     32  C   UNL     1      -4.222 -13.660  -1.501  1.00  0.00     0.010 A 
ATOM     33  C   UNL     1      -2.942 -12.761   0.356  1.00  0.00     0.010 A 
ATOM     34  C   UNL     1      -3.082 -13.695  -0.687  1.00  0.00    -0.014 A 
BRANCH  34  35
ATOM     35  C   UNL     1      -2.108 -14.802  -0.835  1.00  0.00     0.031 A 
ATOM     36  C   UNL     1      -2.155 -15.950   0.137  1.00  0.00     0.074 A 
ATOM     37  C   UNL     1      -1.209 -14.800  -1.834  1.00  0.00     0.049 A 
ATOM     38  N   UNL     1      -1.377 -16.998   0.219  1.00  0.00    -0.248 NA
ATOM     39  C   UNL     1      -3.220 -15.907   1.152  1.00  0.00     0.031 C 
ATOM     40  C   UNL     1      -1.094 -13.773  -2.868  1.00  0.00     0.029 A 
ATOM     41  N   UNL     1      -0.217 -15.698  -2.137  1.00  0.00    -0.354 N 
ATOM     42  C   UNL     1      -1.849 -17.733   1.300  1.00  0.00     0.074 A 
ATOM     43  C   UNL     1      -2.962 -16.996   1.860  1.00  0.00     0.031 C 
ATOM     44  C   UNL     1      -0.081 -14.096  -3.691  1.00  0.00     0.029 A 
ATOM     45  C   UNL     1       0.544 -15.330  -3.219  1.00  0.00     0.049 A 
ATOM     46  H   UNL     1      -0.065 -16.526  -1.628  1.00  0.00     0.167 HD
ATOM     47  C   UNL     1      -1.402 -18.918   1.781  1.00  0.00     0.031 A 
ATOM     48  C   UNL     1       1.635 -15.911  -3.754  1.00  0.00     0.031 A 
ATOM     49  C   UNL     1      -0.289 -19.645   1.231  1.00  0.00     0.049 A 
ATOM     50  C   UNL     1       2.164 -17.185  -3.151  1.00  0.00     0.074 A 
ATOM     51  C   UNL     1       0.231 -20.862   1.637  1.00  0.00     0.029 A 
ATOM     52  N   UNL     1       0.481 -19.217   0.161  1.00  0.00    -0.354 N 
ATOM     53  N   UNL     1       1.696 -17.882  -2.144  1.00  0.00    -0.248 NA
ATOM     54  C   UNL     1       3.373 -17.755  -3.765  1.00  0.00     0.031 C 
ATOM     55  C   UNL     1       1.354 -21.140   0.851  1.00  0.00     0.029 A 
ATOM     56  C   UNL     1       1.492 -20.131  -0.087  1.00  0.00     0.049 A 
ATOM     57  H   UNL     1       0.332 -18.387  -0.347  1.00  0.00     0.167 HD
ATOM     58  C   UNL     1       2.531 -18.986  -2.024  1.00  0.00     0.074 A 
ATOM     59  C   UNL     1       3.527 -18.873  -3.070  1.00  0.00     0.031 C 
ATOM     60  C   UNL     1       2.477 -20.004  -1.131  1.00  0.00     0.031 A 
BRANCH  47  61
ATOM     61  C   UNL     1      -2.097 -19.481   2.989  1.00  0.00    -0.014 A 
ATOM     62  C   UNL     1      -3.401 -19.995   2.911  1.00  0.00     0.009 A 
ATOM     63  C   UNL     1      -1.423 -19.526   4.220  1.00  0.00     0.009 A 
ATOM     64  C   UNL     1      -4.028 -20.509   4.049  1.00  0.00     0.001 A 
ATOM     65  C   UNL     1      -2.040 -20.067   5.348  1.00  0.00     0.001 A 
ATOM     66  C   UNL     1      -3.345 -20.549   5.264  1.00  0.00     0.000 A 
ENDBRANCH  47  61
BRANCH  48  67
ATOM     67  C   UNL     1       2.318 -15.284  -4.916  1.00  0.00    -0.014 A 
ATOM     68  C   UNL     1       2.299 -15.900  -6.177  1.00  0.00     0.009 A 
ATOM     69  C   UNL     1       3.014 -14.074  -4.763  1.00  0.00     0.009 A 
ATOM     70  C   UNL     1       2.983 -15.330  -7.253  1.00  0.00     0.001 A 
ATOM     71  C   UNL     1       3.671 -13.491  -5.848  1.00  0.00     0.001 A 
ATOM     72  C   UNL     1       3.664 -14.124  -7.089  1.00  0.00     0.000 A 
ENDBRANCH  48  67
BRANCH  60  73
ATOM     73  C   UNL     1       3.499 -21.099  -1.268  1.00  0.00    -0.014 A 
ATOM     74  C   UNL     1       4.847 -20.890  -0.939  1.00  0.00     0.009 A 
ATOM     75  C   UNL     1       3.094 -22.375  -1.695  1.00  0.00     0.009 A 
ATOM     76  C   UNL     1       5.774 -21.926  -1.068  1.00  0.00     0.001 A 
ATOM     77  C   UNL     1       4.018 -23.417  -1.793  1.00  0.00     0.001 A 
ATOM     78  C   UNL     1       5.358 -23.189  -1.489  1.00  0.00     0.000 A 
ENDBRANCH  60  73
ENDBRANCH  34  35
ENDBRANCH  27  29
ENDBRANCH  26  27
ENDBRANCH  25  26
ENDBRANCH  24  25
ENDBRANCH  23  24
ENDBRANCH   1  23
TORSDOF 17
