REMARK SMILES CC(=O)c1c[nH]c(C(=O)N[C@H]2C=C[C@H](C(=O)OCCOCCOC(=O)c3ccc(-c4c5nc(c(-c6ccccc6)c6ccc([nH]6)c(-c6ccccc6)c6nc(c(-c7ccccc7)c7ccc4[nH]7)C=C6)C=C5)cc3)C2)c1
REMARK SMILES IDX 19 1 18 2 17 3 15 4 16 5 14 6 11 7 12 8 74 9 13 10 10 11
REMARK SMILES IDX 8 12 9 13 7 15 4 16 5 17 75 18 6 19 2 21 1 22 3 23 20 24
REMARK SMILES IDX 21 25 22 26 23 27 24 28 25 29 26 30 27 31 73 32 28 33 72 34
REMARK SMILES IDX 29 35 30 36 31 37 66 38 32 39 71 40 65 41 67 42 33 43 70 44
REMARK SMILES IDX 64 45 63 46 34 48 56 49 41 50 55 51 42 52 45 53 54 54 68 55
REMARK SMILES IDX 43 56 44 57 53 59 69 60 46 61 35 62 36 63 40 64 37 65 39 66
REMARK SMILES IDX 38 67 57 68 58 69 62 70 59 71 61 72 60 73 47 74 48 75 52 76
REMARK SMILES IDX 49 77 51 78 50 79
REMARK H PARENT 10 14 6 20 67 47 45 58
REMARK Flexibility Score: inf
ROOT
ATOM      1  C   UNL     1      -7.561   3.254  -1.068  1.00  0.00     0.202 C 
ENDROOT
BRANCH   1   2
ATOM      2  C   UNL     1      -7.446   2.934   0.419  1.00  0.00     0.261 C 
BRANCH   2   3
ATOM      3  O   UNL     1      -6.398   3.681   1.065  1.00  0.00    -0.463 OA
BRANCH   3   4
ATOM      4  C   UNL     1      -5.357   2.924   1.512  1.00  0.00     0.312 C 
ATOM      5  O   UNL     1      -5.302   1.703   1.417  1.00  0.00    -0.252 OA
BRANCH   4   6
ATOM      6  C   UNL     1      -4.296   3.772   2.212  1.00  0.00     0.124 C 
ATOM      7  C   UNL     1      -2.447   4.735   0.845  1.00  0.00     0.106 C 
ATOM      8  C   UNL     1      -2.049   3.494   1.569  1.00  0.00    -0.006 C 
ATOM      9  C   UNL     1      -3.817   5.051   1.495  1.00  0.00     0.048 C 
ATOM     10  C   UNL     1      -3.034   2.974   2.302  1.00  0.00    -0.014 C 
BRANCH   7  11
ATOM     11  N   UNL     1      -1.478   5.803   1.041  1.00  0.00    -0.345 N 
ATOM     12  C   UNL     1      -0.140   5.886   0.731  1.00  0.00     0.268 C 
ATOM     13  O   UNL     1       0.463   6.911   1.045  1.00  0.00    -0.268 OA
ATOM     14  H   UNL     1      -1.844   6.609   1.472  1.00  0.00     0.164 HD
BRANCH  12  15
ATOM     15  C   UNL     1       0.543   4.734   0.193  1.00  0.00     0.105 A 
ATOM     16  C   UNL     1       0.999   2.636  -0.517  1.00  0.00     0.035 A 
ATOM     17  C   UNL     1       2.031   3.056   0.300  1.00  0.00     0.094 A 
ATOM     18  C   UNL     1       0.172   3.777  -0.735  1.00  0.00     0.045 A 
ATOM     19  N   UNL     1       1.800   4.369   0.628  1.00  0.00    -0.356 N 
ATOM     20  H   UNL     1       2.433   4.957   1.100  1.00  0.00     0.166 HD
BRANCH  16  21
ATOM     21  C   UNL     1       0.728   1.279  -0.986  1.00  0.00     0.161 C 
ATOM     22  C   UNL     1       1.242   0.133  -0.150  1.00  0.00     0.093 C 
ATOM     23  O   UNL     1       0.011   1.077  -1.964  1.00  0.00    -0.294 OA
ENDBRANCH  16  21
ENDBRANCH  12  15
ENDBRANCH   7  11
ENDBRANCH   4   6
ENDBRANCH   3   4
ENDBRANCH   2   3
ENDBRANCH   1   2
BRANCH   1  24
ATOM     24  O   UNL     1      -6.460   2.927  -1.913  1.00  0.00    -0.374 OA
BRANCH  24  25
ATOM     25  C   UNL     1      -5.224   3.617  -1.776  1.00  0.00     0.202 C 
BRANCH  25  26
ATOM     26  C   UNL     1      -5.152   5.064  -2.246  1.00  0.00     0.261 C 
BRANCH  26  27
ATOM     27  O   UNL     1      -6.052   5.921  -1.555  1.00  0.00    -0.460 OA
BRANCH  27  28
ATOM     28  C   UNL     1      -7.174   6.151  -2.275  1.00  0.00     0.338 C 
ATOM     29  O   UNL     1      -7.604   5.495  -3.207  1.00  0.00    -0.246 OA
BRANCH  28  30
ATOM     30  C   UNL     1      -7.742   7.446  -1.916  1.00  0.00     0.060 A 
ATOM     31  C   UNL     1      -8.974   7.733  -2.507  1.00  0.00     0.016 A 
ATOM     32  C   UNL     1      -6.894   8.438  -1.404  1.00  0.00     0.016 A 
ATOM     33  C   UNL     1      -9.264   9.043  -2.791  1.00  0.00     0.010 A 
ATOM     34  C   UNL     1      -7.168   9.748  -1.718  1.00  0.00     0.010 A 
ATOM     35  C   UNL     1      -8.326  10.026  -2.450  1.00  0.00    -0.014 A 
BRANCH  35  36
ATOM     36  C   UNL     1      -8.715  11.410  -2.696  1.00  0.00     0.031 A 
ATOM     37  C   UNL     1      -9.584  11.888  -1.519  1.00  0.00     0.074 A 
ATOM     38  C   UNL     1      -8.331  11.921  -3.909  1.00  0.00     0.049 A 
ATOM     39  N   UNL     1     -10.499  12.799  -1.494  1.00  0.00    -0.248 NA
ATOM     40  C   UNL     1      -9.480  11.211  -0.187  1.00  0.00     0.031 C 
ATOM     41  C   UNL     1      -7.443  11.244  -4.893  1.00  0.00     0.029 A 
ATOM     42  N   UNL     1      -8.610  13.090  -4.579  1.00  0.00    -0.354 N 
ATOM     43  C   UNL     1     -10.939  12.933  -0.161  1.00  0.00     0.074 A 
ATOM     44  C   UNL     1     -10.346  11.870   0.583  1.00  0.00     0.031 C 
ATOM     45  C   UNL     1      -7.346  11.960  -6.039  1.00  0.00     0.029 A 
ATOM     46  C   UNL     1      -8.139  13.167  -5.920  1.00  0.00     0.049 A 
ATOM     47  H   UNL     1      -9.105  13.829  -4.156  1.00  0.00     0.167 HD
ATOM     48  C   UNL     1     -11.667  14.003   0.263  1.00  0.00     0.031 A 
ATOM     49  C   UNL     1      -8.427  14.115  -6.869  1.00  0.00     0.031 A 
ATOM     50  C   UNL     1     -12.036  14.807  -0.851  1.00  0.00     0.049 A 
ATOM     51  C   UNL     1      -9.218  15.126  -6.156  1.00  0.00     0.074 A 
ATOM     52  C   UNL     1     -12.918  14.588  -1.877  1.00  0.00     0.029 A 
ATOM     53  N   UNL     1     -11.133  15.773  -1.222  1.00  0.00    -0.354 N 
ATOM     54  N   UNL     1      -8.745  15.966  -5.288  1.00  0.00    -0.248 NA
ATOM     55  C   UNL     1     -10.674  15.137  -6.346  1.00  0.00     0.031 C 
ATOM     56  C   UNL     1     -12.195  15.029  -3.005  1.00  0.00     0.029 A 
ATOM     57  C   UNL     1     -11.061  15.737  -2.591  1.00  0.00     0.049 A 
ATOM     58  H   UNL     1     -10.634  16.374  -0.622  1.00  0.00     0.167 HD
ATOM     59  C   UNL     1      -9.866  16.297  -4.571  1.00  0.00     0.074 A 
ATOM     60  C   UNL     1     -10.999  16.053  -5.439  1.00  0.00     0.031 C 
ATOM     61  C   UNL     1      -9.852  16.209  -3.216  1.00  0.00     0.031 A 
BRANCH  48  62
ATOM     62  C   UNL     1     -11.879  14.570   1.633  1.00  0.00    -0.014 A 
ATOM     63  C   UNL     1     -12.832  15.608   1.752  1.00  0.00     0.009 A 
ATOM     64  C   UNL     1     -10.970  14.402   2.681  1.00  0.00     0.009 A 
ATOM     65  C   UNL     1     -12.782  16.533   2.794  1.00  0.00     0.001 A 
ATOM     66  C   UNL     1     -10.947  15.307   3.752  1.00  0.00     0.001 A 
ATOM     67  C   UNL     1     -11.820  16.394   3.784  1.00  0.00     0.000 A 
ENDBRANCH  48  62
BRANCH  49  68
ATOM     68  C   UNL     1      -8.273  14.354  -8.355  1.00  0.00    -0.014 A 
ATOM     69  C   UNL     1      -7.499  13.613  -9.249  1.00  0.00     0.009 A 
ATOM     70  C   UNL     1      -9.042  15.401  -8.949  1.00  0.00     0.009 A 
ATOM     71  C   UNL     1      -7.576  13.844 -10.645  1.00  0.00     0.001 A 
ATOM     72  C   UNL     1      -9.165  15.599 -10.327  1.00  0.00     0.001 A 
ATOM     73  C   UNL     1      -8.437  14.803 -11.184  1.00  0.00     0.000 A 
ENDBRANCH  49  68
BRANCH  61  74
ATOM     74  C   UNL     1      -8.475  16.240  -2.565  1.00  0.00    -0.014 A 
ATOM     75  C   UNL     1      -7.649  17.359  -2.742  1.00  0.00     0.009 A 
ATOM     76  C   UNL     1      -7.925  15.150  -1.866  1.00  0.00     0.009 A 
ATOM     77  C   UNL     1      -6.332  17.383  -2.259  1.00  0.00     0.001 A 
ATOM     78  C   UNL     1      -6.605  15.164  -1.386  1.00  0.00     0.001 A 
ATOM     79  C   UNL     1      -5.807  16.285  -1.584  1.00  0.00     0.000 A 
ENDBRANCH  61  74
ENDBRANCH  35  36
ENDBRANCH  28  30
ENDBRANCH  27  28
ENDBRANCH  26  27
ENDBRANCH  25  26
ENDBRANCH  24  25
ENDBRANCH   1  24
TORSDOF 17
