REMARK SMILES O=C(OCCOCCOC(=O)[C@@H]1CCCN(C(=O)Nc2ccccc2)C1)c1ccc(-c2c3nc(c(-c4ccccc4)c4ccc([nH]4)c(-c4ccccc4)c4nc(c(-c5ccccc5)c5ccc2[nH]5)C=C4)C=C3)cc1
REMARK SMILES IDX 6 1 5 2 4 3 3 4 2 5 1 6 27 7 28 8 74 9 29 10 73 11 30 12
REMARK SMILES IDX 31 13 32 14 67 15 33 16 72 17 66 18 68 19 34 20 71 21 65 22
REMARK SMILES IDX 64 23 35 25 57 26 42 27 56 28 43 29 46 30 55 31 69 32 44 33
REMARK SMILES IDX 45 34 54 36 70 37 47 38 36 39 37 40 41 41 38 42 40 43 39 44
REMARK SMILES IDX 58 45 59 46 63 47 60 48 62 49 61 50 48 51 49 52 53 53 50 54
REMARK SMILES IDX 52 55 51 56 7 57 8 58 9 59 10 60 11 61 12 62 13 63 26 64
REMARK SMILES IDX 14 65 16 66 15 67 17 68 18 69 19 70 20 72 21 73 25 74 22 75
REMARK SMILES IDX 24 76 23 77
REMARK H PARENT 68 24 46 35 19 71
REMARK Flexibility Score: inf
ROOT
ATOM      1  O   UNL     1       3.621   1.523  -0.759  1.00  0.00    -0.374 OA
ENDROOT
BRANCH   1   2
ATOM      2  C   UNL     1       4.181   0.286  -1.190  1.00  0.00     0.202 C 
BRANCH   2   3
ATOM      3  C   UNL     1       3.922  -0.923  -0.283  1.00  0.00     0.261 C 
BRANCH   3   4
ATOM      4  O   UNL     1       2.526  -1.018   0.054  1.00  0.00    -0.460 OA
BRANCH   4   5
ATOM      5  C   UNL     1       1.928  -0.513   1.163  1.00  0.00     0.338 C 
ATOM      6  O   UNL     1       0.711  -0.603   1.296  1.00  0.00    -0.246 OA
BRANCH   5   7
ATOM      7  C   UNL     1       2.726   0.071   2.273  1.00  0.00     0.060 A 
ATOM      8  C   UNL     1       3.867   0.837   2.065  1.00  0.00     0.016 A 
ATOM      9  C   UNL     1       2.297  -0.133   3.590  1.00  0.00     0.016 A 
ATOM     10  C   UNL     1       4.659   1.263   3.097  1.00  0.00     0.010 A 
ATOM     11  C   UNL     1       3.035   0.394   4.655  1.00  0.00     0.010 A 
ATOM     12  C   UNL     1       4.231   1.076   4.399  1.00  0.00    -0.014 A 
BRANCH  12  13
ATOM     13  C   UNL     1       5.159   1.536   5.435  1.00  0.00     0.031 A 
ATOM     14  C   UNL     1       5.906   0.504   6.210  1.00  0.00     0.074 A 
ATOM     15  C   UNL     1       5.463   2.846   5.491  1.00  0.00     0.049 A 
ATOM     16  N   UNL     1       6.746   0.663   7.192  1.00  0.00    -0.248 NA
ATOM     17  C   UNL     1       5.689  -0.901   5.818  1.00  0.00     0.031 C 
ATOM     18  C   UNL     1       4.911   3.886   4.609  1.00  0.00     0.029 A 
ATOM     19  N   UNL     1       6.358   3.521   6.269  1.00  0.00    -0.354 N 
ATOM     20  C   UNL     1       7.101  -0.619   7.583  1.00  0.00     0.074 A 
ATOM     21  C   UNL     1       6.406  -1.547   6.723  1.00  0.00     0.031 C 
ATOM     22  C   UNL     1       5.523   5.051   4.862  1.00  0.00     0.029 A 
ATOM     23  C   UNL     1       6.415   4.865   5.995  1.00  0.00     0.049 A 
ATOM     24  H   UNL     1       6.909   3.086   6.960  1.00  0.00     0.167 HD
ATOM     25  C   UNL     1       7.920  -0.972   8.599  1.00  0.00     0.031 A 
ATOM     26  C   UNL     1       7.082   5.839   6.636  1.00  0.00     0.031 A 
ATOM     27  C   UNL     1       8.586  -0.002   9.424  1.00  0.00     0.049 A 
ATOM     28  C   UNL     1       7.887   5.431   7.835  1.00  0.00     0.074 A 
ATOM     29  C   UNL     1       9.380  -0.202  10.535  1.00  0.00     0.029 A 
ATOM     30  N   UNL     1       8.528   1.371   9.207  1.00  0.00    -0.354 N 
ATOM     31  N   UNL     1       8.132   4.223   8.291  1.00  0.00    -0.248 NA
ATOM     32  C   UNL     1       8.482   6.511   8.625  1.00  0.00     0.031 C 
ATOM     33  C   UNL     1       9.757   1.055  11.022  1.00  0.00     0.029 A 
ATOM     34  C   UNL     1       9.255   2.035  10.176  1.00  0.00     0.049 A 
ATOM     35  H   UNL     1       8.040   1.806   8.471  1.00  0.00     0.167 HD
ATOM     36  C   UNL     1       8.927   4.394   9.412  1.00  0.00     0.074 A 
ATOM     37  C   UNL     1       9.139   5.825   9.549  1.00  0.00     0.031 C 
ATOM     38  C   UNL     1       9.434   3.464  10.258  1.00  0.00     0.031 A 
BRANCH  25  39
ATOM     39  C   UNL     1       8.008  -2.436   8.918  1.00  0.00    -0.014 A 
ATOM     40  C   UNL     1       8.649  -3.351   8.068  1.00  0.00     0.009 A 
ATOM     41  C   UNL     1       7.359  -2.920  10.065  1.00  0.00     0.009 A 
ATOM     42  C   UNL     1       8.592  -4.723   8.333  1.00  0.00     0.001 A 
ATOM     43  C   UNL     1       7.329  -4.287  10.344  1.00  0.00     0.001 A 
ATOM     44  C   UNL     1       7.932  -5.189   9.470  1.00  0.00     0.000 A 
ENDBRANCH  25  39
BRANCH  26  45
ATOM     45  C   UNL     1       6.943   7.261   6.222  1.00  0.00    -0.014 A 
ATOM     46  C   UNL     1       8.050   7.990   5.765  1.00  0.00     0.009 A 
ATOM     47  C   UNL     1       5.696   7.906   6.290  1.00  0.00     0.009 A 
ATOM     48  C   UNL     1       7.917   9.337   5.411  1.00  0.00     0.001 A 
ATOM     49  C   UNL     1       5.557   9.241   5.904  1.00  0.00     0.001 A 
ATOM     50  C   UNL     1       6.671   9.959   5.476  1.00  0.00     0.000 A 
ENDBRANCH  26  45
BRANCH  38  51
ATOM     51  C   UNL     1      10.307   3.979  11.363  1.00  0.00    -0.014 A 
ATOM     52  C   UNL     1       9.768   4.672  12.457  1.00  0.00     0.009 A 
ATOM     53  C   UNL     1      11.687   3.731  11.315  1.00  0.00     0.009 A 
ATOM     54  C   UNL     1      10.607   5.141  13.468  1.00  0.00     0.001 A 
ATOM     55  C   UNL     1      12.516   4.168  12.345  1.00  0.00     0.001 A 
ATOM     56  C   UNL     1      11.977   4.882  13.414  1.00  0.00     0.000 A 
ENDBRANCH  38  51
ENDBRANCH  12  13
ENDBRANCH   5   7
ENDBRANCH   4   5
ENDBRANCH   3   4
ENDBRANCH   2   3
ENDBRANCH   1   2
BRANCH   1  57
ATOM     57  C   UNL     1       2.319   1.809  -1.256  1.00  0.00     0.202 C 
BRANCH  57  58
ATOM     58  C   UNL     1       2.397   2.735  -2.466  1.00  0.00     0.261 C 
BRANCH  58  59
ATOM     59  O   UNL     1       3.201   2.139  -3.507  1.00  0.00    -0.463 OA
BRANCH  59  60
ATOM     60  C   UNL     1       4.518   2.505  -3.492  1.00  0.00     0.310 C 
ATOM     61  O   UNL     1       4.978   3.359  -2.744  1.00  0.00    -0.252 OA
BRANCH  60  62
ATOM     62  C   UNL     1       5.306   1.778  -4.577  1.00  0.00     0.119 C 
ATOM     63  C   UNL     1       5.225   0.247  -4.565  1.00  0.00     0.019 C 
ATOM     64  C   UNL     1       6.767   2.226  -4.587  1.00  0.00     0.136 C 
ATOM     65  C   UNL     1       6.249  -0.486  -3.699  1.00  0.00     0.023 C 
ATOM     66  N   UNL     1       7.514   1.698  -3.446  1.00  0.00    -0.324 N 
ATOM     67  C   UNL     1       7.546   0.243  -3.356  1.00  0.00     0.121 C 
BRANCH  66  68
ATOM     68  C   UNL     1       8.103   2.618  -2.593  1.00  0.00     0.321 C 
ATOM     69  O   UNL     1       7.963   3.836  -2.740  1.00  0.00    -0.248 OA
ATOM     70  N   UNL     1       8.769   2.229  -1.474  1.00  0.00    -0.308 N 
ATOM     71  H   UNL     1       8.639   2.836  -0.710  1.00  0.00     0.171 HD
BRANCH  70  72
ATOM     72  C   UNL     1       9.600   1.143  -1.188  1.00  0.00     0.042 A 
ATOM     73  C   UNL     1       9.710   0.740   0.145  1.00  0.00     0.026 A 
ATOM     74  C   UNL     1      10.314   0.461  -2.175  1.00  0.00     0.026 A 
ATOM     75  C   UNL     1      10.412  -0.422   0.467  1.00  0.00     0.002 A 
ATOM     76  C   UNL     1      11.015  -0.701  -1.855  1.00  0.00     0.002 A 
ATOM     77  C   UNL     1      11.041  -1.156  -0.537  1.00  0.00     0.000 A 
ENDBRANCH  70  72
ENDBRANCH  66  68
ENDBRANCH  60  62
ENDBRANCH  59  60
ENDBRANCH  58  59
ENDBRANCH  57  58
ENDBRANCH   1  57
TORSDOF 16
