REMARK SMILES CC[NH2+][C@@]1(C(=O)OCCOCCOC(=O)c2ccc(-c3c4nc(c(-c5ccccc5)c5ccc([nH]5)c(-c5ccccc5)c5nc(c(-c6ccccc6)c6ccc3[nH]6)C=C5)C=C4)cc2)CCC[C@@H]([N@@H+](C)C2CCCC2)C1
REMARK SMILES IDX 10 1 9 2 8 3 7 4 5 5 6 6 4 7 64 8 75 9 65 10 67 11 66 12
REMARK SMILES IDX 3 13 2 16 1 17 68 18 69 19 70 21 71 22 74 23 72 24 73 25
REMARK SMILES IDX 11 26 12 27 13 28 14 29 15 30 16 31 17 32 63 33 18 34 62 35
REMARK SMILES IDX 19 36 20 37 21 38 56 39 22 40 61 41 55 42 57 43 23 44 60 45
REMARK SMILES IDX 54 46 53 47 24 49 46 50 31 51 45 52 32 53 35 54 44 55 58 56
REMARK SMILES IDX 33 57 34 58 43 60 59 61 36 62 25 63 26 64 30 65 27 66 29 67
REMARK SMILES IDX 28 68 47 69 48 70 52 71 49 72 51 73 50 74 37 75 38 76 42 77
REMARK SMILES IDX 39 78 41 79 40 80
REMARK H PARENT 3 14 3 15 68 20 57 48 35 59
REMARK Flexibility Score: inf
ROOT
ATOM      1  O   UNL     1       4.067  -0.586  -5.582  1.00  0.00    -0.374 OA
ENDROOT
BRANCH   1   2
ATOM      2  C   UNL     1       3.289  -0.633  -6.773  1.00  0.00     0.202 C 
BRANCH   2   3
ATOM      3  C   UNL     1       1.857  -1.159  -6.651  1.00  0.00     0.261 C 
BRANCH   3   4
ATOM      4  O   UNL     1       1.043  -0.360  -5.774  1.00  0.00    -0.459 OA
BRANCH   4   5
ATOM      5  C   UNL     1       0.789  -0.925  -4.565  1.00  0.00     0.368 C 
ATOM      6  O   UNL     1       1.226  -2.023  -4.222  1.00  0.00    -0.245 OA
BRANCH   5   7
ATOM      7  C   UNL     1      -0.116  -0.054  -3.623  1.00  0.00     0.200 C 
ATOM      8  C   UNL     1      -1.582  -0.316  -4.002  1.00  0.00     0.081 C 
ATOM      9  C   UNL     1       0.120   1.466  -3.665  1.00  0.00     0.146 C 
ATOM     10  C   UNL     1      -1.934   0.237  -5.385  1.00  0.00     0.013 C 
ATOM     11  C   UNL     1      -0.321   2.238  -4.917  1.00  0.00     0.190 C 
ATOM     12  C   UNL     1      -1.619   1.720  -5.578  1.00  0.00     0.065 C 
BRANCH   7  13
ATOM     13  N   UNL     1       0.124  -0.631  -2.251  1.00  0.00    -0.332 N 
ATOM     14  H   UNL     1      -0.615  -1.313  -2.082  1.00  0.00     0.347 HD
ATOM     15  H   UNL     1       1.078  -0.989  -2.303  1.00  0.00     0.347 HD
BRANCH  13  16
ATOM     16  C   UNL     1       0.153   0.259  -1.099  1.00  0.00     0.257 C 
ATOM     17  C   UNL     1       0.719  -0.468   0.114  1.00  0.00     0.071 C 
ENDBRANCH  13  16
ENDBRANCH   7  13
BRANCH  11  18
ATOM     18  N   UNL     1      -0.268   3.715  -4.686  1.00  0.00    -0.332 N 
ATOM     19  C   UNL     1      -0.465   4.461  -5.933  1.00  0.00     0.333 C 
ATOM     20  H   UNL     1       0.683   3.804  -4.327  1.00  0.00     0.348 HD
BRANCH  18  21
ATOM     21  C   UNL     1      -1.054   4.327  -3.591  1.00  0.00     0.184 C 
ATOM     22  C   UNL     1      -2.480   3.841  -3.299  1.00  0.00     0.065 C 
ATOM     23  C   UNL     1      -0.362   4.366  -2.204  1.00  0.00     0.065 C 
ATOM     24  C   UNL     1      -2.771   4.410  -1.919  1.00  0.00     0.006 C 
ATOM     25  C   UNL     1      -1.474   4.139  -1.173  1.00  0.00     0.006 C 
ENDBRANCH  18  21
ENDBRANCH  11  18
ENDBRANCH   5   7
ENDBRANCH   4   5
ENDBRANCH   3   4
ENDBRANCH   2   3
ENDBRANCH   1   2
BRANCH   1  26
ATOM     26  C   UNL     1       3.819   0.485  -4.672  1.00  0.00     0.202 C 
BRANCH  26  27
ATOM     27  C   UNL     1       4.325   1.873  -5.082  1.00  0.00     0.261 C 
BRANCH  27  28
ATOM     28  O   UNL     1       3.591   2.411  -6.198  1.00  0.00    -0.460 OA
BRANCH  28  29
ATOM     29  C   UNL     1       4.309   2.577  -7.333  1.00  0.00     0.338 C 
ATOM     30  O   UNL     1       5.506   2.383  -7.493  1.00  0.00    -0.246 OA
BRANCH  29  31
ATOM     31  C   UNL     1       3.401   2.856  -8.458  1.00  0.00     0.060 A 
ATOM     32  C   UNL     1       3.435   1.989  -9.559  1.00  0.00     0.016 A 
ATOM     33  C   UNL     1       2.580   3.984  -8.469  1.00  0.00     0.016 A 
ATOM     34  C   UNL     1       2.669   2.264 -10.690  1.00  0.00     0.010 A 
ATOM     35  C   UNL     1       1.819   4.264  -9.608  1.00  0.00     0.010 A 
ATOM     36  C   UNL     1       1.881   3.422 -10.733  1.00  0.00    -0.014 A 
BRANCH  36  37
ATOM     37  C   UNL     1       1.223   3.820 -12.000  1.00  0.00     0.031 A 
ATOM     38  C   UNL     1       1.869   4.869 -12.862  1.00  0.00     0.074 A 
ATOM     39  C   UNL     1       0.068   3.249 -12.384  1.00  0.00     0.049 A 
ATOM     40  N   UNL     1       1.437   5.410 -13.972  1.00  0.00    -0.248 NA
ATOM     41  C   UNL     1       3.176   5.375 -12.412  1.00  0.00     0.031 C 
ATOM     42  C   UNL     1      -0.632   2.186 -11.664  1.00  0.00     0.029 A 
ATOM     43  N   UNL     1      -0.724   3.496 -13.477  1.00  0.00    -0.354 N 
ATOM     44  C   UNL     1       2.412   6.325 -14.348  1.00  0.00     0.074 A 
ATOM     45  C   UNL     1       3.446   6.284 -13.337  1.00  0.00     0.031 C 
ATOM     46  C   UNL     1      -1.758   1.879 -12.331  1.00  0.00     0.029 A 
ATOM     47  C   UNL     1      -1.876   2.749 -13.500  1.00  0.00     0.049 A 
ATOM     48  H   UNL     1      -0.488   4.146 -14.178  1.00  0.00     0.167 HD
ATOM     49  C   UNL     1       2.444   7.127 -15.439  1.00  0.00     0.031 A 
ATOM     50  C   UNL     1      -2.920   2.785 -14.350  1.00  0.00     0.031 A 
ATOM     51  C   UNL     1       1.411   7.178 -16.438  1.00  0.00     0.049 A 
ATOM     52  C   UNL     1      -2.906   3.755 -15.501  1.00  0.00     0.074 A 
ATOM     53  C   UNL     1       1.365   7.943 -17.591  1.00  0.00     0.029 A 
ATOM     54  N   UNL     1       0.237   6.443 -16.397  1.00  0.00    -0.354 N 
ATOM     55  N   UNL     1      -1.968   4.597 -15.860  1.00  0.00    -0.248 NA
ATOM     56  C   UNL     1      -4.098   3.779 -16.363  1.00  0.00     0.031 C 
ATOM     57  C   UNL     1       0.135   7.714 -18.216  1.00  0.00     0.029 A 
ATOM     58  C   UNL     1      -0.558   6.764 -17.483  1.00  0.00     0.049 A 
ATOM     59  H   UNL     1       0.004   5.790 -15.698  1.00  0.00     0.167 HD
ATOM     60  C   UNL     1      -2.446   5.234 -16.999  1.00  0.00     0.074 A 
ATOM     61  C   UNL     1      -3.750   4.671 -17.280  1.00  0.00     0.031 C 
ATOM     62  C   UNL     1      -1.856   6.199 -17.746  1.00  0.00     0.031 A 
BRANCH  49  63
ATOM     63  C   UNL     1       3.622   8.047 -15.587  1.00  0.00    -0.014 A 
ATOM     64  C   UNL     1       4.891   7.559 -15.936  1.00  0.00     0.009 A 
ATOM     65  C   UNL     1       3.450   9.429 -15.409  1.00  0.00     0.009 A 
ATOM     66  C   UNL     1       5.970   8.435 -16.075  1.00  0.00     0.001 A 
ATOM     67  C   UNL     1       4.525  10.304 -15.573  1.00  0.00     0.001 A 
ATOM     68  C   UNL     1       5.785   9.806 -15.898  1.00  0.00     0.000 A 
ENDBRANCH  49  63
BRANCH  50  69
ATOM     69  C   UNL     1      -4.093   1.900 -14.124  1.00  0.00    -0.014 A 
ATOM     70  C   UNL     1      -4.370   0.841 -15.001  1.00  0.00     0.009 A 
ATOM     71  C   UNL     1      -4.952   2.124 -13.037  1.00  0.00     0.009 A 
ATOM     72  C   UNL     1      -5.497   0.038 -14.805  1.00  0.00     0.001 A 
ATOM     73  C   UNL     1      -6.062   1.303 -12.828  1.00  0.00     0.001 A 
ATOM     74  C   UNL     1      -6.338   0.266 -13.717  1.00  0.00     0.000 A 
ENDBRANCH  50  69
BRANCH  62  75
ATOM     75  C   UNL     1      -2.603   6.694 -18.953  1.00  0.00    -0.014 A 
ATOM     76  C   UNL     1      -3.718   7.536 -18.822  1.00  0.00     0.009 A 
ATOM     77  C   UNL     1      -2.149   6.358 -20.238  1.00  0.00     0.009 A 
ATOM     78  C   UNL     1      -4.378   8.012 -19.957  1.00  0.00     0.001 A 
ATOM     79  C   UNL     1      -2.795   6.857 -21.370  1.00  0.00     0.001 A 
ATOM     80  C   UNL     1      -3.913   7.678 -21.229  1.00  0.00     0.000 A 
ENDBRANCH  62  75
ENDBRANCH  36  37
ENDBRANCH  29  31
ENDBRANCH  28  29
ENDBRANCH  27  28
ENDBRANCH  26  27
ENDBRANCH   1  26
TORSDOF 18
