REMARK SMILES C[C@@H]1CCC[C@H](C)[N@H+]1Cc1cc2c(cc1Cl)C=C(C(=O)OCCOCCOC(=O)c1ccc(-c3c4nc(c(-c5ccccc5)c5ccc([nH]5)c(-c5ccccc5)c5nc(c(-c6ccccc6)c6ccc3[nH]6)C=C5)C=C4)cc1)[C@@H](C(F)(F)F)O2
REMARK SMILES IDX 24 1 23 2 22 3 21 4 19 5 20 6 18 7 10 8 11 9 15 10 12 11
REMARK SMILES IDX 14 12 16 13 13 14 83 15 17 16 78 17 9 18 8 19 7 20 6 21 5 22
REMARK SMILES IDX 4 23 2 24 3 26 1 27 79 28 80 29 81 30 82 31 25 32 26 33
REMARK SMILES IDX 27 34 28 35 29 36 30 37 31 38 77 39 32 40 76 41 33 42 34 43
REMARK SMILES IDX 35 44 70 45 36 46 75 47 69 48 71 49 37 50 74 51 68 52 67 53
REMARK SMILES IDX 38 55 60 56 45 57 59 58 46 59 49 60 58 61 72 62 47 63 48 64
REMARK SMILES IDX 57 66 73 67 50 68 39 69 40 70 44 71 41 72 43 73 42 74 61 75
REMARK SMILES IDX 62 76 66 77 63 78 65 79 64 80 51 81 52 82 56 83 53 84 55 85
REMARK SMILES IDX 54 86
REMARK H PARENT 8 25 71 54 49 65
REMARK Flexibility Score: inf
ROOT
ATOM      1  O   UNL     1       2.883  11.016  -0.618  1.00  0.00    -0.374 OA
ENDROOT
BRANCH   1   2
ATOM      2  C   UNL     1       2.490  11.847   0.469  1.00  0.00     0.202 C 
BRANCH   2   3
ATOM      3  C   UNL     1       1.049  11.740   0.972  1.00  0.00     0.261 C 
BRANCH   3   4
ATOM      4  O   UNL     1       0.688  10.394   1.321  1.00  0.00    -0.460 OA
BRANCH   4   5
ATOM      5  C   UNL     1      -0.181   9.831   0.450  1.00  0.00     0.338 C 
ATOM      6  O   UNL     1      -0.725  10.390  -0.491  1.00  0.00    -0.246 OA
BRANCH   5   7
ATOM      7  C   UNL     1      -0.334   8.389   0.709  1.00  0.00     0.087 C 
ATOM      8  C   UNL     1      -1.666   3.582   0.115  1.00  0.00     0.029 A 
ATOM      9  C   UNL     1      -1.112   4.315   1.191  1.00  0.00     0.058 A 
ATOM     10  C   UNL     1      -2.034   4.290  -1.042  1.00  0.00     0.050 A 
ATOM     11  C   UNL     1      -0.813   5.675   1.054  1.00  0.00     0.128 A 
ATOM     12  C   UNL     1      -1.644   5.615  -1.210  1.00  0.00     0.033 A 
ATOM     13  Cl  UNL     1      -2.984   3.611  -2.316  1.00  0.00    -0.084 Cl
ATOM     14  C   UNL     1      -1.007   6.293  -0.177  1.00  0.00     0.019 A 
ATOM     15  O   UNL     1      -0.290   6.340   2.132  1.00  0.00    -0.475 OA
ATOM     16  C   UNL     1      -0.598   7.663  -0.382  1.00  0.00     0.027 C 
ATOM     17  C   UNL     1      -0.322   7.808   2.095  1.00  0.00     0.316 C 
BRANCH   8  18
ATOM     18  C   UNL     1      -1.791   2.071   0.208  1.00  0.00     0.301 C 
BRANCH  18  19
ATOM     19  N   UNL     1      -0.644   1.261  -0.273  1.00  0.00    -0.327 N 
ATOM     20  C   UNL     1       1.155  -0.157   0.689  1.00  0.00     0.075 C 
ATOM     21  C   UNL     1       0.525   1.249   0.619  1.00  0.00     0.181 C 
ATOM     22  C   UNL     1       1.579   2.317   0.280  1.00  0.00     0.065 C 
ATOM     23  C   UNL     1       1.937   2.371  -1.199  1.00  0.00     0.012 C 
ATOM     24  C   UNL     1      -0.353   1.367  -1.715  1.00  0.00     0.181 C 
ATOM     25  H   UNL     1      -0.990   0.304  -0.199  1.00  0.00     0.348 HD
ATOM     26  C   UNL     1       0.689   2.442  -2.068  1.00  0.00     0.065 C 
ATOM     27  C   UNL     1       0.060   0.024  -2.336  1.00  0.00     0.075 C 
ENDBRANCH  18  19
ENDBRANCH   8  18
BRANCH  17  28
ATOM     28  C   UNL     1      -1.495   8.341   2.931  1.00  0.00     0.430 C 
ATOM     29  F   UNL     1      -1.521   7.786   4.165  1.00  0.00    -0.167 F 
ATOM     30  F   UNL     1      -1.400   9.682   3.110  1.00  0.00    -0.167 F 
ATOM     31  F   UNL     1      -2.690   8.098   2.348  1.00  0.00    -0.167 F 
ENDBRANCH  17  28
ENDBRANCH   5   7
ENDBRANCH   4   5
ENDBRANCH   3   4
ENDBRANCH   2   3
ENDBRANCH   1   2
BRANCH   1  32
ATOM     32  C   UNL     1       3.109   9.628  -0.377  1.00  0.00     0.202 C 
BRANCH  32  33
ATOM     33  C   UNL     1       4.337   9.219   0.447  1.00  0.00     0.261 C 
BRANCH  33  34
ATOM     34  O   UNL     1       4.278   9.681   1.807  1.00  0.00    -0.460 OA
BRANCH  34  35
ATOM     35  C   UNL     1       5.146  10.678   2.108  1.00  0.00     0.338 C 
ATOM     36  O   UNL     1       5.974  11.190   1.368  1.00  0.00    -0.246 OA
BRANCH  35  37
ATOM     37  C   UNL     1       4.816  11.227   3.436  1.00  0.00     0.060 A 
ATOM     38  C   UNL     1       4.734  10.402   4.557  1.00  0.00     0.016 A 
ATOM     39  C   UNL     1       4.630  12.611   3.553  1.00  0.00     0.016 A 
ATOM     40  C   UNL     1       4.498  10.975   5.808  1.00  0.00     0.010 A 
ATOM     41  C   UNL     1       4.397  13.182   4.804  1.00  0.00     0.010 A 
ATOM     42  C   UNL     1       4.356  12.370   5.945  1.00  0.00    -0.014 A 
BRANCH  42  43
ATOM     43  C   UNL     1       4.320  12.979   7.296  1.00  0.00     0.031 A 
ATOM     44  C   UNL     1       3.066  13.565   7.868  1.00  0.00     0.074 A 
ATOM     45  C   UNL     1       5.463  13.003   8.011  1.00  0.00     0.049 A 
ATOM     46  N   UNL     1       2.859  14.032   9.073  1.00  0.00    -0.248 NA
ATOM     47  C   UNL     1       1.897  13.645   6.980  1.00  0.00     0.031 C 
ATOM     48  C   UNL     1       6.753  12.498   7.538  1.00  0.00     0.029 A 
ATOM     49  N   UNL     1       5.722  13.446   9.283  1.00  0.00    -0.354 N 
ATOM     50  C   UNL     1       1.533  14.441   9.099  1.00  0.00     0.074 A 
ATOM     51  C   UNL     1       0.998  14.217   7.773  1.00  0.00     0.031 C 
ATOM     52  C   UNL     1       7.655  12.613   8.524  1.00  0.00     0.029 A 
ATOM     53  C   UNL     1       7.020  13.234   9.682  1.00  0.00     0.049 A 
ATOM     54  H   UNL     1       5.044  13.874   9.854  1.00  0.00     0.167 HD
ATOM     55  C   UNL     1       0.828  14.937  10.144  1.00  0.00     0.031 A 
ATOM     56  C   UNL     1       7.635  13.498  10.852  1.00  0.00     0.031 A 
ATOM     57  C   UNL     1       1.380  15.178  11.454  1.00  0.00     0.049 A 
ATOM     58  C   UNL     1       6.838  14.089  11.981  1.00  0.00     0.074 A 
ATOM     59  C   UNL     1       0.727  15.637  12.585  1.00  0.00     0.029 A 
ATOM     60  N   UNL     1       2.708  14.996  11.806  1.00  0.00    -0.354 N 
ATOM     61  N   UNL     1       5.560  14.382  12.021  1.00  0.00    -0.248 NA
ATOM     62  C   UNL     1       7.559  14.372  13.229  1.00  0.00     0.031 C 
ATOM     63  C   UNL     1       1.674  15.812  13.595  1.00  0.00     0.029 A 
ATOM     64  C   UNL     1       2.902  15.375  13.126  1.00  0.00     0.049 A 
ATOM     65  H   UNL     1       3.410  14.649  11.209  1.00  0.00     0.167 HD
ATOM     66  C   UNL     1       5.320  14.863  13.302  1.00  0.00     0.074 A 
ATOM     67  C   UNL     1       6.579  14.799  14.015  1.00  0.00     0.031 C 
ATOM     68  C   UNL     1       4.159  15.318  13.832  1.00  0.00     0.031 A 
BRANCH  55  69
ATOM     69  C   UNL     1      -0.630  15.251   9.936  1.00  0.00    -0.014 A 
ATOM     70  C   UNL     1      -1.087  16.575  10.051  1.00  0.00     0.009 A 
ATOM     71  C   UNL     1      -1.571  14.225   9.757  1.00  0.00     0.009 A 
ATOM     72  C   UNL     1      -2.454  16.860  10.016  1.00  0.00     0.001 A 
ATOM     73  C   UNL     1      -2.935  14.517   9.689  1.00  0.00     0.001 A 
ATOM     74  C   UNL     1      -3.376  15.832   9.832  1.00  0.00     0.000 A 
ENDBRANCH  55  69
BRANCH  56  75
ATOM     75  C   UNL     1       9.073  13.154  11.011  1.00  0.00    -0.014 A 
ATOM     76  C   UNL     1      10.055  13.816  10.254  1.00  0.00     0.009 A 
ATOM     77  C   UNL     1       9.469  12.119  11.872  1.00  0.00     0.009 A 
ATOM     78  C   UNL     1      11.394  13.427  10.330  1.00  0.00     0.001 A 
ATOM     79  C   UNL     1      10.815  11.758  11.973  1.00  0.00     0.001 A 
ATOM     80  C   UNL     1      11.774  12.402  11.193  1.00  0.00     0.000 A 
ENDBRANCH  56  75
BRANCH  68  81
ATOM     81  C   UNL     1       4.170  15.790  15.263  1.00  0.00    -0.014 A 
ATOM     82  C   UNL     1       3.417  15.104  16.231  1.00  0.00     0.009 A 
ATOM     83  C   UNL     1       4.827  16.973  15.633  1.00  0.00     0.009 A 
ATOM     84  C   UNL     1       3.301  15.605  17.529  1.00  0.00     0.001 A 
ATOM     85  C   UNL     1       4.741  17.452  16.942  1.00  0.00     0.001 A 
ATOM     86  C   UNL     1       3.968  16.776  17.885  1.00  0.00     0.000 A 
ENDBRANCH  68  81
ENDBRANCH  42  43
ENDBRANCH  35  37
ENDBRANCH  34  35
ENDBRANCH  33  34
ENDBRANCH  32  33
ENDBRANCH   1  32
TORSDOF 17
