REMARK SMILES C[C@H]1[C@@H](C(=O)OCCOCCOC(=O)c2ccc(-c3c4nc(c(-c5ccccc5)c5ccc([nH]5)c(-c5ccccc5)c5nc(c(-c6ccccc6)c6ccc3[nH]6)C=C5)C=C4)cc2)CCN1C(=O)/C=C/c1cccc(F)c1
REMARK SMILES IDX 8 1 7 2 6 3 4 4 5 5 3 6 1 7 2 8 65 9 63 10 64 11 66 12 67 13
REMARK SMILES IDX 68 14 69 15 70 16 71 17 76 18 72 19 74 20 73 21 75 22 9 23
REMARK SMILES IDX 10 24 11 25 12 26 13 27 14 28 15 29 16 30 62 31 17 32 61 33
REMARK SMILES IDX 18 34 19 35 20 36 55 37 21 38 60 39 54 40 56 41 22 42 59 43
REMARK SMILES IDX 53 44 52 45 23 47 45 48 30 49 44 50 31 51 34 52 43 53 57 54
REMARK SMILES IDX 32 55 33 56 42 58 58 59 35 60 24 61 25 62 29 63 26 64 28 65
REMARK SMILES IDX 27 66 46 67 47 68 51 69 48 70 50 71 49 72 36 73 37 74 41 75
REMARK SMILES IDX 38 76 40 77 39 78
REMARK H PARENT 56 46 34 57
REMARK Flexibility Score: inf
ROOT
ATOM      1  C   UNL     1       1.356   2.477  -3.607  1.00  0.00     0.202 C 
ENDROOT
BRANCH   1   2
ATOM      2  C   UNL     1       1.456   3.375  -2.369  1.00  0.00     0.261 C 
BRANCH   2   3
ATOM      3  O   UNL     1       1.352   2.561  -1.184  1.00  0.00    -0.463 OA
BRANCH   3   4
ATOM      4  C   UNL     1       0.216   2.650  -0.466  1.00  0.00     0.311 C 
ATOM      5  O   UNL     1      -0.620   3.535  -0.610  1.00  0.00    -0.252 OA
BRANCH   4   6
ATOM      6  C   UNL     1       0.034   1.518   0.536  1.00  0.00     0.123 C 
ATOM      7  C   UNL     1       2.037   0.087  -0.462  1.00  0.00     0.032 C 
ATOM      8  C   UNL     1       0.963   0.275   0.609  1.00  0.00     0.096 C 
ATOM      9  N   UNL     1       0.053  -0.885   0.667  1.00  0.00    -0.336 N 
ATOM     10  C   UNL     1      -1.398   0.960   0.406  1.00  0.00     0.039 C 
ATOM     11  C   UNL     1      -1.272  -0.535   0.217  1.00  0.00     0.121 C 
BRANCH   9  12
ATOM     12  C   UNL     1       0.312  -2.208   0.970  1.00  0.00     0.246 C 
ATOM     13  O   UNL     1      -0.533  -3.095   0.861  1.00  0.00    -0.270 OA
BRANCH  12  14
ATOM     14  C   UNL     1       1.697  -2.611   1.315  1.00  0.00     0.072 C 
ATOM     15  C   UNL     1       2.413  -2.041   2.294  1.00  0.00     0.014 C 
BRANCH  15  16
ATOM     16  C   UNL     1       3.830  -2.313   2.589  1.00  0.00    -0.023 A 
ATOM     17  C   UNL     1       4.499  -1.442   3.465  1.00  0.00     0.008 A 
ATOM     18  C   UNL     1       4.553  -3.372   2.026  1.00  0.00     0.047 A 
ATOM     19  C   UNL     1       5.853  -1.619   3.769  1.00  0.00     0.004 A 
ATOM     20  C   UNL     1       5.902  -3.539   2.334  1.00  0.00     0.123 A 
ATOM     21  C   UNL     1       6.557  -2.674   3.200  1.00  0.00     0.039 A 
ATOM     22  F   UNL     1       6.580  -4.553   1.780  1.00  0.00    -0.207 F 
ENDBRANCH  15  16
ENDBRANCH  12  14
ENDBRANCH   9  12
ENDBRANCH   4   6
ENDBRANCH   3   4
ENDBRANCH   2   3
ENDBRANCH   1   2
BRANCH   1  23
ATOM     23  O   UNL     1       0.017   2.131  -3.974  1.00  0.00    -0.374 OA
BRANCH  23  24
ATOM     24  C   UNL     1      -0.565   1.021  -3.292  1.00  0.00     0.202 C 
BRANCH  24  25
ATOM     25  C   UNL     1      -0.344  -0.338  -3.962  1.00  0.00     0.261 C 
BRANCH  25  26
ATOM     26  O   UNL     1       1.050  -0.690  -3.967  1.00  0.00    -0.460 OA
BRANCH  26  27
ATOM     27  C   UNL     1       1.675  -0.458  -5.141  1.00  0.00     0.338 C 
ATOM     28  O   UNL     1       1.158  -0.104  -6.194  1.00  0.00    -0.246 OA
BRANCH  27  29
ATOM     29  C   UNL     1       3.138  -0.540  -4.976  1.00  0.00     0.060 A 
ATOM     30  C   UNL     1       3.903   0.390  -5.688  1.00  0.00     0.016 A 
ATOM     31  C   UNL     1       3.761  -1.535  -4.215  1.00  0.00     0.016 A 
ATOM     32  C   UNL     1       5.287   0.270  -5.726  1.00  0.00     0.010 A 
ATOM     33  C   UNL     1       5.157  -1.650  -4.247  1.00  0.00     0.010 A 
ATOM     34  C   UNL     1       5.918  -0.784  -5.052  1.00  0.00    -0.014 A 
BRANCH  34  35
ATOM     35  C   UNL     1       7.339  -1.065  -5.368  1.00  0.00     0.031 A 
ATOM     36  C   UNL     1       7.662  -2.163  -6.347  1.00  0.00     0.074 A 
ATOM     37  C   UNL     1       8.319  -0.284  -4.881  1.00  0.00     0.049 A 
ATOM     38  N   UNL     1       8.818  -2.501  -6.863  1.00  0.00    -0.248 NA
ATOM     39  C   UNL     1       6.534  -2.986  -6.813  1.00  0.00     0.031 C 
ATOM     40  C   UNL     1       8.131   0.833  -3.958  1.00  0.00     0.029 A 
ATOM     41  N   UNL     1       9.670  -0.302  -5.120  1.00  0.00    -0.354 N 
ATOM     42  C   UNL     1       8.553  -3.569  -7.711  1.00  0.00     0.074 A 
ATOM     43  C   UNL     1       7.139  -3.852  -7.611  1.00  0.00     0.031 C 
ATOM     44  C   UNL     1       9.323   1.407  -3.721  1.00  0.00     0.029 A 
ATOM     45  C   UNL     1      10.357   0.686  -4.460  1.00  0.00     0.049 A 
ATOM     46  H   UNL     1      10.105  -0.961  -5.709  1.00  0.00     0.167 HD
ATOM     47  C   UNL     1       9.406  -4.247  -8.516  1.00  0.00     0.031 A 
ATOM     48  C   UNL     1      11.672   0.977  -4.456  1.00  0.00     0.031 A 
ATOM     49  C   UNL     1      10.815  -3.976  -8.612  1.00  0.00     0.049 A 
ATOM     50  C   UNL     1      12.610   0.171  -5.314  1.00  0.00     0.074 A 
ATOM     51  C   UNL     1      11.762  -4.600  -9.405  1.00  0.00     0.029 A 
ATOM     52  N   UNL     1      11.480  -3.003  -7.884  1.00  0.00    -0.354 N 
ATOM     53  N   UNL     1      12.340  -0.813  -6.138  1.00  0.00    -0.248 NA
ATOM     54  C   UNL     1      14.034   0.531  -5.253  1.00  0.00     0.031 C 
ATOM     55  C   UNL     1      13.011  -4.038  -9.117  1.00  0.00     0.029 A 
ATOM     56  C   UNL     1      12.830  -3.025  -8.190  1.00  0.00     0.049 A 
ATOM     57  H   UNL     1      11.056  -2.387  -7.243  1.00  0.00     0.167 HD
ATOM     58  C   UNL     1      13.553  -1.169  -6.714  1.00  0.00     0.074 A 
ATOM     59  C   UNL     1      14.556  -0.283  -6.159  1.00  0.00     0.031 C 
ATOM     60  C   UNL     1      13.815  -2.140  -7.624  1.00  0.00     0.031 A 
BRANCH  47  61
ATOM     61  C   UNL     1       8.835  -5.372  -9.335  1.00  0.00    -0.014 A 
ATOM     62  C   UNL     1       7.992  -5.123 -10.430  1.00  0.00     0.009 A 
ATOM     63  C   UNL     1       9.161  -6.699  -9.017  1.00  0.00     0.009 A 
ATOM     64  C   UNL     1       7.460  -6.183 -11.168  1.00  0.00     0.001 A 
ATOM     65  C   UNL     1       8.651  -7.755  -9.774  1.00  0.00     0.001 A 
ATOM     66  C   UNL     1       7.794  -7.497 -10.843  1.00  0.00     0.000 A 
ENDBRANCH  47  61
BRANCH  48  67
ATOM     67  C   UNL     1      12.186   2.087  -3.612  1.00  0.00    -0.014 A 
ATOM     68  C   UNL     1      12.685   3.263  -4.193  1.00  0.00     0.009 A 
ATOM     69  C   UNL     1      12.198   1.964  -2.213  1.00  0.00     0.009 A 
ATOM     70  C   UNL     1      13.211   4.280  -3.393  1.00  0.00     0.001 A 
ATOM     71  C   UNL     1      12.697   2.995  -1.415  1.00  0.00     0.001 A 
ATOM     72  C   UNL     1      13.213   4.147  -2.005  1.00  0.00     0.000 A 
ENDBRANCH  48  67
BRANCH  60  73
ATOM     73  C   UNL     1      15.236  -2.269  -8.099  1.00  0.00    -0.014 A 
ATOM     74  C   UNL     1      16.245  -2.771  -7.262  1.00  0.00     0.009 A 
ATOM     75  C   UNL     1      15.563  -1.906  -9.415  1.00  0.00     0.009 A 
ATOM     76  C   UNL     1      17.561  -2.864  -7.720  1.00  0.00     0.001 A 
ATOM     77  C   UNL     1      16.873  -2.029  -9.880  1.00  0.00     0.001 A 
ATOM     78  C   UNL     1      17.873  -2.496  -9.029  1.00  0.00     0.000 A 
ENDBRANCH  60  73
ENDBRANCH  34  35
ENDBRANCH  27  29
ENDBRANCH  26  27
ENDBRANCH  25  26
ENDBRANCH  24  25
ENDBRANCH  23  24
ENDBRANCH   1  23
TORSDOF 17
