REMARK SMILES CC(=O)Nc1ccc(/C=C2/CCc3oc(C(=O)OCCOCCOC(=O)c4ccc(-c5c6nc(c(-c7ccccc7)c7ccc([nH]7)c(-c7ccccc7)c7nc(c(-c8ccccc8)c8ccc5[nH]8)C=C7)C=C6)cc4)c(C)c3C2=O)cc1
REMARK SMILES IDX 21 1 20 2 19 3 18 4 16 5 17 6 15 7 9 8 10 9 11 10 78 11
REMARK SMILES IDX 12 12 77 13 79 14 13 15 75 16 14 17 76 18 8 19 5 20 6 21
REMARK SMILES IDX 81 22 7 23 80 24 4 25 1 26 2 27 3 28 22 30 23 31 24 32 25 33
REMARK SMILES IDX 26 34 27 35 28 36 74 37 29 38 73 39 30 40 31 41 32 42 67 43
REMARK SMILES IDX 33 44 72 45 66 46 68 47 34 48 71 49 65 50 64 51 35 53 57 54
REMARK SMILES IDX 42 55 56 56 43 57 46 58 55 59 69 60 44 61 45 62 54 64 70 65
REMARK SMILES IDX 47 66 36 67 37 68 41 69 38 70 40 71 39 72 58 73 59 74 63 75
REMARK SMILES IDX 60 76 62 77 61 78 48 79 49 80 53 81 50 82 52 83 51 84
REMARK H PARENT 4 29 68 52 46 63
REMARK Flexibility Score: inf
ROOT
ATOM      1  O   UNL     1      -2.161 -12.992   3.386  1.00  0.00    -0.374 OA
ENDROOT
BRANCH   1   2
ATOM      2  C   UNL     1      -2.071 -13.583   2.091  1.00  0.00     0.202 C 
BRANCH   2   3
ATOM      3  C   UNL     1      -2.023 -12.648   0.878  1.00  0.00     0.261 C 
BRANCH   3   4
ATOM      4  O   UNL     1      -0.845 -11.827   0.852  1.00  0.00    -0.457 OA
BRANCH   4   5
ATOM      5  C   UNL     1      -1.050 -10.522   1.205  1.00  0.00     0.374 C 
ATOM      6  O   UNL     1      -2.138 -10.028   1.459  1.00  0.00    -0.242 OA
BRANCH   5   7
ATOM      7  C   UNL     1       0.219  -9.853   1.397  1.00  0.00     0.215 A 
ATOM      8  C   UNL     1       3.819  -5.707   0.998  1.00  0.00     0.016 C 
ATOM      9  C   UNL     1       3.712  -6.984   1.418  1.00  0.00     0.001 C 
ATOM     10  C   UNL     1       4.457  -8.142   0.767  1.00  0.00     0.048 C 
ATOM     11  C   UNL     1       2.758  -7.435   2.486  1.00  0.00     0.192 C 
ATOM     12  C   UNL     1       3.490  -9.140   0.082  1.00  0.00     0.081 C 
ATOM     13  C   UNL     1       1.892  -8.478   1.977  1.00  0.00     0.067 A 
ATOM     14  O   UNL     1       2.709  -6.973   3.615  1.00  0.00    -0.289 OA
ATOM     15  C   UNL     1       2.250  -9.241   0.891  1.00  0.00     0.116 A 
ATOM     16  C   UNL     1       0.589  -8.902   2.348  1.00  0.00     0.014 A 
ATOM     17  O   UNL     1       1.264 -10.098   0.538  1.00  0.00    -0.453 OA
ATOM     18  C   UNL     1      -0.227  -8.382   3.477  1.00  0.00     0.049 C 
BRANCH   8  19
ATOM     19  C   UNL     1       3.052  -4.491   1.362  1.00  0.00    -0.025 A 
ATOM     20  C   UNL     1       1.587  -2.099   1.815  1.00  0.00     0.041 A 
ATOM     21  C   UNL     1       1.128  -3.317   2.305  1.00  0.00     0.027 A 
ATOM     22  C   UNL     1       2.801  -2.064   1.132  1.00  0.00     0.027 A 
ATOM     23  C   UNL     1       1.827  -4.499   2.037  1.00  0.00     0.010 A 
ATOM     24  C   UNL     1       3.530  -3.246   0.920  1.00  0.00     0.010 A 
BRANCH  20  25
ATOM     25  N   UNL     1       0.801  -0.971   2.079  1.00  0.00    -0.326 N 
ATOM     26  C   UNL     1       0.994   0.165  -0.118  1.00  0.00     0.114 C 
ATOM     27  C   UNL     1       0.575   0.146   1.327  1.00  0.00     0.221 C 
ATOM     28  O   UNL     1      -0.051   1.087   1.819  1.00  0.00    -0.275 OA
ATOM     29  H   UNL     1       0.337  -0.985   2.948  1.00  0.00     0.169 HD
ENDBRANCH  20  25
ENDBRANCH   8  19
ENDBRANCH   5   7
ENDBRANCH   4   5
ENDBRANCH   3   4
ENDBRANCH   2   3
ENDBRANCH   1   2
BRANCH   1  30
ATOM     30  C   UNL     1      -1.021 -12.350   3.943  1.00  0.00     0.202 C 
BRANCH  30  31
ATOM     31  C   UNL     1       0.151 -13.205   4.395  1.00  0.00     0.261 C 
BRANCH  31  32
ATOM     32  O   UNL     1       0.672 -14.031   3.365  1.00  0.00    -0.460 OA
BRANCH  32  33
ATOM     33  C   UNL     1       0.293 -15.326   3.471  1.00  0.00     0.338 C 
ATOM     34  O   UNL     1      -0.679 -15.768   4.054  1.00  0.00    -0.246 OA
BRANCH  33  35
ATOM     35  C   UNL     1       1.364 -16.165   2.925  1.00  0.00     0.060 A 
ATOM     36  C   UNL     1       1.152 -17.546   2.924  1.00  0.00     0.016 A 
ATOM     37  C   UNL     1       2.630 -15.609   2.686  1.00  0.00     0.016 A 
ATOM     38  C   UNL     1       2.248 -18.377   2.854  1.00  0.00     0.010 A 
ATOM     39  C   UNL     1       3.724 -16.438   2.642  1.00  0.00     0.010 A 
ATOM     40  C   UNL     1       3.526 -17.807   2.796  1.00  0.00    -0.014 A 
BRANCH  40  41
ATOM     41  C   UNL     1       4.671 -18.688   2.725  1.00  0.00     0.031 A 
ATOM     42  C   UNL     1       4.788 -19.327   1.396  1.00  0.00     0.074 A 
ATOM     43  C   UNL     1       5.576 -18.801   3.715  1.00  0.00     0.049 A 
ATOM     44  N   UNL     1       4.582 -20.568   1.111  1.00  0.00    -0.248 NA
ATOM     45  C   UNL     1       4.950 -18.456   0.217  1.00  0.00     0.031 C 
ATOM     46  C   UNL     1       5.678 -18.007   4.942  1.00  0.00     0.029 A 
ATOM     47  N   UNL     1       6.679 -19.595   3.778  1.00  0.00    -0.354 N 
ATOM     48  C   UNL     1       4.820 -20.677  -0.252  1.00  0.00     0.074 A 
ATOM     49  C   UNL     1       4.815 -19.336  -0.775  1.00  0.00     0.031 C 
ATOM     50  C   UNL     1       6.904 -18.189   5.489  1.00  0.00     0.029 A 
ATOM     51  C   UNL     1       7.615 -19.204   4.729  1.00  0.00     0.049 A 
ATOM     52  H   UNL     1       6.804 -20.381   3.198  1.00  0.00     0.167 HD
ATOM     53  C   UNL     1       5.331 -21.825  -0.772  1.00  0.00     0.031 A 
ATOM     54  C   UNL     1       8.897 -19.642   4.831  1.00  0.00     0.031 A 
ATOM     55  C   UNL     1       5.175 -22.930   0.142  1.00  0.00     0.049 A 
ATOM     56  C   UNL     1       9.002 -20.905   4.064  1.00  0.00     0.074 A 
ATOM     57  C   UNL     1       4.102 -23.543   0.758  1.00  0.00     0.029 A 
ATOM     58  N   UNL     1       6.287 -23.294   0.862  1.00  0.00    -0.354 N 
ATOM     59  N   UNL     1       8.438 -22.016   4.437  1.00  0.00    -0.248 NA
ATOM     60  C   UNL     1       9.341 -20.820   2.652  1.00  0.00     0.031 C 
ATOM     61  C   UNL     1       4.562 -23.867   2.068  1.00  0.00     0.029 A 
ATOM     62  C   UNL     1       5.910 -23.516   2.158  1.00  0.00     0.049 A 
ATOM     63  H   UNL     1       7.201 -23.381   0.505  1.00  0.00     0.167 HD
ATOM     64  C   UNL     1       7.920 -22.550   3.267  1.00  0.00     0.074 A 
ATOM     65  C   UNL     1       8.598 -21.829   2.189  1.00  0.00     0.031 C 
ATOM     66  C   UNL     1       6.783 -23.307   3.291  1.00  0.00     0.031 A 
BRANCH  53  67
ATOM     67  C   UNL     1       6.401 -21.820  -1.841  1.00  0.00    -0.014 A 
ATOM     68  C   UNL     1       6.910 -23.057  -2.275  1.00  0.00     0.009 A 
ATOM     69  C   UNL     1       7.137 -20.675  -2.205  1.00  0.00     0.009 A 
ATOM     70  C   UNL     1       8.136 -23.145  -2.944  1.00  0.00     0.001 A 
ATOM     71  C   UNL     1       8.338 -20.755  -2.911  1.00  0.00     0.001 A 
ATOM     72  C   UNL     1       8.855 -21.994  -3.252  1.00  0.00     0.000 A 
ENDBRANCH  53  67
BRANCH  54  73
ATOM     73  C   UNL     1      10.111 -18.928   5.291  1.00  0.00    -0.014 A 
ATOM     74  C   UNL     1      11.291 -19.636   5.584  1.00  0.00     0.009 A 
ATOM     75  C   UNL     1      10.207 -17.532   5.156  1.00  0.00     0.009 A 
ATOM     76  C   UNL     1      12.524 -18.976   5.687  1.00  0.00     0.001 A 
ATOM     77  C   UNL     1      11.437 -16.873   5.261  1.00  0.00     0.001 A 
ATOM     78  C   UNL     1      12.599 -17.597   5.509  1.00  0.00     0.000 A 
ENDBRANCH  54  73
BRANCH  66  79
ATOM     79  C   UNL     1       6.282 -23.785   4.633  1.00  0.00    -0.014 A 
ATOM     80  C   UNL     1       5.935 -22.929   5.693  1.00  0.00     0.009 A 
ATOM     81  C   UNL     1       6.046 -25.159   4.785  1.00  0.00     0.009 A 
ATOM     82  C   UNL     1       5.412 -23.443   6.886  1.00  0.00     0.001 A 
ATOM     83  C   UNL     1       5.501 -25.669   5.964  1.00  0.00     0.001 A 
ATOM     84  C   UNL     1       5.194 -24.812   7.019  1.00  0.00     0.000 A 
ENDBRANCH  66  79
ENDBRANCH  40  41
ENDBRANCH  33  35
ENDBRANCH  32  33
ENDBRANCH  31  32
ENDBRANCH  30  31
ENDBRANCH   1  30
TORSDOF 16
