REMARK SMILES CC1(C)CCC[C@H]1NC(=O)N[C@@H]1COC[C@@]1(C)C(=O)OCCOCCOC(=O)c1ccc(-c2c3nc(c(-c4ccccc4)c4ccc([nH]4)c(-c4ccccc4)c4nc(c(-c5ccccc5)c5ccc2[nH]5)C=C4)C=C3)cc1
REMARK SMILES IDX 23 1 22 2 21 3 20 4 18 5 19 6 16 7 12 8 13 9 14 10 15 11
REMARK SMILES IDX 17 12 11 13 8 14 9 15 10 17 7 19 1 20 2 21 3 22 4 23 5 24
REMARK SMILES IDX 6 25 24 26 25 27 26 28 27 29 28 30 29 31 30 32 76 33 31 34
REMARK SMILES IDX 75 35 32 36 33 37 34 38 69 39 35 40 74 41 68 42 70 43 36 44
REMARK SMILES IDX 73 45 67 46 66 47 37 49 59 50 44 51 58 52 45 53 48 54 57 55
REMARK SMILES IDX 71 56 46 57 47 58 56 60 72 61 49 62 38 63 39 64 43 65 40 66
REMARK SMILES IDX 42 67 41 68 60 69 61 70 65 71 62 72 64 73 63 74 50 75 51 76
REMARK SMILES IDX 55 77 52 78 54 79 53 80
REMARK H PARENT 8 16 11 18 70 48 48 59
REMARK Flexibility Score: inf
ROOT
ATOM      1  O   UNL     1       5.520   1.462  -1.851  1.00  0.00    -0.374 OA
ENDROOT
BRANCH   1   2
ATOM      2  C   UNL     1       5.665   2.190  -0.628  1.00  0.00     0.202 C 
BRANCH   2   3
ATOM      3  C   UNL     1       5.235   3.666  -0.731  1.00  0.00     0.261 C 
BRANCH   3   4
ATOM      4  O   UNL     1       3.917   3.793  -0.161  1.00  0.00    -0.463 OA
BRANCH   4   5
ATOM      5  C   UNL     1       2.871   4.049  -0.992  1.00  0.00     0.316 C 
ATOM      6  O   UNL     1       2.934   4.789  -1.962  1.00  0.00    -0.251 OA
BRANCH   5   7
ATOM      7  C   UNL     1       1.655   3.192  -0.608  1.00  0.00     0.111 C 
ATOM      8  C   UNL     1       0.454   3.989  -0.090  1.00  0.00     0.129 C 
ATOM      9  C   UNL     1      -0.635   3.868  -1.146  1.00  0.00     0.186 C 
ATOM     10  O   UNL     1      -0.281   2.794  -2.015  1.00  0.00    -0.378 OA
ATOM     11  C   UNL     1       1.132   2.581  -1.919  1.00  0.00     0.181 C 
ATOM     12  C   UNL     1       2.118   2.152   0.413  1.00  0.00     0.028 C 
BRANCH   8  13
ATOM     13  N   UNL     1      -0.025   3.701   1.284  1.00  0.00    -0.332 N 
ATOM     14  N   UNL     1      -0.803   1.472   1.712  1.00  0.00    -0.335 N 
ATOM     15  C   UNL     1      -0.515   2.728   2.053  1.00  0.00     0.315 C 
ATOM     16  H   UNL     1      -0.990   0.923   2.508  1.00  0.00     0.165 HD
ATOM     17  O   UNL     1      -0.689   3.024   3.241  1.00  0.00    -0.249 OA
ATOM     18  H   UNL     1       0.042   4.524   1.821  1.00  0.00     0.165 HD
BRANCH  14  19
ATOM     19  C   UNL     1      -0.920   0.682   0.488  1.00  0.00     0.089 C 
ATOM     20  C   UNL     1       0.914  -0.928   1.573  1.00  0.00     0.013 C 
ATOM     21  C   UNL     1      -0.200  -0.720   0.530  1.00  0.00    -0.015 C 
ATOM     22  C   UNL     1       0.396  -1.038  -0.862  1.00  0.00     0.013 C 
ATOM     23  C   UNL     1      -1.347  -1.693   0.842  1.00  0.00     0.008 C 
ATOM     24  C   UNL     1      -2.526  -1.142   0.067  1.00  0.00     0.003 C 
ATOM     25  C   UNL     1      -2.407   0.370   0.213  1.00  0.00     0.025 C 
ENDBRANCH  14  19
ENDBRANCH   8  13
ENDBRANCH   5   7
ENDBRANCH   4   5
ENDBRANCH   3   4
ENDBRANCH   2   3
ENDBRANCH   1   2
BRANCH   1  26
ATOM     26  C   UNL     1       4.407   0.576  -1.966  1.00  0.00     0.202 C 
BRANCH  26  27
ATOM     27  C   UNL     1       4.511  -0.767  -1.222  1.00  0.00     0.261 C 
BRANCH  27  28
ATOM     28  O   UNL     1       4.688  -0.618   0.198  1.00  0.00    -0.460 OA
BRANCH  28  29
ATOM     29  C   UNL     1       5.947  -0.887   0.624  1.00  0.00     0.338 C 
ATOM     30  O   UNL     1       6.875  -1.296  -0.054  1.00  0.00    -0.246 OA
BRANCH  29  31
ATOM     31  C   UNL     1       6.143  -0.488   2.033  1.00  0.00     0.060 A 
ATOM     32  C   UNL     1       7.337   0.181   2.325  1.00  0.00     0.016 A 
ATOM     33  C   UNL     1       5.271  -0.852   3.063  1.00  0.00     0.016 A 
ATOM     34  C   UNL     1       7.702   0.416   3.647  1.00  0.00     0.010 A 
ATOM     35  C   UNL     1       5.638  -0.606   4.397  1.00  0.00     0.010 A 
ATOM     36  C   UNL     1       6.880  -0.016   4.696  1.00  0.00    -0.014 A 
BRANCH  36  37
ATOM     37  C   UNL     1       7.428   0.034   6.078  1.00  0.00     0.031 A 
ATOM     38  C   UNL     1       7.978  -1.221   6.705  1.00  0.00     0.074 A 
ATOM     39  C   UNL     1       7.560   1.210   6.719  1.00  0.00     0.049 A 
ATOM     40  N   UNL     1       8.647  -1.364   7.822  1.00  0.00    -0.248 NA
ATOM     41  C   UNL     1       7.752  -2.478   5.976  1.00  0.00     0.031 C 
ATOM     42  C   UNL     1       7.105   2.505   6.213  1.00  0.00     0.029 A 
ATOM     43  N   UNL     1       8.146   1.507   7.925  1.00  0.00    -0.354 N 
ATOM     44  C   UNL     1       8.928  -2.721   7.924  1.00  0.00     0.074 A 
ATOM     45  C   UNL     1       8.319  -3.365   6.780  1.00  0.00     0.031 C 
ATOM     46  C   UNL     1       7.452   3.462   7.090  1.00  0.00     0.029 A 
ATOM     47  C   UNL     1       8.136   2.847   8.226  1.00  0.00     0.049 A 
ATOM     48  H   UNL     1       8.536   0.824   8.517  1.00  0.00     0.167 HD
ATOM     49  C   UNL     1       9.641  -3.376   8.873  1.00  0.00     0.031 A 
ATOM     50  C   UNL     1       8.629   3.507   9.292  1.00  0.00     0.031 A 
ATOM     51  C   UNL     1      10.239  -2.749  10.021  1.00  0.00     0.049 A 
ATOM     52  C   UNL     1       9.365   2.748  10.364  1.00  0.00     0.074 A 
ATOM     53  C   UNL     1      10.990  -3.332  11.029  1.00  0.00     0.029 A 
ATOM     54  N   UNL     1      10.149  -1.399  10.319  1.00  0.00    -0.354 N 
ATOM     55  N   UNL     1       9.659   1.472  10.422  1.00  0.00    -0.248 NA
ATOM     56  C   UNL     1       9.853   3.531  11.509  1.00  0.00     0.031 C 
ATOM     57  C   UNL     1      11.309  -2.342  11.965  1.00  0.00     0.029 A 
ATOM     58  C   UNL     1      10.808  -1.133  11.509  1.00  0.00     0.049 A 
ATOM     59  H   UNL     1       9.686  -0.728   9.768  1.00  0.00     0.167 HD
ATOM     60  C   UNL     1      10.391   1.305  11.591  1.00  0.00     0.074 A 
ATOM     61  C   UNL     1      10.511   2.612  12.202  1.00  0.00     0.031 C 
ATOM     62  C   UNL     1      10.920   0.170  12.111  1.00  0.00     0.031 A 
BRANCH  49  63
ATOM     63  C   UNL     1       9.789  -4.865   8.717  1.00  0.00    -0.014 A 
ATOM     64  C   UNL     1      10.612  -5.415   7.721  1.00  0.00     0.009 A 
ATOM     65  C   UNL     1       9.120  -5.728   9.598  1.00  0.00     0.009 A 
ATOM     66  C   UNL     1      10.733  -6.801   7.590  1.00  0.00     0.001 A 
ATOM     67  C   UNL     1       9.265  -7.111   9.482  1.00  0.00     0.001 A 
ATOM     68  C   UNL     1      10.063  -7.647   8.473  1.00  0.00     0.000 A 
ENDBRANCH  49  63
BRANCH  50  69
ATOM     69  C   UNL     1       8.450   4.979   9.403  1.00  0.00    -0.014 A 
ATOM     70  C   UNL     1       9.547   5.848   9.294  1.00  0.00     0.009 A 
ATOM     71  C   UNL     1       7.178   5.520   9.647  1.00  0.00     0.009 A 
ATOM     72  C   UNL     1       9.377   7.226   9.455  1.00  0.00     0.001 A 
ATOM     73  C   UNL     1       7.007   6.899   9.778  1.00  0.00     0.001 A 
ATOM     74  C   UNL     1       8.107   7.750   9.693  1.00  0.00     0.000 A 
ENDBRANCH  50  69
BRANCH  62  75
ATOM     75  C   UNL     1      11.708   0.297  13.385  1.00  0.00    -0.014 A 
ATOM     76  C   UNL     1      11.081   0.572  14.611  1.00  0.00     0.009 A 
ATOM     77  C   UNL     1      13.100   0.113  13.362  1.00  0.00     0.009 A 
ATOM     78  C   UNL     1      11.837   0.702  15.778  1.00  0.00     0.001 A 
ATOM     79  C   UNL     1      13.850   0.213  14.535  1.00  0.00     0.001 A 
ATOM     80  C   UNL     1      13.219   0.518  15.740  1.00  0.00     0.000 A 
ENDBRANCH  62  75
ENDBRANCH  36  37
ENDBRANCH  29  31
ENDBRANCH  28  29
ENDBRANCH  27  28
ENDBRANCH  26  27
ENDBRANCH   1  26
TORSDOF 16
