REMARK SMILES CCC1C[NH+]([C@H](C(=O)OCCOCCOC(=O)c2ccc(-c3c4nc(c(-c5ccccc5)c5ccc([nH]5)c(-c5ccccc5)c5nc(c(-c6ccccc6)c6ccc3[nH]6)C=C5)C=C4)cc2)C(C)C)C1
REMARK SMILES IDX 12 1 11 2 10 3 9 4 7 5 8 6 6 7 5 8 3 9 4 10 69 11 2 13 1 14
REMARK SMILES IDX 66 15 67 16 68 17 13 18 14 19 15 20 16 21 17 22 18 23 19 24
REMARK SMILES IDX 65 25 20 26 64 27 21 28 22 29 23 30 58 31 24 32 63 33 57 34
REMARK SMILES IDX 59 35 25 36 62 37 56 38 55 39 26 41 48 42 33 43 47 44 34 45
REMARK SMILES IDX 37 46 46 47 60 48 35 49 36 50 45 52 61 53 38 54 27 55 28 56
REMARK SMILES IDX 32 57 29 58 31 59 30 60 49 61 50 62 54 63 51 64 53 65 52 66
REMARK SMILES IDX 39 67 40 68 44 69 41 70 43 71 42 72
REMARK H PARENT 5 12 59 40 37 51
REMARK Flexibility Score: inf
ROOT
ATOM      1  O   UNL     1       1.190  -2.743   0.017  1.00  0.00    -0.374 OA
ENDROOT
BRANCH   1   2
ATOM      2  C   UNL     1       2.151  -1.697   0.095  1.00  0.00     0.202 C 
BRANCH   2   3
ATOM      3  C   UNL     1       3.142  -1.552  -1.068  1.00  0.00     0.261 C 
BRANCH   3   4
ATOM      4  O   UNL     1       2.582  -1.256  -2.363  1.00  0.00    -0.459 OA
BRANCH   4   5
ATOM      5  C   UNL     1       2.454  -2.335  -3.182  1.00  0.00     0.365 C 
ATOM      6  O   UNL     1       2.559  -3.497  -2.788  1.00  0.00    -0.245 OA
BRANCH   5   7
ATOM      7  C   UNL     1       2.340  -2.027  -4.671  1.00  0.00     0.297 C 
BRANCH   7   8
ATOM      8  N   UNL     1       1.384  -1.036  -5.167  1.00  0.00    -0.322 N 
ATOM      9  C   UNL     1      -0.203   0.250  -5.255  1.00  0.00     0.099 C 
ATOM     10  C   UNL     1       1.198   0.282  -4.526  1.00  0.00     0.272 C 
ATOM     11  C   UNL     1      -0.059  -1.295  -4.988  1.00  0.00     0.272 C 
ATOM     12  H   UNL     1       1.843  -1.075  -6.077  1.00  0.00     0.348 HD
BRANCH   9  13
ATOM     13  C   UNL     1      -1.411   1.072  -4.838  1.00  0.00     0.012 C 
ATOM     14  C   UNL     1      -1.890   0.789  -3.436  1.00  0.00     0.004 C 
ENDBRANCH   9  13
ENDBRANCH   7   8
BRANCH   7  15
ATOM     15  C   UNL     1       3.736  -1.748  -5.301  1.00  0.00     0.053 C 
ATOM     16  C   UNL     1       4.811  -2.737  -4.829  1.00  0.00     0.014 C 
ATOM     17  C   UNL     1       3.660  -1.817  -6.837  1.00  0.00     0.014 C 
ENDBRANCH   7  15
ENDBRANCH   5   7
ENDBRANCH   4   5
ENDBRANCH   3   4
ENDBRANCH   2   3
ENDBRANCH   1   2
BRANCH   1  18
ATOM     18  C   UNL     1       0.092  -2.577  -0.879  1.00  0.00     0.202 C 
BRANCH  18  19
ATOM     19  C   UNL     1      -0.870  -1.438  -0.551  1.00  0.00     0.261 C 
BRANCH  19  20
ATOM     20  O   UNL     1      -0.224  -0.159  -0.691  1.00  0.00    -0.460 OA
BRANCH  20  21
ATOM     21  C   UNL     1      -0.670   0.777   0.175  1.00  0.00     0.338 C 
ATOM     22  O   UNL     1      -1.616   0.683   0.943  1.00  0.00    -0.246 OA
BRANCH  21  23
ATOM     23  C   UNL     1       0.221   1.947   0.173  1.00  0.00     0.060 A 
ATOM     24  C   UNL     1       0.980   2.192   1.322  1.00  0.00     0.016 A 
ATOM     25  C   UNL     1       0.177   2.884  -0.862  1.00  0.00     0.016 A 
ATOM     26  C   UNL     1       1.637   3.413   1.470  1.00  0.00     0.010 A 
ATOM     27  C   UNL     1       0.848   4.100  -0.719  1.00  0.00     0.010 A 
ATOM     28  C   UNL     1       1.534   4.392   0.471  1.00  0.00    -0.014 A 
BRANCH  28  29
ATOM     29  C   UNL     1       2.029   5.764   0.730  1.00  0.00     0.031 A 
ATOM     30  C   UNL     1       1.055   6.846   1.112  1.00  0.00     0.074 A 
ATOM     31  C   UNL     1       3.340   6.041   0.632  1.00  0.00     0.049 A 
ATOM     32  N   UNL     1       1.289   8.093   1.435  1.00  0.00    -0.248 NA
ATOM     33  C   UNL     1      -0.370   6.478   1.122  1.00  0.00     0.031 C 
ATOM     34  C   UNL     1       4.378   5.087   0.247  1.00  0.00     0.029 A 
ATOM     35  N   UNL     1       4.017   7.213   0.848  1.00  0.00    -0.354 N 
ATOM     36  C   UNL     1       0.044   8.656   1.689  1.00  0.00     0.074 A 
ATOM     37  C   UNL     1      -0.944   7.629   1.440  1.00  0.00     0.031 C 
ATOM     38  C   UNL     1       5.566   5.714   0.251  1.00  0.00     0.029 A 
ATOM     39  C   UNL     1       5.368   7.111   0.633  1.00  0.00     0.049 A 
ATOM     40  H   UNL     1       3.577   8.048   1.129  1.00  0.00     0.167 HD
ATOM     41  C   UNL     1      -0.251   9.911   2.107  1.00  0.00     0.031 A 
ATOM     42  C   UNL     1       6.339   8.038   0.737  1.00  0.00     0.031 A 
ATOM     43  C   UNL     1       0.728  10.938   2.343  1.00  0.00     0.049 A 
ATOM     44  C   UNL     1       5.992   9.424   1.199  1.00  0.00     0.074 A 
ATOM     45  C   UNL     1       0.535  12.228   2.807  1.00  0.00     0.029 A 
ATOM     46  N   UNL     1       2.089  10.790   2.124  1.00  0.00    -0.354 N 
ATOM     47  N   UNL     1       4.819   9.922   1.507  1.00  0.00    -0.248 NA
ATOM     48  C   UNL     1       7.108  10.369   1.351  1.00  0.00     0.031 C 
ATOM     49  C   UNL     1       1.776  12.874   2.830  1.00  0.00     0.029 A 
ATOM     50  C   UNL     1       2.746  11.972   2.423  1.00  0.00     0.049 A 
ATOM     51  H   UNL     1       2.523   9.967   1.804  1.00  0.00     0.167 HD
ATOM     52  C   UNL     1       5.055  11.230   1.906  1.00  0.00     0.074 A 
ATOM     53  C   UNL     1       6.486  11.445   1.815  1.00  0.00     0.031 C 
ATOM     54  C   UNL     1       4.168  12.170   2.315  1.00  0.00     0.031 A 
BRANCH  41  55
ATOM     55  C   UNL     1      -1.702  10.239   2.325  1.00  0.00    -0.014 A 
ATOM     56  C   UNL     1      -2.409   9.707   3.416  1.00  0.00     0.009 A 
ATOM     57  C   UNL     1      -2.367  11.103   1.441  1.00  0.00     0.009 A 
ATOM     58  C   UNL     1      -3.762  10.003   3.595  1.00  0.00     0.001 A 
ATOM     59  C   UNL     1      -3.713  11.417   1.637  1.00  0.00     0.001 A 
ATOM     60  C   UNL     1      -4.412  10.859   2.707  1.00  0.00     0.000 A 
ENDBRANCH  41  55
BRANCH  42  61
ATOM     61  C   UNL     1       7.738   7.663   0.418  1.00  0.00    -0.014 A 
ATOM     62  C   UNL     1       8.672   7.451   1.442  1.00  0.00     0.009 A 
ATOM     63  C   UNL     1       8.134   7.480  -0.916  1.00  0.00     0.009 A 
ATOM     64  C   UNL     1       9.980   7.071   1.135  1.00  0.00     0.001 A 
ATOM     65  C   UNL     1       9.437   7.081  -1.219  1.00  0.00     0.001 A 
ATOM     66  C   UNL     1      10.360   6.881  -0.194  1.00  0.00     0.000 A 
ENDBRANCH  42  61
BRANCH  54  67
ATOM     67  C   UNL     1       4.722  13.509   2.707  1.00  0.00    -0.014 A 
ATOM     68  C   UNL     1       5.152  14.426   1.735  1.00  0.00     0.009 A 
ATOM     69  C   UNL     1       4.781  13.870   4.061  1.00  0.00     0.009 A 
ATOM     70  C   UNL     1       5.659  15.670   2.117  1.00  0.00     0.001 A 
ATOM     71  C   UNL     1       5.268  15.123   4.438  1.00  0.00     0.001 A 
ATOM     72  C   UNL     1       5.713  16.018   3.466  1.00  0.00     0.000 A 
ENDBRANCH  54  67
ENDBRANCH  28  29
ENDBRANCH  21  23
ENDBRANCH  20  21
ENDBRANCH  19  20
ENDBRANCH  18  19
ENDBRANCH   1  18
TORSDOF 17
