REMARK SMILES Cc1onc2c(=O)n(C)nc(C(=O)OCCOCCOC(=O)c3ccc(-c4c5nc(c(-c6ccccc6)c6ccc([nH]6)c(-c6ccccc6)c6nc(c(-c7ccccc7)c7ccc4[nH]7)C=C6)C=C5)cc3)c12
REMARK SMILES IDX 18 1 17 2 16 3 15 4 14 5 12 6 13 7 11 8 1 9 2 10 3 11 71 12
REMARK SMILES IDX 4 13 5 14 6 15 10 16 7 17 8 18 9 19 19 20 20 21 21 22 22 23
REMARK SMILES IDX 23 24 24 25 70 26 25 27 69 28 26 29 27 30 28 31 63 32 29 33
REMARK SMILES IDX 68 34 62 35 64 36 30 37 67 38 61 39 60 40 31 42 53 43 38 44
REMARK SMILES IDX 52 45 39 46 42 47 51 48 65 49 40 50 41 51 50 53 66 54 43 55
REMARK SMILES IDX 32 56 33 57 37 58 34 59 36 60 35 61 54 62 55 63 59 64 56 65
REMARK SMILES IDX 58 66 57 67 44 68 45 69 49 70 46 71 48 72 47 73
REMARK H PARENT 64 41 42 52
REMARK Flexibility Score: inf
ROOT
ATOM      1  C   UNL     1       3.431   2.206  -0.396  1.00  0.00     0.202 C 
ENDROOT
BRANCH   1   2
ATOM      2  O   UNL     1       3.116   2.105  -1.782  1.00  0.00    -0.374 OA
BRANCH   2   3
ATOM      3  C   UNL     1       2.663   3.289  -2.440  1.00  0.00     0.202 C 
BRANCH   3   4
ATOM      4  C   UNL     1       1.193   3.653  -2.208  1.00  0.00     0.261 C 
BRANCH   4   5
ATOM      5  O   UNL     1       0.909   3.752  -0.807  1.00  0.00    -0.458 OA
BRANCH   5   6
ATOM      6  C   UNL     1      -0.118   3.003  -0.364  1.00  0.00     0.359 C 
ATOM      7  O   UNL     1      -0.952   2.400  -1.021  1.00  0.00    -0.244 OA
BRANCH   6   8
ATOM      8  C   UNL     1      -0.059   2.890   1.148  1.00  0.00     0.182 A 
ATOM      9  C   UNL     1       0.525  -0.379   0.163  1.00  0.00     0.091 C 
ATOM     10  C   UNL     1       0.243   0.329   1.427  1.00  0.00     0.144 A 
ATOM     11  O   UNL     1       0.223  -0.469   2.538  1.00  0.00    -0.360 OA
ATOM     12  C   UNL     1       0.032   1.627   1.824  1.00  0.00     0.085 A 
ATOM     13  N   UNL     1       0.043   0.308   3.672  1.00  0.00    -0.074 NA
ATOM     14  C   UNL     1      -0.041   1.565   3.225  1.00  0.00     0.183 A 
ATOM     15  C   UNL     1      -0.138   2.762   4.034  1.00  0.00     0.296 A 
ATOM     16  N   UNL     1      -0.101   3.991   1.854  1.00  0.00    -0.162 NA
ATOM     17  O   UNL     1      -0.224   2.756   5.261  1.00  0.00    -0.265 OA
ATOM     18  N   UNL     1      -0.087   3.941   3.258  1.00  0.00    -0.230 N 
ATOM     19  C   UNL     1      -0.082   5.219   3.942  1.00  0.00     0.178 C 
ENDBRANCH   6   8
ENDBRANCH   5   6
ENDBRANCH   4   5
ENDBRANCH   3   4
ENDBRANCH   2   3
ENDBRANCH   1   2
BRANCH   1  20
ATOM     20  C   UNL     1       4.731   2.903   0.034  1.00  0.00     0.261 C 
BRANCH  20  21
ATOM     21  O   UNL     1       5.089   4.083  -0.692  1.00  0.00    -0.460 OA
BRANCH  21  22
ATOM     22  C   UNL     1       5.875   3.828  -1.765  1.00  0.00     0.338 C 
ATOM     23  O   UNL     1       6.183   2.732  -2.212  1.00  0.00    -0.246 OA
BRANCH  22  24
ATOM     24  C   UNL     1       6.325   5.077  -2.390  1.00  0.00     0.060 A 
ATOM     25  C   UNL     1       6.088   5.266  -3.756  1.00  0.00     0.016 A 
ATOM     26  C   UNL     1       7.122   5.968  -1.675  1.00  0.00     0.016 A 
ATOM     27  C   UNL     1       6.669   6.347  -4.421  1.00  0.00     0.010 A 
ATOM     28  C   UNL     1       7.719   7.033  -2.350  1.00  0.00     0.010 A 
ATOM     29  C   UNL     1       7.503   7.232  -3.729  1.00  0.00    -0.014 A 
BRANCH  29  30
ATOM     30  C   UNL     1       8.112   8.374  -4.459  1.00  0.00     0.031 A 
ATOM     31  C   UNL     1       8.066   9.668  -3.730  1.00  0.00     0.074 A 
ATOM     32  C   UNL     1       9.174   8.224  -5.288  1.00  0.00     0.049 A 
ATOM     33  N   UNL     1       8.943   9.901  -2.803  1.00  0.00    -0.248 NA
ATOM     34  C   UNL     1       6.967  10.626  -3.750  1.00  0.00     0.031 C 
ATOM     35  C   UNL     1      10.051   7.045  -5.283  1.00  0.00     0.029 A 
ATOM     36  N   UNL     1       9.834   9.130  -6.097  1.00  0.00    -0.354 N 
ATOM     37  C   UNL     1       8.481  10.949  -2.039  1.00  0.00     0.074 A 
ATOM     38  C   UNL     1       7.277  11.408  -2.698  1.00  0.00     0.031 C 
ATOM     39  C   UNL     1      11.203   7.358  -5.910  1.00  0.00     0.029 A 
ATOM     40  C   UNL     1      11.090   8.688  -6.500  1.00  0.00     0.049 A 
ATOM     41  H   UNL     1       9.454   9.999  -6.362  1.00  0.00     0.167 HD
ATOM     42  C   UNL     1       9.133  11.329  -0.907  1.00  0.00     0.031 A 
ATOM     43  C   UNL     1      12.156   9.458  -6.840  1.00  0.00     0.031 A 
ATOM     44  C   UNL     1      10.338  10.608  -0.543  1.00  0.00     0.049 A 
ATOM     45  C   UNL     1      12.648   9.986  -5.524  1.00  0.00     0.074 A 
ATOM     46  C   UNL     1      11.021  10.238   0.600  1.00  0.00     0.029 A 
ATOM     47  N   UNL     1      11.088  10.106  -1.570  1.00  0.00    -0.354 N 
ATOM     48  N   UNL     1      13.406   9.353  -4.670  1.00  0.00    -0.248 NA
ATOM     49  C   UNL     1      12.077  11.247  -5.019  1.00  0.00     0.031 C 
ATOM     50  C   UNL     1      12.272   9.660   0.190  1.00  0.00     0.029 A 
ATOM     51  C   UNL     1      12.344   9.737  -1.190  1.00  0.00     0.049 A 
ATOM     52  H   UNL     1      10.754  10.020  -2.492  1.00  0.00     0.167 HD
ATOM     53  C   UNL     1      13.168   9.981  -3.457  1.00  0.00     0.074 A 
ATOM     54  C   UNL     1      12.485  11.224  -3.755  1.00  0.00     0.031 C 
ATOM     55  C   UNL     1      13.245   9.354  -2.248  1.00  0.00     0.031 A 
BRANCH  42  56
ATOM     56  C   UNL     1       8.797  12.574  -0.183  1.00  0.00    -0.014 A 
ATOM     57  C   UNL     1       9.623  13.687  -0.421  1.00  0.00     0.009 A 
ATOM     58  C   UNL     1       7.817  12.653   0.809  1.00  0.00     0.009 A 
ATOM     59  C   UNL     1       9.489  14.853   0.329  1.00  0.00     0.001 A 
ATOM     60  C   UNL     1       7.683  13.828   1.561  1.00  0.00     0.001 A 
ATOM     61  C   UNL     1       8.520  14.921   1.325  1.00  0.00     0.000 A 
ENDBRANCH  42  56
BRANCH  43  62
ATOM     62  C   UNL     1      12.072  10.306  -8.067  1.00  0.00    -0.014 A 
ATOM     63  C   UNL     1      11.633   9.711  -9.267  1.00  0.00     0.009 A 
ATOM     64  C   UNL     1      12.494  11.643  -8.139  1.00  0.00     0.009 A 
ATOM     65  C   UNL     1      11.539  10.442 -10.458  1.00  0.00     0.001 A 
ATOM     66  C   UNL     1      12.368  12.386  -9.319  1.00  0.00     0.001 A 
ATOM     67  C   UNL     1      11.883  11.788 -10.477  1.00  0.00     0.000 A 
ENDBRANCH  43  62
BRANCH  55  68
ATOM     68  C   UNL     1      14.116   8.158  -2.143  1.00  0.00    -0.014 A 
ATOM     69  C   UNL     1      15.483   8.274  -2.435  1.00  0.00     0.009 A 
ATOM     70  C   UNL     1      13.616   6.927  -1.702  1.00  0.00     0.009 A 
ATOM     71  C   UNL     1      16.336   7.183  -2.286  1.00  0.00     0.001 A 
ATOM     72  C   UNL     1      14.472   5.833  -1.553  1.00  0.00     0.001 A 
ATOM     73  C   UNL     1      15.831   5.964  -1.841  1.00  0.00     0.000 A 
ENDBRANCH  55  68
ENDBRANCH  29  30
ENDBRANCH  22  24
ENDBRANCH  21  22
ENDBRANCH  20  21
ENDBRANCH   1  20
TORSDOF 14
