REMARK SMILES Nc1ccc(-c2cc(Cl)cc3c2O[C@H](C(F)(F)F)C(C(=O)OCCOCCOC(=O)c2ccc(-c4c5nc(c(-c6ccccc6)c6ccc([nH]6)c(-c6ccccc6)c6nc(c(-c7ccccc7)c7ccc4[nH]7)C=C6)C=C5)cc2)=C3)cc1
REMARK SMILES IDX 25 1 24 2 23 3 22 4 20 5 21 6 19 7 6 8 7 9 12 10 8 11 11 12
REMARK SMILES IDX 13 13 9 14 10 15 79 16 14 17 5 18 2 19 3 20 81 21 4 22 80 23
REMARK SMILES IDX 1 24 15 27 16 28 17 29 18 30 26 31 27 32 28 33 29 34 30 35
REMARK SMILES IDX 31 36 32 37 78 38 33 39 77 40 34 41 35 42 36 43 71 44 37 45
REMARK SMILES IDX 76 46 70 47 72 48 38 49 75 50 69 51 68 52 39 54 61 55 46 56
REMARK SMILES IDX 60 57 47 58 50 59 59 60 73 61 48 62 49 63 58 65 74 66 51 67
REMARK SMILES IDX 40 68 41 69 45 70 42 71 44 72 43 73 62 74 63 75 67 76 64 77
REMARK SMILES IDX 66 78 65 79 52 80 53 81 57 82 54 83 56 84 55 85
REMARK H PARENT 1 25 1 26 72 53 50 64
REMARK Flexibility Score: inf
ROOT
ATOM      1  O   UNL     1      -8.274  -2.058   6.085  1.00  0.00    -0.374 OA
ENDROOT
BRANCH   1   2
ATOM      2  C   UNL     1      -7.502  -3.121   6.634  1.00  0.00     0.202 C 
BRANCH   2   3
ATOM      3  C   UNL     1      -6.772  -4.055   5.665  1.00  0.00     0.261 C 
BRANCH   3   4
ATOM      4  O   UNL     1      -5.909  -3.342   4.768  1.00  0.00    -0.460 OA
BRANCH   4   5
ATOM      5  C   UNL     1      -6.336  -3.323   3.483  1.00  0.00     0.338 C 
ATOM      6  O   UNL     1      -7.294  -3.922   3.021  1.00  0.00    -0.246 OA
BRANCH   5   7
ATOM      7  C   UNL     1      -5.540  -2.356   2.705  1.00  0.00     0.087 C 
ATOM      8  C   UNL     1      -3.329   0.025   0.070  1.00  0.00     0.026 A 
ATOM      9  C   UNL     1      -4.024   0.703  -0.950  1.00  0.00     0.033 A 
ATOM     10  C   UNL     1      -4.080  -0.688   1.029  1.00  0.00     0.135 A 
ATOM     11  C   UNL     1      -5.416   0.673  -1.009  1.00  0.00     0.042 A 
ATOM     12  C   UNL     1      -5.476  -0.752   0.934  1.00  0.00     0.019 A 
ATOM     13  O   UNL     1      -3.394  -1.281   2.057  1.00  0.00    -0.475 OA
ATOM     14  Cl  UNL     1      -6.238   1.505  -2.270  1.00  0.00    -0.084 Cl
ATOM     15  C   UNL     1      -6.145  -0.053  -0.074  1.00  0.00     0.032 A 
ATOM     16  C   UNL     1      -6.227  -1.610   1.831  1.00  0.00     0.027 C 
ATOM     17  C   UNL     1      -4.052  -2.273   2.888  1.00  0.00     0.316 C 
BRANCH   8  18
ATOM     18  C   UNL     1      -1.854   0.029   0.066  1.00  0.00    -0.014 A 
ATOM     19  C   UNL     1       0.983   0.018   0.013  1.00  0.00     0.031 A 
ATOM     20  C   UNL     1       0.267  -1.178  -0.006  1.00  0.00     0.026 A 
ATOM     21  C   UNL     1       0.273   1.219   0.013  1.00  0.00     0.026 A 
ATOM     22  C   UNL     1      -1.131  -1.174   0.028  1.00  0.00     0.011 A 
ATOM     23  C   UNL     1      -1.127   1.227   0.051  1.00  0.00     0.011 A 
BRANCH  19  24
ATOM     24  N   UNL     1       2.363   0.013  -0.097  1.00  0.00    -0.399 N 
ATOM     25  H   UNL     1       2.854  -0.841  -0.096  1.00  0.00     0.156 HD
ATOM     26  H   UNL     1       2.853   0.862  -0.177  1.00  0.00     0.156 HD
ENDBRANCH  19  24
ENDBRANCH   8  18
BRANCH  17  27
ATOM     27  C   UNL     1      -3.351  -3.622   2.679  1.00  0.00     0.430 C 
ATOM     28  F   UNL     1      -2.007  -3.503   2.801  1.00  0.00    -0.167 F 
ATOM     29  F   UNL     1      -3.741  -4.540   3.593  1.00  0.00    -0.167 F 
ATOM     30  F   UNL     1      -3.601  -4.137   1.454  1.00  0.00    -0.167 F 
ENDBRANCH  17  27
ENDBRANCH   5   7
ENDBRANCH   4   5
ENDBRANCH   3   4
ENDBRANCH   2   3
ENDBRANCH   1   2
BRANCH   1  31
ATOM     31  C   UNL     1      -7.596  -0.926   5.542  1.00  0.00     0.202 C 
BRANCH  31  32
ATOM     32  C   UNL     1      -6.874   0.029   6.501  1.00  0.00     0.261 C 
BRANCH  32  33
ATOM     33  O   UNL     1      -5.791  -0.597   7.208  1.00  0.00    -0.460 OA
BRANCH  33  34
ATOM     34  C   UNL     1      -6.012  -0.785   8.533  1.00  0.00     0.338 C 
ATOM     35  O   UNL     1      -6.998  -0.454   9.175  1.00  0.00    -0.246 OA
BRANCH  34  36
ATOM     36  C   UNL     1      -4.954  -1.647   9.088  1.00  0.00     0.060 A 
ATOM     37  C   UNL     1      -3.607  -1.301   8.980  1.00  0.00     0.016 A 
ATOM     38  C   UNL     1      -5.340  -2.804   9.780  1.00  0.00     0.016 A 
ATOM     39  C   UNL     1      -2.646  -2.102   9.601  1.00  0.00     0.010 A 
ATOM     40  C   UNL     1      -4.379  -3.602  10.399  1.00  0.00     0.010 A 
ATOM     41  C   UNL     1      -3.027  -3.242  10.337  1.00  0.00    -0.014 A 
BRANCH  41  42
ATOM     42  C   UNL     1      -2.026  -3.951  11.171  1.00  0.00     0.031 A 
ATOM     43  C   UNL     1      -1.504  -5.306  10.804  1.00  0.00     0.074 A 
ATOM     44  C   UNL     1      -1.599  -3.347  12.297  1.00  0.00     0.049 A 
ATOM     45  N   UNL     1      -0.547  -5.994  11.376  1.00  0.00    -0.248 NA
ATOM     46  C   UNL     1      -2.131  -5.982   9.659  1.00  0.00     0.031 C 
ATOM     47  C   UNL     1      -2.075  -2.049  12.779  1.00  0.00     0.029 A 
ATOM     48  N   UNL     1      -0.664  -3.726  13.226  1.00  0.00    -0.354 N 
ATOM     49  C   UNL     1      -0.442  -7.173  10.652  1.00  0.00     0.074 A 
ATOM     50  C   UNL     1      -1.467  -7.132   9.630  1.00  0.00     0.031 C 
ATOM     51  C   UNL     1      -1.393  -1.716  13.883  1.00  0.00     0.029 A 
ATOM     52  C   UNL     1      -0.460  -2.790  14.211  1.00  0.00     0.049 A 
ATOM     53  H   UNL     1      -0.186  -4.586  13.191  1.00  0.00     0.167 HD
ATOM     54  C   UNL     1       0.444  -8.184  10.818  1.00  0.00     0.031 A 
ATOM     55  C   UNL     1       0.391  -2.784  15.256  1.00  0.00     0.031 A 
ATOM     56  C   UNL     1       1.446  -8.223  11.854  1.00  0.00     0.049 A 
ATOM     57  C   UNL     1       1.339  -3.936  15.436  1.00  0.00     0.074 A 
ATOM     58  C   UNL     1       2.422  -9.182  12.064  1.00  0.00     0.029 A 
ATOM     59  N   UNL     1       1.593  -7.279  12.859  1.00  0.00    -0.354 N 
ATOM     60  N   UNL     1       1.499  -4.995  14.681  1.00  0.00    -0.248 NA
ATOM     61  C   UNL     1       2.236  -3.884  16.599  1.00  0.00     0.031 C 
ATOM     62  C   UNL     1       3.102  -8.865  13.241  1.00  0.00     0.029 A 
ATOM     63  C   UNL     1       2.614  -7.659  13.716  1.00  0.00     0.049 A 
ATOM     64  H   UNL     1       1.053  -6.461  12.950  1.00  0.00     0.167 HD
ATOM     65  C   UNL     1       2.525  -5.727  15.265  1.00  0.00     0.074 A 
ATOM     66  C   UNL     1       2.968  -4.976  16.422  1.00  0.00     0.031 C 
ATOM     67  C   UNL     1       3.048  -6.915  14.874  1.00  0.00     0.031 A 
BRANCH  54  68
ATOM     68  C   UNL     1       0.396  -9.343   9.857  1.00  0.00    -0.014 A 
ATOM     69  C   UNL     1       0.084 -10.630  10.324  1.00  0.00     0.009 A 
ATOM     70  C   UNL     1       0.794  -9.188   8.519  1.00  0.00     0.009 A 
ATOM     71  C   UNL     1       0.196 -11.739   9.483  1.00  0.00     0.001 A 
ATOM     72  C   UNL     1       0.874 -10.295   7.671  1.00  0.00     0.001 A 
ATOM     73  C   UNL     1       0.588 -11.570   8.156  1.00  0.00     0.000 A 
ENDBRANCH  54  68
BRANCH  55  74
ATOM     74  C   UNL     1       0.407  -1.612  16.173  1.00  0.00    -0.014 A 
ATOM     75  C   UNL     1      -0.705  -1.320  16.981  1.00  0.00     0.009 A 
ATOM     76  C   UNL     1       1.507  -0.742  16.198  1.00  0.00     0.009 A 
ATOM     77  C   UNL     1      -0.729  -0.167  17.767  1.00  0.00     0.001 A 
ATOM     78  C   UNL     1       1.494   0.393  17.013  1.00  0.00     0.001 A 
ATOM     79  C   UNL     1       0.372   0.686  17.787  1.00  0.00     0.000 A 
ENDBRANCH  55  74
BRANCH  67  80
ATOM     80  C   UNL     1       4.167  -7.501  15.695  1.00  0.00    -0.014 A 
ATOM     81  C   UNL     1       5.443  -7.657  15.128  1.00  0.00     0.009 A 
ATOM     82  C   UNL     1       3.937  -7.998  16.988  1.00  0.00     0.009 A 
ATOM     83  C   UNL     1       6.456  -8.318  15.826  1.00  0.00     0.001 A 
ATOM     84  C   UNL     1       4.963  -8.624  17.699  1.00  0.00     0.001 A 
ATOM     85  C   UNL     1       6.217  -8.796  17.113  1.00  0.00     0.000 A 
ENDBRANCH  67  80
ENDBRANCH  41  42
ENDBRANCH  34  36
ENDBRANCH  33  34
ENDBRANCH  32  33
ENDBRANCH  31  32
ENDBRANCH   1  31
TORSDOF 17
