REMARK SMILES O=C1C[C@H](C(=O)OCCOCCOCCOC(=O)c2ccc(-c3c4nc(c(-c5ccccc5)c5ccc([nH]5)c(-c5ccccc5)c5nc(c(-c6ccccc6)c6ccc3[nH]6)C=C5)C=C4)cc2)c2c(nc(N3CCSCC3)[nH]c2=O)N1
REMARK SMILES IDX 12 1 11 2 10 3 9 4 8 5 7 6 5 7 6 8 4 9 1 10 2 11 3 12 80 13
REMARK SMILES IDX 68 14 67 16 69 17 78 18 70 19 77 20 79 21 71 23 72 24 76 25
REMARK SMILES IDX 73 26 75 27 74 28 13 29 14 30 15 31 16 32 17 33 18 34 19 35
REMARK SMILES IDX 20 36 66 37 21 38 65 39 22 40 23 41 24 42 59 43 25 44 64 45
REMARK SMILES IDX 58 46 60 47 26 48 63 49 57 50 56 51 27 53 49 54 34 55 48 56
REMARK SMILES IDX 35 57 38 58 47 59 61 60 36 61 37 62 46 64 62 65 39 66 28 67
REMARK SMILES IDX 29 68 33 69 30 70 32 71 31 72 50 73 51 74 55 75 52 76 54 77
REMARK SMILES IDX 53 78 40 79 41 80 45 81 42 82 44 83 43 84
REMARK H PARENT 80 15 77 22 60 52 38 63
REMARK Flexibility Score: inf
ROOT
ATOM      1  C   UNL     1       4.239  -3.987   1.119  1.00  0.00     0.188 C 
ENDROOT
BRANCH   1   2
ATOM      2  C   UNL     1       4.631  -4.952  -0.011  1.00  0.00     0.188 C 
BRANCH   2   3
ATOM      3  O   UNL     1       5.994  -5.290  -0.235  1.00  0.00    -0.376 OA
BRANCH   3   4
ATOM      4  C   UNL     1       7.039  -4.456   0.232  1.00  0.00     0.202 C 
BRANCH   4   5
ATOM      5  C   UNL     1       7.208  -3.055  -0.380  1.00  0.00     0.261 C 
BRANCH   5   6
ATOM      6  O   UNL     1       6.070  -2.166  -0.373  1.00  0.00    -0.463 OA
BRANCH   6   7
ATOM      7  C   UNL     1       5.296  -2.201  -1.494  1.00  0.00     0.314 C 
ATOM      8  O   UNL     1       5.477  -3.000  -2.405  1.00  0.00    -0.252 OA
BRANCH   7   9
ATOM      9  C   UNL     1       4.196  -1.123  -1.541  1.00  0.00     0.148 C 
ATOM     10  O   UNL     1       2.073   0.835   0.731  1.00  0.00    -0.275 OA
ATOM     11  C   UNL     1       3.010   0.569  -0.018  1.00  0.00     0.226 C 
ATOM     12  C   UNL     1       3.518  -0.839  -0.195  1.00  0.00     0.121 C 
ATOM     13  N   UNL     1       3.733   1.543  -0.641  1.00  0.00    -0.310 N 
ATOM     14  C   UNL     1       4.635   1.335  -1.638  1.00  0.00     0.146 A 
ATOM     15  H   UNL     1       3.591   2.471  -0.345  1.00  0.00     0.171 HD
ATOM     16  C   UNL     1       4.794   0.105  -2.139  1.00  0.00     0.075 A 
ATOM     17  N   UNL     1       5.270   2.457  -2.082  1.00  0.00    -0.196 NA
ATOM     18  C   UNL     1       5.547   0.023  -3.397  1.00  0.00     0.258 A 
ATOM     19  C   UNL     1       6.092   2.318  -3.074  1.00  0.00     0.207 A 
ATOM     20  N   UNL     1       6.278   1.120  -3.692  1.00  0.00    -0.292 N 
ATOM     21  O   UNL     1       5.476  -0.925  -4.164  1.00  0.00    -0.269 OA
ATOM     22  H   UNL     1       6.976   1.050  -4.384  1.00  0.00     0.173 HD
BRANCH  19  23
ATOM     23  N   UNL     1       6.839   3.342  -3.581  1.00  0.00    -0.341 N 
ATOM     24  C   UNL     1       6.763   3.704  -5.000  1.00  0.00     0.130 C 
ATOM     25  C   UNL     1       7.486   4.310  -2.691  1.00  0.00     0.130 C 
ATOM     26  C   UNL     1       5.939   4.976  -5.204  1.00  0.00     0.091 C 
ATOM     27  C   UNL     1       6.780   5.664  -2.684  1.00  0.00     0.091 C 
ATOM     28  S   UNL     1       6.691   6.403  -4.353  1.00  0.00    -0.158 SA
ENDBRANCH  19  23
ENDBRANCH   7   9
ENDBRANCH   6   7
ENDBRANCH   5   6
ENDBRANCH   4   5
ENDBRANCH   3   4
ENDBRANCH   2   3
ENDBRANCH   1   2
BRANCH   1  29
ATOM     29  O   UNL     1       5.176  -3.857   2.152  1.00  0.00    -0.376 OA
BRANCH  29  30
ATOM     30  C   UNL     1       4.992  -4.556   3.363  1.00  0.00     0.202 C 
BRANCH  30  31
ATOM     31  C   UNL     1       4.293  -5.927   3.455  1.00  0.00     0.261 C 
BRANCH  31  32
ATOM     32  O   UNL     1       3.426  -6.324   2.385  1.00  0.00    -0.460 OA
BRANCH  32  33
ATOM     33  C   UNL     1       2.121  -5.965   2.471  1.00  0.00     0.338 C 
ATOM     34  O   UNL     1       1.593  -5.322   3.349  1.00  0.00    -0.246 OA
BRANCH  33  35
ATOM     35  C   UNL     1       1.473  -6.325   1.185  1.00  0.00     0.060 A 
ATOM     36  C   UNL     1       1.053  -5.307   0.316  1.00  0.00     0.016 A 
ATOM     37  C   UNL     1       1.271  -7.664   0.851  1.00  0.00     0.016 A 
ATOM     38  C   UNL     1       0.414  -5.626  -0.884  1.00  0.00     0.010 A 
ATOM     39  C   UNL     1       0.592  -7.981  -0.329  1.00  0.00     0.010 A 
ATOM     40  C   UNL     1       0.134  -6.964  -1.186  1.00  0.00    -0.014 A 
BRANCH  40  41
ATOM     41  C   UNL     1      -0.845  -7.296  -2.248  1.00  0.00     0.031 A 
ATOM     42  C   UNL     1      -2.297  -7.384  -1.863  1.00  0.00     0.074 A 
ATOM     43  C   UNL     1      -0.473  -7.528  -3.519  1.00  0.00     0.049 A 
ATOM     44  N   UNL     1      -3.322  -7.766  -2.580  1.00  0.00    -0.248 NA
ATOM     45  C   UNL     1      -2.638  -6.986  -0.486  1.00  0.00     0.031 C 
ATOM     46  C   UNL     1       0.884  -7.402  -4.045  1.00  0.00     0.029 A 
ATOM     47  N   UNL     1      -1.220  -7.929  -4.600  1.00  0.00    -0.354 N 
ATOM     48  C   UNL     1      -4.423  -7.659  -1.741  1.00  0.00     0.074 A 
ATOM     49  C   UNL     1      -3.946  -7.191  -0.460  1.00  0.00     0.031 C 
ATOM     50  C   UNL     1       0.875  -7.735  -5.348  1.00  0.00     0.029 A 
ATOM     51  C   UNL     1      -0.479  -8.132  -5.737  1.00  0.00     0.049 A 
ATOM     52  H   UNL     1      -2.196  -8.058  -4.562  1.00  0.00     0.167 HD
ATOM     53  C   UNL     1      -5.720  -7.926  -2.013  1.00  0.00     0.031 A 
ATOM     54  C   UNL     1      -0.844  -8.608  -6.945  1.00  0.00     0.031 A 
ATOM     55  C   UNL     1      -6.201  -8.407  -3.277  1.00  0.00     0.049 A 
ATOM     56  C   UNL     1      -2.276  -9.004  -7.194  1.00  0.00     0.074 A 
ATOM     57  C   UNL     1      -7.501  -8.710  -3.638  1.00  0.00     0.029 A 
ATOM     58  N   UNL     1      -5.404  -8.658  -4.381  1.00  0.00    -0.354 N 
ATOM     59  N   UNL     1      -3.307  -8.915  -6.389  1.00  0.00    -0.248 NA
ATOM     60  C   UNL     1      -2.594  -9.570  -8.515  1.00  0.00     0.031 C 
ATOM     61  C   UNL     1      -7.486  -9.195  -4.947  1.00  0.00     0.029 A 
ATOM     62  C   UNL     1      -6.184  -9.138  -5.418  1.00  0.00     0.049 A 
ATOM     63  H   UNL     1      -4.431  -8.517  -4.422  1.00  0.00     0.167 HD
ATOM     64  C   UNL     1      -4.396  -9.393  -7.110  1.00  0.00     0.074 A 
ATOM     65  C   UNL     1      -3.904  -9.765  -8.419  1.00  0.00     0.031 C 
ATOM     66  C   UNL     1      -5.687  -9.507  -6.717  1.00  0.00     0.031 A 
BRANCH  53  67
ATOM     67  C   UNL     1      -6.721  -7.726  -0.916  1.00  0.00    -0.014 A 
ATOM     68  C   UNL     1      -7.156  -6.440  -0.565  1.00  0.00     0.009 A 
ATOM     69  C   UNL     1      -7.304  -8.841  -0.295  1.00  0.00     0.009 A 
ATOM     70  C   UNL     1      -8.159  -6.275   0.392  1.00  0.00     0.001 A 
ATOM     71  C   UNL     1      -8.321  -8.673   0.645  1.00  0.00     0.001 A 
ATOM     72  C   UNL     1      -8.748  -7.391   0.987  1.00  0.00     0.000 A 
ENDBRANCH  53  67
BRANCH  54  73
ATOM     73  C   UNL     1       0.177  -8.750  -8.015  1.00  0.00    -0.014 A 
ATOM     74  C   UNL     1       0.192  -7.865  -9.103  1.00  0.00     0.009 A 
ATOM     75  C   UNL     1       1.159  -9.751  -7.940  1.00  0.00     0.009 A 
ATOM     76  C   UNL     1       1.171  -7.978 -10.093  1.00  0.00     0.001 A 
ATOM     77  C   UNL     1       2.149  -9.848  -8.920  1.00  0.00     0.001 A 
ATOM     78  C   UNL     1       2.153  -8.962  -9.996  1.00  0.00     0.000 A 
ENDBRANCH  54  73
BRANCH  66  79
ATOM     79  C   UNL     1      -6.688 -10.041  -7.701  1.00  0.00    -0.014 A 
ATOM     80  C   UNL     1      -6.761 -11.413  -7.982  1.00  0.00     0.009 A 
ATOM     81  C   UNL     1      -7.653  -9.180  -8.248  1.00  0.00     0.009 A 
ATOM     82  C   UNL     1      -7.780 -11.911  -8.797  1.00  0.00     0.001 A 
ATOM     83  C   UNL     1      -8.684  -9.684  -9.042  1.00  0.00     0.001 A 
ATOM     84  C   UNL     1      -8.746 -11.049  -9.317  1.00  0.00     0.000 A 
ENDBRANCH  66  79
ENDBRANCH  40  41
ENDBRANCH  33  35
ENDBRANCH  32  33
ENDBRANCH  31  32
ENDBRANCH  30  31
ENDBRANCH  29  30
ENDBRANCH   1  29
TORSDOF 18
