REMARK SMILES [NH3+][C@@H](Cc1ccc(OC(F)F)cc1)C(=O)OCCOCCOCCOC(=O)c1ccc(-c2c3nc(c(-c4ccccc4)c4ccc([nH]4)c(-c4ccccc4)c4nc(c(-c5ccccc5)c5ccc2[nH]5)C=C4)C=C3)cc1
REMARK SMILES IDX 20 1 19 2 18 3 17 4 16 5 14 6 15 7 2 8 1 9 3 13 4 14 5 15
REMARK SMILES IDX 13 16 6 17 12 18 7 19 8 20 9 21 10 22 11 23 21 24 22 25
REMARK SMILES IDX 23 26 24 27 25 28 26 29 27 30 28 31 29 32 75 33 30 34 74 35
REMARK SMILES IDX 31 36 32 37 33 38 68 39 34 40 73 41 67 42 69 43 35 44 72 45
REMARK SMILES IDX 66 46 65 47 36 49 58 50 43 51 57 52 44 53 47 54 56 55 70 56
REMARK SMILES IDX 45 57 46 58 55 60 71 61 48 62 37 63 38 64 42 65 39 66 41 67
REMARK SMILES IDX 40 68 59 69 60 70 64 71 61 72 63 73 62 74 49 75 50 76 54 77
REMARK SMILES IDX 51 78 53 79 52 80
REMARK H PARENT 1 10 1 11 1 12 69 48 47 59
REMARK Flexibility Score: inf
ROOT
ATOM      1  C   UNL     1      -2.078   1.318   1.255  1.00  0.00     0.188 C 
ENDROOT
BRANCH   1   2
ATOM      2  O   UNL     1      -3.367   1.588   0.709  1.00  0.00    -0.376 OA
BRANCH   2   3
ATOM      3  C   UNL     1      -3.773   0.895  -0.462  1.00  0.00     0.202 C 
BRANCH   3   4
ATOM      4  C   UNL     1      -2.900   1.025  -1.715  1.00  0.00     0.261 C 
BRANCH   4   5
ATOM      5  O   UNL     1      -1.488   0.866  -1.490  1.00  0.00    -0.459 OA
BRANCH   5   6
ATOM      6  C   UNL     1      -0.696   1.909  -1.874  1.00  0.00     0.365 C 
ATOM      7  O   UNL     1      -1.107   2.937  -2.403  1.00  0.00    -0.245 OA
BRANCH   6   8
ATOM      8  C   UNL     1       0.809   1.646  -1.676  1.00  0.00     0.296 C 
BRANCH   8   9
ATOM      9  N   UNL     1       1.119   0.681  -0.593  1.00  0.00    -0.346 N 
ATOM     10  H   UNL     1       2.130   0.561  -0.524  1.00  0.00     0.345 HD
ATOM     11  H   UNL     1       0.683  -0.217  -0.802  1.00  0.00     0.345 HD
ATOM     12  H   UNL     1       0.758   1.037   0.292  1.00  0.00     0.345 HD
ENDBRANCH   8   9
BRANCH   8  13
ATOM     13  C   UNL     1       1.448   1.249  -3.019  1.00  0.00     0.113 C 
BRANCH  13  14
ATOM     14  C   UNL     1       0.985  -0.093  -3.540  1.00  0.00    -0.041 A 
ATOM     15  C   UNL     1      -0.155  -0.181  -4.346  1.00  0.00     0.008 A 
ATOM     16  C   UNL     1       1.640  -1.273  -3.165  1.00  0.00     0.008 A 
ATOM     17  C   UNL     1      -0.638  -1.427  -4.747  1.00  0.00     0.047 A 
ATOM     18  C   UNL     1       1.151  -2.520  -3.568  1.00  0.00     0.047 A 
ATOM     19  C   UNL     1       0.011  -2.603  -4.365  1.00  0.00     0.126 A 
BRANCH  19  20
ATOM     20  O   UNL     1      -0.571  -3.748  -4.827  1.00  0.00    -0.435 OA
BRANCH  20  21
ATOM     21  C   UNL     1       0.119  -4.975  -4.635  1.00  0.00     0.542 C 
ATOM     22  F   UNL     1       1.375  -4.891  -5.136  1.00  0.00    -0.167 F 
ATOM     23  F   UNL     1       0.205  -5.255  -3.312  1.00  0.00    -0.167 F 
ENDBRANCH  20  21
ENDBRANCH  19  20
ENDBRANCH  13  14
ENDBRANCH   8  13
ENDBRANCH   6   8
ENDBRANCH   5   6
ENDBRANCH   4   5
ENDBRANCH   3   4
ENDBRANCH   2   3
ENDBRANCH   1   2
BRANCH   1  24
ATOM     24  C   UNL     1      -1.558  -0.133   1.304  1.00  0.00     0.188 C 
BRANCH  24  25
ATOM     25  O   UNL     1      -2.524  -1.109   0.964  1.00  0.00    -0.376 OA
BRANCH  25  26
ATOM     26  C   UNL     1      -2.795  -2.089   1.949  1.00  0.00     0.202 C 
BRANCH  26  27
ATOM     27  C   UNL     1      -3.579  -1.574   3.163  1.00  0.00     0.261 C 
BRANCH  27  28
ATOM     28  O   UNL     1      -3.052  -0.384   3.780  1.00  0.00    -0.460 OA
BRANCH  28  29
ATOM     29  C   UNL     1      -1.945  -0.535   4.541  1.00  0.00     0.338 C 
ATOM     30  O   UNL     1      -1.361  -1.574   4.784  1.00  0.00    -0.246 OA
BRANCH  29  31
ATOM     31  C   UNL     1      -1.428   0.810   4.889  1.00  0.00     0.060 A 
ATOM     32  C   UNL     1      -0.114   1.137   4.525  1.00  0.00     0.016 A 
ATOM     33  C   UNL     1      -2.211   1.726   5.596  1.00  0.00     0.016 A 
ATOM     34  C   UNL     1       0.441   2.355   4.921  1.00  0.00     0.010 A 
ATOM     35  C   UNL     1      -1.646   2.939   6.011  1.00  0.00     0.010 A 
ATOM     36  C   UNL     1      -0.302   3.235   5.720  1.00  0.00    -0.014 A 
BRANCH  36  37
ATOM     37  C   UNL     1       0.406   4.306   6.468  1.00  0.00     0.031 A 
ATOM     38  C   UNL     1       0.856   3.999   7.875  1.00  0.00     0.074 A 
ATOM     39  C   UNL     1       0.690   5.502   5.923  1.00  0.00     0.049 A 
ATOM     40  N   UNL     1       1.500   4.754   8.729  1.00  0.00    -0.248 NA
ATOM     41  C   UNL     1       0.534   2.655   8.383  1.00  0.00     0.031 C 
ATOM     42  C   UNL     1       0.361   5.918   4.561  1.00  0.00     0.029 A 
ATOM     43  N   UNL     1       1.330   6.591   6.464  1.00  0.00    -0.354 N 
ATOM     44  C   UNL     1       1.648   3.980   9.874  1.00  0.00     0.074 A 
ATOM     45  C   UNL     1       1.004   2.712   9.618  1.00  0.00     0.031 C 
ATOM     46  C   UNL     1       0.804   7.175   4.372  1.00  0.00     0.029 A 
ATOM     47  C   UNL     1       1.424   7.659   5.606  1.00  0.00     0.049 A 
ATOM     48  H   UNL     1       1.688   6.604   7.381  1.00  0.00     0.167 HD
ATOM     49  C   UNL     1       2.269   4.289  11.037  1.00  0.00     0.031 A 
ATOM     50  C   UNL     1       1.944   8.888   5.799  1.00  0.00     0.031 A 
ATOM     51  C   UNL     1       2.901   5.551  11.308  1.00  0.00     0.049 A 
ATOM     52  C   UNL     1       2.568   9.234   7.127  1.00  0.00     0.074 A 
ATOM     53  C   UNL     1       3.567   5.954  12.452  1.00  0.00     0.029 A 
ATOM     54  N   UNL     1       2.938   6.617  10.425  1.00  0.00    -0.354 N 
ATOM     55  N   UNL     1       2.730   8.484   8.191  1.00  0.00    -0.248 NA
ATOM     56  C   UNL     1       3.095  10.600   7.273  1.00  0.00     0.031 C 
ATOM     57  C   UNL     1       3.961   7.285  12.281  1.00  0.00     0.029 A 
ATOM     58  C   UNL     1       3.596   7.687  11.006  1.00  0.00     0.049 A 
ATOM     59  H   UNL     1       2.553   6.615   9.518  1.00  0.00     0.167 HD
ATOM     60  C   UNL     1       3.416   9.270   9.111  1.00  0.00     0.074 A 
ATOM     61  C   UNL     1       3.643  10.553   8.479  1.00  0.00     0.031 C 
ATOM     62  C   UNL     1       3.828   8.955  10.363  1.00  0.00     0.031 A 
BRANCH  49  63
ATOM     63  C   UNL     1       2.251   3.248  12.121  1.00  0.00    -0.014 A 
ATOM     64  C   UNL     1       3.010   2.071  12.019  1.00  0.00     0.009 A 
ATOM     65  C   UNL     1       1.465   3.454  13.265  1.00  0.00     0.009 A 
ATOM     66  C   UNL     1       2.951   1.104  13.024  1.00  0.00     0.001 A 
ATOM     67  C   UNL     1       1.432   2.499  14.282  1.00  0.00     0.001 A 
ATOM     68  C   UNL     1       2.166   1.320  14.156  1.00  0.00     0.000 A 
ENDBRANCH  49  63
BRANCH  50  69
ATOM     69  C   UNL     1       1.908   9.899   4.708  1.00  0.00    -0.014 A 
ATOM     70  C   UNL     1       3.092  10.311   4.077  1.00  0.00     0.009 A 
ATOM     71  C   UNL     1       0.695  10.490   4.323  1.00  0.00     0.009 A 
ATOM     72  C   UNL     1       3.066  11.315   3.105  1.00  0.00     0.001 A 
ATOM     73  C   UNL     1       0.668  11.473   3.331  1.00  0.00     0.001 A 
ATOM     74  C   UNL     1       1.853  11.892   2.730  1.00  0.00     0.000 A 
ENDBRANCH  50  69
BRANCH  62  75
ATOM     75  C   UNL     1       4.626   9.987  11.112  1.00  0.00    -0.014 A 
ATOM     76  C   UNL     1       4.036  11.159  11.610  1.00  0.00     0.009 A 
ATOM     77  C   UNL     1       5.991   9.759  11.354  1.00  0.00     0.009 A 
ATOM     78  C   UNL     1       4.807  12.100  12.297  1.00  0.00     0.001 A 
ATOM     79  C   UNL     1       6.751  10.686  12.068  1.00  0.00     0.001 A 
ATOM     80  C   UNL     1       6.162  11.861  12.528  1.00  0.00     0.000 A 
ENDBRANCH  62  75
ENDBRANCH  36  37
ENDBRANCH  29  31
ENDBRANCH  28  29
ENDBRANCH  27  28
ENDBRANCH  26  27
ENDBRANCH  25  26
ENDBRANCH  24  25
ENDBRANCH   1  24
TORSDOF 22
