REMARK SMILES O=C(OCCOCCOCCOC(=O)[C@H]1Cc2[nH]cnc2CN1C(=O)c1ccncc1Cl)c1ccc(-c2c3nc(c(-c4ccccc4)c4ccc([nH]4)c(-c4ccccc4)c4nc(c(-c5ccccc5)c5ccc2[nH]5)C=C4)C=C3)cc1
REMARK SMILES IDX 7 1 6 2 5 3 4 4 3 5 2 6 1 7 33 8 34 9 80 10 35 11 79 12
REMARK SMILES IDX 36 13 37 14 38 15 73 16 39 17 78 18 72 19 74 20 40 21 77 22
REMARK SMILES IDX 71 23 70 24 41 26 63 27 48 28 62 29 49 30 52 31 61 32 75 33
REMARK SMILES IDX 50 34 51 35 60 37 76 38 53 39 42 40 43 41 47 42 44 43 46 44
REMARK SMILES IDX 45 45 64 46 65 47 69 48 66 49 68 50 67 51 54 52 55 53 59 54
REMARK SMILES IDX 56 55 58 56 57 57 8 58 9 59 10 60 11 61 12 62 13 63 14 64
REMARK SMILES IDX 15 65 16 66 23 67 17 68 22 69 18 70 21 71 19 72 20 74 24 75
REMARK SMILES IDX 25 76 26 77 27 78 31 79 28 80 30 81 32 82 29 83
REMARK H PARENT 74 25 52 36 18 73
REMARK Flexibility Score: inf
ROOT
ATOM      1  C   UNL     1       2.295   1.397   2.176  1.00  0.00     0.188 C 
ENDROOT
BRANCH   1   2
ATOM      2  O   UNL     1       3.880   1.259   1.748  1.00  0.00    -0.376 OA
BRANCH   2   3
ATOM      3  C   UNL     1       4.994   0.393   0.302  1.00  0.00     0.202 C 
BRANCH   3   4
ATOM      4  C   UNL     1       4.943   0.452  -1.413  1.00  0.00     0.261 C 
BRANCH   4   5
ATOM      5  O   UNL     1       3.779   0.474  -2.301  1.00  0.00    -0.460 OA
BRANCH   5   6
ATOM      6  C   UNL     1       2.563  -0.091  -2.176  1.00  0.00     0.338 C 
ATOM      7  O   UNL     1       1.529   0.561  -2.284  1.00  0.00    -0.246 OA
BRANCH   6   8
ATOM      8  C   UNL     1       2.467  -1.535  -1.960  1.00  0.00     0.060 A 
ATOM      9  C   UNL     1       3.488  -2.381  -2.368  1.00  0.00     0.016 A 
ATOM     10  C   UNL     1       1.234  -2.027  -1.468  1.00  0.00     0.016 A 
ATOM     11  C   UNL     1       3.205  -3.721  -2.450  1.00  0.00     0.010 A 
ATOM     12  C   UNL     1       0.967  -3.373  -1.507  1.00  0.00     0.010 A 
ATOM     13  C   UNL     1       1.920  -4.172  -2.110  1.00  0.00    -0.014 A 
BRANCH  13  14
ATOM     14  C   UNL     1       1.582  -5.498  -2.558  1.00  0.00     0.031 A 
ATOM     15  C   UNL     1       2.309  -6.561  -1.845  1.00  0.00     0.074 A 
ATOM     16  C   UNL     1       0.809  -5.656  -3.646  1.00  0.00     0.049 A 
ATOM     17  N   UNL     1       3.352  -7.192  -2.267  1.00  0.00    -0.248 NA
ATOM     18  C   UNL     1       1.976  -6.792  -0.434  1.00  0.00     0.031 C 
ATOM     19  C   UNL     1      -0.098  -4.702  -4.295  1.00  0.00     0.029 A 
ATOM     20  N   UNL     1       0.648  -6.774  -4.389  1.00  0.00    -0.354 N 
ATOM     21  C   UNL     1       3.712  -8.044  -1.233  1.00  0.00     0.074 A 
ATOM     22  C   UNL     1       2.948  -7.634  -0.082  1.00  0.00     0.031 C 
ATOM     23  C   UNL     1      -0.888  -5.367  -5.170  1.00  0.00     0.029 A 
ATOM     24  C   UNL     1      -0.434  -6.745  -5.250  1.00  0.00     0.049 A 
ATOM     25  H   UNL     1       1.253  -7.547  -4.322  1.00  0.00     0.167 HD
ATOM     26  C   UNL     1       4.415  -9.181  -1.482  1.00  0.00     0.031 A 
ATOM     27  C   UNL     1      -0.953  -7.820  -5.892  1.00  0.00     0.031 A 
ATOM     28  C   UNL     1       5.083  -9.124  -2.759  1.00  0.00     0.049 A 
ATOM     29  C   UNL     1       0.113  -8.859  -5.930  1.00  0.00     0.074 A 
ATOM     30  C   UNL     1       6.077  -8.329  -3.294  1.00  0.00     0.029 A 
ATOM     31  N   UNL     1       4.447  -9.712  -3.828  1.00  0.00    -0.354 N 
ATOM     32  N   UNL     1       1.207  -8.720  -6.628  1.00  0.00    -0.248 NA
ATOM     33  C   UNL     1       0.207  -9.786  -4.809  1.00  0.00     0.031 C 
ATOM     34  C   UNL     1       5.685  -8.112  -4.647  1.00  0.00     0.029 A 
ATOM     35  C   UNL     1       4.518  -8.840  -4.885  1.00  0.00     0.049 A 
ATOM     36  H   UNL     1       4.018 -10.598  -3.834  1.00  0.00     0.167 HD
ATOM     37  C   UNL     1       2.223  -9.195  -5.807  1.00  0.00     0.074 A 
ATOM     38  C   UNL     1       1.537  -9.907  -4.728  1.00  0.00     0.031 C 
ATOM     39  C   UNL     1       3.500  -8.721  -5.908  1.00  0.00     0.031 A 
BRANCH  26  40
ATOM     40  C   UNL     1       4.100 -10.481  -0.790  1.00  0.00    -0.014 A 
ATOM     41  C   UNL     1       4.829 -11.627  -1.147  1.00  0.00     0.009 A 
ATOM     42  C   UNL     1       2.929 -10.685  -0.034  1.00  0.00     0.009 A 
ATOM     43  C   UNL     1       4.355 -12.909  -0.846  1.00  0.00     0.001 A 
ATOM     44  C   UNL     1       2.472 -11.960   0.299  1.00  0.00     0.001 A 
ATOM     45  C   UNL     1       3.169 -13.074  -0.136  1.00  0.00     0.000 A 
ENDBRANCH  26  40
BRANCH  27  46
ATOM     46  C   UNL     1      -2.395  -8.122  -6.045  1.00  0.00    -0.014 A 
ATOM     47  C   UNL     1      -2.845  -9.105  -6.937  1.00  0.00     0.009 A 
ATOM     48  C   UNL     1      -3.325  -7.609  -5.117  1.00  0.00     0.009 A 
ATOM     49  C   UNL     1      -4.169  -9.570  -6.885  1.00  0.00     0.001 A 
ATOM     50  C   UNL     1      -4.643  -8.071  -5.066  1.00  0.00     0.001 A 
ATOM     51  C   UNL     1      -5.062  -9.062  -5.944  1.00  0.00     0.000 A 
ENDBRANCH  27  46
BRANCH  39  52
ATOM     52  C   UNL     1       3.823  -7.792  -7.053  1.00  0.00    -0.014 A 
ATOM     53  C   UNL     1       3.263  -6.506  -7.176  1.00  0.00     0.009 A 
ATOM     54  C   UNL     1       4.864  -8.150  -7.921  1.00  0.00     0.009 A 
ATOM     55  C   UNL     1       3.726  -5.615  -8.153  1.00  0.00     0.001 A 
ATOM     56  C   UNL     1       5.337  -7.255  -8.883  1.00  0.00     0.001 A 
ATOM     57  C   UNL     1       4.767  -5.989  -9.000  1.00  0.00     0.000 A 
ENDBRANCH  39  52
ENDBRANCH  13  14
ENDBRANCH   6   8
ENDBRANCH   5   6
ENDBRANCH   4   5
ENDBRANCH   3   4
ENDBRANCH   2   3
ENDBRANCH   1   2
BRANCH   1  58
ATOM     58  C   UNL     1       1.732   2.350   3.241  1.00  0.00     0.188 C 
BRANCH  58  59
ATOM     59  O   UNL     1       2.339   3.581   3.506  1.00  0.00    -0.376 OA
BRANCH  59  60
ATOM     60  C   UNL     1       3.702   3.505   3.878  1.00  0.00     0.202 C 
BRANCH  60  61
ATOM     61  C   UNL     1       4.083   2.480   4.967  1.00  0.00     0.261 C 
BRANCH  61  62
ATOM     62  O   UNL     1       3.871   1.086   4.597  1.00  0.00    -0.462 OA
BRANCH  62  63
ATOM     63  C   UNL     1       3.100   0.330   5.406  1.00  0.00     0.329 C 
ATOM     64  O   UNL     1       2.554   0.781   6.413  1.00  0.00    -0.250 OA
BRANCH  63  65
ATOM     65  C   UNL     1       2.771  -1.107   4.915  1.00  0.00     0.201 C 
ATOM     66  C   UNL     1       1.212  -1.187   4.724  1.00  0.00     0.093 C 
ATOM     67  N   UNL     1       3.441  -2.107   3.981  1.00  0.00    -0.318 N 
ATOM     68  C   UNL     1       0.825  -2.615   4.810  1.00  0.00     0.042 A 
ATOM     69  C   UNL     1       3.159  -3.532   4.354  1.00  0.00     0.179 C 
ATOM     70  N   UNL     1      -0.385  -3.150   5.131  1.00  0.00    -0.348 N 
ATOM     71  C   UNL     1       1.686  -3.676   4.637  1.00  0.00     0.081 A 
ATOM     72  C   UNL     1      -0.211  -4.509   5.162  1.00  0.00     0.197 A 
ATOM     73  H   UNL     1      -1.220  -2.658   5.307  1.00  0.00     0.167 HD
ATOM     74  N   UNL     1       1.024  -4.856   4.858  1.00  0.00    -0.240 NA
BRANCH  67  75
ATOM     75  C   UNL     1       3.922  -1.954   2.684  1.00  0.00     0.256 C 
ATOM     76  O   UNL     1       4.235  -2.887   1.944  1.00  0.00    -0.269 OA
BRANCH  75  77
ATOM     77  C   UNL     1       4.106  -0.656   2.072  1.00  0.00     0.061 A 
ATOM     78  C   UNL     1       3.038  -0.166   0.699  1.00  0.00     0.035 A 
ATOM     79  C   UNL     1       5.456   0.384   2.543  1.00  0.00     0.072 A 
ATOM     80  C   UNL     1       3.283   1.501  -0.018  1.00  0.00     0.112 A 
ATOM     81  C   UNL     1       5.664   1.952   1.767  1.00  0.00     0.132 A 
ATOM     82  Cl  UNL     1       6.630  -0.150   3.688  1.00  0.00    -0.082 Cl
ATOM     83  N   UNL     1       4.622   2.517   0.480  1.00  0.00    -0.263 NA
ENDBRANCH  75  77
ENDBRANCH  67  75
ENDBRANCH  63  65
ENDBRANCH  62  63
ENDBRANCH  61  62
ENDBRANCH  60  61
ENDBRANCH  59  60
ENDBRANCH  58  59
ENDBRANCH   1  58
TORSDOF 19
