REMARK SMILES COc1ccc(NC2=[NH+]C(=O)/C(=C\c3ccccc3C(=O)OCCOCCOCCOC(=O)c3ccc(-c4c5nc(c(-c6ccccc6)c6ccc([nH]6)c(-c6ccccc6)c6nc(c(-c7ccccc7)c7ccc4[nH]7)C=C6)C=C5)cc3)S2)cc1
REMARK SMILES IDX 26 1 25 2 24 3 23 4 22 5 20 6 21 7 19 8 14 9 15 10 16 11
REMARK SMILES IDX 18 12 17 13 13 14 7 15 8 16 9 18 82 19 10 20 12 22 11 23
REMARK SMILES IDX 6 24 3 25 4 26 84 27 5 28 83 29 2 30 1 31 27 32 28 33 29 34
REMARK SMILES IDX 30 35 31 36 32 37 33 38 34 39 35 40 81 41 36 42 80 43 37 44
REMARK SMILES IDX 38 45 39 46 74 47 40 48 79 49 73 50 75 51 41 52 78 53 72 54
REMARK SMILES IDX 71 55 42 57 64 58 49 59 63 60 50 61 53 62 62 63 76 64 51 65
REMARK SMILES IDX 52 66 61 68 77 69 54 70 43 71 44 72 48 73 45 74 47 75 46 76
REMARK SMILES IDX 65 77 66 78 70 79 67 80 69 81 68 82 55 83 56 84 60 85 57 86
REMARK SMILES IDX 59 87 58 88
REMARK H PARENT 7 17 9 21 75 56 53 67
REMARK Flexibility Score: inf
ROOT
ATOM      1  C   UNL     1      -3.312   6.141  -7.518  1.00  0.00     0.188 C 
ENDROOT
BRANCH   1   2
ATOM      2  O   UNL     1      -2.919   4.792  -7.397  1.00  0.00    -0.376 OA
BRANCH   2   3
ATOM      3  C   UNL     1      -1.822   4.431  -6.575  1.00  0.00     0.202 C 
BRANCH   3   4
ATOM      4  C   UNL     1      -0.666   5.378  -6.223  1.00  0.00     0.261 C 
BRANCH   4   5
ATOM      5  O   UNL     1      -1.016   6.748  -6.002  1.00  0.00    -0.460 OA
BRANCH   5   6
ATOM      6  C   UNL     1      -0.512   7.639  -6.897  1.00  0.00     0.338 C 
ATOM      7  O   UNL     1       0.164   7.358  -7.874  1.00  0.00    -0.246 OA
BRANCH   6   8
ATOM      8  C   UNL     1      -1.065   9.005  -6.663  1.00  0.00     0.067 A 
ATOM      9  C   UNL     1      -1.297   9.583  -5.394  1.00  0.00    -0.010 A 
ATOM     10  C   UNL     1      -1.869  10.866  -5.336  1.00  0.00     0.009 A 
ATOM     11  C   UNL     1      -2.212  11.555  -6.503  1.00  0.00     0.001 A 
ATOM     12  C   UNL     1      -1.421   9.708  -7.829  1.00  0.00     0.016 A 
ATOM     13  C   UNL     1      -1.999  10.973  -7.748  1.00  0.00     0.001 A 
BRANCH   9  14
ATOM     14  C   UNL     1      -1.082   8.890  -4.113  1.00  0.00     0.033 C 
ATOM     15  N   UNL     1       2.304   5.491  -2.629  1.00  0.00    -0.235 N 
ATOM     16  C   UNL     1       1.673   6.605  -3.085  1.00  0.00     0.322 C 
ATOM     17  H   UNL     1       3.280   5.582  -2.546  1.00  0.00     0.313 HD
ATOM     18  N   UNL     1       2.195   7.335  -4.022  1.00  0.00    -0.199 N 
ATOM     19  S   UNL     1       0.165   7.196  -2.417  1.00  0.00     0.006 SA
ATOM     20  C   UNL     1       1.389   8.380  -4.398  1.00  0.00     0.346 C 
ATOM     21  H   UNL     1       3.077   7.158  -4.421  1.00  0.00     0.316 HD
ATOM     22  C   UNL     1       0.065   8.324  -3.715  1.00  0.00     0.110 C 
ATOM     23  O   UNL     1       1.702   9.244  -5.210  1.00  0.00    -0.240 OA
BRANCH  15  24
ATOM     24  C   UNL     1       1.804   4.232  -2.255  1.00  0.00     0.125 A 
ATOM     25  C   UNL     1       0.975   1.651  -1.453  1.00  0.00     0.119 A 
ATOM     26  C   UNL     1       0.068   2.541  -2.021  1.00  0.00     0.051 A 
ATOM     27  C   UNL     1       2.302   2.037  -1.294  1.00  0.00     0.051 A 
ATOM     28  C   UNL     1       0.474   3.826  -2.401  1.00  0.00     0.055 A 
ATOM     29  C   UNL     1       2.705   3.319  -1.682  1.00  0.00     0.055 A 
BRANCH  25  30
ATOM     30  O   UNL     1       0.490   0.411  -1.142  1.00  0.00    -0.497 OA
ATOM     31  C   UNL     1       0.998  -0.125   0.077  1.00  0.00     0.278 C 
ENDBRANCH  25  30
ENDBRANCH  15  24
ENDBRANCH   9  14
ENDBRANCH   6   8
ENDBRANCH   5   6
ENDBRANCH   4   5
ENDBRANCH   3   4
ENDBRANCH   2   3
ENDBRANCH   1   2
BRANCH   1  32
ATOM     32  C   UNL     1      -3.922   6.869  -6.300  1.00  0.00     0.188 C 
BRANCH  32  33
ATOM     33  O   UNL     1      -3.970   6.234  -5.042  1.00  0.00    -0.376 OA
BRANCH  33  34
ATOM     34  C   UNL     1      -4.743   5.056  -4.878  1.00  0.00     0.202 C 
BRANCH  34  35
ATOM     35  C   UNL     1      -6.021   4.739  -5.680  1.00  0.00     0.261 C 
BRANCH  35  36
ATOM     36  O   UNL     1      -6.068   5.176  -7.044  1.00  0.00    -0.460 OA
BRANCH  36  37
ATOM     37  C   UNL     1      -6.934   6.188  -7.309  1.00  0.00     0.338 C 
ATOM     38  O   UNL     1      -7.669   6.761  -6.525  1.00  0.00    -0.246 OA
BRANCH  37  39
ATOM     39  C   UNL     1      -6.716   6.648  -8.696  1.00  0.00     0.060 A 
ATOM     40  C   UNL     1      -6.165   7.920  -8.913  1.00  0.00     0.016 A 
ATOM     41  C   UNL     1      -7.057   5.832  -9.773  1.00  0.00     0.016 A 
ATOM     42  C   UNL     1      -5.943   8.376 -10.213  1.00  0.00     0.010 A 
ATOM     43  C   UNL     1      -6.865   6.304 -11.075  1.00  0.00     0.010 A 
ATOM     44  C   UNL     1      -6.322   7.583 -11.302  1.00  0.00    -0.014 A 
BRANCH  44  45
ATOM     45  C   UNL     1      -6.303   8.136 -12.678  1.00  0.00     0.031 A 
ATOM     46  C   UNL     1      -7.586   8.659 -13.259  1.00  0.00     0.074 A 
ATOM     47  C   UNL     1      -5.175   8.156 -13.410  1.00  0.00     0.049 A 
ATOM     48  N   UNL     1      -7.838   9.082 -14.471  1.00  0.00    -0.248 NA
ATOM     49  C   UNL     1      -8.742   8.706 -12.349  1.00  0.00     0.031 C 
ATOM     50  C   UNL     1      -3.855   7.733 -12.949  1.00  0.00     0.029 A 
ATOM     51  N   UNL     1      -4.972   8.537 -14.714  1.00  0.00    -0.354 N 
ATOM     52  C   UNL     1      -9.183   9.430 -14.475  1.00  0.00     0.074 A 
ATOM     53  C   UNL     1      -9.698   9.147 -13.152  1.00  0.00     0.031 C 
ATOM     54  C   UNL     1      -2.980   7.860 -13.963  1.00  0.00     0.029 A 
ATOM     55  C   UNL     1      -3.687   8.329 -15.153  1.00  0.00     0.049 A 
ATOM     56  H   UNL     1      -5.680   8.922 -15.280  1.00  0.00     0.167 HD
ATOM     57  C   UNL     1      -9.924   9.937 -15.488  1.00  0.00     0.031 A 
ATOM     58  C   UNL     1      -3.154   8.468 -16.384  1.00  0.00     0.031 A 
ATOM     59  C   UNL     1      -9.418  10.194 -16.810  1.00  0.00     0.049 A 
ATOM     60  C   UNL     1      -4.025   8.933 -17.524  1.00  0.00     0.074 A 
ATOM     61  C   UNL     1     -10.089  10.721 -17.900  1.00  0.00     0.029 A 
ATOM     62  N   UNL     1      -8.122   9.932 -17.225  1.00  0.00    -0.354 N 
ATOM     63  N   UNL     1      -5.288   9.285 -17.512  1.00  0.00    -0.248 NA
ATOM     64  C   UNL     1      -3.392   9.020 -18.849  1.00  0.00     0.031 C 
ATOM     65  C   UNL     1      -9.218  10.710 -18.994  1.00  0.00     0.029 A 
ATOM     66  C   UNL     1      -7.984  10.249 -18.566  1.00  0.00     0.049 A 
ATOM     67  H   UNL     1      -7.407   9.573 -16.652  1.00  0.00     0.167 HD
ATOM     68  C   UNL     1      -5.591   9.663 -18.816  1.00  0.00     0.074 A 
ATOM     69  C   UNL     1      -4.376   9.512 -19.589  1.00  0.00     0.031 C 
ATOM     70  C   UNL     1      -6.770  10.097 -19.326  1.00  0.00     0.031 A 
BRANCH  57  71
ATOM     71  C   UNL     1     -11.379  10.200 -15.216  1.00  0.00    -0.014 A 
ATOM     72  C   UNL     1     -11.789  11.240 -14.368  1.00  0.00     0.009 A 
ATOM     73  C   UNL     1     -12.355   9.413 -15.847  1.00  0.00     0.009 A 
ATOM     74  C   UNL     1     -13.147  11.462 -14.128  1.00  0.00     0.001 A 
ATOM     75  C   UNL     1     -13.712   9.658 -15.631  1.00  0.00     0.001 A 
ATOM     76  C   UNL     1     -14.107  10.675 -14.764  1.00  0.00     0.000 A 
ENDBRANCH  57  71
BRANCH  58  77
ATOM     77  C   UNL     1      -1.725   8.127 -16.624  1.00  0.00    -0.014 A 
ATOM     78  C   UNL     1      -0.798   9.123 -16.968  1.00  0.00     0.009 A 
ATOM     79  C   UNL     1      -1.286   6.795 -16.544  1.00  0.00     0.009 A 
ATOM     80  C   UNL     1       0.528   8.791 -17.253  1.00  0.00     0.001 A 
ATOM     81  C   UNL     1       0.048   6.470 -16.797  1.00  0.00     0.001 A 
ATOM     82  C   UNL     1       0.952   7.466 -17.163  1.00  0.00     0.000 A 
ENDBRANCH  58  77
BRANCH  70  83
ATOM     83  C   UNL     1      -6.802  10.482 -20.781  1.00  0.00    -0.014 A 
ATOM     84  C   UNL     1      -6.725   9.517 -21.797  1.00  0.00     0.009 A 
ATOM     85  C   UNL     1      -6.973  11.830 -21.137  1.00  0.00     0.009 A 
ATOM     86  C   UNL     1      -6.790   9.898 -23.140  1.00  0.00     0.001 A 
ATOM     87  C   UNL     1      -7.071  12.204 -22.478  1.00  0.00     0.001 A 
ATOM     88  C   UNL     1      -6.971  11.239 -23.479  1.00  0.00     0.000 A 
ENDBRANCH  70  83
ENDBRANCH  44  45
ENDBRANCH  37  39
ENDBRANCH  36  37
ENDBRANCH  35  36
ENDBRANCH  34  35
ENDBRANCH  33  34
ENDBRANCH  32  33
ENDBRANCH   1  32
TORSDOF 20
