REMARK SMILES O=C(OCCOCCOCCOC(=O)[C@H](c1c[nH]c2ccc(Cl)cc12)[NH+]1CCN(c2cccc(Cl)c2)CC1)c1ccc(-c2c3nc(c(-c4ccccc4)c4ccc([nH]4)c(-c4ccccc4)c4nc(c(-c5ccccc5)c5ccc2[nH]5)C=C4)C=C3)cc1
REMARK SMILES IDX 7 1 6 2 5 3 4 4 3 5 2 6 1 7 39 8 40 9 86 10 41 11 85 12
REMARK SMILES IDX 42 13 43 14 44 15 79 16 45 17 84 18 78 19 80 20 46 21 83 22
REMARK SMILES IDX 77 23 76 24 47 26 69 27 54 28 68 29 55 30 58 31 67 32 81 33
REMARK SMILES IDX 56 34 57 35 66 37 82 38 59 39 48 40 49 41 53 42 50 43 52 44
REMARK SMILES IDX 51 45 70 46 71 47 75 48 72 49 74 50 73 51 60 52 61 53 65 54
REMARK SMILES IDX 62 55 64 56 63 57 8 58 9 59 10 60 11 61 12 62 13 63 14 64
REMARK SMILES IDX 15 65 26 66 27 67 38 68 28 70 37 71 29 72 30 73 31 74 36 75
REMARK SMILES IDX 32 76 34 77 33 78 35 79 16 80 17 81 25 82 18 83 19 84 24 85
REMARK SMILES IDX 20 87 22 88 21 89 23 90
REMARK H PARENT 80 25 58 36 26 69 18 86
REMARK Flexibility Score: inf
ROOT
ATOM      1  C   UNL     1       5.343  -1.769   1.039  1.00  0.00     0.188 C 
ENDROOT
BRANCH   1   2
ATOM      2  O   UNL     1       3.989  -2.218   0.979  1.00  0.00    -0.376 OA
BRANCH   2   3
ATOM      3  C   UNL     1       3.644  -2.888  -0.234  1.00  0.00     0.202 C 
BRANCH   3   4
ATOM      4  C   UNL     1       3.434  -1.978  -1.457  1.00  0.00     0.261 C 
BRANCH   4   5
ATOM      5  O   UNL     1       4.077  -0.692  -1.341  1.00  0.00    -0.460 OA
BRANCH   5   6
ATOM      6  C   UNL     1       3.494   0.479  -0.978  1.00  0.00     0.338 C 
ATOM      7  O   UNL     1       4.127   1.536  -1.062  1.00  0.00    -0.246 OA
BRANCH   6   8
ATOM      8  C   UNL     1       2.078   0.523  -0.541  1.00  0.00     0.060 A 
ATOM      9  C   UNL     1       1.524  -0.444   0.292  1.00  0.00     0.016 A 
ATOM     10  C   UNL     1       1.278   1.602  -0.928  1.00  0.00     0.016 A 
ATOM     11  C   UNL     1       0.168  -0.467   0.567  1.00  0.00     0.010 A 
ATOM     12  C   UNL     1      -0.061   1.663  -0.520  1.00  0.00     0.010 A 
ATOM     13  C   UNL     1      -0.641   0.602   0.194  1.00  0.00    -0.014 A 
BRANCH  13  14
ATOM     14  C   UNL     1      -2.090   0.550   0.516  1.00  0.00     0.031 A 
ATOM     15  C   UNL     1      -3.089   0.627  -0.605  1.00  0.00     0.074 A 
ATOM     16  C   UNL     1      -2.504   0.348   1.785  1.00  0.00     0.049 A 
ATOM     17  N   UNL     1      -4.395   0.648  -0.549  1.00  0.00    -0.248 NA
ATOM     18  C   UNL     1      -2.547   0.679  -1.974  1.00  0.00     0.031 C 
ATOM     19  C   UNL     1      -1.630   0.168   2.949  1.00  0.00     0.029 A 
ATOM     20  N   UNL     1      -3.764   0.238   2.315  1.00  0.00    -0.354 N 
ATOM     21  C   UNL     1      -4.823   0.740  -1.867  1.00  0.00     0.074 A 
ATOM     22  C   UNL     1      -3.645   0.821  -2.698  1.00  0.00     0.031 C 
ATOM     23  C   UNL     1      -2.373  -0.027   4.047  1.00  0.00     0.029 A 
ATOM     24  C   UNL     1      -3.777   0.052   3.678  1.00  0.00     0.049 A 
ATOM     25  H   UNL     1      -4.583   0.288   1.771  1.00  0.00     0.167 HD
ATOM     26  C   UNL     1      -6.087   0.727  -2.349  1.00  0.00     0.031 A 
ATOM     27  C   UNL     1      -4.803  -0.031   4.543  1.00  0.00     0.031 A 
ATOM     28  C   UNL     1      -7.254   0.628  -1.519  1.00  0.00     0.049 A 
ATOM     29  C   UNL     1      -6.197   0.032   3.991  1.00  0.00     0.074 A 
ATOM     30  C   UNL     1      -8.585   0.645  -1.889  1.00  0.00     0.029 A 
ATOM     31  N   UNL     1      -7.219   0.479  -0.140  1.00  0.00    -0.354 N 
ATOM     32  N   UNL     1      -6.582   0.145   2.742  1.00  0.00    -0.248 NA
ATOM     33  C   UNL     1      -7.295  -0.063   4.959  1.00  0.00     0.031 C 
ATOM     34  C   UNL     1      -9.358   0.536  -0.728  1.00  0.00     0.029 A 
ATOM     35  C   UNL     1      -8.507   0.406   0.359  1.00  0.00     0.049 A 
ATOM     36  H   UNL     1      -6.399   0.433   0.403  1.00  0.00     0.167 HD
ATOM     37  C   UNL     1      -7.968   0.117   2.771  1.00  0.00     0.074 A 
ATOM     38  C   UNL     1      -8.352  -0.055   4.159  1.00  0.00     0.031 C 
ATOM     39  C   UNL     1      -8.848   0.230   1.747  1.00  0.00     0.031 A 
BRANCH  26  40
ATOM     40  C   UNL     1      -6.243   0.846  -3.838  1.00  0.00    -0.014 A 
ATOM     41  C   UNL     1      -5.899  -0.216  -4.692  1.00  0.00     0.009 A 
ATOM     42  C   UNL     1      -6.696   2.049  -4.399  1.00  0.00     0.009 A 
ATOM     43  C   UNL     1      -5.961  -0.058  -6.078  1.00  0.00     0.001 A 
ATOM     44  C   UNL     1      -6.782   2.195  -5.785  1.00  0.00     0.001 A 
ATOM     45  C   UNL     1      -6.403   1.147  -6.623  1.00  0.00     0.000 A 
ENDBRANCH  26  40
BRANCH  27  46
ATOM     46  C   UNL     1      -4.551  -0.165   6.004  1.00  0.00    -0.014 A 
ATOM     47  C   UNL     1      -4.894  -1.337   6.694  1.00  0.00     0.009 A 
ATOM     48  C   UNL     1      -3.968   0.893   6.723  1.00  0.00     0.009 A 
ATOM     49  C   UNL     1      -4.697  -1.431   8.076  1.00  0.00     0.001 A 
ATOM     50  C   UNL     1      -3.741   0.785   8.097  1.00  0.00     0.001 A 
ATOM     51  C   UNL     1      -4.119  -0.372   8.775  1.00  0.00     0.000 A 
ENDBRANCH  27  46
BRANCH  39  52
ATOM     52  C   UNL     1     -10.302   0.137   2.100  1.00  0.00    -0.014 A 
ATOM     53  C   UNL     1     -10.955   1.189   2.760  1.00  0.00     0.009 A 
ATOM     54  C   UNL     1     -11.029  -1.009   1.746  1.00  0.00     0.009 A 
ATOM     55  C   UNL     1     -12.305   1.078   3.092  1.00  0.00     0.001 A 
ATOM     56  C   UNL     1     -12.385  -1.104   2.053  1.00  0.00     0.001 A 
ATOM     57  C   UNL     1     -13.019  -0.066   2.735  1.00  0.00     0.000 A 
ENDBRANCH  39  52
ENDBRANCH  13  14
ENDBRANCH   6   8
ENDBRANCH   5   6
ENDBRANCH   4   5
ENDBRANCH   3   4
ENDBRANCH   2   3
ENDBRANCH   1   2
BRANCH   1  58
ATOM     58  C   UNL     1       5.841  -1.700   2.482  1.00  0.00     0.188 C 
BRANCH  58  59
ATOM     59  O   UNL     1       5.926  -2.938   3.181  1.00  0.00    -0.376 OA
BRANCH  59  60
ATOM     60  C   UNL     1       4.721  -3.680   3.334  1.00  0.00     0.202 C 
BRANCH  60  61
ATOM     61  C   UNL     1       3.627  -3.123   4.262  1.00  0.00     0.261 C 
BRANCH  61  62
ATOM     62  O   UNL     1       3.146  -1.787   4.006  1.00  0.00    -0.459 OA
BRANCH  62  63
ATOM     63  C   UNL     1       3.629  -0.840   4.876  1.00  0.00     0.370 C 
ATOM     64  O   UNL     1       4.564  -1.055   5.645  1.00  0.00    -0.245 OA
BRANCH  63  65
ATOM     65  C   UNL     1       2.802   0.488   4.834  1.00  0.00     0.328 C 
BRANCH  65  66
ATOM     66  N   UNL     1       2.931   1.096   6.188  1.00  0.00    -0.316 N 
ATOM     67  C   UNL     1       2.971   2.557   6.345  1.00  0.00     0.284 C 
ATOM     68  C   UNL     1       1.955   0.522   7.140  1.00  0.00     0.284 C 
ATOM     69  H   UNL     1       3.893   0.832   6.400  1.00  0.00     0.349 HD
ATOM     70  C   UNL     1       1.621   3.304   6.326  1.00  0.00     0.178 C 
ATOM     71  C   UNL     1       0.546   1.142   7.035  1.00  0.00     0.178 C 
ATOM     72  N   UNL     1       0.608   2.599   7.115  1.00  0.00    -0.360 N 
BRANCH  72  73
ATOM     73  C   UNL     1      -0.054   3.297   8.100  1.00  0.00     0.038 A 
ATOM     74  C   UNL     1       0.127   2.989   9.453  1.00  0.00     0.026 A 
ATOM     75  C   UNL     1      -0.890   4.368   7.764  1.00  0.00     0.046 A 
ATOM     76  C   UNL     1      -0.502   3.735  10.451  1.00  0.00     0.004 A 
ATOM     77  C   UNL     1      -1.535   5.101   8.759  1.00  0.00     0.043 A 
ATOM     78  C   UNL     1      -1.340   4.792  10.102  1.00  0.00     0.020 A 
ATOM     79  Cl  UNL     1      -2.578   6.398   8.323  1.00  0.00    -0.084 Cl
ENDBRANCH  72  73
ENDBRANCH  65  66
BRANCH  65  80
ATOM     80  C   UNL     1       3.240   1.419   3.721  1.00  0.00     0.046 A 
ATOM     81  C   UNL     1       4.527   1.669   3.275  1.00  0.00     0.094 A 
ATOM     82  C   UNL     1       2.385   2.311   2.971  1.00  0.00     0.011 A 
ATOM     83  N   UNL     1       4.479   2.610   2.282  1.00  0.00    -0.361 N 
ATOM     84  C   UNL     1       3.194   3.068   2.124  1.00  0.00     0.046 A 
ATOM     85  C   UNL     1       1.003   2.598   2.985  1.00  0.00     0.031 A 
ATOM     86  H   UNL     1       5.255   2.915   1.756  1.00  0.00     0.166 HD
ATOM     87  C   UNL     1       2.700   4.097   1.310  1.00  0.00     0.028 A 
ATOM     88  C   UNL     1       0.499   3.640   2.201  1.00  0.00     0.041 A 
ATOM     89  C   UNL     1       1.333   4.381   1.374  1.00  0.00     0.022 A 
ATOM     90  Cl  UNL     1      -1.180   4.020   2.279  1.00  0.00    -0.084 Cl
ENDBRANCH  65  80
ENDBRANCH  63  65
ENDBRANCH  62  63
ENDBRANCH  61  62
ENDBRANCH  60  61
ENDBRANCH  59  60
ENDBRANCH  58  59
ENDBRANCH   1  58
TORSDOF 20
