REMARK SMILES COc1ccc([C@@H](CC(=O)OCCOCCOCCOC(=O)c2ccc(-c3c4nc(c(-c5ccccc5)c5ccc([nH]5)c(-c5ccccc5)c5nc(c(-c6ccccc6)c6ccc3[nH]6)C=C5)C=C4)cc2)C2CCCCC2)cc1Cl
REMARK SMILES IDX 15 1 14 2 13 3 12 4 11 5 9 6 10 7 8 8 7 9 6 10 3 11 4 12
REMARK SMILES IDX 78 13 5 14 77 15 79 16 2 17 1 18 71 19 72 20 76 21 73 22
REMARK SMILES IDX 75 23 74 24 16 25 17 26 18 27 19 28 20 29 21 30 22 31 23 32
REMARK SMILES IDX 24 33 70 34 25 35 69 36 26 37 27 38 28 39 63 40 29 41 68 42
REMARK SMILES IDX 62 43 64 44 30 45 67 46 61 47 60 48 31 50 53 51 38 52 52 53
REMARK SMILES IDX 39 54 42 55 51 56 65 57 40 58 41 59 50 61 66 62 43 63 32 64
REMARK SMILES IDX 33 65 37 66 34 67 36 68 35 69 54 70 55 71 59 72 56 73 58 74
REMARK SMILES IDX 57 75 44 76 45 77 49 78 46 79 48 80 47 81
REMARK H PARENT 64 49 42 60
REMARK Flexibility Score: inf
ROOT
ATOM      1  C   UNL     1      -2.338   1.983   8.579  1.00  0.00     0.188 C 
ENDROOT
BRANCH   1   2
ATOM      2  O   UNL     1      -2.920   3.087   7.901  1.00  0.00    -0.376 OA
BRANCH   2   3
ATOM      3  C   UNL     1      -2.603   3.245   6.518  1.00  0.00     0.202 C 
BRANCH   3   4
ATOM      4  C   UNL     1      -1.108   3.356   6.210  1.00  0.00     0.261 C 
BRANCH   4   5
ATOM      5  O   UNL     1      -0.449   2.081   6.376  1.00  0.00    -0.463 OA
BRANCH   5   6
ATOM      6  C   UNL     1       0.881   2.149   6.662  1.00  0.00     0.306 C 
ATOM      7  O   UNL     1       1.513   3.190   6.786  1.00  0.00    -0.252 OA
BRANCH   6   8
ATOM      8  C   UNL     1       1.467   0.783   6.957  1.00  0.00     0.131 C 
BRANCH   8   9
ATOM      9  C   UNL     1       1.896  -0.182   5.819  1.00  0.00     0.033 C 
BRANCH   9  10
ATOM     10  C   UNL     1       1.713   0.278   4.379  1.00  0.00    -0.042 A 
ATOM     11  C   UNL     1       1.413   0.888   1.643  1.00  0.00     0.137 A 
ATOM     12  C   UNL     1       0.323   0.984   2.504  1.00  0.00     0.048 A 
ATOM     13  C   UNL     1       2.666   0.533   2.143  1.00  0.00     0.083 A 
ATOM     14  C   UNL     1       0.470   0.663   3.855  1.00  0.00     0.008 A 
ATOM     15  C   UNL     1       2.811   0.230   3.501  1.00  0.00     0.028 A 
ATOM     16  Cl  UNL     1       4.056   0.427   1.127  1.00  0.00    -0.080 Cl
BRANCH  11  17
ATOM     17  O   UNL     1       1.199   1.187   0.325  1.00  0.00    -0.495 OA
ATOM     18  C   UNL     1       0.982  -0.007  -0.431  1.00  0.00     0.278 C 
ENDBRANCH  11  17
ENDBRANCH   9  10
BRANCH   9  19
ATOM     19  C   UNL     1       1.434  -1.673   6.069  1.00  0.00    -0.003 C 
ATOM     20  C   UNL     1       0.041  -2.008   5.512  1.00  0.00     0.004 C 
ATOM     21  C   UNL     1       2.474  -2.690   5.540  1.00  0.00     0.004 C 
ATOM     22  C   UNL     1      -0.337  -3.473   5.701  1.00  0.00     0.000 C 
ATOM     23  C   UNL     1       2.043  -4.148   5.719  1.00  0.00     0.000 C 
ATOM     24  C   UNL     1       0.686  -4.405   5.081  1.00  0.00     0.000 C 
ENDBRANCH   9  19
ENDBRANCH   8   9
ENDBRANCH   6   8
ENDBRANCH   5   6
ENDBRANCH   4   5
ENDBRANCH   3   4
ENDBRANCH   2   3
ENDBRANCH   1   2
BRANCH   1  25
ATOM     25  C   UNL     1      -2.613   0.578   8.023  1.00  0.00     0.188 C 
BRANCH  25  26
ATOM     26  O   UNL     1      -3.620   0.540   7.017  1.00  0.00    -0.376 OA
BRANCH  26  27
ATOM     27  C   UNL     1      -3.761  -0.729   6.375  1.00  0.00     0.202 C 
BRANCH  27  28
ATOM     28  C   UNL     1      -4.654  -1.686   7.177  1.00  0.00     0.261 C 
BRANCH  28  29
ATOM     29  O   UNL     1      -4.138  -1.980   8.492  1.00  0.00    -0.460 OA
BRANCH  29  30
ATOM     30  C   UNL     1      -3.001  -2.706   8.479  1.00  0.00     0.338 C 
ATOM     31  O   UNL     1      -2.491  -3.208   7.493  1.00  0.00    -0.246 OA
BRANCH  30  32
ATOM     32  C   UNL     1      -2.345  -2.721   9.794  1.00  0.00     0.060 A 
ATOM     33  C   UNL     1      -0.991  -2.364   9.879  1.00  0.00     0.016 A 
ATOM     34  C   UNL     1      -3.027  -3.197  10.912  1.00  0.00     0.016 A 
ATOM     35  C   UNL     1      -0.302  -2.533  11.079  1.00  0.00     0.010 A 
ATOM     36  C   UNL     1      -2.337  -3.360  12.113  1.00  0.00     0.010 A 
ATOM     37  C   UNL     1      -0.967  -3.052  12.199  1.00  0.00    -0.014 A 
BRANCH  37  38
ATOM     38  C   UNL     1      -0.241  -3.316  13.464  1.00  0.00     0.031 A 
ATOM     39  C   UNL     1      -0.005  -4.733  13.906  1.00  0.00     0.074 A 
ATOM     40  C   UNL     1       0.164  -2.284  14.225  1.00  0.00     0.049 A 
ATOM     41  N   UNL     1       0.419  -5.182  15.059  1.00  0.00    -0.248 NA
ATOM     42  C   UNL     1      -0.299  -5.785  12.921  1.00  0.00     0.031 C 
ATOM     43  C   UNL     1       0.036  -0.870  13.867  1.00  0.00     0.029 A 
ATOM     44  N   UNL     1       0.751  -2.263  15.464  1.00  0.00    -0.354 N 
ATOM     45  C   UNL     1       0.399  -6.569  14.955  1.00  0.00     0.074 A 
ATOM     46  C   UNL     1      -0.075  -6.886  13.625  1.00  0.00     0.031 C 
ATOM     47  C   UNL     1       0.531  -0.119  14.863  1.00  0.00     0.029 A 
ATOM     48  C   UNL     1       0.943  -0.995  15.955  1.00  0.00     0.049 A 
ATOM     49  H   UNL     1       1.010  -3.077  15.953  1.00  0.00     0.167 HD
ATOM     50  C   UNL     1       0.732  -7.487  15.894  1.00  0.00     0.031 A 
ATOM     51  C   UNL     1       1.358  -0.585  17.167  1.00  0.00     0.031 A 
ATOM     52  C   UNL     1       1.205  -7.147  17.212  1.00  0.00     0.049 A 
ATOM     53  C   UNL     1       1.680  -1.621  18.206  1.00  0.00     0.074 A 
ATOM     54  C   UNL     1       1.574  -7.990  18.246  1.00  0.00     0.029 A 
ATOM     55  N   UNL     1       1.378  -5.849  17.673  1.00  0.00    -0.354 N 
ATOM     56  N   UNL     1       1.625  -2.929  18.111  1.00  0.00    -0.248 NA
ATOM     57  C   UNL     1       2.113  -1.127  19.519  1.00  0.00     0.031 C 
ATOM     58  C   UNL     1       1.925  -7.201  19.347  1.00  0.00     0.029 A 
ATOM     59  C   UNL     1       1.832  -5.867  18.981  1.00  0.00     0.049 A 
ATOM     60  H   UNL     1       1.204  -5.035  17.147  1.00  0.00     0.167 HD
ATOM     61  C   UNL     1       2.035  -3.416  19.344  1.00  0.00     0.074 A 
ATOM     62  C   UNL     1       2.355  -2.261  20.161  1.00  0.00     0.031 C 
ATOM     63  C   UNL     1       2.136  -4.699  19.768  1.00  0.00     0.031 A 
BRANCH  50  64
ATOM     64  C   UNL     1       0.536  -8.940  15.550  1.00  0.00    -0.014 A 
ATOM     65  C   UNL     1       1.358  -9.600  14.623  1.00  0.00     0.009 A 
ATOM     66  C   UNL     1      -0.483  -9.669  16.186  1.00  0.00     0.009 A 
ATOM     67  C   UNL     1       1.138 -10.945  14.311  1.00  0.00     0.001 A 
ATOM     68  C   UNL     1      -0.683 -11.021  15.893  1.00  0.00     0.001 A 
ATOM     69  C   UNL     1       0.121 -11.655  14.948  1.00  0.00     0.000 A 
ENDBRANCH  50  64
BRANCH  51  70
ATOM     70  C   UNL     1       1.452   0.868  17.470  1.00  0.00    -0.014 A 
ATOM     71  C   UNL     1       2.699   1.480  17.661  1.00  0.00     0.009 A 
ATOM     72  C   UNL     1       0.292   1.657  17.552  1.00  0.00     0.009 A 
ATOM     73  C   UNL     1       2.783   2.847  17.941  1.00  0.00     0.001 A 
ATOM     74  C   UNL     1       0.380   3.029  17.800  1.00  0.00     0.001 A 
ATOM     75  C   UNL     1       1.625   3.621  18.003  1.00  0.00     0.000 A 
ENDBRANCH  51  70
BRANCH  63  76
ATOM     76  C   UNL     1       2.650  -4.908  21.164  1.00  0.00    -0.014 A 
ATOM     77  C   UNL     1       1.858  -4.612  22.284  1.00  0.00     0.009 A 
ATOM     78  C   UNL     1       3.943  -5.417  21.355  1.00  0.00     0.009 A 
ATOM     79  C   UNL     1       2.370  -4.784  23.572  1.00  0.00     0.001 A 
ATOM     80  C   UNL     1       4.441  -5.615  22.643  1.00  0.00     0.001 A 
ATOM     81  C   UNL     1       3.659  -5.287  23.749  1.00  0.00     0.000 A 
ENDBRANCH  63  76
ENDBRANCH  37  38
ENDBRANCH  30  32
ENDBRANCH  29  30
ENDBRANCH  28  29
ENDBRANCH  27  28
ENDBRANCH  26  27
ENDBRANCH  25  26
ENDBRANCH   1  25
TORSDOF 21
