REMARK SMILES CC1=C[C@H](C)[C@H](CN2C[C@@]34C=C[C@@H](O3)[C@H](C(=O)OCCOCCOCCOC(=O)c3ccc(-c5c6nc(c(-c7ccccc7)c7ccc([nH]7)c(-c7ccccc7)c7nc(c(-c8ccccc8)c8ccc5[nH]8)C=C7)C=C6)cc3)[C@@H]4C2=O)[C@H](C)C1
REMARK SMILES IDX 22 1 21 2 20 3 19 4 18 5 16 6 17 7 15 8 8 9 9 10 79 11 10 12
REMARK SMILES IDX 78 13 80 14 11 15 14 16 12 17 13 18 7 19 6 20 1 21 2 22 3 23
REMARK SMILES IDX 83 24 4 25 81 26 5 27 82 28 23 29 24 30 25 31 26 32 27 33
REMARK SMILES IDX 28 34 29 35 30 36 31 37 77 38 32 39 76 40 33 41 34 42 35 43
REMARK SMILES IDX 70 44 36 45 75 46 69 47 71 48 37 49 74 50 68 51 67 52 38 54
REMARK SMILES IDX 60 55 45 56 59 57 46 58 49 59 58 60 72 61 47 62 48 63 57 65
REMARK SMILES IDX 73 66 50 67 39 68 40 69 44 70 41 71 43 72 42 73 61 74 62 75
REMARK SMILES IDX 66 76 63 77 65 78 64 79 51 80 52 81 56 82 53 83 55 84 54 85
REMARK H PARENT 71 53 49 64
REMARK Flexibility Score: inf
ROOT
ATOM      1  C   UNL     1      -0.860   1.939  -3.889  1.00  0.00     0.188 C 
ENDROOT
BRANCH   1   2
ATOM      2  O   UNL     1      -1.798   2.995  -4.064  1.00  0.00    -0.376 OA
BRANCH   2   3
ATOM      3  C   UNL     1      -3.177   2.661  -4.016  1.00  0.00     0.202 C 
BRANCH   3   4
ATOM      4  C   UNL     1      -3.719   1.868  -5.207  1.00  0.00     0.261 C 
BRANCH   4   5
ATOM      5  O   UNL     1      -2.974   0.680  -5.607  1.00  0.00    -0.463 OA
BRANCH   5   6
ATOM      6  C   UNL     1      -2.724   0.637  -6.937  1.00  0.00     0.312 C 
ATOM      7  O   UNL     1      -2.994   1.563  -7.704  1.00  0.00    -0.252 OA
BRANCH   6   8
ATOM      8  C   UNL     1      -2.110  -0.600  -7.536  1.00  0.00     0.148 C 
ATOM      9  N   UNL     1      -0.754  -3.237  -5.223  1.00  0.00    -0.339 N 
ATOM     10  C   UNL     1       0.271  -2.345  -5.635  1.00  0.00     0.160 C 
ATOM     11  C   UNL     1      -1.963  -2.853  -5.801  1.00  0.00     0.230 C 
ATOM     12  C   UNL     1      -0.091  -1.706  -6.946  1.00  0.00     0.117 C 
ATOM     13  C   UNL     1      -1.625  -1.894  -6.937  1.00  0.00     0.133 C 
ATOM     14  O   UNL     1      -3.052  -3.356  -5.603  1.00  0.00    -0.274 OA
ATOM     15  C   UNL     1       0.739  -0.474  -6.717  1.00  0.00     0.009 C 
ATOM     16  O   UNL     1      -0.036  -1.509  -8.345  1.00  0.00    -0.360 OA
ATOM     17  C   UNL     1       0.176   0.529  -7.365  1.00  0.00     0.004 C 
ATOM     18  C   UNL     1      -0.796  -0.175  -8.260  1.00  0.00     0.157 C 
BRANCH   9  19
ATOM     19  C   UNL     1      -0.432  -4.369  -4.335  1.00  0.00     0.124 C 
BRANCH  19  20
ATOM     20  C   UNL     1      -0.336  -4.122  -2.793  1.00  0.00     0.018 C 
ATOM     21  C   UNL     1       0.681  -2.981   1.361  1.00  0.00     0.039 C 
ATOM     22  C   UNL     1       0.363  -3.465  -0.028  1.00  0.00    -0.077 C 
ATOM     23  C   UNL     1       0.764  -4.655  -0.514  1.00  0.00    -0.025 C 
ATOM     24  C   UNL     1      -0.336  -2.472  -0.905  1.00  0.00     0.034 C 
ATOM     25  C   UNL     1       0.590  -5.101  -1.971  1.00  0.00     0.014 C 
ATOM     26  C   UNL     1      -0.043  -2.677  -2.391  1.00  0.00    -0.005 C 
ATOM     27  C   UNL     1       2.012  -5.324  -2.518  1.00  0.00     0.012 C 
ATOM     28  C   UNL     1       1.393  -2.244  -2.684  1.00  0.00     0.008 C 
ENDBRANCH  19  20
ENDBRANCH   9  19
ENDBRANCH   6   8
ENDBRANCH   5   6
ENDBRANCH   4   5
ENDBRANCH   3   4
ENDBRANCH   2   3
ENDBRANCH   1   2
BRANCH   1  29
ATOM     29  C   UNL     1      -1.265   0.755  -3.000  1.00  0.00     0.188 C 
BRANCH  29  30
ATOM     30  O   UNL     1      -1.988   1.180  -1.855  1.00  0.00    -0.376 OA
BRANCH  30  31
ATOM     31  C   UNL     1      -1.360   1.042  -0.594  1.00  0.00     0.202 C 
BRANCH  31  32
ATOM     32  C   UNL     1      -0.080   1.855  -0.417  1.00  0.00     0.261 C 
BRANCH  32  33
ATOM     33  O   UNL     1       0.966   1.473  -1.337  1.00  0.00    -0.460 OA
BRANCH  33  34
ATOM     34  C   UNL     1       2.071   0.892  -0.814  1.00  0.00     0.338 C 
ATOM     35  O   UNL     1       2.222   0.545   0.340  1.00  0.00    -0.246 OA
BRANCH  34  36
ATOM     36  C   UNL     1       3.136   0.771  -1.853  1.00  0.00     0.060 A 
ATOM     37  C   UNL     1       2.860   0.671  -3.221  1.00  0.00     0.016 A 
ATOM     38  C   UNL     1       4.464   0.708  -1.426  1.00  0.00     0.016 A 
ATOM     39  C   UNL     1       3.884   0.409  -4.135  1.00  0.00     0.010 A 
ATOM     40  C   UNL     1       5.499   0.568  -2.357  1.00  0.00     0.010 A 
ATOM     41  C   UNL     1       5.222   0.409  -3.723  1.00  0.00    -0.014 A 
BRANCH  41  42
ATOM     42  C   UNL     1       6.342   0.357  -4.703  1.00  0.00     0.031 A 
ATOM     43  C   UNL     1       7.416  -0.690  -4.590  1.00  0.00     0.074 A 
ATOM     44  C   UNL     1       6.449   1.326  -5.636  1.00  0.00     0.049 A 
ATOM     45  N   UNL     1       8.615  -0.703  -5.114  1.00  0.00    -0.248 NA
ATOM     46  C   UNL     1       7.102  -1.875  -3.775  1.00  0.00     0.031 C 
ATOM     47  C   UNL     1       5.458   2.373  -5.899  1.00  0.00     0.029 A 
ATOM     48  N   UNL     1       7.469   1.612  -6.512  1.00  0.00    -0.354 N 
ATOM     49  C   UNL     1       9.219  -1.868  -4.654  1.00  0.00     0.074 A 
ATOM     50  C   UNL     1       8.247  -2.545  -3.821  1.00  0.00     0.031 C 
ATOM     51  C   UNL     1       5.919   3.190  -6.855  1.00  0.00     0.029 A 
ATOM     52  C   UNL     1       7.276   2.789  -7.197  1.00  0.00     0.049 A 
ATOM     53  H   UNL     1       8.256   1.034  -6.637  1.00  0.00     0.167 HD
ATOM     54  C   UNL     1      10.477  -2.314  -4.892  1.00  0.00     0.031 A 
ATOM     55  C   UNL     1       8.117   3.521  -7.950  1.00  0.00     0.031 A 
ATOM     56  C   UNL     1      11.434  -1.630  -5.725  1.00  0.00     0.049 A 
ATOM     57  C   UNL     1       9.529   3.053  -8.130  1.00  0.00     0.074 A 
ATOM     58  C   UNL     1      12.736  -1.996  -6.026  1.00  0.00     0.029 A 
ATOM     59  N   UNL     1      11.191  -0.439  -6.392  1.00  0.00    -0.354 N 
ATOM     60  N   UNL     1      10.107   1.980  -7.649  1.00  0.00    -0.248 NA
ATOM     61  C   UNL     1      10.406   3.904  -8.944  1.00  0.00     0.031 C 
ATOM     62  C   UNL     1      13.294  -1.002  -6.837  1.00  0.00     0.029 A 
ATOM     63  C   UNL     1      12.323  -0.045  -7.085  1.00  0.00     0.049 A 
ATOM     64  H   UNL     1      10.338   0.053  -6.375  1.00  0.00     0.167 HD
ATOM     65  C   UNL     1      11.413   2.017  -8.116  1.00  0.00     0.074 A 
ATOM     66  C   UNL     1      11.535   3.209  -8.931  1.00  0.00     0.031 C 
ATOM     67  C   UNL     1      12.423   1.144  -7.888  1.00  0.00     0.031 A 
BRANCH  54  68
ATOM     68  C   UNL     1      10.921  -3.573  -4.200  1.00  0.00    -0.014 A 
ATOM     69  C   UNL     1      10.483  -4.838  -4.621  1.00  0.00     0.009 A 
ATOM     70  C   UNL     1      11.851  -3.493  -3.151  1.00  0.00     0.009 A 
ATOM     71  C   UNL     1      10.953  -5.994  -3.990  1.00  0.00     0.001 A 
ATOM     72  C   UNL     1      12.335  -4.649  -2.537  1.00  0.00     0.001 A 
ATOM     73  C   UNL     1      11.882  -5.899  -2.954  1.00  0.00     0.000 A 
ENDBRANCH  54  68
BRANCH  55  74
ATOM     74  C   UNL     1       7.662   4.820  -8.512  1.00  0.00    -0.014 A 
ATOM     75  C   UNL     1       7.461   4.971  -9.891  1.00  0.00     0.009 A 
ATOM     76  C   UNL     1       7.405   5.911  -7.664  1.00  0.00     0.009 A 
ATOM     77  C   UNL     1       7.026   6.192 -10.411  1.00  0.00     0.001 A 
ATOM     78  C   UNL     1       6.938   7.120  -8.183  1.00  0.00     0.001 A 
ATOM     79  C   UNL     1       6.758   7.262  -9.557  1.00  0.00     0.000 A 
ENDBRANCH  55  74
BRANCH  67  80
ATOM     80  C   UNL     1      13.730   1.432  -8.566  1.00  0.00    -0.014 A 
ATOM     81  C   UNL     1      14.576   2.455  -8.111  1.00  0.00     0.009 A 
ATOM     82  C   UNL     1      14.123   0.659  -9.669  1.00  0.00     0.009 A 
ATOM     83  C   UNL     1      15.777   2.719  -8.771  1.00  0.00     0.001 A 
ATOM     84  C   UNL     1      15.335   0.910 -10.311  1.00  0.00     0.001 A 
ATOM     85  C   UNL     1      16.157   1.945  -9.868  1.00  0.00     0.000 A 
ENDBRANCH  67  80
ENDBRANCH  41  42
ENDBRANCH  34  36
ENDBRANCH  33  34
ENDBRANCH  32  33
ENDBRANCH  31  32
ENDBRANCH  30  31
ENDBRANCH  29  30
ENDBRANCH   1  29
TORSDOF 19
