REMARK SMILES CC[C@@H](C)c1ccccc1NC(=O)[C@@H]1[C@@H](C(=O)OCCOCCOCCOC(=O)c2ccc(-c3c4nc(c(-c5ccccc5)c5ccc([nH]5)c(-c5ccccc5)c5nc(c(-c6ccccc6)c6ccc3[nH]6)C=C5)C=C4)cc2)[C@@H]2C=C[C@H]1C2
REMARK SMILES IDX 22 1 21 2 20 3 19 4 18 5 16 6 17 7 15 8 14 9 81 10 78 11
REMARK SMILES IDX 80 12 82 13 79 14 12 15 11 16 13 18 10 19 5 20 6 21 7 22
REMARK SMILES IDX 9 23 8 24 3 25 4 26 2 27 1 28 23 29 24 30 25 31 26 32 27 33
REMARK SMILES IDX 28 34 29 35 30 36 31 37 77 38 32 39 76 40 33 41 34 42 35 43
REMARK SMILES IDX 70 44 36 45 75 46 69 47 71 48 37 49 74 50 68 51 67 52 38 54
REMARK SMILES IDX 60 55 45 56 59 57 46 58 49 59 58 60 72 61 47 62 48 63 57 65
REMARK SMILES IDX 73 66 50 67 39 68 40 69 44 70 41 71 43 72 42 73 61 74 62 75
REMARK SMILES IDX 66 76 63 77 65 78 64 79 51 80 52 81 56 82 53 83 55 84 54 85
REMARK H PARENT 11 17 71 53 49 64
REMARK Flexibility Score: inf
ROOT
ATOM      1  C   UNL     1       3.979 -10.485   2.837  1.00  0.00     0.188 C 
ENDROOT
BRANCH   1   2
ATOM      2  O   UNL     1       3.185 -11.349   3.616  1.00  0.00    -0.376 OA
BRANCH   2   3
ATOM      3  C   UNL     1       1.780 -11.383   3.440  1.00  0.00     0.202 C 
BRANCH   3   4
ATOM      4  C   UNL     1       1.043 -11.065   2.122  1.00  0.00     0.261 C 
BRANCH   4   5
ATOM      5  O   UNL     1       1.728 -10.314   1.113  1.00  0.00    -0.463 OA
BRANCH   5   6
ATOM      6  C   UNL     1       1.738  -8.972   1.286  1.00  0.00     0.310 C 
ATOM      7  O   UNL     1       1.232  -8.421   2.255  1.00  0.00    -0.252 OA
BRANCH   6   8
ATOM      8  C   UNL     1       2.604  -8.265   0.253  1.00  0.00     0.119 C 
ATOM      9  C   UNL     1       2.146  -6.795   0.139  1.00  0.00     0.100 C 
ATOM     10  C   UNL     1       2.028  -6.560  -1.378  1.00  0.00     0.025 C 
ATOM     11  C   UNL     1       2.400  -8.766  -1.207  1.00  0.00     0.027 C 
ATOM     12  C   UNL     1       3.323  -6.857  -2.096  1.00  0.00    -0.027 C 
ATOM     13  C   UNL     1       1.276  -7.856  -1.732  1.00  0.00     0.017 C 
ATOM     14  C   UNL     1       3.530  -8.181  -2.024  1.00  0.00    -0.027 C 
BRANCH   9  15
ATOM     15  C   UNL     1       2.932  -5.744   0.921  1.00  0.00     0.228 C 
ATOM     16  N   UNL     1       2.242  -4.626   1.376  1.00  0.00    -0.326 N 
ATOM     17  H   UNL     1       2.775  -3.876   1.725  1.00  0.00     0.169 HD
ATOM     18  O   UNL     1       4.152  -5.816   1.067  1.00  0.00    -0.274 OA
BRANCH  16  19
ATOM     19  C   UNL     1       0.837  -4.479   1.376  1.00  0.00     0.044 A 
ATOM     20  C   UNL     1       0.218  -3.379   0.773  1.00  0.00    -0.022 A 
ATOM     21  C   UNL     1      -1.101  -3.564   0.311  1.00  0.00     0.006 A 
ATOM     22  C   UNL     1      -1.808  -4.741   0.570  1.00  0.00     0.000 A 
ATOM     23  C   UNL     1       0.042  -5.520   1.863  1.00  0.00     0.026 A 
ATOM     24  C   UNL     1      -1.262  -5.690   1.416  1.00  0.00     0.002 A 
BRANCH  20  25
ATOM     25  C   UNL     1       0.862  -1.999   0.802  1.00  0.00     0.018 C 
ATOM     26  C   UNL     1       0.533  -1.412   2.188  1.00  0.00     0.013 C 
BRANCH  25  27
ATOM     27  C   UNL     1       0.422  -1.058  -0.338  1.00  0.00     0.005 C 
ATOM     28  C   UNL     1       1.075   0.317  -0.277  1.00  0.00     0.004 C 
ENDBRANCH  25  27
ENDBRANCH  20  25
ENDBRANCH  16  19
ENDBRANCH   9  15
ENDBRANCH   6   8
ENDBRANCH   5   6
ENDBRANCH   4   5
ENDBRANCH   3   4
ENDBRANCH   2   3
ENDBRANCH   1   2
BRANCH   1  29
ATOM     29  C   UNL     1       4.453 -11.098   1.502  1.00  0.00     0.188 C 
BRANCH  29  30
ATOM     30  O   UNL     1       4.033 -12.405   1.148  1.00  0.00    -0.376 OA
BRANCH  30  31
ATOM     31  C   UNL     1       4.222 -13.472   2.065  1.00  0.00     0.202 C 
BRANCH  31  32
ATOM     32  C   UNL     1       5.516 -13.625   2.888  1.00  0.00     0.261 C 
BRANCH  32  33
ATOM     33  O   UNL     1       6.063 -12.429   3.466  1.00  0.00    -0.460 OA
BRANCH  33  34
ATOM     34  C   UNL     1       7.210 -11.980   2.909  1.00  0.00     0.338 C 
ATOM     35  O   UNL     1       7.837 -12.495   1.984  1.00  0.00    -0.246 OA
BRANCH  34  36
ATOM     36  C   UNL     1       7.550 -10.647   3.438  1.00  0.00     0.060 A 
ATOM     37  C   UNL     1       7.564  -9.555   2.556  1.00  0.00     0.016 A 
ATOM     38  C   UNL     1       7.934 -10.485   4.769  1.00  0.00     0.016 A 
ATOM     39  C   UNL     1       8.014  -8.309   2.987  1.00  0.00     0.010 A 
ATOM     40  C   UNL     1       8.411  -9.240   5.193  1.00  0.00     0.010 A 
ATOM     41  C   UNL     1       8.501  -8.163   4.290  1.00  0.00    -0.014 A 
BRANCH  41  42
ATOM     42  C   UNL     1       9.324  -6.976   4.626  1.00  0.00     0.031 A 
ATOM     43  C   UNL     1      10.823  -7.113   4.582  1.00  0.00     0.074 A 
ATOM     44  C   UNL     1       8.770  -5.794   4.939  1.00  0.00     0.049 A 
ATOM     45  N   UNL     1      11.750  -6.232   4.861  1.00  0.00    -0.248 NA
ATOM     46  C   UNL     1      11.343  -8.428   4.175  1.00  0.00     0.031 C 
ATOM     47  C   UNL     1       7.337  -5.512   4.976  1.00  0.00     0.029 A 
ATOM     48  N   UNL     1       9.361  -4.608   5.298  1.00  0.00    -0.354 N 
ATOM     49  C   UNL     1      12.960  -6.892   4.680  1.00  0.00     0.074 A 
ATOM     50  C   UNL     1      12.648  -8.254   4.306  1.00  0.00     0.031 C 
ATOM     51  C   UNL     1       7.158  -4.236   5.361  1.00  0.00     0.029 A 
ATOM     52  C   UNL     1       8.461  -3.623   5.619  1.00  0.00     0.049 A 
ATOM     53  H   UNL     1      10.336  -4.477   5.323  1.00  0.00     0.167 HD
ATOM     54  C   UNL     1      14.220  -6.411   4.808  1.00  0.00     0.031 A 
ATOM     55  C   UNL     1       8.664  -2.377   6.089  1.00  0.00     0.031 A 
ATOM     56  C   UNL     1      14.533  -5.062   5.200  1.00  0.00     0.049 A 
ATOM     57  C   UNL     1      10.070  -1.874   6.284  1.00  0.00     0.074 A 
ATOM     58  C   UNL     1      15.776  -4.469   5.335  1.00  0.00     0.029 A 
ATOM     59  N   UNL     1      13.592  -4.101   5.536  1.00  0.00    -0.354 N 
ATOM     60  N   UNL     1      11.208  -2.492   6.074  1.00  0.00    -0.248 NA
ATOM     61  C   UNL     1      10.218  -0.492   6.763  1.00  0.00     0.031 C 
ATOM     62  C   UNL     1      15.588  -3.170   5.819  1.00  0.00     0.029 A 
ATOM     63  C   UNL     1      14.227  -2.928   5.912  1.00  0.00     0.049 A 
ATOM     64  H   UNL     1      12.616  -4.232   5.511  1.00  0.00     0.167 HD
ATOM     65  C   UNL     1      12.205  -1.568   6.368  1.00  0.00     0.074 A 
ATOM     66  C   UNL     1      11.535  -0.343   6.756  1.00  0.00     0.031 C 
ATOM     67  C   UNL     1      13.552  -1.718   6.311  1.00  0.00     0.031 A 
BRANCH  54  68
ATOM     68  C   UNL     1      15.347  -7.381   4.575  1.00  0.00    -0.014 A 
ATOM     69  C   UNL     1      15.608  -7.917   3.303  1.00  0.00     0.009 A 
ATOM     70  C   UNL     1      16.151  -7.779   5.654  1.00  0.00     0.009 A 
ATOM     71  C   UNL     1      16.611  -8.875   3.130  1.00  0.00     0.001 A 
ATOM     72  C   UNL     1      17.176  -8.709   5.472  1.00  0.00     0.001 A 
ATOM     73  C   UNL     1      17.395  -9.268   4.214  1.00  0.00     0.000 A 
ENDBRANCH  54  68
BRANCH  55  74
ATOM     74  C   UNL     1       7.494  -1.523   6.423  1.00  0.00    -0.014 A 
ATOM     75  C   UNL     1       7.164  -0.411   5.635  1.00  0.00     0.009 A 
ATOM     76  C   UNL     1       6.689  -1.833   7.530  1.00  0.00     0.009 A 
ATOM     77  C   UNL     1       6.059   0.381   5.958  1.00  0.00     0.001 A 
ATOM     78  C   UNL     1       5.568  -1.058   7.834  1.00  0.00     0.001 A 
ATOM     79  C   UNL     1       5.258   0.053   7.051  1.00  0.00     0.000 A 
ENDBRANCH  55  74
BRANCH  67  80
ATOM     80  C   UNL     1      14.398  -0.517   6.644  1.00  0.00    -0.014 A 
ATOM     81  C   UNL     1      14.489  -0.019   7.954  1.00  0.00     0.009 A 
ATOM     82  C   UNL     1      15.147   0.104   5.631  1.00  0.00     0.009 A 
ATOM     83  C   UNL     1      15.279   1.100   8.232  1.00  0.00     0.001 A 
ATOM     84  C   UNL     1      15.962   1.200   5.918  1.00  0.00     0.001 A 
ATOM     85  C   UNL     1      16.018   1.705   7.215  1.00  0.00     0.000 A 
ENDBRANCH  67  80
ENDBRANCH  41  42
ENDBRANCH  34  36
ENDBRANCH  33  34
ENDBRANCH  32  33
ENDBRANCH  31  32
ENDBRANCH  30  31
ENDBRANCH  29  30
ENDBRANCH   1  29
TORSDOF 21
