REMARK SMILES O=C(OCCOCCOCCOC(=O)[C@@H]1[C@@H](C(=O)NCCCn2ccnc2)[C@@H]2C=C[C@H]1C2)c1ccc(-c2c3nc(c(-c4ccccc4)c4ccc([nH]4)c(-c4ccccc4)c4nc(c(-c5ccccc5)c5ccc2[nH]5)C=C4)C=C3)cc1
REMARK SMILES IDX 9 1 8 2 7 3 6 4 5 5 4 6 3 7 2 8 1 9 33 10 34 11 80 12 35 13
REMARK SMILES IDX 79 14 36 15 37 16 38 17 73 18 39 19 78 20 72 21 74 22 40 23
REMARK SMILES IDX 77 24 71 25 70 26 41 28 63 29 48 30 62 31 49 32 52 33 61 34
REMARK SMILES IDX 75 35 50 36 51 37 60 39 76 40 53 41 42 42 43 43 47 44 44 45
REMARK SMILES IDX 46 46 45 47 64 48 65 49 69 50 66 51 68 52 67 53 54 54 55 55
REMARK SMILES IDX 59 56 56 57 58 58 57 59 10 60 11 61 12 62 13 63 14 64 15 65
REMARK SMILES IDX 16 66 31 67 28 68 30 69 32 70 29 71 17 72 18 73 19 74 20 76
REMARK SMILES IDX 21 77 22 78 23 79 24 80 27 81 25 82 26 83
REMARK H PARENT 74 27 52 38 19 75
REMARK Flexibility Score: inf
ROOT
ATOM      1  O   UNL     1       2.670  -2.367   3.256  1.00  0.00    -0.376 OA
ENDROOT
BRANCH   1   2
ATOM      2  C   UNL     1       2.086  -1.978   2.015  1.00  0.00     0.188 C 
BRANCH   2   3
ATOM      3  C   UNL     1       2.685  -0.751   1.331  1.00  0.00     0.188 C 
BRANCH   3   4
ATOM      4  O   UNL     1       3.825  -0.995   0.509  1.00  0.00    -0.376 OA
BRANCH   4   5
ATOM      5  C   UNL     1       4.970  -0.164   0.677  1.00  0.00     0.202 C 
BRANCH   5   6
ATOM      6  C   UNL     1       4.863   1.368   0.740  1.00  0.00     0.261 C 
BRANCH   6   7
ATOM      7  O   UNL     1       3.578   1.991   0.856  1.00  0.00    -0.460 OA
BRANCH   7   8
ATOM      8  C   UNL     1       2.485   1.856   0.085  1.00  0.00     0.338 C 
ATOM      9  O   UNL     1       1.373   2.011   0.597  1.00  0.00    -0.246 OA
BRANCH   8  10
ATOM     10  C   UNL     1       2.549   1.575  -1.367  1.00  0.00     0.060 A 
ATOM     11  C   UNL     1       3.684   1.787  -2.147  1.00  0.00     0.016 A 
ATOM     12  C   UNL     1       1.318   1.286  -1.992  1.00  0.00     0.016 A 
ATOM     13  C   UNL     1       3.563   1.864  -3.523  1.00  0.00     0.010 A 
ATOM     14  C   UNL     1       1.187   1.386  -3.365  1.00  0.00     0.010 A 
ATOM     15  C   UNL     1       2.301   1.751  -4.108  1.00  0.00    -0.014 A 
BRANCH  15  16
ATOM     16  C   UNL     1       2.201   2.072  -5.518  1.00  0.00     0.031 A 
ATOM     17  C   UNL     1       2.745   1.055  -6.443  1.00  0.00     0.074 A 
ATOM     18  C   UNL     1       1.627   3.210  -5.950  1.00  0.00     0.049 A 
ATOM     19  N   UNL     1       3.747   1.172  -7.250  1.00  0.00    -0.248 NA
ATOM     20  C   UNL     1       2.154  -0.288  -6.392  1.00  0.00     0.031 C 
ATOM     21  C   UNL     1       0.816   4.161  -5.186  1.00  0.00     0.029 A 
ATOM     22  N   UNL     1       1.567   3.696  -7.219  1.00  0.00    -0.354 N 
ATOM     23  C   UNL     1       3.819  -0.035  -7.938  1.00  0.00     0.074 A 
ATOM     24  C   UNL     1       2.903  -0.936  -7.283  1.00  0.00     0.031 C 
ATOM     25  C   UNL     1       0.161   4.973  -6.047  1.00  0.00     0.029 A 
ATOM     26  C   UNL     1       0.612   4.684  -7.399  1.00  0.00     0.049 A 
ATOM     27  H   UNL     1       2.151   3.376  -7.944  1.00  0.00     0.167 HD
ATOM     28  C   UNL     1       4.469  -0.149  -9.127  1.00  0.00     0.031 A 
ATOM     29  C   UNL     1       0.172   5.167  -8.585  1.00  0.00     0.031 A 
ATOM     30  C   UNL     1       5.389   0.933  -9.351  1.00  0.00     0.049 A 
ATOM     31  C   UNL     1       1.178   4.830  -9.619  1.00  0.00     0.074 A 
ATOM     32  C   UNL     1       6.512   1.404  -8.700  1.00  0.00     0.029 A 
ATOM     33  N   UNL     1       4.999   1.938 -10.203  1.00  0.00    -0.354 N 
ATOM     34  N   UNL     1       2.359   5.373  -9.679  1.00  0.00    -0.248 NA
ATOM     35  C   UNL     1       1.031   3.577 -10.345  1.00  0.00     0.031 C 
ATOM     36  C   UNL     1       6.450   2.821  -8.837  1.00  0.00     0.029 A 
ATOM     37  C   UNL     1       5.321   3.126  -9.600  1.00  0.00     0.049 A 
ATOM     38  H   UNL     1       4.568   1.826 -11.081  1.00  0.00     0.167 HD
ATOM     39  C   UNL     1       3.204   4.344 -10.069  1.00  0.00     0.074 A 
ATOM     40  C   UNL     1       2.318   3.298 -10.573  1.00  0.00     0.031 C 
ATOM     41  C   UNL     1       4.515   4.324  -9.687  1.00  0.00     0.031 A 
BRANCH  28  42
ATOM     42  C   UNL     1       3.984  -1.037 -10.243  1.00  0.00    -0.014 A 
ATOM     43  C   UNL     1       4.752  -1.141 -11.416  1.00  0.00     0.009 A 
ATOM     44  C   UNL     1       2.673  -1.551 -10.296  1.00  0.00     0.009 A 
ATOM     45  C   UNL     1       4.211  -1.669 -12.594  1.00  0.00     0.001 A 
ATOM     46  C   UNL     1       2.145  -2.119 -11.457  1.00  0.00     0.001 A 
ATOM     47  C   UNL     1       2.906  -2.152 -12.616  1.00  0.00     0.000 A 
ENDBRANCH  28  42
BRANCH  29  48
ATOM     48  C   UNL     1      -1.184   5.646  -8.926  1.00  0.00    -0.014 A 
ATOM     49  C   UNL     1      -1.409   6.410 -10.080  1.00  0.00     0.009 A 
ATOM     50  C   UNL     1      -2.306   5.129  -8.251  1.00  0.00     0.009 A 
ATOM     51  C   UNL     1      -2.710   6.619 -10.559  1.00  0.00     0.001 A 
ATOM     52  C   UNL     1      -3.603   5.343  -8.725  1.00  0.00     0.001 A 
ATOM     53  C   UNL     1      -3.804   6.075  -9.889  1.00  0.00     0.000 A 
ENDBRANCH  29  48
BRANCH  41  54
ATOM     54  C   UNL     1       5.081   5.563  -9.038  1.00  0.00    -0.014 A 
ATOM     55  C   UNL     1       4.569   6.099  -7.843  1.00  0.00     0.009 A 
ATOM     56  C   UNL     1       6.260   6.116  -9.561  1.00  0.00     0.009 A 
ATOM     57  C   UNL     1       5.197   7.178  -7.212  1.00  0.00     0.001 A 
ATOM     58  C   UNL     1       6.900   7.179  -8.919  1.00  0.00     0.001 A 
ATOM     59  C   UNL     1       6.365   7.713  -7.749  1.00  0.00     0.000 A 
ENDBRANCH  41  54
ENDBRANCH  15  16
ENDBRANCH   8  10
ENDBRANCH   7   8
ENDBRANCH   6   7
ENDBRANCH   5   6
ENDBRANCH   4   5
ENDBRANCH   3   4
ENDBRANCH   2   3
ENDBRANCH   1   2
BRANCH   1  60
ATOM     60  C   UNL     1       4.087  -2.440   3.310  1.00  0.00     0.202 C 
BRANCH  60  61
ATOM     61  C   UNL     1       4.727  -3.654   2.631  1.00  0.00     0.261 C 
BRANCH  61  62
ATOM     62  O   UNL     1       4.314  -3.850   1.267  1.00  0.00    -0.463 OA
BRANCH  62  63
ATOM     63  C   UNL     1       3.367  -4.802   1.095  1.00  0.00     0.310 C 
ATOM     64  O   UNL     1       2.910  -5.490   2.002  1.00  0.00    -0.252 OA
BRANCH  63  65
ATOM     65  C   UNL     1       2.902  -5.000  -0.323  1.00  0.00     0.119 C 
ATOM     66  C   UNL     1       3.723  -6.102  -1.046  1.00  0.00     0.100 C 
ATOM     67  C   UNL     1       2.900  -3.836  -1.340  1.00  0.00     0.027 C 
ATOM     68  C   UNL     1       3.858  -5.514  -2.477  1.00  0.00     0.025 C 
ATOM     69  C   UNL     1       4.299  -3.397  -1.705  1.00  0.00    -0.027 C 
ATOM     70  C   UNL     1       2.603  -4.640  -2.618  1.00  0.00     0.017 C 
ATOM     71  C   UNL     1       4.875  -4.397  -2.388  1.00  0.00    -0.027 C 
BRANCH  66  72
ATOM     72  C   UNL     1       2.945  -7.400  -1.022  1.00  0.00     0.224 C 
ATOM     73  O   UNL     1       2.079  -7.662  -1.857  1.00  0.00    -0.275 OA
ATOM     74  N   UNL     1       3.144  -8.287  -0.008  1.00  0.00    -0.356 N 
ATOM     75  H   UNL     1       2.471  -9.003   0.053  1.00  0.00     0.163 HD
BRANCH  74  76
ATOM     76  C   UNL     1       4.191  -8.345   1.001  1.00  0.00     0.117 C 
BRANCH  76  77
ATOM     77  C   UNL     1       3.666  -8.587   2.418  1.00  0.00     0.043 C 
BRANCH  77  78
ATOM     78  C   UNL     1       2.798  -9.830   2.589  1.00  0.00     0.125 C 
BRANCH  78  79
ATOM     79  N   UNL     1       3.478 -11.053   2.227  1.00  0.00    -0.337 N 
ATOM     80  C   UNL     1       4.393 -11.723   2.989  1.00  0.00     0.107 A 
ATOM     81  C   UNL     1       3.335 -11.734   1.053  1.00  0.00     0.199 A 
ATOM     82  C   UNL     1       4.795 -12.779   2.206  1.00  0.00     0.130 A 
ATOM     83  N   UNL     1       4.136 -12.774   1.004  1.00  0.00    -0.245 NA
ENDBRANCH  78  79
ENDBRANCH  77  78
ENDBRANCH  76  77
ENDBRANCH  74  76
ENDBRANCH  66  72
ENDBRANCH  63  65
ENDBRANCH  62  63
ENDBRANCH  61  62
ENDBRANCH  60  61
ENDBRANCH   1  60
TORSDOF 22
