REMARK SMILES COc1ccc(/C=C2\SC(=S)N=C2OCCOCCOCCOC(=O)c2ccc(-c3c4nc(c(-c5ccccc5)c5ccc([nH]5)c(-c5ccccc5)c5nc(c(-c6ccccc6)c6ccc3[nH]6)C=C5)C=C4)cc2)c(C(=O)[O-])c1OC
REMARK SMILES IDX 19 1 18 2 17 3 16 4 15 5 14 6 13 7 7 8 8 9 9 10 10 11 12 12
REMARK SMILES IDX 11 13 6 14 3 15 4 16 78 17 5 18 74 19 2 20 1 21 79 22 80 23
REMARK SMILES IDX 75 24 76 25 77 26 20 27 21 28 22 29 23 30 24 31 25 32 26 33
REMARK SMILES IDX 27 34 73 35 28 36 72 37 29 38 30 39 31 40 66 41 32 42 71 43
REMARK SMILES IDX 65 44 67 45 33 46 70 47 64 48 63 49 34 51 56 52 41 53 55 54
REMARK SMILES IDX 42 55 45 56 54 57 68 58 43 59 44 60 53 62 69 63 46 64 35 65
REMARK SMILES IDX 36 66 40 67 37 68 39 69 38 70 57 71 58 72 62 73 59 74 61 75
REMARK SMILES IDX 60 76 47 77 48 78 52 79 49 80 51 81 50 82
REMARK H PARENT 67 50 45 61
REMARK Flexibility Score: inf
ROOT
ATOM      1  C   UNL     1       0.706   8.322  -4.272  1.00  0.00     0.188 C 
ENDROOT
BRANCH   1   2
ATOM      2  C   UNL     1       1.241   6.912  -3.991  1.00  0.00     0.188 C 
BRANCH   2   3
ATOM      3  O   UNL     1       2.492   6.941  -3.359  1.00  0.00    -0.376 OA
BRANCH   3   4
ATOM      4  C   UNL     1       3.614   6.275  -3.876  1.00  0.00     0.201 C 
BRANCH   4   5
ATOM      5  C   UNL     1       4.023   6.474  -5.340  1.00  0.00     0.260 C 
BRANCH   5   6
ATOM      6  O   UNL     1       3.155   6.182  -6.473  1.00  0.00    -0.474 OA
BRANCH   6   7
ATOM      7  C   UNL     1       2.153   5.358  -6.775  1.00  0.00     0.229 C 
ATOM      8  C   UNL     1       2.460   3.576  -5.025  1.00  0.00     0.030 C 
ATOM      9  C   UNL     1       1.770   4.145  -6.021  1.00  0.00     0.077 C 
ATOM     10  S   UNL     1       0.242   3.642  -6.665  1.00  0.00    -0.053 SA
ATOM     11  C   UNL     1       0.230   4.999  -7.798  1.00  0.00     0.168 C 
ATOM     12  N   UNL     1       1.367   5.765  -7.727  1.00  0.00    -0.194 NA
ATOM     13  S   UNL     1      -1.113   5.350  -8.730  1.00  0.00    -0.050 S 
BRANCH   8  14
ATOM     14  C   UNL     1       2.084   2.566  -3.999  1.00  0.00    -0.011 A 
ATOM     15  C   UNL     1       1.295   0.664  -2.037  1.00  0.00     0.161 A 
ATOM     16  C   UNL     1       0.348   1.456  -2.679  1.00  0.00     0.051 A 
ATOM     17  C   UNL     1       2.656   0.852  -2.308  1.00  0.00     0.170 A 
ATOM     18  C   UNL     1       0.741   2.402  -3.629  1.00  0.00     0.013 A 
ATOM     19  C   UNL     1       3.041   1.844  -3.245  1.00  0.00     0.050 A 
BRANCH  15  20
ATOM     20  O   UNL     1       0.875  -0.354  -1.226  1.00  0.00    -0.493 OA
ATOM     21  C   UNL     1       0.078   0.082  -0.124  1.00  0.00     0.278 C 
ENDBRANCH  15  20
BRANCH  17  22
ATOM     22  O   UNL     1       3.677   0.092  -1.790  1.00  0.00    -0.492 OA
ATOM     23  C   UNL     1       3.490  -0.471  -0.499  1.00  0.00     0.278 C 
ENDBRANCH  17  22
BRANCH  19  24
ATOM     24  C   UNL     1       4.483   2.177  -3.353  1.00  0.00     0.076 C 
ATOM     25  O   UNL     1       5.129   2.340  -4.372  1.00  0.00    -0.545 OA
ATOM     26  O   UNL     1       5.001   2.468  -2.142  1.00  0.00    -0.545 OA
ENDBRANCH  19  24
ENDBRANCH   8  14
ENDBRANCH   6   7
ENDBRANCH   5   6
ENDBRANCH   4   5
ENDBRANCH   3   4
ENDBRANCH   2   3
ENDBRANCH   1   2
BRANCH   1  27
ATOM     27  O   UNL     1       1.282   9.450  -3.625  1.00  0.00    -0.376 OA
BRANCH  27  28
ATOM     28  C   UNL     1       1.809   9.336  -2.311  1.00  0.00     0.202 C 
BRANCH  28  29
ATOM     29  C   UNL     1       0.859   8.933  -1.175  1.00  0.00     0.261 C 
BRANCH  29  30
ATOM     30  O   UNL     1       0.132   7.705  -1.373  1.00  0.00    -0.460 OA
BRANCH  30  31
ATOM     31  C   UNL     1      -1.200   7.848  -1.579  1.00  0.00     0.338 C 
ATOM     32  O   UNL     1      -1.832   8.890  -1.629  1.00  0.00    -0.246 OA
BRANCH  31  33
ATOM     33  C   UNL     1      -1.836   6.542  -1.856  1.00  0.00     0.060 A 
ATOM     34  C   UNL     1      -2.498   6.372  -3.079  1.00  0.00     0.016 A 
ATOM     35  C   UNL     1      -1.909   5.550  -0.876  1.00  0.00     0.016 A 
ATOM     36  C   UNL     1      -3.275   5.234  -3.310  1.00  0.00     0.010 A 
ATOM     37  C   UNL     1      -2.699   4.415  -1.105  1.00  0.00     0.010 A 
ATOM     38  C   UNL     1      -3.419   4.268  -2.307  1.00  0.00    -0.014 A 
BRANCH  38  39
ATOM     39  C   UNL     1      -4.443   3.195  -2.437  1.00  0.00     0.031 A 
ATOM     40  C   UNL     1      -5.755   3.342  -1.713  1.00  0.00     0.074 A 
ATOM     41  C   UNL     1      -4.227   2.099  -3.187  1.00  0.00     0.049 A 
ATOM     42  N   UNL     1      -6.753   2.498  -1.626  1.00  0.00    -0.248 NA
ATOM     43  C   UNL     1      -5.978   4.614  -1.007  1.00  0.00     0.031 C 
ATOM     44  C   UNL     1      -3.052   1.862  -4.018  1.00  0.00     0.029 A 
ATOM     45  N   UNL     1      -4.984   0.964  -3.348  1.00  0.00    -0.354 N 
ATOM     46  C   UNL     1      -7.726   3.141  -0.871  1.00  0.00     0.074 A 
ATOM     47  C   UNL     1      -7.181   4.425  -0.484  1.00  0.00     0.031 C 
ATOM     48  C   UNL     1      -3.127   0.628  -4.546  1.00  0.00     0.029 A 
ATOM     49  C   UNL     1      -4.361  -0.009  -4.093  1.00  0.00     0.049 A 
ATOM     50  H   UNL     1      -5.885   0.857  -2.967  1.00  0.00     0.167 HD
ATOM     51  C   UNL     1      -8.969   2.713  -0.544  1.00  0.00     0.031 A 
ATOM     52  C   UNL     1      -4.731  -1.276  -4.364  1.00  0.00     0.031 A 
ATOM     53  C   UNL     1      -9.514   1.433  -0.911  1.00  0.00     0.049 A 
ATOM     54  C   UNL     1      -6.062  -1.782  -3.875  1.00  0.00     0.074 A 
ATOM     55  C   UNL     1     -10.770   0.921  -0.634  1.00  0.00     0.029 A 
ATOM     56  N   UNL     1      -8.834   0.460  -1.624  1.00  0.00    -0.354 N 
ATOM     57  N   UNL     1      -6.983  -1.152  -3.187  1.00  0.00    -0.248 NA
ATOM     58  C   UNL     1      -6.416  -3.166  -4.225  1.00  0.00     0.031 C 
ATOM     59  C   UNL     1     -10.829  -0.386  -1.129  1.00  0.00     0.029 A 
ATOM     60  C   UNL     1      -9.632  -0.663  -1.768  1.00  0.00     0.049 A 
ATOM     61  H   UNL     1      -7.920   0.553  -1.977  1.00  0.00     0.167 HD
ATOM     62  C   UNL     1      -8.042  -2.044  -3.066  1.00  0.00     0.074 A 
ATOM     63  C   UNL     1      -7.650  -3.258  -3.751  1.00  0.00     0.031 C 
ATOM     64  C   UNL     1      -9.238  -1.866  -2.453  1.00  0.00     0.031 A 
BRANCH  51  65
ATOM     65  C   UNL     1      -9.825   3.639   0.274  1.00  0.00    -0.014 A 
ATOM     66  C   UNL     1     -10.381   4.800  -0.285  1.00  0.00     0.009 A 
ATOM     67  C   UNL     1     -10.118   3.319   1.609  1.00  0.00     0.009 A 
ATOM     68  C   UNL     1     -11.188   5.639   0.486  1.00  0.00     0.001 A 
ATOM     69  C   UNL     1     -10.948   4.145   2.369  1.00  0.00     0.001 A 
ATOM     70  C   UNL     1     -11.476   5.308   1.810  1.00  0.00     0.000 A 
ENDBRANCH  51  65
BRANCH  52  71
ATOM     71  C   UNL     1      -3.825  -2.173  -5.128  1.00  0.00    -0.014 A 
ATOM     72  C   UNL     1      -4.151  -2.590  -6.428  1.00  0.00     0.009 A 
ATOM     73  C   UNL     1      -2.643  -2.652  -4.539  1.00  0.00     0.009 A 
ATOM     74  C   UNL     1      -3.333  -3.496  -7.107  1.00  0.00     0.001 A 
ATOM     75  C   UNL     1      -1.812  -3.535  -5.232  1.00  0.00     0.001 A 
ATOM     76  C   UNL     1      -2.164  -3.966  -6.510  1.00  0.00     0.000 A 
ENDBRANCH  52  71
BRANCH  64  77
ATOM     77  C   UNL     1     -10.234  -2.990  -2.536  1.00  0.00    -0.014 A 
ATOM     78  C   UNL     1     -10.056  -4.183  -1.818  1.00  0.00     0.009 A 
ATOM     79  C   UNL     1     -11.391  -2.834  -3.316  1.00  0.00     0.009 A 
ATOM     80  C   UNL     1     -10.999  -5.209  -1.908  1.00  0.00     0.001 A 
ATOM     81  C   UNL     1     -12.347  -3.849  -3.380  1.00  0.00     0.001 A 
ATOM     82  C   UNL     1     -12.146  -5.039  -2.684  1.00  0.00     0.000 A 
ENDBRANCH  64  77
ENDBRANCH  38  39
ENDBRANCH  31  33
ENDBRANCH  30  31
ENDBRANCH  29  30
ENDBRANCH  28  29
ENDBRANCH  27  28
ENDBRANCH   1  27
TORSDOF 20
