REMARK SMILES Cc1csc(=O)n1CC(=O)N[C@@H](C(=O)OCCOCCOCCOC(=O)c1ccc(-c2c3nc(c(-c4ccccc4)c4ccc([nH]4)c(-c4ccccc4)c4nc(c(-c5ccccc5)c5ccc2[nH]5)C=C4)C=C3)cc1)[C@@H](C)O
REMARK SMILES IDX 19 1 18 2 17 3 16 4 15 5 13 6 14 7 12 8 11 9 9 10 10 11 8 13
REMARK SMILES IDX 7 14 1 15 2 16 3 17 4 18 5 19 6 20 75 21 76 22 77 23 20 25
REMARK SMILES IDX 21 26 22 27 23 28 24 29 25 30 26 31 27 32 28 33 74 34 29 35
REMARK SMILES IDX 73 36 30 37 31 38 32 39 67 40 33 41 72 42 66 43 68 44 34 45
REMARK SMILES IDX 71 46 65 47 64 48 35 50 57 51 42 52 56 53 43 54 46 55 55 56
REMARK SMILES IDX 69 57 44 58 45 59 54 61 70 62 47 63 36 64 37 65 41 66 38 67
REMARK SMILES IDX 40 68 39 69 58 70 59 71 63 72 60 73 62 74 61 75 48 76 49 77
REMARK SMILES IDX 53 78 50 79 52 80 51 81
REMARK H PARENT 11 12 77 24 68 49 46 60
REMARK Flexibility Score: inf
ROOT
ATOM      1  C   UNL     1       2.276   2.191  -5.700  1.00  0.00     0.188 C 
ENDROOT
BRANCH   1   2
ATOM      2  O   UNL     1       1.093   2.577  -6.353  1.00  0.00    -0.376 OA
BRANCH   2   3
ATOM      3  C   UNL     1      -0.059   2.858  -5.575  1.00  0.00     0.202 C 
BRANCH   3   4
ATOM      4  C   UNL     1      -0.277   2.306  -4.146  1.00  0.00     0.261 C 
BRANCH   4   5
ATOM      5  O   UNL     1       0.868   2.316  -3.267  1.00  0.00    -0.462 OA
BRANCH   5   6
ATOM      6  C   UNL     1       1.268   1.121  -2.766  1.00  0.00     0.331 C 
ATOM      7  O   UNL     1       0.681   0.057  -2.965  1.00  0.00    -0.250 OA
BRANCH   6   8
ATOM      8  C   UNL     1       2.598   1.145  -1.978  1.00  0.00     0.221 C 
BRANCH   8   9
ATOM      9  N   UNL     1       3.146   2.443  -1.575  1.00  0.00    -0.339 N 
ATOM     10  C   UNL     1       3.215   2.984  -0.324  1.00  0.00     0.240 C 
ATOM     11  O   UNL     1       4.107   3.808  -0.108  1.00  0.00    -0.273 OA
ATOM     12  H   UNL     1       3.512   2.997  -2.301  1.00  0.00     0.164 HD
BRANCH  10  13
ATOM     13  C   UNL     1       2.332   2.455   0.814  1.00  0.00     0.226 C 
BRANCH  13  14
ATOM     14  N   UNL     1       0.938   2.377   0.413  1.00  0.00    -0.294 N 
ATOM     15  C   UNL     1       0.617  -0.155   0.590  1.00  0.00     0.065 C 
ATOM     16  C   UNL     1       0.151   1.236   0.299  1.00  0.00     0.029 A 
ATOM     17  C   UNL     1      -1.087   1.501  -0.145  1.00  0.00     0.091 A 
ATOM     18  S   UNL     1      -1.365   3.195  -0.374  1.00  0.00    -0.082 S 
ATOM     19  C   UNL     1       0.277   3.578   0.148  1.00  0.00     0.307 A 
ATOM     20  O   UNL     1       0.714   4.713   0.230  1.00  0.00    -0.257 OA
ENDBRANCH  13  14
ENDBRANCH  10  13
ENDBRANCH   8   9
BRANCH   8  21
ATOM     21  C   UNL     1       3.664   0.256  -2.689  1.00  0.00     0.145 C 
ATOM     22  C   UNL     1       4.856  -0.021  -1.774  1.00  0.00     0.041 C 
BRANCH  21  23
ATOM     23  O   UNL     1       3.183  -1.035  -3.083  1.00  0.00    -0.391 OA
ATOM     24  H   UNL     1       2.944  -1.545  -2.293  1.00  0.00     0.211 HD
ENDBRANCH  21  23
ENDBRANCH   8  21
ENDBRANCH   6   8
ENDBRANCH   5   6
ENDBRANCH   4   5
ENDBRANCH   3   4
ENDBRANCH   2   3
ENDBRANCH   1   2
BRANCH   1  25
ATOM     25  C   UNL     1       3.058   3.232  -4.892  1.00  0.00     0.188 C 
BRANCH  25  26
ATOM     26  O   UNL     1       2.461   4.247  -4.116  1.00  0.00    -0.376 OA
BRANCH  26  27
ATOM     27  C   UNL     1       1.830   5.416  -4.622  1.00  0.00     0.202 C 
BRANCH  27  28
ATOM     28  C   UNL     1       2.167   6.075  -5.958  1.00  0.00     0.261 C 
BRANCH  28  29
ATOM     29  O   UNL     1       3.043   5.339  -6.771  1.00  0.00    -0.460 OA
BRANCH  29  30
ATOM     30  C   UNL     1       4.340   5.479  -6.416  1.00  0.00     0.338 C 
ATOM     31  O   UNL     1       4.800   6.084  -5.474  1.00  0.00    -0.246 OA
BRANCH  30  32
ATOM     32  C   UNL     1       5.128   4.718  -7.389  1.00  0.00     0.060 A 
ATOM     33  C   UNL     1       6.465   4.481  -7.071  1.00  0.00     0.016 A 
ATOM     34  C   UNL     1       4.604   4.547  -8.675  1.00  0.00     0.016 A 
ATOM     35  C   UNL     1       7.350   4.394  -8.114  1.00  0.00     0.010 A 
ATOM     36  C   UNL     1       5.487   4.502  -9.711  1.00  0.00     0.010 A 
ATOM     37  C   UNL     1       6.844   4.550  -9.406  1.00  0.00    -0.014 A 
BRANCH  37  38
ATOM     38  C   UNL     1       7.771   4.753 -10.486  1.00  0.00     0.031 A 
ATOM     39  C   UNL     1       8.342   3.483 -10.966  1.00  0.00     0.074 A 
ATOM     40  C   UNL     1       7.951   5.975 -11.020  1.00  0.00     0.049 A 
ATOM     41  N   UNL     1       9.558   3.083 -10.825  1.00  0.00    -0.248 NA
ATOM     42  C   UNL     1       7.414   2.448 -11.457  1.00  0.00     0.031 C 
ATOM     43  C   UNL     1       7.202   7.209 -10.754  1.00  0.00     0.029 A 
ATOM     44  N   UNL     1       8.778   6.346 -12.028  1.00  0.00    -0.354 N 
ATOM     45  C   UNL     1       9.596   1.829 -11.418  1.00  0.00     0.074 A 
ATOM     46  C   UNL     1       8.230   1.401 -11.561  1.00  0.00     0.031 C 
ATOM     47  C   UNL     1       7.425   8.086 -11.762  1.00  0.00     0.029 A 
ATOM     48  C   UNL     1       8.412   7.521 -12.668  1.00  0.00     0.049 A 
ATOM     49  H   UNL     1       9.573   5.824 -12.284  1.00  0.00     0.167 HD
ATOM     50  C   UNL     1      10.722   1.389 -12.037  1.00  0.00     0.031 A 
ATOM     51  C   UNL     1       8.828   7.926 -13.896  1.00  0.00     0.031 A 
ATOM     52  C   UNL     1      11.871   2.171 -11.659  1.00  0.00     0.049 A 
ATOM     53  C   UNL     1      10.031   7.123 -14.242  1.00  0.00     0.074 A 
ATOM     54  C   UNL     1      12.489   2.451 -10.455  1.00  0.00     0.029 A 
ATOM     55  N   UNL     1      12.281   3.146 -12.539  1.00  0.00    -0.354 N 
ATOM     56  N   UNL     1      11.174   7.252 -13.629  1.00  0.00    -0.248 NA
ATOM     57  C   UNL     1       9.821   5.840 -14.902  1.00  0.00     0.031 C 
ATOM     58  C   UNL     1      12.854   3.825 -10.542  1.00  0.00     0.029 A 
ATOM     59  C   UNL     1      12.531   4.285 -11.819  1.00  0.00     0.049 A 
ATOM     60  H   UNL     1      12.378   3.043 -13.514  1.00  0.00     0.167 HD
ATOM     61  C   UNL     1      11.615   5.951 -13.429  1.00  0.00     0.074 A 
ATOM     62  C   UNL     1      10.783   5.126 -14.307  1.00  0.00     0.031 C 
ATOM     63  C   UNL     1      12.388   5.624 -12.351  1.00  0.00     0.031 A 
BRANCH  50  64
ATOM     64  C   UNL     1      10.683   0.575 -13.302  1.00  0.00    -0.014 A 
ATOM     65  C   UNL     1      11.897   0.125 -13.842  1.00  0.00     0.009 A 
ATOM     66  C   UNL     1       9.544   0.470 -14.126  1.00  0.00     0.009 A 
ATOM     67  C   UNL     1      11.976  -0.339 -15.159  1.00  0.00     0.001 A 
ATOM     68  C   UNL     1       9.610  -0.034 -15.425  1.00  0.00     0.001 A 
ATOM     69  C   UNL     1      10.834  -0.412 -15.951  1.00  0.00     0.000 A 
ENDBRANCH  50  64
BRANCH  51  70
ATOM     70  C   UNL     1       8.077   8.698 -14.917  1.00  0.00    -0.014 A 
ATOM     71  C   UNL     1       8.730   9.242 -16.037  1.00  0.00     0.009 A 
ATOM     72  C   UNL     1       6.670   8.682 -14.935  1.00  0.00     0.009 A 
ATOM     73  C   UNL     1       8.003   9.716 -17.140  1.00  0.00     0.001 A 
ATOM     74  C   UNL     1       5.944   9.159 -16.033  1.00  0.00     0.001 A 
ATOM     75  C   UNL     1       6.611   9.662 -17.143  1.00  0.00     0.000 A 
ENDBRANCH  51  70
BRANCH  63  76
ATOM     76  C   UNL     1      12.950   6.740 -11.503  1.00  0.00    -0.014 A 
ATOM     77  C   UNL     1      12.156   7.693 -10.838  1.00  0.00     0.009 A 
ATOM     78  C   UNL     1      14.326   6.721 -11.232  1.00  0.00     0.009 A 
ATOM     79  C   UNL     1      12.732   8.613  -9.954  1.00  0.00     0.001 A 
ATOM     80  C   UNL     1      14.897   7.622 -10.332  1.00  0.00     0.001 A 
ATOM     81  C   UNL     1      14.101   8.572  -9.698  1.00  0.00     0.000 A 
ENDBRANCH  63  76
ENDBRANCH  37  38
ENDBRANCH  30  32
ENDBRANCH  29  30
ENDBRANCH  28  29
ENDBRANCH  27  28
ENDBRANCH  26  27
ENDBRANCH  25  26
ENDBRANCH   1  25
TORSDOF 22
