REMARK SMILES Cc1cccc(C(=O)[C@H](C)[C@@H](C)C(=O)OCCOCCOCCOC(=O)c2ccc(-c3c4nc(c(-c5ccccc5)c5ccc([nH]5)c(-c5ccccc5)c5nc(c(-c6ccccc6)c6ccc3[nH]6)C=C5)C=C4)cc2)c1C
REMARK SMILES IDX 19 1 18 2 17 3 16 4 15 5 13 6 14 7 11 8 12 9 9 10 10 11 7 12
REMARK SMILES IDX 8 13 6 14 1 15 2 16 3 17 75 18 4 19 76 20 5 21 20 22 21 23
REMARK SMILES IDX 22 24 23 25 24 26 25 27 26 28 27 29 28 30 74 31 29 32 73 33
REMARK SMILES IDX 30 34 31 35 32 36 67 37 33 38 72 39 66 40 68 41 34 42 71 43
REMARK SMILES IDX 65 44 64 45 35 47 57 48 42 49 56 50 43 51 46 52 55 53 69 54
REMARK SMILES IDX 44 55 45 56 54 58 70 59 47 60 36 61 37 62 41 63 38 64 40 65
REMARK SMILES IDX 39 66 58 67 59 68 63 69 60 70 62 71 61 72 48 73 49 74 53 75
REMARK SMILES IDX 50 76 52 77 51 78
REMARK H PARENT 68 46 46 57
REMARK Flexibility Score: inf
ROOT
ATOM      1  C   UNL     1      -6.347  -4.500  -0.475  1.00  0.00     0.188 C 
ENDROOT
BRANCH   1   2
ATOM      2  O   UNL     1      -6.668  -5.426  -1.512  1.00  0.00    -0.376 OA
BRANCH   2   3
ATOM      3  C   UNL     1      -5.664  -6.356  -1.911  1.00  0.00     0.202 C 
BRANCH   3   4
ATOM      4  C   UNL     1      -4.508  -5.768  -2.722  1.00  0.00     0.261 C 
BRANCH   4   5
ATOM      5  O   UNL     1      -3.474  -5.168  -1.905  1.00  0.00    -0.463 OA
BRANCH   5   6
ATOM      6  C   UNL     1      -3.360  -3.814  -1.977  1.00  0.00     0.309 C 
ATOM      7  O   UNL     1      -4.155  -3.085  -2.559  1.00  0.00    -0.252 OA
BRANCH   6   8
ATOM      8  C   UNL     1      -2.042  -3.291  -1.419  1.00  0.00     0.106 C 
ATOM      9  C   UNL     1      -1.068  -3.315  -2.604  1.00  0.00     0.021 C 
BRANCH   8  10
ATOM     10  C   UNL     1      -1.492  -4.020  -0.157  1.00  0.00     0.072 C 
ATOM     11  C   UNL     1      -0.041  -3.621   0.139  1.00  0.00     0.017 C 
BRANCH  10  12
ATOM     12  C   UNL     1      -2.297  -3.659   1.107  1.00  0.00     0.166 C 
ATOM     13  O   UNL     1      -2.814  -2.545   1.194  1.00  0.00    -0.294 OA
BRANCH  12  14
ATOM     14  C   UNL     1      -2.471  -4.654   2.245  1.00  0.00     0.021 A 
ATOM     15  C   UNL     1      -3.720  -4.912   5.898  1.00  0.00     0.044 C 
ATOM     16  C   UNL     1      -3.239  -5.244   4.506  1.00  0.00    -0.047 A 
ATOM     17  C   UNL     1      -3.156  -6.601   4.164  1.00  0.00     0.004 A 
ATOM     18  C   UNL     1      -2.857  -4.253   3.560  1.00  0.00    -0.037 A 
ATOM     19  C   UNL     1      -2.709  -6.989   2.910  1.00  0.00     0.001 A 
ATOM     20  C   UNL     1      -2.809  -2.804   3.987  1.00  0.00     0.045 C 
ATOM     21  C   UNL     1      -2.376  -6.027   1.959  1.00  0.00     0.012 A 
ENDBRANCH  12  14
ENDBRANCH  10  12
ENDBRANCH   8  10
ENDBRANCH   6   8
ENDBRANCH   5   6
ENDBRANCH   4   5
ENDBRANCH   3   4
ENDBRANCH   2   3
ENDBRANCH   1   2
BRANCH   1  22
ATOM     22  C   UNL     1      -5.477  -5.044   0.660  1.00  0.00     0.188 C 
BRANCH  22  23
ATOM     23  O   UNL     1      -5.879  -6.296   1.211  1.00  0.00    -0.376 OA
BRANCH  23  24
ATOM     24  C   UNL     1      -7.217  -6.361   1.699  1.00  0.00     0.202 C 
BRANCH  24  25
ATOM     25  C   UNL     1      -7.440  -5.501   2.939  1.00  0.00     0.261 C 
BRANCH  25  26
ATOM     26  O   UNL     1      -7.458  -4.108   2.578  1.00  0.00    -0.460 OA
BRANCH  26  27
ATOM     27  C   UNL     1      -6.969  -3.289   3.530  1.00  0.00     0.338 C 
ATOM     28  O   UNL     1      -6.614  -3.590   4.662  1.00  0.00    -0.246 OA
BRANCH  27  29
ATOM     29  C   UNL     1      -6.960  -1.904   3.057  1.00  0.00     0.060 A 
ATOM     30  C   UNL     1      -5.883  -1.407   2.318  1.00  0.00     0.016 A 
ATOM     31  C   UNL     1      -7.954  -1.053   3.532  1.00  0.00     0.016 A 
ATOM     32  C   UNL     1      -5.748  -0.031   2.129  1.00  0.00     0.010 A 
ATOM     33  C   UNL     1      -7.843   0.313   3.304  1.00  0.00     0.010 A 
ATOM     34  C   UNL     1      -6.720   0.837   2.640  1.00  0.00    -0.014 A 
BRANCH  34  35
ATOM     35  C   UNL     1      -6.602   2.307   2.537  1.00  0.00     0.031 A 
ATOM     36  C   UNL     1      -6.392   3.118   3.782  1.00  0.00     0.074 A 
ATOM     37  C   UNL     1      -6.820   2.905   1.354  1.00  0.00     0.049 A 
ATOM     38  N   UNL     1      -6.591   4.395   3.982  1.00  0.00    -0.248 NA
ATOM     39  C   UNL     1      -5.912   2.387   4.966  1.00  0.00     0.031 C 
ATOM     40  C   UNL     1      -6.987   2.216   0.075  1.00  0.00     0.029 A 
ATOM     41  N   UNL     1      -6.992   4.231   1.052  1.00  0.00    -0.354 N 
ATOM     42  C   UNL     1      -6.303   4.614   5.324  1.00  0.00     0.074 A 
ATOM     43  C   UNL     1      -5.911   3.340   5.888  1.00  0.00     0.031 C 
ATOM     44  C   UNL     1      -7.279   3.121  -0.871  1.00  0.00     0.029 A 
ATOM     45  C   UNL     1      -7.381   4.436  -0.249  1.00  0.00     0.049 A 
ATOM     46  H   UNL     1      -6.852   4.959   1.699  1.00  0.00     0.167 HD
ATOM     47  C   UNL     1      -6.379   5.774   6.019  1.00  0.00     0.031 A 
ATOM     48  C   UNL     1      -7.834   5.548  -0.855  1.00  0.00     0.031 A 
ATOM     49  C   UNL     1      -6.778   7.030   5.437  1.00  0.00     0.049 A 
ATOM     50  C   UNL     1      -7.965   6.811  -0.055  1.00  0.00     0.074 A 
ATOM     51  C   UNL     1      -6.881   8.271   6.041  1.00  0.00     0.029 A 
ATOM     52  N   UNL     1      -7.138   7.199   4.109  1.00  0.00    -0.354 N 
ATOM     53  N   UNL     1      -7.720   7.010   1.218  1.00  0.00    -0.248 NA
ATOM     54  C   UNL     1      -8.438   8.001  -0.775  1.00  0.00     0.031 C 
ATOM     55  C   UNL     1      -7.341   9.184   5.085  1.00  0.00     0.029 A 
ATOM     56  C   UNL     1      -7.478   8.521   3.876  1.00  0.00     0.049 A 
ATOM     57  H   UNL     1      -7.150   6.485   3.431  1.00  0.00     0.167 HD
ATOM     58  C   UNL     1      -7.987   8.352   1.449  1.00  0.00     0.074 A 
ATOM     59  C   UNL     1      -8.404   8.919   0.181  1.00  0.00     0.031 C 
ATOM     60  C   UNL     1      -7.892   9.055   2.604  1.00  0.00     0.031 A 
BRANCH  47  61
ATOM     61  C   UNL     1      -6.072   5.729   7.489  1.00  0.00    -0.014 A 
ATOM     62  C   UNL     1      -4.759   5.573   7.960  1.00  0.00     0.009 A 
ATOM     63  C   UNL     1      -7.112   5.878   8.421  1.00  0.00     0.009 A 
ATOM     64  C   UNL     1      -4.498   5.539   9.333  1.00  0.00     0.001 A 
ATOM     65  C   UNL     1      -6.846   5.867   9.792  1.00  0.00     0.001 A 
ATOM     66  C   UNL     1      -5.541   5.689  10.247  1.00  0.00     0.000 A 
ENDBRANCH  47  61
BRANCH  48  67
ATOM     67  C   UNL     1      -8.231   5.491  -2.283  1.00  0.00    -0.014 A 
ATOM     68  C   UNL     1      -7.417   6.066  -3.268  1.00  0.00     0.009 A 
ATOM     69  C   UNL     1      -9.401   4.819  -2.672  1.00  0.00     0.009 A 
ATOM     70  C   UNL     1      -7.770   5.976  -4.616  1.00  0.00     0.001 A 
ATOM     71  C   UNL     1      -9.739   4.709  -4.023  1.00  0.00     0.001 A 
ATOM     72  C   UNL     1      -8.925   5.292  -4.993  1.00  0.00     0.000 A 
ENDBRANCH  48  67
BRANCH  60  73
ATOM     73  C   UNL     1      -8.205  10.520   2.530  1.00  0.00    -0.014 A 
ATOM     74  C   UNL     1      -9.528  10.977   2.447  1.00  0.00     0.009 A 
ATOM     75  C   UNL     1      -7.157  11.453   2.568  1.00  0.00     0.009 A 
ATOM     76  C   UNL     1      -9.794  12.345   2.372  1.00  0.00     0.001 A 
ATOM     77  C   UNL     1      -7.429  12.820   2.517  1.00  0.00     0.001 A 
ATOM     78  C   UNL     1      -8.746  13.265   2.410  1.00  0.00     0.000 A 
ENDBRANCH  60  73
ENDBRANCH  34  35
ENDBRANCH  27  29
ENDBRANCH  26  27
ENDBRANCH  25  26
ENDBRANCH  24  25
ENDBRANCH  23  24
ENDBRANCH  22  23
ENDBRANCH   1  22
TORSDOF 20
