REMARK SMILES Cc1ccc2c(CC(=O)N3CCC(C(=O)OCCOCCOCCOC(=O)c4ccc(-c5c6nc(c(-c7ccccc7)c7ccc([nH]7)c(-c7ccccc7)c7nc(c(-c8ccccc8)c8ccc5[nH]8)C=C7)C=C6)cc4)CC3)coc2c1
REMARK SMILES IDX 20 1 19 2 18 3 17 4 16 5 14 6 15 7 13 8 8 9 9 10 10 11 11 12
REMARK SMILES IDX 77 13 12 14 76 15 7 16 6 17 1 18 2 19 3 20 81 21 4 22 80 23
REMARK SMILES IDX 5 24 79 25 78 26 21 27 22 28 23 29 24 30 25 31 26 32 27 33
REMARK SMILES IDX 28 34 29 35 75 36 30 37 74 38 31 39 32 40 33 41 68 42 34 43
REMARK SMILES IDX 73 44 67 45 69 46 35 47 72 48 66 49 65 50 36 52 58 53 43 54
REMARK SMILES IDX 57 55 44 56 47 57 56 58 70 59 45 60 46 61 55 63 71 64 48 65
REMARK SMILES IDX 37 66 38 67 42 68 39 69 41 70 40 71 59 72 60 73 64 74 61 75
REMARK SMILES IDX 63 76 62 77 49 78 50 79 54 80 51 81 53 82 52 83
REMARK H PARENT 69 51 47 62
REMARK Flexibility Score: inf
ROOT
ATOM      1  C   UNL     1      -3.691   8.420   6.672  1.00  0.00     0.188 C 
ENDROOT
BRANCH   1   2
ATOM      2  O   UNL     1      -2.652   9.008   7.436  1.00  0.00    -0.376 OA
BRANCH   2   3
ATOM      3  C   UNL     1      -1.558   9.605   6.751  1.00  0.00     0.202 C 
BRANCH   3   4
ATOM      4  C   UNL     1      -0.720   8.679   5.861  1.00  0.00     0.261 C 
BRANCH   4   5
ATOM      5  O   UNL     1      -1.329   8.460   4.564  1.00  0.00    -0.463 OA
BRANCH   5   6
ATOM      6  C   UNL     1      -1.454   7.166   4.193  1.00  0.00     0.309 C 
ATOM      7  O   UNL     1      -0.972   6.234   4.834  1.00  0.00    -0.252 OA
BRANCH   6   8
ATOM      8  C   UNL     1      -2.286   6.901   2.936  1.00  0.00     0.103 C 
ATOM      9  C   UNL     1      -2.266   7.124  -1.069  1.00  0.00     0.227 C 
ATOM     10  O   UNL     1      -2.578   8.256  -1.456  1.00  0.00    -0.275 OA
ATOM     11  N   UNL     1      -2.789   6.615   0.111  1.00  0.00    -0.342 N 
ATOM     12  C   UNL     1      -3.727   7.405   0.899  1.00  0.00     0.120 C 
ATOM     13  C   UNL     1      -2.231   5.509   0.861  1.00  0.00     0.120 C 
ATOM     14  C   UNL     1      -3.048   7.990   2.156  1.00  0.00     0.037 C 
ATOM     15  C   UNL     1      -1.383   6.117   1.973  1.00  0.00     0.037 C 
BRANCH   9  16
ATOM     16  C   UNL     1      -1.413   6.241  -1.982  1.00  0.00     0.139 C 
BRANCH  16  17
ATOM     17  C   UNL     1      -0.164   5.658  -1.403  1.00  0.00     0.008 A 
ATOM     18  C   UNL     1       1.963   0.430  -0.580  1.00  0.00     0.044 C 
ATOM     19  C   UNL     1       1.418   1.785  -0.932  1.00  0.00    -0.047 A 
ATOM     20  C   UNL     1       0.339   1.892  -1.819  1.00  0.00     0.004 A 
ATOM     21  C   UNL     1       1.939   2.936  -0.318  1.00  0.00     0.051 A 
ATOM     22  C   UNL     1      -0.276   3.123  -2.085  1.00  0.00     0.012 A 
ATOM     23  C   UNL     1       1.330   4.152  -0.631  1.00  0.00     0.134 A 
ATOM     24  C   UNL     1       0.230   4.280  -1.468  1.00  0.00     0.024 A 
ATOM     25  O   UNL     1       1.694   5.373  -0.152  1.00  0.00    -0.464 OA
ATOM     26  C   UNL     1       0.814   6.280  -0.654  1.00  0.00     0.200 A 
ENDBRANCH  16  17
ENDBRANCH   9  16
ENDBRANCH   6   8
ENDBRANCH   5   6
ENDBRANCH   4   5
ENDBRANCH   3   4
ENDBRANCH   2   3
ENDBRANCH   1   2
BRANCH   1  27
ATOM     27  C   UNL     1      -4.114   9.101   5.364  1.00  0.00     0.188 C 
BRANCH  27  28
ATOM     28  O   UNL     1      -4.219  10.505   5.248  1.00  0.00    -0.376 OA
BRANCH  28  29
ATOM     29  C   UNL     1      -4.932  11.195   6.258  1.00  0.00     0.202 C 
BRANCH  29  30
ATOM     30  C   UNL     1      -6.413  10.822   6.441  1.00  0.00     0.261 C 
BRANCH  30  31
ATOM     31  O   UNL     1      -6.601   9.406   6.629  1.00  0.00    -0.460 OA
BRANCH  31  32
ATOM     32  C   UNL     1      -7.517   8.811   5.818  1.00  0.00     0.338 C 
ATOM     33  O   UNL     1      -8.415   9.363   5.202  1.00  0.00    -0.246 OA
BRANCH  32  34
ATOM     34  C   UNL     1      -7.044   7.431   5.521  1.00  0.00     0.060 A 
ATOM     35  C   UNL     1      -6.559   6.566   6.508  1.00  0.00     0.016 A 
ATOM     36  C   UNL     1      -6.898   7.091   4.168  1.00  0.00     0.016 A 
ATOM     37  C   UNL     1      -5.909   5.377   6.138  1.00  0.00     0.010 A 
ATOM     38  C   UNL     1      -6.225   5.921   3.805  1.00  0.00     0.010 A 
ATOM     39  C   UNL     1      -5.722   5.051   4.784  1.00  0.00    -0.014 A 
BRANCH  39  40
ATOM     40  C   UNL     1      -5.359   3.688   4.352  1.00  0.00     0.031 A 
ATOM     41  C   UNL     1      -6.272   2.642   4.820  1.00  0.00     0.074 A 
ATOM     42  C   UNL     1      -4.273   3.218   3.700  1.00  0.00     0.049 A 
ATOM     43  N   UNL     1      -5.943   1.816   5.759  1.00  0.00    -0.248 NA
ATOM     44  C   UNL     1      -7.653   2.558   4.367  1.00  0.00     0.031 C 
ATOM     45  C   UNL     1      -2.943   3.787   3.727  1.00  0.00     0.029 A 
ATOM     46  N   UNL     1      -4.108   2.068   2.946  1.00  0.00    -0.354 N 
ATOM     47  C   UNL     1      -7.009   0.962   5.900  1.00  0.00     0.074 A 
ATOM     48  C   UNL     1      -8.077   1.522   5.098  1.00  0.00     0.031 C 
ATOM     49  C   UNL     1      -2.116   3.054   2.953  1.00  0.00     0.029 A 
ATOM     50  C   UNL     1      -2.867   1.981   2.316  1.00  0.00     0.049 A 
ATOM     51  H   UNL     1      -4.803   1.376   2.862  1.00  0.00     0.167 HD
ATOM     52  C   UNL     1      -6.856  -0.239   6.514  1.00  0.00     0.031 A 
ATOM     53  C   UNL     1      -2.207   0.900   1.827  1.00  0.00     0.031 A 
ATOM     54  C   UNL     1      -5.675  -0.307   7.345  1.00  0.00     0.049 A 
ATOM     55  C   UNL     1      -2.259  -0.098   2.927  1.00  0.00     0.074 A 
ATOM     56  C   UNL     1      -5.200   0.422   8.421  1.00  0.00     0.029 A 
ATOM     57  N   UNL     1      -4.606  -1.057   6.917  1.00  0.00    -0.354 N 
ATOM     58  N   UNL     1      -1.563  -0.040   4.023  1.00  0.00    -0.248 NA
ATOM     59  C   UNL     1      -3.345  -1.070   2.926  1.00  0.00     0.031 C 
ATOM     60  C   UNL     1      -3.778   0.402   8.309  1.00  0.00     0.029 A 
ATOM     61  C   UNL     1      -3.458  -0.344   7.176  1.00  0.00     0.049 A 
ATOM     62  H   UNL     1      -4.653  -1.947   6.499  1.00  0.00     0.167 HD
ATOM     63  C   UNL     1      -2.370  -0.639   4.978  1.00  0.00     0.074 A 
ATOM     64  C   UNL     1      -3.385  -1.360   4.224  1.00  0.00     0.031 C 
ATOM     65  C   UNL     1      -2.307  -0.292   6.296  1.00  0.00     0.031 A 
BRANCH  52  66
ATOM     66  C   UNL     1      -7.647  -1.437   6.091  1.00  0.00    -0.014 A 
ATOM     67  C   UNL     1      -8.251  -1.533   4.820  1.00  0.00     0.009 A 
ATOM     68  C   UNL     1      -7.627  -2.598   6.877  1.00  0.00     0.009 A 
ATOM     69  C   UNL     1      -8.851  -2.709   4.372  1.00  0.00     0.001 A 
ATOM     70  C   UNL     1      -8.188  -3.793   6.411  1.00  0.00     0.001 A 
ATOM     71  C   UNL     1      -8.807  -3.845   5.165  1.00  0.00     0.000 A 
ENDBRANCH  52  66
BRANCH  53  72
ATOM     72  C   UNL     1      -2.365   0.444   0.417  1.00  0.00    -0.014 A 
ATOM     73  C   UNL     1      -3.170   1.117  -0.517  1.00  0.00     0.009 A 
ATOM     74  C   UNL     1      -1.661  -0.692  -0.024  1.00  0.00     0.009 A 
ATOM     75  C   UNL     1      -3.298   0.647  -1.831  1.00  0.00     0.001 A 
ATOM     76  C   UNL     1      -1.789  -1.162  -1.336  1.00  0.00     0.001 A 
ATOM     77  C   UNL     1      -2.613  -0.496  -2.238  1.00  0.00     0.000 A 
ENDBRANCH  53  72
BRANCH  65  78
ATOM     78  C   UNL     1      -1.097   0.476   6.780  1.00  0.00    -0.014 A 
ATOM     79  C   UNL     1      -0.396  -0.004   7.896  1.00  0.00     0.009 A 
ATOM     80  C   UNL     1      -0.713   1.718   6.249  1.00  0.00     0.009 A 
ATOM     81  C   UNL     1       0.652   0.733   8.460  1.00  0.00     0.001 A 
ATOM     82  C   UNL     1       0.348   2.448   6.796  1.00  0.00     0.001 A 
ATOM     83  C   UNL     1       1.026   1.957   7.908  1.00  0.00     0.000 A 
ENDBRANCH  65  78
ENDBRANCH  39  40
ENDBRANCH  32  34
ENDBRANCH  31  32
ENDBRANCH  30  31
ENDBRANCH  29  30
ENDBRANCH  28  29
ENDBRANCH  27  28
ENDBRANCH   1  27
TORSDOF 19
