REMARK SMILES Cc1c[nH]c(C(=O)N2CCC3(CC2)NC(=O)C[C@@H]3C(=O)OCCOCCOCCOC(=O)c2ccc(-c3c4nc(c(-c5ccccc5)c5ccc([nH]5)c(-c5ccccc5)c5nc(c(-c6ccccc6)c6ccc3[nH]6)C=C5)C=C4)cc2)c1
REMARK SMILES IDX 26 1 25 2 24 3 23 4 22 5 21 6 19 7 20 8 18 9 6 10 7 11 8 12
REMARK SMILES IDX 9 13 13 14 10 15 12 16 11 17 14 18 15 19 17 21 16 22 5 23
REMARK SMILES IDX 1 24 2 25 3 26 81 27 4 28 27 30 28 31 29 32 30 33 31 34
REMARK SMILES IDX 32 35 33 36 34 37 80 38 35 39 79 40 36 41 37 42 38 43 73 44
REMARK SMILES IDX 39 45 78 46 72 47 74 48 40 49 77 50 71 51 70 52 41 54 63 55
REMARK SMILES IDX 48 56 62 57 49 58 52 59 61 60 75 61 50 62 51 63 60 65 76 66
REMARK SMILES IDX 53 67 42 68 43 69 47 70 44 71 46 72 45 73 64 74 65 75 69 76
REMARK SMILES IDX 66 77 68 78 67 79 54 80 55 81 59 82 56 83 58 84 57 85
REMARK H PARENT 14 20 4 29 74 53 52 64
REMARK Flexibility Score: inf
ROOT
ATOM      1  C   UNL     1      -6.616   3.073  -2.679  1.00  0.00     0.188 C 
ENDROOT
BRANCH   1   2
ATOM      2  C   UNL     1      -7.899   2.357  -2.248  1.00  0.00     0.188 C 
BRANCH   2   3
ATOM      3  O   UNL     1      -8.818   3.122  -1.479  1.00  0.00    -0.376 OA
BRANCH   3   4
ATOM      4  C   UNL     1      -8.279   3.788  -0.346  1.00  0.00     0.202 C 
BRANCH   4   5
ATOM      5  C   UNL     1      -7.920   2.932   0.884  1.00  0.00     0.261 C 
BRANCH   5   6
ATOM      6  O   UNL     1      -7.286   1.651   0.642  1.00  0.00    -0.463 OA
BRANCH   6   7
ATOM      7  C   UNL     1      -8.115   0.590   0.732  1.00  0.00     0.311 C 
ATOM      8  O   UNL     1      -9.324   0.697   0.938  1.00  0.00    -0.252 OA
BRANCH   7   9
ATOM      9  C   UNL     1      -7.492  -0.793   0.612  1.00  0.00     0.134 C 
ATOM     10  C   UNL     1      -2.457   1.129   0.647  1.00  0.00     0.270 C 
ATOM     11  O   UNL     1      -2.552   2.331   0.882  1.00  0.00    -0.267 OA
ATOM     12  N   UNL     1      -3.580   0.316   0.488  1.00  0.00    -0.337 N 
ATOM     13  C   UNL     1      -4.530   0.762  -0.501  1.00  0.00     0.122 C 
ATOM     14  C   UNL     1      -4.198  -0.232   1.679  1.00  0.00     0.122 C 
ATOM     15  C   UNL     1      -5.408  -0.381  -0.978  1.00  0.00     0.051 C 
ATOM     16  C   UNL     1      -5.052  -1.437   1.313  1.00  0.00     0.051 C 
ATOM     17  C   UNL     1      -6.056  -1.197   0.152  1.00  0.00     0.057 C 
ATOM     18  N   UNL     1      -6.332  -2.530  -0.414  1.00  0.00    -0.350 N 
ATOM     19  C   UNL     1      -7.637  -2.752  -0.754  1.00  0.00     0.221 C 
ATOM     20  H   UNL     1      -5.629  -3.208  -0.538  1.00  0.00     0.164 HD
ATOM     21  C   UNL     1      -8.424  -1.552  -0.363  1.00  0.00     0.117 C 
ATOM     22  O   UNL     1      -8.054  -3.748  -1.323  1.00  0.00    -0.275 OA
BRANCH  10  23
ATOM     23  C   UNL     1      -1.204   0.438   0.432  1.00  0.00     0.104 A 
ATOM     24  C   UNL     1       2.464   0.024  -0.028  1.00  0.00     0.046 C 
ATOM     25  C   UNL     1       0.991  -0.095   0.116  1.00  0.00    -0.033 A 
ATOM     26  C   UNL     1       0.234  -1.243   0.004  1.00  0.00     0.086 A 
ATOM     27  C   UNL     1       0.077   0.963   0.383  1.00  0.00     0.036 A 
ATOM     28  N   UNL     1      -1.081  -0.908   0.177  1.00  0.00    -0.357 N 
ATOM     29  H   UNL     1      -1.833  -1.541   0.127  1.00  0.00     0.166 HD
ENDBRANCH  10  23
ENDBRANCH   7   9
ENDBRANCH   6   7
ENDBRANCH   5   6
ENDBRANCH   4   5
ENDBRANCH   3   4
ENDBRANCH   2   3
ENDBRANCH   1   2
BRANCH   1  30
ATOM     30  O   UNL     1      -5.697   3.208  -1.608  1.00  0.00    -0.376 OA
BRANCH  30  31
ATOM     31  C   UNL     1      -4.622   4.141  -1.722  1.00  0.00     0.202 C 
BRANCH  31  32
ATOM     32  C   UNL     1      -3.984   4.478  -3.084  1.00  0.00     0.261 C 
BRANCH  32  33
ATOM     33  O   UNL     1      -4.325   3.611  -4.170  1.00  0.00    -0.460 OA
BRANCH  33  34
ATOM     34  C   UNL     1      -3.721   2.398  -4.186  1.00  0.00     0.338 C 
ATOM     35  O   UNL     1      -2.819   2.020  -3.466  1.00  0.00    -0.246 OA
BRANCH  34  36
ATOM     36  C   UNL     1      -4.511   1.510  -5.079  1.00  0.00     0.060 A 
ATOM     37  C   UNL     1      -4.775   0.208  -4.634  1.00  0.00     0.016 A 
ATOM     38  C   UNL     1      -5.072   1.962  -6.278  1.00  0.00     0.016 A 
ATOM     39  C   UNL     1      -5.575  -0.651  -5.390  1.00  0.00     0.010 A 
ATOM     40  C   UNL     1      -5.856   1.095  -7.047  1.00  0.00     0.010 A 
ATOM     41  C   UNL     1      -6.091  -0.226  -6.620  1.00  0.00    -0.014 A 
BRANCH  41  42
ATOM     42  C   UNL     1      -6.702  -1.209  -7.550  1.00  0.00     0.031 A 
ATOM     43  C   UNL     1      -5.848  -1.756  -8.663  1.00  0.00     0.074 A 
ATOM     44  C   UNL     1      -7.970  -1.635  -7.411  1.00  0.00     0.049 A 
ATOM     45  N   UNL     1      -6.175  -2.547  -9.653  1.00  0.00    -0.248 NA
ATOM     46  C   UNL     1      -4.432  -1.356  -8.652  1.00  0.00     0.031 C 
ATOM     47  C   UNL     1      -8.882  -1.258  -6.333  1.00  0.00     0.029 A 
ATOM     48  N   UNL     1      -8.710  -2.485  -8.197  1.00  0.00    -0.354 N 
ATOM     49  C   UNL     1      -5.011  -2.724 -10.390  1.00  0.00     0.074 A 
ATOM     50  C   UNL     1      -3.977  -1.944  -9.748  1.00  0.00     0.031 C 
ATOM     51  C   UNL     1     -10.064  -1.868  -6.531  1.00  0.00     0.029 A 
ATOM     52  C   UNL     1     -10.009  -2.636  -7.775  1.00  0.00     0.049 A 
ATOM     53  H   UNL     1      -8.345  -2.943  -8.989  1.00  0.00     0.167 HD
ATOM     54  C   UNL     1      -4.818  -3.469 -11.505  1.00  0.00     0.031 A 
ATOM     55  C   UNL     1     -11.042  -3.290  -8.344  1.00  0.00     0.031 A 
ATOM     56  C   UNL     1      -5.848  -4.232 -12.157  1.00  0.00     0.049 A 
ATOM     57  C   UNL     1     -10.832  -4.015  -9.651  1.00  0.00     0.074 A 
ATOM     58  C   UNL     1      -5.750  -5.013 -13.296  1.00  0.00     0.029 A 
ATOM     59  N   UNL     1      -7.165  -4.304 -11.733  1.00  0.00    -0.354 N 
ATOM     60  N   UNL     1      -9.731  -4.171 -10.346  1.00  0.00    -0.248 NA
ATOM     61  C   UNL     1     -12.014  -4.653 -10.252  1.00  0.00     0.031 C 
ATOM     62  C   UNL     1      -7.025  -5.501 -13.600  1.00  0.00     0.029 A 
ATOM     63  C   UNL     1      -7.900  -5.086 -12.609  1.00  0.00     0.049 A 
ATOM     64  H   UNL     1      -7.525  -3.865 -10.929  1.00  0.00     0.167 HD
ATOM     65  C   UNL     1     -10.082  -4.946 -11.447  1.00  0.00     0.074 A 
ATOM     66  C   UNL     1     -11.492  -5.244 -11.317  1.00  0.00     0.031 C 
ATOM     67  C   UNL     1      -9.305  -5.373 -12.473  1.00  0.00     0.031 A 
BRANCH  54  68
ATOM     68  C   UNL     1      -3.447  -3.440 -12.123  1.00  0.00    -0.014 A 
ATOM     69  C   UNL     1      -2.347  -4.056 -11.505  1.00  0.00     0.009 A 
ATOM     70  C   UNL     1      -3.262  -2.801 -13.359  1.00  0.00     0.009 A 
ATOM     71  C   UNL     1      -1.082  -3.998 -12.095  1.00  0.00     0.001 A 
ATOM     72  C   UNL     1      -2.004  -2.774 -13.963  1.00  0.00     0.001 A 
ATOM     73  C   UNL     1      -0.913  -3.362 -13.325  1.00  0.00     0.000 A 
ENDBRANCH  54  68
BRANCH  55  74
ATOM     74  C   UNL     1     -12.393  -3.251  -7.719  1.00  0.00    -0.014 A 
ATOM     75  C   UNL     1     -12.989  -4.418  -7.215  1.00  0.00     0.009 A 
ATOM     76  C   UNL     1     -13.116  -2.048  -7.663  1.00  0.00     0.009 A 
ATOM     77  C   UNL     1     -14.286  -4.386  -6.696  1.00  0.00     0.001 A 
ATOM     78  C   UNL     1     -14.399  -2.012  -7.111  1.00  0.00     0.001 A 
ATOM     79  C   UNL     1     -14.987  -3.183  -6.638  1.00  0.00     0.000 A 
ENDBRANCH  55  74
BRANCH  67  80
ATOM     80  C   UNL     1      -9.950  -6.240 -13.521  1.00  0.00    -0.014 A 
ATOM     81  C   UNL     1     -10.883  -5.720 -14.431  1.00  0.00     0.009 A 
ATOM     82  C   UNL     1      -9.583  -7.592 -13.626  1.00  0.00     0.009 A 
ATOM     83  C   UNL     1     -11.460  -6.544 -15.401  1.00  0.00     0.001 A 
ATOM     84  C   UNL     1     -10.135  -8.404 -14.618  1.00  0.00     0.001 A 
ATOM     85  C   UNL     1     -11.082  -7.882 -15.498  1.00  0.00     0.000 A 
ENDBRANCH  67  80
ENDBRANCH  41  42
ENDBRANCH  34  36
ENDBRANCH  33  34
ENDBRANCH  32  33
ENDBRANCH  31  32
ENDBRANCH  30  31
ENDBRANCH   1  30
TORSDOF 18
