REMARK SMILES COc1ccc([C@@H]2C(C#N)=C(N)N3C(=O)[C@H](CC(=O)OCCOCCOCCOC(=O)c4ccc(-c5c6nc(c(-c7ccccc7)c7ccc([nH]7)c(-c7ccccc7)c7nc(c(-c8ccccc8)c8ccc5[nH]8)C=C7)C=C6)cc4)SC3=C2C#N)cc1
REMARK SMILES IDX 24 1 23 2 22 3 21 4 20 5 18 6 19 7 17 8 16 9 7 10 8 11 82 12
REMARK SMILES IDX 11 13 81 14 13 15 80 16 14 17 15 18 6 19 3 20 4 21 86 22
REMARK SMILES IDX 5 23 85 24 2 25 1 26 9 27 10 28 83 29 84 30 12 31 25 34
REMARK SMILES IDX 26 35 27 36 28 37 29 38 30 39 31 40 32 41 33 42 79 43 34 44
REMARK SMILES IDX 78 45 35 46 36 47 37 48 72 49 38 50 77 51 71 52 73 53 39 54
REMARK SMILES IDX 76 55 70 56 69 57 40 59 62 60 47 61 61 62 48 63 51 64 60 65
REMARK SMILES IDX 74 66 49 67 50 68 59 70 75 71 52 72 41 73 42 74 46 75 43 76
REMARK SMILES IDX 45 77 44 78 63 79 64 80 68 81 65 82 67 83 66 84 53 85 54 86
REMARK SMILES IDX 58 87 55 88 57 89 56 90
REMARK H PARENT 12 32 12 33 73 58 51 69
REMARK Flexibility Score: inf
ROOT
ATOM      1  C   UNL     1       6.011  -3.052  12.869  1.00  0.00     0.188 C 
ENDROOT
BRANCH   1   2
ATOM      2  O   UNL     1       7.183  -2.734  13.614  1.00  0.00    -0.376 OA
BRANCH   2   3
ATOM      3  C   UNL     1       7.744  -1.439  13.392  1.00  0.00     0.202 C 
BRANCH   3   4
ATOM      4  C   UNL     1       8.293  -1.184  11.980  1.00  0.00     0.261 C 
BRANCH   4   5
ATOM      5  O   UNL     1       7.331  -1.440  10.933  1.00  0.00    -0.463 OA
BRANCH   5   6
ATOM      6  C   UNL     1       7.704  -2.313   9.963  1.00  0.00     0.307 C 
ATOM      7  O   UNL     1       8.802  -2.858   9.902  1.00  0.00    -0.252 OA
BRANCH   6   8
ATOM      8  C   UNL     1       6.603  -2.666   8.975  1.00  0.00     0.147 C 
BRANCH   8   9
ATOM      9  C   UNL     1       5.289  -1.908   9.090  1.00  0.00     0.154 C 
ATOM     10  C   UNL     1       1.959   0.601   6.331  1.00  0.00     0.107 C 
ATOM     11  C   UNL     1       3.037   1.577   6.755  1.00  0.00     0.083 C 
ATOM     12  C   UNL     1       2.334  -0.811   6.693  1.00  0.00     0.073 C 
ATOM     13  C   UNL     1       4.109   1.262   7.511  1.00  0.00     0.126 C 
ATOM     14  C   UNL     1       3.416  -1.042   7.475  1.00  0.00     0.099 C 
ATOM     15  N   UNL     1       4.285  -0.056   7.922  1.00  0.00    -0.258 N 
ATOM     16  S   UNL     1       3.985  -2.606   7.982  1.00  0.00    -0.093 SA
ATOM     17  C   UNL     1       5.412  -0.466   8.652  1.00  0.00     0.247 C 
ATOM     18  O   UNL     1       6.376   0.241   8.939  1.00  0.00    -0.273 OA
BRANCH  10  19
ATOM     19  C   UNL     1       1.571   0.729   4.859  1.00  0.00    -0.034 A 
ATOM     20  C   UNL     1       0.781   0.861   2.161  1.00  0.00     0.118 A 
ATOM     21  C   UNL     1      -0.132   1.142   3.175  1.00  0.00     0.047 A 
ATOM     22  C   UNL     1       2.100   0.548   2.489  1.00  0.00     0.047 A 
ATOM     23  C   UNL     1       0.253   1.068   4.515  1.00  0.00     0.008 A 
ATOM     24  C   UNL     1       2.494   0.482   3.829  1.00  0.00     0.008 A 
BRANCH  20  25
ATOM     25  O   UNL     1       0.298   0.966   0.886  1.00  0.00    -0.497 OA
ATOM     26  C   UNL     1       0.863   0.051  -0.048  1.00  0.00     0.278 C 
ENDBRANCH  20  25
ENDBRANCH  10  19
BRANCH  11  27
ATOM     27  C   UNL     1       2.993   2.965   6.136  1.00  0.00     0.100 C 
ATOM     28  N   UNL     1       2.956   4.116   5.623  1.00  0.00    -0.193 NA
ENDBRANCH  11  27
BRANCH  12  29
ATOM     29  C   UNL     1       1.607  -1.960   6.013  1.00  0.00     0.098 C 
ATOM     30  N   UNL     1       1.005  -2.913   5.449  1.00  0.00    -0.193 NA
ENDBRANCH  12  29
BRANCH  13  31
ATOM     31  N   UNL     1       5.038   2.209   7.858  1.00  0.00    -0.384 N 
ATOM     32  H   UNL     1       4.919   3.143   7.570  1.00  0.00     0.158 HD
ATOM     33  H   UNL     1       5.824   1.955   8.394  1.00  0.00     0.158 HD
ENDBRANCH  13  31
ENDBRANCH   8   9
ENDBRANCH   6   8
ENDBRANCH   5   6
ENDBRANCH   4   5
ENDBRANCH   3   4
ENDBRANCH   2   3
ENDBRANCH   1   2
BRANCH   1  34
ATOM     34  C   UNL     1       4.839  -2.087  13.045  1.00  0.00     0.188 C 
BRANCH  34  35
ATOM     35  O   UNL     1       5.118  -0.725  12.762  1.00  0.00    -0.376 OA
BRANCH  35  36
ATOM     36  C   UNL     1       4.093   0.229  13.061  1.00  0.00     0.202 C 
BRANCH  36  37
ATOM     37  C   UNL     1       3.299   0.083  14.380  1.00  0.00     0.261 C 
BRANCH  37  38
ATOM     38  O   UNL     1       2.635  -1.182  14.601  1.00  0.00    -0.460 OA
BRANCH  38  39
ATOM     39  C   UNL     1       1.855  -1.681  13.614  1.00  0.00     0.338 C 
ATOM     40  O   UNL     1       1.453  -1.073  12.635  1.00  0.00    -0.246 OA
BRANCH  39  41
ATOM     41  C   UNL     1       1.810  -3.167  13.751  1.00  0.00     0.060 A 
ATOM     42  C   UNL     1       1.853  -3.934  12.576  1.00  0.00     0.016 A 
ATOM     43  C   UNL     1       1.823  -3.813  14.992  1.00  0.00     0.016 A 
ATOM     44  C   UNL     1       1.869  -5.331  12.635  1.00  0.00     0.010 A 
ATOM     45  C   UNL     1       1.819  -5.215  15.051  1.00  0.00     0.010 A 
ATOM     46  C   UNL     1       1.807  -5.983  13.873  1.00  0.00    -0.014 A 
BRANCH  46  47
ATOM     47  C   UNL     1       1.498  -7.438  13.922  1.00  0.00     0.031 A 
ATOM     48  C   UNL     1       0.063  -7.849  14.129  1.00  0.00     0.074 A 
ATOM     49  C   UNL     1       2.437  -8.386  13.745  1.00  0.00     0.049 A 
ATOM     50  N   UNL     1      -0.456  -9.046  14.229  1.00  0.00    -0.248 NA
ATOM     51  C   UNL     1      -0.918  -6.756  14.236  1.00  0.00     0.031 C 
ATOM     52  C   UNL     1       3.852  -8.146  13.473  1.00  0.00     0.029 A 
ATOM     53  N   UNL     1       2.328  -9.757  13.768  1.00  0.00    -0.354 N 
ATOM     54  C   UNL     1      -1.819  -8.849  14.418  1.00  0.00     0.074 A 
ATOM     55  C   UNL     1      -2.042  -7.421  14.449  1.00  0.00     0.031 C 
ATOM     56  C   UNL     1       4.481  -9.331  13.361  1.00  0.00     0.029 A 
ATOM     57  C   UNL     1       3.522 -10.412  13.586  1.00  0.00     0.049 A 
ATOM     58  H   UNL     1       1.472 -10.226  13.903  1.00  0.00     0.167 HD
ATOM     59  C   UNL     1      -2.804  -9.770  14.547  1.00  0.00     0.031 A 
ATOM     60  C   UNL     1       3.812 -11.729  13.619  1.00  0.00     0.031 A 
ATOM     61  C   UNL     1      -2.596 -11.192  14.535  1.00  0.00     0.049 A 
ATOM     62  C   UNL     1       2.714 -12.735  13.867  1.00  0.00     0.074 A 
ATOM     63  C   UNL     1      -3.538 -12.200  14.653  1.00  0.00     0.029 A 
ATOM     64  N   UNL     1      -1.363 -11.809  14.406  1.00  0.00    -0.354 N 
ATOM     65  N   UNL     1       1.427 -12.536  14.024  1.00  0.00    -0.248 NA
ATOM     66  C   UNL     1       3.112 -14.150  13.937  1.00  0.00     0.031 C 
ATOM     67  C   UNL     1      -2.866 -13.426  14.662  1.00  0.00     0.029 A 
ATOM     68  C   UNL     1      -1.515 -13.184  14.476  1.00  0.00     0.049 A 
ATOM     69  H   UNL     1      -0.506 -11.340  14.283  1.00  0.00     0.167 HD
ATOM     70  C   UNL     1       0.862 -13.799  14.177  1.00  0.00     0.074 A 
ATOM     71  C   UNL     1       1.942 -14.757  14.081  1.00  0.00     0.031 C 
ATOM     72  C   UNL     1      -0.436 -14.133  14.377  1.00  0.00     0.031 A 
BRANCH  59  73
ATOM     73  C   UNL     1      -4.200  -9.256  14.762  1.00  0.00    -0.014 A 
ATOM     74  C   UNL     1      -4.914  -8.620  13.733  1.00  0.00     0.009 A 
ATOM     75  C   UNL     1      -4.820  -9.434  16.008  1.00  0.00     0.009 A 
ATOM     76  C   UNL     1      -6.205  -8.141  13.961  1.00  0.00     0.001 A 
ATOM     77  C   UNL     1      -6.123  -8.983  16.224  1.00  0.00     0.001 A 
ATOM     78  C   UNL     1      -6.810  -8.328  15.204  1.00  0.00     0.000 A 
ENDBRANCH  59  73
BRANCH  60  79
ATOM     79  C   UNL     1       5.217 -12.195  13.443  1.00  0.00    -0.014 A 
ATOM     80  C   UNL     1       5.592 -12.945  12.317  1.00  0.00     0.009 A 
ATOM     81  C   UNL     1       6.180 -11.932  14.431  1.00  0.00     0.009 A 
ATOM     82  C   UNL     1       6.893 -13.443  12.198  1.00  0.00     0.001 A 
ATOM     83  C   UNL     1       7.487 -12.404  14.293  1.00  0.00     0.001 A 
ATOM     84  C   UNL     1       7.840 -13.168  13.183  1.00  0.00     0.000 A 
ENDBRANCH  60  79
BRANCH  72  85
ATOM     85  C   UNL     1      -0.778 -15.597  14.462  1.00  0.00    -0.014 A 
ATOM     86  C   UNL     1      -0.411 -16.375  15.571  1.00  0.00     0.009 A 
ATOM     87  C   UNL     1      -1.527 -16.194  13.434  1.00  0.00     0.009 A 
ATOM     88  C   UNL     1      -0.758 -17.727  15.632  1.00  0.00     0.001 A 
ATOM     89  C   UNL     1      -1.900 -17.537  13.513  1.00  0.00     0.001 A 
ATOM     90  C   UNL     1      -1.507 -18.305  14.607  1.00  0.00     0.000 A 
ENDBRANCH  72  85
ENDBRANCH  46  47
ENDBRANCH  39  41
ENDBRANCH  38  39
ENDBRANCH  37  38
ENDBRANCH  36  37
ENDBRANCH  35  36
ENDBRANCH  34  35
ENDBRANCH   1  34
TORSDOF 23
