REMARK SMILES C[C@](Nc1ccc(C(N)=O)nn1)(C(=O)OCCOCCOCCOC(=O)c1ccc(-c2c3nc(c(-c4ccccc4)c4ccc([nH]4)c(-c4ccccc4)c4nc(c(-c5ccccc5)c5ccc2[nH]5)C=C4)C=C3)cc1)c1ccccc1
REMARK SMILES IDX 19 1 18 2 17 3 16 4 15 5 13 6 14 7 2 8 1 9 75 10 76 11 80 12
REMARK SMILES IDX 77 13 79 14 78 15 3 16 4 18 5 19 12 20 6 21 11 22 7 23 8 24
REMARK SMILES IDX 9 25 10 26 20 29 21 30 22 31 23 32 24 33 25 34 26 35 27 36
REMARK SMILES IDX 28 37 74 38 29 39 73 40 30 41 31 42 32 43 67 44 33 45 72 46
REMARK SMILES IDX 66 47 68 48 34 49 71 50 65 51 64 52 35 54 57 55 42 56 56 57
REMARK SMILES IDX 43 58 46 59 55 60 69 61 44 62 45 63 54 65 70 66 47 67 36 68
REMARK SMILES IDX 37 69 41 70 38 71 40 72 39 73 58 74 59 75 63 76 60 77 62 78
REMARK SMILES IDX 61 79 48 80 49 81 53 82 50 83 52 84 51 85
REMARK H PARENT 3 17 9 27 9 28 68 53 46 64
REMARK Flexibility Score: inf
ROOT
ATOM      1  C   UNL     1      -2.375  -1.868   0.262  1.00  0.00     0.188 C 
ENDROOT
BRANCH   1   2
ATOM      2  O   UNL     1      -3.684  -1.459   0.633  1.00  0.00    -0.376 OA
BRANCH   2   3
ATOM      3  C   UNL     1      -3.916  -0.091   0.946  1.00  0.00     0.202 C 
BRANCH   3   4
ATOM      4  C   UNL     1      -2.979   0.659   1.911  1.00  0.00     0.261 C 
BRANCH   4   5
ATOM      5  O   UNL     1      -1.567   0.605   1.621  1.00  0.00    -0.461 OA
BRANCH   5   6
ATOM      6  C   UNL     1      -0.780  -0.001   2.568  1.00  0.00     0.336 C 
ATOM      7  O   UNL     1      -1.227  -0.536   3.578  1.00  0.00    -0.249 OA
BRANCH   6   8
ATOM      8  C   UNL     1       0.767   0.130   2.256  1.00  0.00     0.160 C 
ATOM      9  C   UNL     1       1.192   1.220   3.265  1.00  0.00     0.053 C 
BRANCH   8  10
ATOM     10  C   UNL     1       1.407  -1.260   2.464  1.00  0.00    -0.012 A 
ATOM     11  C   UNL     1       1.020  -2.348   1.657  1.00  0.00     0.007 A 
ATOM     12  C   UNL     1       2.285  -1.539   3.523  1.00  0.00     0.007 A 
ATOM     13  C   UNL     1       1.393  -3.659   1.960  1.00  0.00     0.000 A 
ATOM     14  C   UNL     1       2.682  -2.853   3.811  1.00  0.00     0.000 A 
ATOM     15  C   UNL     1       2.211  -3.916   3.049  1.00  0.00     0.000 A 
ENDBRANCH   8  10
BRANCH   8  16
ATOM     16  N   UNL     1       0.991   0.600   0.869  1.00  0.00    -0.350 N 
ATOM     17  H   UNL     1       0.322   0.332   0.198  1.00  0.00     0.163 HD
BRANCH  16  18
ATOM     18  C   UNL     1       2.037   1.370   0.424  1.00  0.00     0.149 A 
ATOM     19  C   UNL     1       3.340   1.269   0.881  1.00  0.00     0.051 A 
ATOM     20  N   UNL     1       1.712   2.335  -0.467  1.00  0.00    -0.132 NA
ATOM     21  C   UNL     1       4.259   2.268   0.560  1.00  0.00     0.040 A 
ATOM     22  N   UNL     1       2.610   3.311  -0.817  1.00  0.00    -0.143 NA
ATOM     23  C   UNL     1       3.842   3.295  -0.266  1.00  0.00     0.150 A 
BRANCH  23  24
ATOM     24  C   UNL     1       4.699   4.488  -0.509  1.00  0.00     0.269 C 
ATOM     25  N   UNL     1       4.214   5.412  -1.395  1.00  0.00    -0.364 N 
ATOM     26  O   UNL     1       5.765   4.653   0.071  1.00  0.00    -0.268 OA
ATOM     27  H   UNL     1       3.354   5.255  -1.849  1.00  0.00     0.160 HD
ATOM     28  H   UNL     1       4.724   6.234  -1.579  1.00  0.00     0.160 HD
ENDBRANCH  23  24
ENDBRANCH  16  18
ENDBRANCH   8  16
ENDBRANCH   6   8
ENDBRANCH   5   6
ENDBRANCH   4   5
ENDBRANCH   3   4
ENDBRANCH   2   3
ENDBRANCH   1   2
BRANCH   1  29
ATOM     29  C   UNL     1      -1.600  -1.034  -0.773  1.00  0.00     0.188 C 
BRANCH  29  30
ATOM     30  O   UNL     1      -2.296   0.093  -1.246  1.00  0.00    -0.376 OA
BRANCH  30  31
ATOM     31  C   UNL     1      -2.817   0.041  -2.563  1.00  0.00     0.202 C 
BRANCH  31  32
ATOM     32  C   UNL     1      -3.527  -1.223  -3.091  1.00  0.00     0.261 C 
BRANCH  32  33
ATOM     33  O   UNL     1      -2.994  -2.505  -2.707  1.00  0.00    -0.460 OA
BRANCH  33  34
ATOM     34  C   UNL     1      -1.904  -2.960  -3.366  1.00  0.00     0.338 C 
ATOM     35  O   UNL     1      -1.312  -2.398  -4.276  1.00  0.00    -0.246 OA
BRANCH  34  36
ATOM     36  C   UNL     1      -1.394  -4.156  -2.647  1.00  0.00     0.060 A 
ATOM     37  C   UNL     1      -0.091  -4.132  -2.132  1.00  0.00     0.016 A 
ATOM     38  C   UNL     1      -2.193  -5.288  -2.465  1.00  0.00     0.016 A 
ATOM     39  C   UNL     1       0.419  -5.244  -1.454  1.00  0.00     0.010 A 
ATOM     40  C   UNL     1      -1.673  -6.410  -1.802  1.00  0.00     0.010 A 
ATOM     41  C   UNL     1      -0.357  -6.403  -1.306  1.00  0.00    -0.014 A 
BRANCH  41  42
ATOM     42  C   UNL     1       0.267  -7.649  -0.783  1.00  0.00     0.031 A 
ATOM     43  C   UNL     1       0.887  -8.610  -1.762  1.00  0.00     0.074 A 
ATOM     44  C   UNL     1       0.321  -7.918   0.535  1.00  0.00     0.049 A 
ATOM     45  N   UNL     1       1.481  -9.756  -1.539  1.00  0.00    -0.248 NA
ATOM     46  C   UNL     1       0.822  -8.230  -3.182  1.00  0.00     0.031 C 
ATOM     47  C   UNL     1      -0.219  -7.072   1.595  1.00  0.00     0.029 A 
ATOM     48  N   UNL     1       0.873  -8.984   1.207  1.00  0.00    -0.354 N 
ATOM     49  C   UNL     1       1.849 -10.239  -2.789  1.00  0.00     0.074 A 
ATOM     50  C   UNL     1       1.400  -9.269  -3.765  1.00  0.00     0.031 C 
ATOM     51  C   UNL     1       0.061  -7.630   2.786  1.00  0.00     0.029 A 
ATOM     52  C   UNL     1       0.744  -8.906   2.574  1.00  0.00     0.049 A 
ATOM     53  H   UNL     1       1.318  -9.735   0.751  1.00  0.00     0.167 HD
ATOM     54  C   UNL     1       2.495 -11.387  -3.100  1.00  0.00     0.031 A 
ATOM     55  C   UNL     1       1.111  -9.774   3.540  1.00  0.00     0.031 A 
ATOM     56  C   UNL     1       2.915 -12.374  -2.141  1.00  0.00     0.049 A 
ATOM     57  C   UNL     1       1.762 -11.081   3.156  1.00  0.00     0.074 A 
ATOM     58  C   UNL     1       3.564 -13.576  -2.370  1.00  0.00     0.029 A 
ATOM     59  N   UNL     1       2.719 -12.281  -0.773  1.00  0.00    -0.354 N 
ATOM     60  N   UNL     1       2.119 -11.516   1.972  1.00  0.00    -0.248 NA
ATOM     61  C   UNL     1       2.052 -12.023   4.250  1.00  0.00     0.031 C 
ATOM     62  C   UNL     1       3.704 -14.239  -1.147  1.00  0.00     0.029 A 
ATOM     63  C   UNL     1       3.211 -13.416  -0.148  1.00  0.00     0.049 A 
ATOM     64  H   UNL     1       2.294 -11.521  -0.313  1.00  0.00     0.167 HD
ATOM     65  C   UNL     1       2.690 -12.768   2.181  1.00  0.00     0.074 A 
ATOM     66  C   UNL     1       2.665 -13.007   3.608  1.00  0.00     0.031 C 
ATOM     67  C   UNL     1       3.182 -13.646   1.273  1.00  0.00     0.031 A 
BRANCH  54  68
ATOM     68  C   UNL     1       2.748 -11.664  -4.556  1.00  0.00    -0.014 A 
ATOM     69  C   UNL     1       3.701 -10.935  -5.284  1.00  0.00     0.009 A 
ATOM     70  C   UNL     1       2.051 -12.700  -5.197  1.00  0.00     0.009 A 
ATOM     71  C   UNL     1       3.930 -11.220  -6.632  1.00  0.00     0.001 A 
ATOM     72  C   UNL     1       2.303 -13.003  -6.536  1.00  0.00     0.001 A 
ATOM     73  C   UNL     1       3.237 -12.258  -7.254  1.00  0.00     0.000 A 
ENDBRANCH  54  68
BRANCH  55  74
ATOM     74  C   UNL     1       0.830  -9.483   4.976  1.00  0.00    -0.014 A 
ATOM     75  C   UNL     1       1.878  -9.342   5.901  1.00  0.00     0.009 A 
ATOM     76  C   UNL     1      -0.492  -9.419   5.444  1.00  0.00     0.009 A 
ATOM     77  C   UNL     1       1.608  -9.186   7.264  1.00  0.00     0.001 A 
ATOM     78  C   UNL     1      -0.759  -9.222   6.801  1.00  0.00     0.001 A 
ATOM     79  C   UNL     1       0.290  -9.122   7.712  1.00  0.00     0.000 A 
ENDBRANCH  55  74
BRANCH  67  80
ATOM     80  C   UNL     1       3.770 -14.930   1.797  1.00  0.00    -0.014 A 
ATOM     81  C   UNL     1       2.965 -15.928   2.371  1.00  0.00     0.009 A 
ATOM     82  C   UNL     1       5.152 -15.157   1.689  1.00  0.00     0.009 A 
ATOM     83  C   UNL     1       3.538 -17.103   2.865  1.00  0.00     0.001 A 
ATOM     84  C   UNL     1       5.717 -16.347   2.151  1.00  0.00     0.001 A 
ATOM     85  C   UNL     1       4.911 -17.313   2.751  1.00  0.00     0.000 A 
ENDBRANCH  67  80
ENDBRANCH  41  42
ENDBRANCH  34  36
ENDBRANCH  33  34
ENDBRANCH  32  33
ENDBRANCH  31  32
ENDBRANCH  30  31
ENDBRANCH  29  30
ENDBRANCH   1  29
TORSDOF 21
