REMARK SMILES Cc1ccc([C@H](C)Nc2ccc(C(=O)OCCOCCOCCOC(=O)c3ccc(-c4c5nc(c(-c6ccccc6)c6ccc([nH]6)c(-c6ccccc6)c6nc(c(-c7ccccc7)c7ccc4[nH]7)C=C6)C=C5)cc3)cc2Cl)cc1F
REMARK SMILES IDX 19 1 18 2 17 3 16 4 15 5 13 6 14 7 12 8 9 9 10 10 76 11
REMARK SMILES IDX 11 12 75 13 77 14 8 15 6 17 7 18 5 19 1 20 2 21 3 22 79 23
REMARK SMILES IDX 4 24 78 25 80 26 20 27 21 28 22 29 23 30 24 31 25 32 26 33
REMARK SMILES IDX 27 34 28 35 74 36 29 37 73 38 30 39 31 40 32 41 67 42 33 43
REMARK SMILES IDX 72 44 66 45 68 46 34 47 71 48 65 49 64 50 35 52 57 53 42 54
REMARK SMILES IDX 56 55 43 56 46 57 55 58 69 59 44 60 45 61 54 63 70 64 47 65
REMARK SMILES IDX 36 66 37 67 41 68 38 69 40 70 39 71 58 72 59 73 63 74 60 75
REMARK SMILES IDX 62 76 61 77 48 78 49 79 53 80 50 81 52 82 51 83
REMARK H PARENT 8 16 68 51 46 62
REMARK Flexibility Score: inf
ROOT
ATOM      1  C   UNL     1      -7.291  -3.575   6.700  1.00  0.00     0.188 C 
ENDROOT
BRANCH   1   2
ATOM      2  O   UNL     1      -8.350  -3.113   7.524  1.00  0.00    -0.376 OA
BRANCH   2   3
ATOM      3  C   UNL     1      -9.461  -2.434   6.958  1.00  0.00     0.202 C 
BRANCH   3   4
ATOM      4  C   UNL     1      -9.282  -1.306   5.928  1.00  0.00     0.261 C 
BRANCH   4   5
ATOM      5  O   UNL     1      -8.323  -1.545   4.891  1.00  0.00    -0.460 OA
BRANCH   5   6
ATOM      6  C   UNL     1      -7.171  -0.838   4.983  1.00  0.00     0.338 C 
ATOM      7  O   UNL     1      -6.862  -0.032   5.848  1.00  0.00    -0.246 OA
BRANCH   6   8
ATOM      8  C   UNL     1      -6.222  -1.318   3.959  1.00  0.00     0.061 A 
ATOM      9  C   UNL     1      -4.363  -2.248   2.043  1.00  0.00     0.053 A 
ATOM     10  C   UNL     1      -3.997  -2.069   3.389  1.00  0.00     0.028 A 
ATOM     11  C   UNL     1      -5.701  -1.957   1.689  1.00  0.00     0.065 A 
ATOM     12  C   UNL     1      -4.907  -1.593   4.336  1.00  0.00     0.018 A 
ATOM     13  C   UNL     1      -6.627  -1.520   2.643  1.00  0.00     0.038 A 
ATOM     14  Cl  UNL     1      -6.339  -2.187   0.097  1.00  0.00    -0.082 Cl
BRANCH   9  15
ATOM     15  N   UNL     1      -3.360  -2.646   1.168  1.00  0.00    -0.377 N 
ATOM     16  H   UNL     1      -2.850  -3.461   1.383  1.00  0.00     0.161 HD
BRANCH  15  17
ATOM     17  C   UNL     1      -3.020  -1.917  -0.057  1.00  0.00     0.106 C 
ATOM     18  C   UNL     1      -1.844  -0.983   0.277  1.00  0.00     0.036 C 
BRANCH  17  19
ATOM     19  C   UNL     1      -2.813  -2.917  -1.194  1.00  0.00    -0.023 A 
ATOM     20  C   UNL     1      -2.833  -5.488  -4.692  1.00  0.00     0.047 C 
ATOM     21  C   UNL     1      -2.776  -4.627  -3.470  1.00  0.00    -0.015 A 
ATOM     22  C   UNL     1      -1.835  -3.603  -3.330  1.00  0.00     0.007 A 
ATOM     23  C   UNL     1      -3.710  -4.806  -2.455  1.00  0.00     0.126 A 
ATOM     24  C   UNL     1      -1.856  -2.757  -2.209  1.00  0.00     0.006 A 
ATOM     25  C   UNL     1      -3.723  -3.982  -1.336  1.00  0.00     0.045 A 
ATOM     26  F   UNL     1      -4.639  -5.767  -2.563  1.00  0.00    -0.207 F 
ENDBRANCH  17  19
ENDBRANCH  15  17
ENDBRANCH   9  15
ENDBRANCH   6   8
ENDBRANCH   5   6
ENDBRANCH   4   5
ENDBRANCH   3   4
ENDBRANCH   2   3
ENDBRANCH   1   2
BRANCH   1  27
ATOM     27  C   UNL     1      -7.590  -4.385   5.420  1.00  0.00     0.188 C 
BRANCH  27  28
ATOM     28  O   UNL     1      -8.955  -4.505   5.107  1.00  0.00    -0.376 OA
BRANCH  28  29
ATOM     29  C   UNL     1      -9.686  -5.634   5.551  1.00  0.00     0.202 C 
BRANCH  29  30
ATOM     30  C   UNL     1      -9.304  -6.542   6.741  1.00  0.00     0.261 C 
BRANCH  30  31
ATOM     31  O   UNL     1      -8.030  -6.359   7.366  1.00  0.00    -0.460 OA
BRANCH  31  32
ATOM     32  C   UNL     1      -7.045  -7.208   6.994  1.00  0.00     0.338 C 
ATOM     33  O   UNL     1      -7.099  -8.081   6.141  1.00  0.00    -0.246 OA
BRANCH  32  34
ATOM     34  C   UNL     1      -5.800  -6.807   7.677  1.00  0.00     0.060 A 
ATOM     35  C   UNL     1      -4.758  -6.255   6.919  1.00  0.00     0.016 A 
ATOM     36  C   UNL     1      -5.654  -6.994   9.052  1.00  0.00     0.016 A 
ATOM     37  C   UNL     1      -3.556  -5.905   7.535  1.00  0.00     0.010 A 
ATOM     38  C   UNL     1      -4.441  -6.662   9.664  1.00  0.00     0.010 A 
ATOM     39  C   UNL     1      -3.377  -6.141   8.904  1.00  0.00    -0.014 A 
BRANCH  39  40
ATOM     40  C   UNL     1      -2.031  -5.999   9.514  1.00  0.00     0.031 A 
ATOM     41  C   UNL     1      -1.202  -7.236   9.730  1.00  0.00     0.074 A 
ATOM     42  C   UNL     1      -1.546  -4.796   9.867  1.00  0.00     0.049 A 
ATOM     43  N   UNL     1      -0.030  -7.363  10.298  1.00  0.00    -0.248 NA
ATOM     44  C   UNL     1      -1.776  -8.500   9.239  1.00  0.00     0.031 C 
ATOM     45  C   UNL     1      -2.223  -3.516   9.671  1.00  0.00     0.029 A 
ATOM     46  N   UNL     1      -0.362  -4.461  10.479  1.00  0.00    -0.354 N 
ATOM     47  C   UNL     1       0.267  -8.719  10.246  1.00  0.00     0.074 A 
ATOM     48  C   UNL     1      -0.858  -9.376   9.617  1.00  0.00     0.031 C 
ATOM     49  C   UNL     1      -1.448  -2.534  10.163  1.00  0.00     0.029 A 
ATOM     50  C   UNL     1      -0.240  -3.119  10.744  1.00  0.00     0.049 A 
ATOM     51  H   UNL     1       0.333  -5.120  10.706  1.00  0.00     0.167 HD
ATOM     52  C   UNL     1       1.378  -9.361  10.680  1.00  0.00     0.031 A 
ATOM     53  C   UNL     1       0.722  -2.444  11.404  1.00  0.00     0.031 A 
ATOM     54  C   UNL     1       2.488  -8.713  11.326  1.00  0.00     0.049 A 
ATOM     55  C   UNL     1       1.905  -3.194  11.961  1.00  0.00     0.074 A 
ATOM     56  C   UNL     1       3.664  -9.277  11.788  1.00  0.00     0.029 A 
ATOM     57  N   UNL     1       2.554  -7.358  11.611  1.00  0.00    -0.354 N 
ATOM     58  N   UNL     1       2.191  -4.471  11.880  1.00  0.00    -0.248 NA
ATOM     59  C   UNL     1       2.905  -2.402  12.695  1.00  0.00     0.031 C 
ATOM     60  C   UNL     1       4.412  -8.274  12.414  1.00  0.00     0.029 A 
ATOM     61  C   UNL     1       3.736  -7.073  12.274  1.00  0.00     0.049 A 
ATOM     62  H   UNL     1       1.863  -6.697  11.379  1.00  0.00     0.167 HD
ATOM     63  C   UNL     1       3.415  -4.630  12.521  1.00  0.00     0.074 A 
ATOM     64  C   UNL     1       3.825  -3.316  12.971  1.00  0.00     0.031 C 
ATOM     65  C   UNL     1       4.136  -5.761  12.716  1.00  0.00     0.031 A 
BRANCH  52  66
ATOM     66  C   UNL     1       1.425 -10.855  10.509  1.00  0.00    -0.014 A 
ATOM     67  C   UNL     1       1.549 -11.444   9.241  1.00  0.00     0.009 A 
ATOM     68  C   UNL     1       1.375 -11.685  11.640  1.00  0.00     0.009 A 
ATOM     69  C   UNL     1       1.585 -12.835   9.107  1.00  0.00     0.001 A 
ATOM     70  C   UNL     1       1.444 -13.072  11.507  1.00  0.00     0.001 A 
ATOM     71  C   UNL     1       1.538 -13.646  10.240  1.00  0.00     0.000 A 
ENDBRANCH  52  66
BRANCH  53  72
ATOM     72  C   UNL     1       0.603  -0.974  11.603  1.00  0.00    -0.014 A 
ATOM     73  C   UNL     1       1.497  -0.091  10.977  1.00  0.00     0.009 A 
ATOM     74  C   UNL     1      -0.388  -0.447  12.446  1.00  0.00     0.009 A 
ATOM     75  C   UNL     1       1.417   1.284  11.213  1.00  0.00     0.001 A 
ATOM     76  C   UNL     1      -0.486   0.930  12.655  1.00  0.00     0.001 A 
ATOM     77  C   UNL     1       0.423   1.793  12.047  1.00  0.00     0.000 A 
ENDBRANCH  53  72
BRANCH  65  78
ATOM     78  C   UNL     1       5.468  -5.628  13.404  1.00  0.00    -0.014 A 
ATOM     79  C   UNL     1       5.564  -5.322  14.771  1.00  0.00     0.009 A 
ATOM     80  C   UNL     1       6.648  -5.858  12.677  1.00  0.00     0.009 A 
ATOM     81  C   UNL     1       6.815  -5.213  15.384  1.00  0.00     0.001 A 
ATOM     82  C   UNL     1       7.894  -5.784  13.301  1.00  0.00     0.001 A 
ATOM     83  C   UNL     1       7.977  -5.450  14.651  1.00  0.00     0.000 A 
ENDBRANCH  65  78
ENDBRANCH  39  40
ENDBRANCH  32  34
ENDBRANCH  31  32
ENDBRANCH  30  31
ENDBRANCH  29  30
ENDBRANCH  28  29
ENDBRANCH  27  28
ENDBRANCH   1  27
TORSDOF 20
