REMARK SMILES O=C(OCCOCCOCCOC(=O)[C@H]1CCCCN1c1cc(-c2ccccc2)nc(-c2cccc(Cl)c2)n1)c1ccc(-c2c3nc(c(-c4ccccc4)c4ccc([nH]4)c(-c4ccccc4)c4nc(c(-c5ccccc5)c5ccc2[nH]5)C=C4)C=C3)cc1
REMARK SMILES IDX 7 1 6 2 5 3 4 4 3 5 2 6 1 7 40 8 41 9 87 10 42 11 86 12
REMARK SMILES IDX 43 13 44 14 45 15 80 16 46 17 85 18 79 19 81 20 47 21 84 22
REMARK SMILES IDX 78 23 77 24 48 26 70 27 55 28 69 29 56 30 59 31 68 32 82 33
REMARK SMILES IDX 57 34 58 35 67 37 83 38 60 39 49 40 50 41 54 42 51 43 53 44
REMARK SMILES IDX 52 45 71 46 72 47 76 48 73 49 75 50 74 51 61 52 62 53 66 54
REMARK SMILES IDX 63 55 65 56 64 57 8 58 9 59 10 60 11 61 12 62 13 63 14 64
REMARK SMILES IDX 15 65 16 66 20 67 17 68 19 69 18 70 21 71 22 72 39 73 23 74
REMARK SMILES IDX 31 75 30 76 24 77 25 78 29 79 26 80 28 81 27 82 32 83 33 84
REMARK SMILES IDX 38 85 34 86 36 87 35 88 37 89
REMARK H PARENT 81 25 59 36
REMARK Flexibility Score: inf
ROOT
ATOM      1  C   UNL     1       4.833  -1.005  -3.004  1.00  0.00     0.188 C 
ENDROOT
BRANCH   1   2
ATOM      2  O   UNL     1       3.891  -1.412  -4.009  1.00  0.00    -0.376 OA
BRANCH   2   3
ATOM      3  C   UNL     1       3.916  -0.589  -5.180  1.00  0.00     0.202 C 
BRANCH   3   4
ATOM      4  C   UNL     1       3.358   0.837  -5.030  1.00  0.00     0.261 C 
BRANCH   4   5
ATOM      5  O   UNL     1       3.389   1.353  -3.691  1.00  0.00    -0.460 OA
BRANCH   5   6
ATOM      6  C   UNL     1       2.483   1.245  -2.690  1.00  0.00     0.338 C 
ATOM      7  O   UNL     1       2.713   1.853  -1.645  1.00  0.00    -0.246 OA
BRANCH   6   8
ATOM      8  C   UNL     1       1.235   0.413  -2.743  1.00  0.00     0.060 A 
ATOM      9  C   UNL     1       0.884  -0.470  -3.762  1.00  0.00     0.016 A 
ATOM     10  C   UNL     1       0.354   0.517  -1.644  1.00  0.00     0.016 A 
ATOM     11  C   UNL     1      -0.308  -1.187  -3.719  1.00  0.00     0.010 A 
ATOM     12  C   UNL     1      -0.841  -0.211  -1.584  1.00  0.00     0.010 A 
ATOM     13  C   UNL     1      -1.180  -1.056  -2.638  1.00  0.00    -0.014 A 
BRANCH  13  14
ATOM     14  C   UNL     1      -2.498  -1.706  -2.761  1.00  0.00     0.031 A 
ATOM     15  C   UNL     1      -3.552  -0.979  -3.526  1.00  0.00     0.074 A 
ATOM     16  C   UNL     1      -2.671  -2.975  -2.353  1.00  0.00     0.049 A 
ATOM     17  N   UNL     1      -4.740  -1.385  -3.875  1.00  0.00    -0.248 NA
ATOM     18  C   UNL     1      -3.230   0.398  -3.940  1.00  0.00     0.031 C 
ATOM     19  C   UNL     1      -1.683  -3.739  -1.609  1.00  0.00     0.029 A 
ATOM     20  N   UNL     1      -3.686  -3.870  -2.565  1.00  0.00    -0.354 N 
ATOM     21  C   UNL     1      -5.337  -0.290  -4.480  1.00  0.00     0.074 A 
ATOM     22  C   UNL     1      -4.362   0.775  -4.512  1.00  0.00     0.031 C 
ATOM     23  C   UNL     1      -2.057  -5.026  -1.560  1.00  0.00     0.029 A 
ATOM     24  C   UNL     1      -3.373  -5.155  -2.172  1.00  0.00     0.049 A 
ATOM     25  H   UNL     1      -4.553  -3.620  -2.958  1.00  0.00     0.167 HD
ATOM     26  C   UNL     1      -6.616  -0.177  -4.901  1.00  0.00     0.031 A 
ATOM     27  C   UNL     1      -4.092  -6.290  -2.289  1.00  0.00     0.031 A 
ATOM     28  C   UNL     1      -7.569  -1.247  -4.797  1.00  0.00     0.049 A 
ATOM     29  C   UNL     1      -5.503  -6.145  -2.801  1.00  0.00     0.074 A 
ATOM     30  C   UNL     1      -8.918  -1.238  -5.094  1.00  0.00     0.029 A 
ATOM     31  N   UNL     1      -7.262  -2.525  -4.345  1.00  0.00    -0.354 N 
ATOM     32  N   UNL     1      -6.090  -5.089  -3.316  1.00  0.00    -0.248 NA
ATOM     33  C   UNL     1      -6.376  -7.320  -2.678  1.00  0.00     0.031 C 
ATOM     34  C   UNL     1      -9.437  -2.496  -4.770  1.00  0.00     0.029 A 
ATOM     35  C   UNL     1      -8.399  -3.309  -4.338  1.00  0.00     0.049 A 
ATOM     36  H   UNL     1      -6.366  -2.826  -4.070  1.00  0.00     0.167 HD
ATOM     37  C   UNL     1      -7.409  -5.455  -3.534  1.00  0.00     0.074 A 
ATOM     38  C   UNL     1      -7.517  -6.855  -3.167  1.00  0.00     0.031 C 
ATOM     39  C   UNL     1      -8.453  -4.698  -3.954  1.00  0.00     0.031 A 
BRANCH  26  40
ATOM     40  C   UNL     1      -7.059   1.185  -5.346  1.00  0.00    -0.014 A 
ATOM     41  C   UNL     1      -6.625   1.755  -6.552  1.00  0.00     0.009 A 
ATOM     42  C   UNL     1      -7.879   1.942  -4.493  1.00  0.00     0.009 A 
ATOM     43  C   UNL     1      -6.970   3.070  -6.874  1.00  0.00     0.001 A 
ATOM     44  C   UNL     1      -8.246   3.244  -4.830  1.00  0.00     0.001 A 
ATOM     45  C   UNL     1      -7.781   3.812  -6.014  1.00  0.00     0.000 A 
ENDBRANCH  26  40
BRANCH  27  46
ATOM     46  C   UNL     1      -3.560  -7.614  -1.847  1.00  0.00    -0.014 A 
ATOM     47  C   UNL     1      -3.486  -8.696  -2.742  1.00  0.00     0.009 A 
ATOM     48  C   UNL     1      -3.154  -7.828  -0.519  1.00  0.00     0.009 A 
ATOM     49  C   UNL     1      -3.040  -9.953  -2.314  1.00  0.00     0.001 A 
ATOM     50  C   UNL     1      -2.665  -9.070  -0.104  1.00  0.00     0.001 A 
ATOM     51  C   UNL     1      -2.620 -10.136  -0.999  1.00  0.00     0.000 A 
ENDBRANCH  27  46
BRANCH  39  52
ATOM     52  C   UNL     1      -9.790  -5.376  -4.031  1.00  0.00    -0.014 A 
ATOM     53  C   UNL     1     -10.507  -5.691  -2.866  1.00  0.00     0.009 A 
ATOM     54  C   UNL     1     -10.363  -5.639  -5.283  1.00  0.00     0.009 A 
ATOM     55  C   UNL     1     -11.767  -6.284  -2.957  1.00  0.00     0.001 A 
ATOM     56  C   UNL     1     -11.635  -6.203  -5.370  1.00  0.00     0.001 A 
ATOM     57  C   UNL     1     -12.332  -6.532  -4.208  1.00  0.00     0.000 A 
ENDBRANCH  39  52
ENDBRANCH  13  14
ENDBRANCH   6   8
ENDBRANCH   5   6
ENDBRANCH   4   5
ENDBRANCH   3   4
ENDBRANCH   2   3
ENDBRANCH   1   2
BRANCH   1  58
ATOM     58  C   UNL     1       5.589  -2.175  -2.370  1.00  0.00     0.188 C 
BRANCH  58  59
ATOM     59  O   UNL     1       6.595  -2.799  -3.168  1.00  0.00    -0.376 OA
BRANCH  59  60
ATOM     60  C   UNL     1       6.221  -3.287  -4.450  1.00  0.00     0.202 C 
BRANCH  60  61
ATOM     61  C   UNL     1       5.360  -4.550  -4.482  1.00  0.00     0.261 C 
BRANCH  61  62
ATOM     62  O   UNL     1       4.180  -4.441  -3.682  1.00  0.00    -0.462 OA
BRANCH  62  63
ATOM     63  C   UNL     1       4.135  -5.202  -2.549  1.00  0.00     0.328 C 
ATOM     64  O   UNL     1       5.021  -5.960  -2.189  1.00  0.00    -0.250 OA
BRANCH  63  65
ATOM     65  C   UNL     1       2.794  -5.029  -1.797  1.00  0.00     0.193 C 
ATOM     66  C   UNL     1       1.828  -4.018  -2.407  1.00  0.00     0.037 C 
ATOM     67  N   UNL     1       2.066  -6.302  -1.734  1.00  0.00    -0.343 N 
ATOM     68  C   UNL     1       1.193  -4.494  -3.720  1.00  0.00     0.005 C 
ATOM     69  C   UNL     1       1.720  -6.913  -3.003  1.00  0.00     0.119 C 
ATOM     70  C   UNL     1       0.775  -5.969  -3.745  1.00  0.00     0.022 C 
BRANCH  67  71
ATOM     71  C   UNL     1       2.244  -7.045  -0.593  1.00  0.00     0.134 A 
ATOM     72  C   UNL     1       3.129  -8.094  -0.561  1.00  0.00     0.076 A 
ATOM     73  N   UNL     1       1.559  -6.670   0.498  1.00  0.00    -0.211 NA
ATOM     74  C   UNL     1       3.298  -8.741   0.645  1.00  0.00     0.076 A 
ATOM     75  C   UNL     1       1.765  -7.370   1.628  1.00  0.00     0.162 A 
ATOM     76  N   UNL     1       2.616  -8.402   1.755  1.00  0.00    -0.228 NA
BRANCH  74  77
ATOM     77  C   UNL     1       4.247  -9.849   0.757  1.00  0.00     0.000 A 
ATOM     78  C   UNL     1       3.803 -11.146   1.050  1.00  0.00     0.010 A 
ATOM     79  C   UNL     1       5.614  -9.651   0.494  1.00  0.00     0.010 A 
ATOM     80  C   UNL     1       4.694 -12.221   1.046  1.00  0.00     0.001 A 
ATOM     81  C   UNL     1       6.506 -10.723   0.500  1.00  0.00     0.001 A 
ATOM     82  C   UNL     1       6.044 -12.009   0.767  1.00  0.00     0.000 A 
ENDBRANCH  74  77
BRANCH  75  83
ATOM     83  C   UNL     1       1.001  -6.969   2.815  1.00  0.00     0.021 A 
ATOM     84  C   UNL     1      -0.389  -6.758   2.748  1.00  0.00     0.012 A 
ATOM     85  C   UNL     1       1.637  -6.778   4.054  1.00  0.00     0.032 A 
ATOM     86  C   UNL     1      -1.123  -6.387   3.879  1.00  0.00     0.002 A 
ATOM     87  C   UNL     1       0.907  -6.386   5.176  1.00  0.00     0.041 A 
ATOM     88  C   UNL     1      -0.471  -6.197   5.096  1.00  0.00     0.020 A 
ATOM     89  Cl  UNL     1       1.715  -6.124   6.673  1.00  0.00    -0.084 Cl
ENDBRANCH  75  83
ENDBRANCH  67  71
ENDBRANCH  63  65
ENDBRANCH  62  63
ENDBRANCH  61  62
ENDBRANCH  60  61
ENDBRANCH  59  60
ENDBRANCH  58  59
ENDBRANCH   1  58
TORSDOF 20
