REMARK SMILES CSc1nc(N)cc(Nc2cccc(C(=O)OCCOCCOCCOC(=O)c3ccc(-c4c5nc(c(-c6ccccc6)c6ccc([nH]6)c(-c6ccccc6)c6nc(c(-c7ccccc7)c7ccc4[nH]7)C=C6)C=C5)cc3)c2)n1
REMARK SMILES IDX 21 1 20 2 19 3 18 4 17 5 15 6 16 7 14 8 10 9 11 10 77 11
REMARK SMILES IDX 12 12 13 13 9 14 8 16 3 17 4 18 78 19 5 20 7 21 2 22 1 23
REMARK SMILES IDX 6 24 22 27 23 28 24 29 25 30 26 31 27 32 28 33 29 34 30 35
REMARK SMILES IDX 76 36 31 37 75 38 32 39 33 40 34 41 69 42 35 43 74 44 68 45
REMARK SMILES IDX 70 46 36 47 73 48 67 49 66 50 37 52 59 53 44 54 58 55 45 56
REMARK SMILES IDX 48 57 57 58 71 59 46 60 47 61 56 63 72 64 49 65 38 66 39 67
REMARK SMILES IDX 43 68 40 69 42 70 41 71 60 72 61 73 65 74 62 75 64 76 63 77
REMARK SMILES IDX 50 78 51 79 55 80 52 81 54 82 53 83
REMARK H PARENT 9 15 6 25 6 26 70 51 48 62
REMARK Flexibility Score: inf
ROOT
ATOM      1  C   UNL     1      -0.472   7.135   6.390  1.00  0.00     0.188 C 
ENDROOT
BRANCH   1   2
ATOM      2  O   UNL     1      -1.569   7.711   5.707  1.00  0.00    -0.376 OA
BRANCH   2   3
ATOM      3  C   UNL     1      -2.319   6.939   4.782  1.00  0.00     0.202 C 
BRANCH   3   4
ATOM      4  C   UNL     1      -1.641   6.035   3.743  1.00  0.00     0.261 C 
BRANCH   4   5
ATOM      5  O   UNL     1      -0.626   5.178   4.276  1.00  0.00    -0.460 OA
BRANCH   5   6
ATOM      6  C   UNL     1       0.634   5.410   3.826  1.00  0.00     0.338 C 
ATOM      7  O   UNL     1       0.979   6.231   2.995  1.00  0.00    -0.246 OA
BRANCH   6   8
ATOM      8  C   UNL     1       1.593   4.663   4.670  1.00  0.00     0.062 A 
ATOM      9  C   UNL     1       2.279   2.625   5.805  1.00  0.00     0.040 A 
ATOM     10  C   UNL     1       3.403   3.304   6.295  1.00  0.00     0.026 A 
ATOM     11  C   UNL     1       1.350   3.340   5.036  1.00  0.00     0.041 A 
ATOM     12  C   UNL     1       3.631   4.643   5.962  1.00  0.00     0.003 A 
ATOM     13  C   UNL     1       2.741   5.315   5.125  1.00  0.00     0.016 A 
BRANCH   9  14
ATOM     14  N   UNL     1       2.178   1.225   5.959  1.00  0.00    -0.340 N 
ATOM     15  H   UNL     1       2.453   0.845   6.824  1.00  0.00     0.168 HD
BRANCH  14  16
ATOM     16  C   UNL     1       1.715   0.328   4.975  1.00  0.00     0.137 A 
ATOM     17  C   UNL     1       0.875  -0.033   2.867  1.00  0.00     0.191 A 
ATOM     18  N   UNL     1       0.719  -1.346   3.055  1.00  0.00    -0.206 NA
ATOM     19  N   UNL     1       1.387   0.805   3.767  1.00  0.00    -0.205 NA
ATOM     20  C   UNL     1       1.077  -1.814   4.255  1.00  0.00     0.130 A 
ATOM     21  C   UNL     1       1.552  -1.007   5.270  1.00  0.00     0.093 A 
BRANCH  17  22
ATOM     22  S   UNL     1       0.253   0.718   1.387  1.00  0.00    -0.090 SA
ATOM     23  C   UNL     1       1.123  -0.285   0.172  1.00  0.00     0.094 C 
ENDBRANCH  17  22
BRANCH  20  24
ATOM     24  N   UNL     1       0.872  -3.164   4.467  1.00  0.00    -0.383 N 
ATOM     25  H   UNL     1       0.533  -3.732   3.737  1.00  0.00     0.158 HD
ATOM     26  H   UNL     1       1.064  -3.559   5.348  1.00  0.00     0.158 HD
ENDBRANCH  20  24
ENDBRANCH  14  16
ENDBRANCH   9  14
ENDBRANCH   6   8
ENDBRANCH   5   6
ENDBRANCH   4   5
ENDBRANCH   3   4
ENDBRANCH   2   3
ENDBRANCH   1   2
BRANCH   1  27
ATOM     27  C   UNL     1      -0.638   5.843   7.218  1.00  0.00     0.188 C 
BRANCH  27  28
ATOM     28  O   UNL     1      -1.883   5.188   7.263  1.00  0.00    -0.376 OA
BRANCH  28  29
ATOM     29  C   UNL     1      -2.983   5.754   7.949  1.00  0.00     0.202 C 
BRANCH  29  30
ATOM     30  C   UNL     1      -2.888   6.814   9.059  1.00  0.00     0.261 C 
BRANCH  30  31
ATOM     31  O   UNL     1      -1.762   7.694   9.039  1.00  0.00    -0.460 OA
BRANCH  31  32
ATOM     32  C   UNL     1      -0.865   7.502  10.039  1.00  0.00     0.338 C 
ATOM     33  O   UNL     1      -0.901   6.665  10.922  1.00  0.00    -0.246 OA
BRANCH  32  34
ATOM     34  C   UNL     1       0.297   8.379   9.815  1.00  0.00     0.060 A 
ATOM     35  C   UNL     1       1.536   7.790   9.527  1.00  0.00     0.016 A 
ATOM     36  C   UNL     1       0.176   9.762   9.941  1.00  0.00     0.016 A 
ATOM     37  C   UNL     1       2.670   8.588   9.387  1.00  0.00     0.010 A 
ATOM     38  C   UNL     1       1.318  10.559   9.822  1.00  0.00     0.010 A 
ATOM     39  C   UNL     1       2.573   9.973   9.574  1.00  0.00    -0.014 A 
BRANCH  39  40
ATOM     40  C   UNL     1       3.804  10.792   9.683  1.00  0.00     0.031 A 
ATOM     41  C   UNL     1       4.321  11.137  11.052  1.00  0.00     0.074 A 
ATOM     42  C   UNL     1       4.457  11.219   8.589  1.00  0.00     0.049 A 
ATOM     43  N   UNL     1       5.341  11.882  11.391  1.00  0.00    -0.248 NA
ATOM     44  C   UNL     1       3.584  10.565  12.191  1.00  0.00     0.031 C 
ATOM     45  C   UNL     1       4.088  10.916   7.208  1.00  0.00     0.029 A 
ATOM     46  N   UNL     1       5.571  12.014   8.476  1.00  0.00    -0.354 N 
ATOM     47  C   UNL     1       5.364  11.877  12.780  1.00  0.00     0.074 A 
ATOM     48  C   UNL     1       4.240  11.079  13.221  1.00  0.00     0.031 C 
ATOM     49  C   UNL     1       4.955  11.529   6.383  1.00  0.00     0.029 A 
ATOM     50  C   UNL     1       5.915  12.294   7.177  1.00  0.00     0.049 A 
ATOM     51  H   UNL     1       6.074  12.350   9.252  1.00  0.00     0.167 HD
ATOM     52  C   UNL     1       6.241  12.481  13.616  1.00  0.00     0.031 A 
ATOM     53  C   UNL     1       6.878  13.098   6.687  1.00  0.00     0.031 A 
ATOM     54  C   UNL     1       7.345  13.295  13.182  1.00  0.00     0.049 A 
ATOM     55  C   UNL     1       7.787  13.833   7.637  1.00  0.00     0.074 A 
ATOM     56  C   UNL     1       8.297  13.939  13.952  1.00  0.00     0.029 A 
ATOM     57  N   UNL     1       7.635  13.587  11.858  1.00  0.00    -0.354 N 
ATOM     58  N   UNL     1       7.819  13.799   8.948  1.00  0.00    -0.248 NA
ATOM     59  C   UNL     1       8.801  14.713   7.037  1.00  0.00     0.031 C 
ATOM     60  C   UNL     1       9.127  14.672  13.098  1.00  0.00     0.029 A 
ATOM     61  C   UNL     1       8.734  14.428  11.791  1.00  0.00     0.049 A 
ATOM     62  H   UNL     1       7.135  13.248  11.081  1.00  0.00     0.167 HD
ATOM     63  C   UNL     1       8.871  14.625   9.326  1.00  0.00     0.074 A 
ATOM     64  C   UNL     1       9.461  15.136   8.106  1.00  0.00     0.031 C 
ATOM     65  C   UNL     1       9.312  14.930  10.571  1.00  0.00     0.031 A 
BRANCH  52  66
ATOM     66  C   UNL     1       6.009  12.316  15.092  1.00  0.00    -0.014 A 
ATOM     67  C   UNL     1       6.216  11.084  15.733  1.00  0.00     0.009 A 
ATOM     68  C   UNL     1       5.594  13.417  15.857  1.00  0.00     0.009 A 
ATOM     69  C   UNL     1       5.974  10.949  17.102  1.00  0.00     0.001 A 
ATOM     70  C   UNL     1       5.382  13.287  17.231  1.00  0.00     0.001 A 
ATOM     71  C   UNL     1       5.561  12.052  17.850  1.00  0.00     0.000 A 
ENDBRANCH  52  66
BRANCH  53  72
ATOM     72  C   UNL     1       7.026  13.274   5.218  1.00  0.00    -0.014 A 
ATOM     73  C   UNL     1       8.149  12.770   4.545  1.00  0.00     0.009 A 
ATOM     74  C   UNL     1       6.051  13.968   4.483  1.00  0.00     0.009 A 
ATOM     75  C   UNL     1       8.305  12.978   3.172  1.00  0.00     0.001 A 
ATOM     76  C   UNL     1       6.195  14.148   3.106  1.00  0.00     0.001 A 
ATOM     77  C   UNL     1       7.326  13.662   2.453  1.00  0.00     0.000 A 
ENDBRANCH  53  72
BRANCH  65  78
ATOM     78  C   UNL     1      10.517  15.824  10.681  1.00  0.00    -0.014 A 
ATOM     79  C   UNL     1      10.447  17.193  10.380  1.00  0.00     0.009 A 
ATOM     80  C   UNL     1      11.733  15.292  11.141  1.00  0.00     0.009 A 
ATOM     81  C   UNL     1      11.579  18.002  10.504  1.00  0.00     0.001 A 
ATOM     82  C   UNL     1      12.854  16.110  11.294  1.00  0.00     0.001 A 
ATOM     83  C   UNL     1      12.779  17.462  10.966  1.00  0.00     0.000 A 
ENDBRANCH  65  78
ENDBRANCH  39  40
ENDBRANCH  32  34
ENDBRANCH  31  32
ENDBRANCH  30  31
ENDBRANCH  29  30
ENDBRANCH  28  29
ENDBRANCH  27  28
ENDBRANCH   1  27
TORSDOF 21
