REMARK SMILES C[C@@H]1CCc2nc(NC(=O)[C@H]3CC=CC[C@@H]3C(=O)OCCOCCOCCOC(=O)c3ccc(-c4c5nc(c(-c6ccccc6)c6ccc([nH]6)c(-c6ccccc6)c6nc(c(-c7ccccc7)c7ccc4[nH]7)C=C6)C=C5)cc3)sc2C1
REMARK SMILES IDX 23 1 22 2 21 3 20 4 19 5 17 6 18 7 16 8 11 9 12 10 13 11
REMARK SMILES IDX 15 12 14 13 9 14 8 15 10 17 7 18 1 19 2 20 3 21 81 22 4 23
REMARK SMILES IDX 80 24 5 25 79 26 6 27 24 28 25 29 26 30 27 31 28 32 29 33
REMARK SMILES IDX 30 34 31 35 32 36 78 37 33 38 77 39 34 40 35 41 36 42 71 43
REMARK SMILES IDX 37 44 76 45 70 46 72 47 38 48 75 49 69 50 68 51 39 53 61 54
REMARK SMILES IDX 46 55 60 56 47 57 50 58 59 59 73 60 48 61 49 62 58 64 74 65
REMARK SMILES IDX 51 66 40 67 41 68 45 69 42 70 44 71 43 72 62 73 63 74 67 75
REMARK SMILES IDX 64 76 66 77 65 78 52 79 53 80 57 81 54 82 56 83 55 84
REMARK H PARENT 8 16 72 52 50 63
REMARK Flexibility Score: inf
ROOT
ATOM      1  C   UNL     1      -7.611   1.916   1.990  1.00  0.00     0.188 C 
ENDROOT
BRANCH   1   2
ATOM      2  O   UNL     1      -7.848   1.769   3.381  1.00  0.00    -0.376 OA
BRANCH   2   3
ATOM      3  C   UNL     1      -6.759   2.169   4.217  1.00  0.00     0.202 C 
BRANCH   3   4
ATOM      4  C   UNL     1      -6.516   3.688   4.286  1.00  0.00     0.261 C 
BRANCH   4   5
ATOM      5  O   UNL     1      -6.238   4.299   3.014  1.00  0.00    -0.463 OA
BRANCH   5   6
ATOM      6  C   UNL     1      -5.039   3.986   2.460  1.00  0.00     0.310 C 
ATOM      7  O   UNL     1      -4.201   3.279   3.004  1.00  0.00    -0.252 OA
BRANCH   6   8
ATOM      8  C   UNL     1      -4.940   4.541   1.044  1.00  0.00     0.116 C 
ATOM      9  C   UNL     1      -4.065   3.594   0.193  1.00  0.00     0.097 C 
ATOM     10  C   UNL     1      -2.565   3.739   0.535  1.00  0.00     0.041 C 
ATOM     11  C   UNL     1      -2.141   5.090   1.028  1.00  0.00    -0.030 C 
ATOM     12  C   UNL     1      -4.462   5.989   1.072  1.00  0.00     0.043 C 
ATOM     13  C   UNL     1      -2.983   6.106   1.249  1.00  0.00    -0.030 C 
BRANCH   9  14
ATOM     14  C   UNL     1      -4.331   3.730  -1.314  1.00  0.00     0.230 C 
ATOM     15  N   UNL     1      -3.724   2.923  -2.236  1.00  0.00    -0.302 N 
ATOM     16  H   UNL     1      -3.857   3.197  -3.172  1.00  0.00     0.172 HD
ATOM     17  O   UNL     1      -5.079   4.615  -1.743  1.00  0.00    -0.274 OA
BRANCH  15  18
ATOM     18  C   UNL     1      -2.962   1.798  -2.072  1.00  0.00     0.189 A 
ATOM     19  C   UNL     1       1.152  -0.175   0.011  1.00  0.00     0.008 C 
ATOM     20  C   UNL     1       0.325  -1.274  -0.669  1.00  0.00    -0.009 C 
ATOM     21  C   UNL     1       0.545  -1.288  -2.204  1.00  0.00     0.010 C 
ATOM     22  C   UNL     1      -1.179  -1.141  -0.333  1.00  0.00     0.052 C 
ATOM     23  C   UNL     1       0.025  -0.025  -2.920  1.00  0.00     0.058 C 
ATOM     24  C   UNL     1      -1.802  -0.090  -1.182  1.00  0.00     0.030 A 
ATOM     25  C   UNL     1      -1.280   0.422  -2.352  1.00  0.00     0.057 A 
ATOM     26  S   UNL     1      -3.272   0.669  -0.826  1.00  0.00    -0.101 S 
ATOM     27  N   UNL     1      -1.994   1.472  -2.899  1.00  0.00    -0.225 NA
ENDBRANCH  15  18
ENDBRANCH   9  14
ENDBRANCH   6   8
ENDBRANCH   5   6
ENDBRANCH   4   5
ENDBRANCH   3   4
ENDBRANCH   2   3
ENDBRANCH   1   2
BRANCH   1  28
ATOM     28  C   UNL     1      -8.431   3.014   1.282  1.00  0.00     0.188 C 
BRANCH  28  29
ATOM     29  O   UNL     1      -9.146   4.011   2.001  1.00  0.00    -0.376 OA
BRANCH  29  30
ATOM     30  C   UNL     1      -9.919   3.702   3.154  1.00  0.00     0.202 C 
BRANCH  30  31
ATOM     31  C   UNL     1     -11.086   2.727   3.056  1.00  0.00     0.261 C 
BRANCH  31  32
ATOM     32  O   UNL     1     -10.696   1.482   2.501  1.00  0.00    -0.460 OA
BRANCH  32  33
ATOM     33  C   UNL     1     -10.962   1.372   1.185  1.00  0.00     0.338 C 
ATOM     34  O   UNL     1     -11.508   2.191   0.468  1.00  0.00    -0.246 OA
BRANCH  33  35
ATOM     35  C   UNL     1     -10.512   0.055   0.711  1.00  0.00     0.060 A 
ATOM     36  C   UNL     1     -10.739  -0.207  -0.640  1.00  0.00     0.016 A 
ATOM     37  C   UNL     1     -10.158  -0.954   1.619  1.00  0.00     0.016 A 
ATOM     38  C   UNL     1     -10.944  -1.511  -1.011  1.00  0.00     0.010 A 
ATOM     39  C   UNL     1     -10.355  -2.264   1.245  1.00  0.00     0.010 A 
ATOM     40  C   UNL     1     -10.889  -2.496  -0.020  1.00  0.00    -0.014 A 
BRANCH  40  41
ATOM     41  C   UNL     1     -11.632  -3.706  -0.295  1.00  0.00     0.031 A 
ATOM     42  C   UNL     1     -11.004  -4.657  -1.221  1.00  0.00     0.074 A 
ATOM     43  C   UNL     1     -12.837  -3.924   0.262  1.00  0.00     0.049 A 
ATOM     44  N   UNL     1     -11.435  -5.039  -2.376  1.00  0.00    -0.248 NA
ATOM     45  C   UNL     1      -9.694  -5.192  -0.836  1.00  0.00     0.031 C 
ATOM     46  C   UNL     1     -13.457  -3.209   1.384  1.00  0.00     0.029 A 
ATOM     47  N   UNL     1     -13.720  -4.926   0.001  1.00  0.00    -0.354 N 
ATOM     48  C   UNL     1     -10.528  -5.996  -2.806  1.00  0.00     0.074 A 
ATOM     49  C   UNL     1      -9.419  -5.967  -1.883  1.00  0.00     0.031 C 
ATOM     50  C   UNL     1     -14.487  -3.946   1.856  1.00  0.00     0.029 A 
ATOM     51  C   UNL     1     -14.671  -5.100   0.991  1.00  0.00     0.049 A 
ATOM     52  H   UNL     1     -13.686  -5.475  -0.815  1.00  0.00     0.167 HD
ATOM     53  C   UNL     1     -10.839  -6.907  -3.764  1.00  0.00     0.031 A 
ATOM     54  C   UNL     1     -15.485  -6.169   1.140  1.00  0.00     0.031 A 
ATOM     55  C   UNL     1     -11.971  -6.524  -4.560  1.00  0.00     0.049 A 
ATOM     56  C   UNL     1     -15.542  -6.892  -0.151  1.00  0.00     0.074 A 
ATOM     57  C   UNL     1     -12.262  -5.459  -5.390  1.00  0.00     0.029 A 
ATOM     58  N   UNL     1     -13.170  -7.147  -4.315  1.00  0.00    -0.354 N 
ATOM     59  N   UNL     1     -16.139  -6.435  -1.214  1.00  0.00    -0.248 NA
ATOM     60  C   UNL     1     -14.600  -7.976  -0.387  1.00  0.00     0.031 C 
ATOM     61  C   UNL     1     -13.661  -5.235  -5.240  1.00  0.00     0.029 A 
ATOM     62  C   UNL     1     -14.143  -6.179  -4.331  1.00  0.00     0.049 A 
ATOM     63  H   UNL     1     -13.307  -8.109  -4.157  1.00  0.00     0.167 HD
ATOM     64  C   UNL     1     -15.360  -6.870  -2.277  1.00  0.00     0.074 A 
ATOM     65  C   UNL     1     -14.511  -7.917  -1.719  1.00  0.00     0.031 C 
ATOM     66  C   UNL     1     -15.278  -6.149  -3.434  1.00  0.00     0.031 A 
BRANCH  53  67
ATOM     67  C   UNL     1     -10.310  -8.309  -3.720  1.00  0.00    -0.014 A 
ATOM     68  C   UNL     1     -10.453  -9.138  -4.841  1.00  0.00     0.009 A 
ATOM     69  C   UNL     1      -9.899  -8.919  -2.516  1.00  0.00     0.009 A 
ATOM     70  C   UNL     1     -10.213 -10.514  -4.753  1.00  0.00     0.001 A 
ATOM     71  C   UNL     1      -9.614 -10.282  -2.437  1.00  0.00     0.001 A 
ATOM     72  C   UNL     1      -9.790 -11.084  -3.554  1.00  0.00     0.000 A 
ENDBRANCH  53  67
BRANCH  54  73
ATOM     73  C   UNL     1     -15.978  -6.746   2.406  1.00  0.00    -0.014 A 
ATOM     74  C   UNL     1     -17.064  -7.631   2.420  1.00  0.00     0.009 A 
ATOM     75  C   UNL     1     -15.226  -6.610   3.590  1.00  0.00     0.009 A 
ATOM     76  C   UNL     1     -17.371  -8.369   3.570  1.00  0.00     0.001 A 
ATOM     77  C   UNL     1     -15.537  -7.338   4.740  1.00  0.00     0.001 A 
ATOM     78  C   UNL     1     -16.603  -8.229   4.725  1.00  0.00     0.000 A 
ENDBRANCH  54  73
BRANCH  66  79
ATOM     79  C   UNL     1     -16.260  -5.019  -3.626  1.00  0.00    -0.014 A 
ATOM     80  C   UNL     1     -16.317  -3.916  -2.755  1.00  0.00     0.009 A 
ATOM     81  C   UNL     1     -17.048  -4.990  -4.786  1.00  0.00     0.009 A 
ATOM     82  C   UNL     1     -17.166  -2.837  -3.016  1.00  0.00     0.001 A 
ATOM     83  C   UNL     1     -17.881  -3.901  -5.058  1.00  0.00     0.001 A 
ATOM     84  C   UNL     1     -17.945  -2.828  -4.170  1.00  0.00     0.000 A 
ENDBRANCH  66  79
ENDBRANCH  40  41
ENDBRANCH  33  35
ENDBRANCH  32  33
ENDBRANCH  31  32
ENDBRANCH  30  31
ENDBRANCH  29  30
ENDBRANCH  28  29
ENDBRANCH   1  28
TORSDOF 19
