REMARK SMILES COc1ccc(-c2ccc(CCC(=O)OCCOCCOCCOC(=O)c3ccc(-c4c5nc(c(-c6ccccc6)c6ccc([nH]6)c(-c6ccccc6)c6nc(c(-c7ccccc7)c7ccc4[nH]7)C=C6)C=C5)cc3)n2-c2ccc(C(C)=O)cc2)cc1
REMARK SMILES IDX 19 1 18 2 17 3 16 4 15 5 13 6 14 7 12 8 11 9 10 10 7 11 8 12
REMARK SMILES IDX 75 13 9 14 6 15 3 16 4 17 86 18 5 19 85 20 2 21 1 22 76 23
REMARK SMILES IDX 77 24 84 25 78 26 83 27 79 28 80 29 81 30 82 31 20 32 21 33
REMARK SMILES IDX 22 34 23 35 24 36 25 37 26 38 27 39 28 40 74 41 29 42 73 43
REMARK SMILES IDX 30 44 31 45 32 46 67 47 33 48 72 49 66 50 68 51 34 52 71 53
REMARK SMILES IDX 65 54 64 55 35 57 57 58 42 59 56 60 43 61 46 62 55 63 69 64
REMARK SMILES IDX 44 65 45 66 54 68 70 69 47 70 36 71 37 72 41 73 38 74 40 75
REMARK SMILES IDX 39 76 58 77 59 78 63 79 60 80 62 81 61 82 48 83 49 84 53 85
REMARK SMILES IDX 50 86 52 87 51 88
REMARK H PARENT 68 56 46 67
REMARK Flexibility Score: inf
ROOT
ATOM      1  C   UNL     1       3.660  -6.743 -10.404  1.00  0.00     0.188 C 
ENDROOT
BRANCH   1   2
ATOM      2  O   UNL     1       4.983  -7.251 -10.243  1.00  0.00    -0.376 OA
BRANCH   2   3
ATOM      3  C   UNL     1       5.521  -7.236  -8.925  1.00  0.00     0.202 C 
BRANCH   3   4
ATOM      4  C   UNL     1       5.882  -5.854  -8.375  1.00  0.00     0.261 C 
BRANCH   4   5
ATOM      5  O   UNL     1       4.719  -5.021  -8.229  1.00  0.00    -0.463 OA
BRANCH   5   6
ATOM      6  C   UNL     1       4.654  -3.879  -8.947  1.00  0.00     0.306 C 
ATOM      7  O   UNL     1       5.564  -3.456  -9.653  1.00  0.00    -0.252 OA
BRANCH   6   8
ATOM      8  C   UNL     1       3.328  -3.149  -8.828  1.00  0.00     0.129 C 
BRANCH   8   9
ATOM      9  C   UNL     1       2.077  -3.885  -8.331  1.00  0.00     0.066 C 
BRANCH   9  10
ATOM     10  C   UNL     1       2.053  -4.174  -6.854  1.00  0.00     0.024 A 
ATOM     11  C   UNL     1       1.742  -3.866  -4.642  1.00  0.00     0.053 A 
ATOM     12  C   UNL     1       2.545  -4.975  -4.795  1.00  0.00     0.029 A 
ATOM     13  N   UNL     1       1.330  -3.456  -5.908  1.00  0.00    -0.314 N 
ATOM     14  C   UNL     1       2.737  -5.158  -6.166  1.00  0.00     0.024 A 
BRANCH  11  15
ATOM     15  C   UNL     1       1.392  -3.237  -3.381  1.00  0.00    -0.001 A 
ATOM     16  C   UNL     1       0.819  -1.937  -0.991  1.00  0.00     0.118 A 
ATOM     17  C   UNL     1      -0.193  -2.615  -1.673  1.00  0.00     0.047 A 
ATOM     18  C   UNL     1       2.131  -1.970  -1.460  1.00  0.00     0.047 A 
ATOM     19  C   UNL     1       0.091  -3.263  -2.876  1.00  0.00     0.014 A 
ATOM     20  C   UNL     1       2.415  -2.617  -2.655  1.00  0.00     0.014 A 
BRANCH  16  21
ATOM     21  O   UNL     1       0.461  -1.285   0.158  1.00  0.00    -0.497 OA
ATOM     22  C   UNL     1       0.979   0.044   0.207  1.00  0.00     0.278 C 
ENDBRANCH  16  21
ENDBRANCH  11  15
BRANCH  13  23
ATOM     23  C   UNL     1       0.374  -2.449  -6.186  1.00  0.00     0.046 A 
ATOM     24  C   UNL     1      -0.768  -2.768  -6.930  1.00  0.00     0.027 A 
ATOM     25  C   UNL     1       0.567  -1.158  -5.701  1.00  0.00     0.027 A 
ATOM     26  C   UNL     1      -1.723  -1.779  -7.196  1.00  0.00     0.014 A 
ATOM     27  C   UNL     1      -0.377  -0.172  -5.990  1.00  0.00     0.014 A 
ATOM     28  C   UNL     1      -1.530  -0.469  -6.738  1.00  0.00     0.017 A 
BRANCH  28  29
ATOM     29  C   UNL     1      -2.479   0.657  -7.006  1.00  0.00     0.159 C 
ATOM     30  C   UNL     1      -3.800   0.425  -7.692  1.00  0.00     0.093 C 
ATOM     31  O   UNL     1      -2.175   1.795  -6.645  1.00  0.00    -0.295 OA
ENDBRANCH  28  29
ENDBRANCH  13  23
ENDBRANCH   9  10
ENDBRANCH   8   9
ENDBRANCH   6   8
ENDBRANCH   5   6
ENDBRANCH   4   5
ENDBRANCH   3   4
ENDBRANCH   2   3
ENDBRANCH   1   2
BRANCH   1  32
ATOM     32  C   UNL     1       2.572  -7.551  -9.699  1.00  0.00     0.188 C 
BRANCH  32  33
ATOM     33  O   UNL     1       2.454  -7.310  -8.307  1.00  0.00    -0.376 OA
BRANCH  33  34
ATOM     34  C   UNL     1       2.512  -8.331  -7.307  1.00  0.00     0.202 C 
BRANCH  34  35
ATOM     35  C   UNL     1       2.114  -9.788  -7.529  1.00  0.00     0.261 C 
BRANCH  35  36
ATOM     36  O   UNL     1       1.605 -10.073  -8.803  1.00  0.00    -0.460 OA
BRANCH  36  37
ATOM     37  C   UNL     1       0.445  -9.440  -9.077  1.00  0.00     0.338 C 
ATOM     38  O   UNL     1      -0.209  -8.717  -8.364  1.00  0.00    -0.246 OA
BRANCH  37  39
ATOM     39  C   UNL     1       0.069  -9.843 -10.430  1.00  0.00     0.060 A 
ATOM     40  C   UNL     1      -0.977  -9.132 -11.011  1.00  0.00     0.016 A 
ATOM     41  C   UNL     1       0.488 -11.105 -10.873  1.00  0.00     0.016 A 
ATOM     42  C   UNL     1      -1.803  -9.822 -11.857  1.00  0.00     0.010 A 
ATOM     43  C   UNL     1      -0.377 -11.821 -11.646  1.00  0.00     0.010 A 
ATOM     44  C   UNL     1      -1.541 -11.183 -12.071  1.00  0.00    -0.014 A 
BRANCH  44  45
ATOM     45  C   UNL     1      -2.465 -11.915 -12.916  1.00  0.00     0.031 A 
ATOM     46  C   UNL     1      -2.009 -11.741 -14.370  1.00  0.00     0.074 A 
ATOM     47  C   UNL     1      -3.526 -12.469 -12.243  1.00  0.00     0.049 A 
ATOM     48  N   UNL     1      -2.727 -11.722 -15.439  1.00  0.00    -0.248 NA
ATOM     49  C   UNL     1      -0.574 -11.460 -14.702  1.00  0.00     0.031 C 
ATOM     50  C   UNL     1      -3.677 -12.539 -10.761  1.00  0.00     0.029 A 
ATOM     51  N   UNL     1      -4.696 -13.076 -12.639  1.00  0.00    -0.354 N 
ATOM     52  C   UNL     1      -1.861 -11.633 -16.545  1.00  0.00     0.074 A 
ATOM     53  C   UNL     1      -0.557 -11.364 -16.032  1.00  0.00     0.031 C 
ATOM     54  C   UNL     1      -4.886 -13.040 -10.410  1.00  0.00     0.029 A 
ATOM     55  C   UNL     1      -5.637 -13.360 -11.607  1.00  0.00     0.049 A 
ATOM     56  H   UNL     1      -4.872 -13.302 -13.581  1.00  0.00     0.167 HD
ATOM     57  C   UNL     1      -2.277 -11.945 -17.802  1.00  0.00     0.031 A 
ATOM     58  C   UNL     1      -6.942 -13.768 -11.735  1.00  0.00     0.031 A 
ATOM     59  C   UNL     1      -3.675 -12.218 -17.783  1.00  0.00     0.049 A 
ATOM     60  C   UNL     1      -7.102 -14.021 -13.172  1.00  0.00     0.074 A 
ATOM     61  C   UNL     1      -4.747 -11.387 -17.575  1.00  0.00     0.029 A 
ATOM     62  N   UNL     1      -4.028 -13.514 -17.483  1.00  0.00    -0.354 N 
ATOM     63  N   UNL     1      -6.592 -15.031 -13.808  1.00  0.00    -0.248 NA
ATOM     64  C   UNL     1      -7.782 -13.011 -13.992  1.00  0.00     0.031 C 
ATOM     65  C   UNL     1      -5.518 -12.118 -16.648  1.00  0.00     0.029 A 
ATOM     66  C   UNL     1      -5.078 -13.446 -16.604  1.00  0.00     0.049 A 
ATOM     67  H   UNL     1      -3.607 -14.332 -17.832  1.00  0.00     0.167 HD
ATOM     68  C   UNL     1      -6.533 -14.553 -15.092  1.00  0.00     0.074 A 
ATOM     69  C   UNL     1      -7.552 -13.526 -15.196  1.00  0.00     0.031 C 
ATOM     70  C   UNL     1      -5.353 -14.586 -15.768  1.00  0.00     0.031 A 
BRANCH  57  71
ATOM     71  C   UNL     1      -1.518 -12.307 -19.037  1.00  0.00    -0.014 A 
ATOM     72  C   UNL     1      -2.261 -12.370 -20.238  1.00  0.00     0.009 A 
ATOM     73  C   UNL     1      -0.263 -12.921 -19.014  1.00  0.00     0.009 A 
ATOM     74  C   UNL     1      -1.838 -13.138 -21.321  1.00  0.00     0.001 A 
ATOM     75  C   UNL     1       0.181 -13.660 -20.120  1.00  0.00     0.001 A 
ATOM     76  C   UNL     1      -0.622 -13.801 -21.252  1.00  0.00     0.000 A 
ENDBRANCH  57  71
BRANCH  58  77
ATOM     77  C   UNL     1      -8.206 -13.936 -10.918  1.00  0.00    -0.014 A 
ATOM     78  C   UNL     1      -8.323 -13.915  -9.527  1.00  0.00     0.009 A 
ATOM     79  C   UNL     1      -9.442 -14.079 -11.620  1.00  0.00     0.009 A 
ATOM     80  C   UNL     1      -9.597 -13.937  -8.902  1.00  0.00     0.001 A 
ATOM     81  C   UNL     1     -10.701 -14.048 -11.016  1.00  0.00     0.001 A 
ATOM     82  C   UNL     1     -10.781 -13.962  -9.644  1.00  0.00     0.000 A 
ENDBRANCH  58  77
BRANCH  70  83
ATOM     83  C   UNL     1      -4.331 -15.604 -15.272  1.00  0.00    -0.014 A 
ATOM     84  C   UNL     1      -4.682 -16.962 -15.212  1.00  0.00     0.009 A 
ATOM     85  C   UNL     1      -3.068 -15.255 -14.755  1.00  0.00     0.009 A 
ATOM     86  C   UNL     1      -3.831 -17.922 -14.646  1.00  0.00     0.001 A 
ATOM     87  C   UNL     1      -2.213 -16.213 -14.179  1.00  0.00     0.001 A 
ATOM     88  C   UNL     1      -2.597 -17.548 -14.125  1.00  0.00     0.000 A 
ENDBRANCH  70  83
ENDBRANCH  44  45
ENDBRANCH  37  39
ENDBRANCH  36  37
ENDBRANCH  35  36
ENDBRANCH  34  35
ENDBRANCH  33  34
ENDBRANCH  32  33
ENDBRANCH   1  32
TORSDOF 23
