REMARK SMILES Cc1ccc(C2=NN(C(=O)CCC(=O)OCCOCCOCCOC(=O)c3ccc(-c4c5nc(c(-c6ccccc6)c6ccc([nH]6)c(-c6ccccc6)c6nc(c(-c7ccccc7)c7ccc4[nH]7)C=C6)C=C5)cc3)[C@H](C[C@@H]3C=c4cccc(C)c4=NC3=O)C2)cc1
REMARK SMILES IDX 18 1 17 2 16 3 15 4 13 5 14 6 12 7 11 8 9 9 10 10 8 11 6 12
REMARK SMILES IDX 7 13 89 14 75 15 5 16 1 17 2 18 3 19 91 20 4 21 90 22 76 23
REMARK SMILES IDX 77 24 78 25 87 26 79 27 86 28 88 29 80 30 85 31 81 32 83 33
REMARK SMILES IDX 82 34 84 35 19 36 20 37 21 38 22 39 23 40 24 41 25 42 26 43
REMARK SMILES IDX 27 44 28 45 74 46 29 47 73 48 30 49 31 50 32 51 67 52 33 53
REMARK SMILES IDX 72 54 66 55 68 56 34 57 71 58 65 59 64 60 35 62 57 63 42 64
REMARK SMILES IDX 56 65 43 66 46 67 55 68 69 69 44 70 45 71 54 73 70 74 47 75
REMARK SMILES IDX 36 76 37 77 41 78 38 79 40 80 39 81 58 82 59 83 63 84 60 85
REMARK SMILES IDX 62 86 61 87 48 88 49 89 53 90 50 91 52 92 51 93
REMARK H PARENT 68 61 46 72
REMARK Flexibility Score: inf
ROOT
ATOM      1  O   UNL     1      -5.697   2.500  -3.140  1.00  0.00    -0.376 OA
ENDROOT
BRANCH   1   2
ATOM      2  C   UNL     1      -4.466   2.189  -2.453  1.00  0.00     0.202 C 
BRANCH   2   3
ATOM      3  C   UNL     1      -4.123   2.829  -0.928  1.00  0.00     0.261 C 
BRANCH   3   4
ATOM      4  O   UNL     1      -4.340   2.176   0.491  1.00  0.00    -0.463 OA
BRANCH   4   5
ATOM      5  C   UNL     1      -5.543   1.583   0.665  1.00  0.00     0.306 C 
ATOM      6  O   UNL     1      -6.162   1.594  -0.399  1.00  0.00    -0.252 OA
BRANCH   5   7
ATOM      7  C   UNL     1      -6.185   0.656   2.175  1.00  0.00     0.132 C 
BRANCH   7   8
ATOM      8  C   UNL     1      -5.849  -0.699   2.707  1.00  0.00     0.114 C 
BRANCH   8   9
ATOM      9  C   UNL     1      -4.829  -1.555   2.053  1.00  0.00     0.243 C 
ATOM     10  O   UNL     1      -4.395  -2.463   2.780  1.00  0.00    -0.273 OA
BRANCH   9  11
ATOM     11  N   UNL     1      -4.275  -1.294   0.810  1.00  0.00    -0.230 N 
ATOM     12  C   UNL     1      -2.367  -0.764  -0.030  1.00  0.00     0.070 C 
ATOM     13  N   UNL     1      -2.951  -1.077   1.064  1.00  0.00    -0.174 NA
ATOM     14  C   UNL     1      -3.165  -0.883  -1.298  1.00  0.00     0.086 C 
ATOM     15  C   UNL     1      -4.559  -0.735  -0.672  1.00  0.00     0.118 C 
BRANCH  12  16
ATOM     16  C   UNL     1      -0.963  -0.446   0.008  1.00  0.00    -0.002 A 
ATOM     17  C   UNL     1       3.227   0.120  -0.073  1.00  0.00     0.044 C 
ATOM     18  C   UNL     1       1.746  -0.048   0.054  1.00  0.00    -0.051 A 
ATOM     19  C   UNL     1       1.232  -1.351   0.090  1.00  0.00     0.004 A 
ATOM     20  C   UNL     1       0.883   1.060   0.108  1.00  0.00     0.004 A 
ATOM     21  C   UNL     1      -0.130  -1.552   0.085  1.00  0.00     0.010 A 
ATOM     22  C   UNL     1      -0.494   0.863   0.100  1.00  0.00     0.010 A 
ENDBRANCH  12  16
BRANCH  15  23
ATOM     23  C   UNL     1      -5.992  -0.701  -1.709  1.00  0.00     0.045 C 
BRANCH  23  24
ATOM     24  C   UNL     1      -7.871  -0.888  -1.550  1.00  0.00     0.106 C 
ATOM     25  C   UNL     1      -8.867  -1.672   0.244  1.00  0.00    -0.003 C 
ATOM     26  C   UNL     1      -8.627  -1.948  -3.114  1.00  0.00     0.253 C 
ATOM     27  C   UNL     1      -9.618  -2.946   0.245  1.00  0.00    -0.003 A 
ATOM     28  N   UNL     1      -9.566  -3.372  -2.683  1.00  0.00    -0.212 NA
ATOM     29  O   UNL     1      -8.620  -1.541  -4.270  1.00  0.00    -0.272 OA
ATOM     30  C   UNL     1      -9.508  -3.712   1.470  1.00  0.00     0.010 A 
ATOM     31  C   UNL     1      -9.876  -3.837  -1.344  1.00  0.00     0.077 A 
ATOM     32  C   UNL     1      -9.517  -5.043   1.433  1.00  0.00     0.001 A 
ATOM     33  C   UNL     1     -10.063  -5.320  -1.003  1.00  0.00    -0.025 A 
ATOM     34  C   UNL     1      -9.844  -5.792   0.246  1.00  0.00     0.005 A 
ATOM     35  C   UNL     1     -10.274  -6.295  -2.114  1.00  0.00     0.047 C 
ENDBRANCH  23  24
ENDBRANCH  15  23
ENDBRANCH   9  11
ENDBRANCH   8   9
ENDBRANCH   7   8
ENDBRANCH   5   7
ENDBRANCH   4   5
ENDBRANCH   3   4
ENDBRANCH   2   3
ENDBRANCH   1   2
BRANCH   1  36
ATOM     36  C   UNL     1      -6.437   1.595  -4.024  1.00  0.00     0.188 C 
BRANCH  36  37
ATOM     37  C   UNL     1      -5.891   0.464  -4.993  1.00  0.00     0.188 C 
BRANCH  37  38
ATOM     38  O   UNL     1      -6.070  -0.888  -4.529  1.00  0.00    -0.376 OA
BRANCH  38  39
ATOM     39  C   UNL     1      -4.969  -1.814  -4.560  1.00  0.00     0.202 C 
BRANCH  39  40
ATOM     40  C   UNL     1      -5.389  -3.236  -3.969  1.00  0.00     0.261 C 
BRANCH  40  41
ATOM     41  O   UNL     1      -6.001  -3.143  -2.631  1.00  0.00    -0.460 OA
BRANCH  41  42
ATOM     42  C   UNL     1      -7.170  -3.783  -2.299  1.00  0.00     0.338 C 
ATOM     43  O   UNL     1      -7.467  -4.858  -2.778  1.00  0.00    -0.246 OA
BRANCH  42  44
ATOM     44  C   UNL     1      -8.041  -2.718  -1.254  1.00  0.00     0.060 A 
ATOM     45  C   UNL     1      -9.649  -1.502  -1.467  1.00  0.00     0.016 A 
ATOM     46  C   UNL     1      -6.894  -2.240  -0.183  1.00  0.00     0.016 A 
ATOM     47  C   UNL     1      -9.689   0.138  -0.683  1.00  0.00     0.010 A 
ATOM     48  C   UNL     1      -7.119  -0.571   0.368  1.00  0.00     0.010 A 
ATOM     49  C   UNL     1      -8.365   0.708   0.232  1.00  0.00    -0.014 A 
BRANCH  49  50
ATOM     50  C   UNL     1      -8.023   2.441   0.795  1.00  0.00     0.031 A 
ATOM     51  C   UNL     1      -7.037   3.224   2.154  1.00  0.00     0.074 A 
ATOM     52  C   UNL     1      -7.960   3.357  -0.231  1.00  0.00     0.049 A 
ATOM     53  N   UNL     1      -7.102   4.464   2.661  1.00  0.00    -0.248 NA
ATOM     54  C   UNL     1      -5.825   2.734   2.987  1.00  0.00     0.031 C 
ATOM     55  C   UNL     1      -6.940   4.430  -0.306  1.00  0.00     0.029 A 
ATOM     56  N   UNL     1      -8.507   3.403  -1.521  1.00  0.00    -0.354 N 
ATOM     57  C   UNL     1      -5.997   4.535   3.621  1.00  0.00     0.074 A 
ATOM     58  C   UNL     1      -5.979   3.258   4.196  1.00  0.00     0.031 C 
ATOM     59  C   UNL     1      -7.021   5.088  -1.471  1.00  0.00     0.029 A 
ATOM     60  C   UNL     1      -8.293   4.723  -2.023  1.00  0.00     0.049 A 
ATOM     61  H   UNL     1      -8.956   2.664  -1.992  1.00  0.00     0.167 HD
ATOM     62  C   UNL     1      -4.764   5.189   3.461  1.00  0.00     0.031 A 
ATOM     63  C   UNL     1      -9.314   5.627  -2.159  1.00  0.00     0.031 A 
ATOM     64  C   UNL     1      -4.856   6.149   2.407  1.00  0.00     0.049 A 
ATOM     65  C   UNL     1      -9.187   6.846  -1.237  1.00  0.00     0.074 A 
ATOM     66  C   UNL     1      -4.197   6.518   1.253  1.00  0.00     0.029 A 
ATOM     67  N   UNL     1      -6.037   6.825   2.414  1.00  0.00    -0.354 N 
ATOM     68  N   UNL     1      -8.230   6.949  -0.349  1.00  0.00    -0.248 NA
ATOM     69  C   UNL     1     -10.031   8.041  -1.201  1.00  0.00     0.031 C 
ATOM     70  C   UNL     1      -5.072   7.427   0.556  1.00  0.00     0.029 A 
ATOM     71  C   UNL     1      -6.196   7.629   1.341  1.00  0.00     0.049 A 
ATOM     72  H   UNL     1      -6.707   6.737   3.130  1.00  0.00     0.167 HD
ATOM     73  C   UNL     1      -8.323   8.101   0.370  1.00  0.00     0.074 A 
ATOM     74  C   UNL     1      -9.486   8.749  -0.185  1.00  0.00     0.031 C 
ATOM     75  C   UNL     1      -7.440   8.377   1.373  1.00  0.00     0.031 A 
BRANCH  62  76
ATOM     76  C   UNL     1      -3.402   4.864   4.192  1.00  0.00    -0.014 A 
ATOM     77  C   UNL     1      -2.420   5.870   4.299  1.00  0.00     0.009 A 
ATOM     78  C   UNL     1      -3.003   3.627   4.769  1.00  0.00     0.009 A 
ATOM     79  C   UNL     1      -1.210   5.691   5.015  1.00  0.00     0.001 A 
ATOM     80  C   UNL     1      -1.822   3.452   5.526  1.00  0.00     0.001 A 
ATOM     81  C   UNL     1      -0.928   4.496   5.664  1.00  0.00     0.000 A 
ENDBRANCH  62  76
BRANCH  63  82
ATOM     82  C   UNL     1     -10.492   4.965  -2.803  1.00  0.00    -0.014 A 
ATOM     83  C   UNL     1     -10.306   4.643  -4.170  1.00  0.00     0.009 A 
ATOM     84  C   UNL     1     -11.270   4.088  -2.025  1.00  0.00     0.009 A 
ATOM     85  C   UNL     1     -10.621   3.365  -4.653  1.00  0.00     0.001 A 
ATOM     86  C   UNL     1     -11.604   2.819  -2.527  1.00  0.00     0.001 A 
ATOM     87  C   UNL     1     -11.214   2.432  -3.810  1.00  0.00     0.000 A 
ENDBRANCH  63  82
BRANCH  75  88
ATOM     88  C   UNL     1      -7.747   9.172   2.652  1.00  0.00    -0.014 A 
ATOM     89  C   UNL     1      -9.012   9.667   2.969  1.00  0.00     0.009 A 
ATOM     90  C   UNL     1      -6.784   9.233   3.706  1.00  0.00     0.009 A 
ATOM     91  C   UNL     1      -9.290  10.210   4.235  1.00  0.00     0.001 A 
ATOM     92  C   UNL     1      -7.084   9.681   4.995  1.00  0.00     0.001 A 
ATOM     93  C   UNL     1      -8.339  10.198   5.252  1.00  0.00     0.000 A 
ENDBRANCH  75  88
ENDBRANCH  49  50
ENDBRANCH  42  44
ENDBRANCH  41  42
ENDBRANCH  40  41
ENDBRANCH  39  40
ENDBRANCH  38  39
ENDBRANCH  37  38
ENDBRANCH  36  37
ENDBRANCH   1  36
TORSDOF 23
