REMARK SMILES C[N@@H+](CC(=O)OCCOCCOCCOC(=O)c1ccc(-c2c3nc(c(-c4ccccc4)c4ccc([nH]4)c(-c4ccccc4)c4nc(c(-c5ccccc5)c5ccc2[nH]5)C=C4)C=C3)cc1)Cc1csc(-c2ccco2)n1
REMARK SMILES IDX 10 1 9 2 8 3 7 4 6 5 4 6 5 7 3 8 2 9 1 10 66 12 67 13 68 14
REMARK SMILES IDX 76 15 69 16 70 17 71 18 72 19 75 20 73 21 74 22 11 23 12 24
REMARK SMILES IDX 13 25 14 26 15 27 16 28 17 29 18 30 19 31 65 32 20 33 64 34
REMARK SMILES IDX 21 35 22 36 23 37 58 38 24 39 63 40 57 41 59 42 25 43 62 44
REMARK SMILES IDX 56 45 55 46 26 48 48 49 33 50 47 51 34 52 37 53 46 54 60 55
REMARK SMILES IDX 35 56 36 57 45 59 61 60 38 61 27 62 28 63 32 64 29 65 31 66
REMARK SMILES IDX 30 67 49 68 50 69 54 70 51 71 53 72 52 73 39 74 40 75 44 76
REMARK SMILES IDX 41 77 43 78 42 79
REMARK H PARENT 2 11 59 47 37 58
REMARK Flexibility Score: inf
ROOT
ATOM      1  C   UNL     1      -1.836  -1.897  -2.443  1.00  0.00     0.188 C 
ENDROOT
BRANCH   1   2
ATOM      2  O   UNL     1      -2.865  -1.046  -3.236  1.00  0.00    -0.376 OA
BRANCH   2   3
ATOM      3  C   UNL     1      -2.828   0.387  -3.087  1.00  0.00     0.202 C 
BRANCH   3   4
ATOM      4  C   UNL     1      -3.092   1.046  -1.731  1.00  0.00     0.261 C 
BRANCH   4   5
ATOM      5  O   UNL     1      -2.079   0.791  -0.740  1.00  0.00    -0.459 OA
BRANCH   5   6
ATOM      6  C   UNL     1      -2.435  -0.064   0.257  1.00  0.00     0.361 C 
ATOM      7  O   UNL     1      -3.567  -0.520   0.401  1.00  0.00    -0.245 OA
BRANCH   6   8
ATOM      8  C   UNL     1      -1.316  -0.391   1.235  1.00  0.00     0.386 C 
BRANCH   8   9
ATOM      9  N   UNL     1       0.036  -0.647   0.726  1.00  0.00    -0.323 N 
ATOM     10  C   UNL     1       0.746   0.476   0.150  1.00  0.00     0.333 C 
ATOM     11  H   UNL     1       0.490  -0.764   1.633  1.00  0.00     0.348 HD
BRANCH   9  12
ATOM     12  C   UNL     1       0.332  -1.948   0.134  1.00  0.00     0.320 C 
BRANCH  12  13
ATOM     13  C   UNL     1      -0.300  -2.218  -1.200  1.00  0.00     0.106 A 
ATOM     14  C   UNL     1      -1.113  -3.655  -1.730  1.00  0.00     0.097 A 
ATOM     15  N   UNL     1      -0.226  -0.927  -2.588  1.00  0.00    -0.232 NA
ATOM     16  S   UNL     1      -1.729  -3.504  -3.957  1.00  0.00    -0.119 S 
ATOM     17  C   UNL     1      -0.823  -1.377  -4.068  1.00  0.00     0.159 A 
BRANCH  17  18
ATOM     18  C   UNL     1      -0.856  -0.598  -5.269  1.00  0.00     0.162 A 
ATOM     19  C   UNL     1       0.039   0.402  -5.611  1.00  0.00     0.053 A 
ATOM     20  O   UNL     1      -1.949  -0.520  -6.086  1.00  0.00    -0.462 OA
ATOM     21  C   UNL     1      -0.605   1.212  -6.573  1.00  0.00     0.043 A 
ATOM     22  C   UNL     1      -1.821   0.620  -6.812  1.00  0.00     0.196 A 
ENDBRANCH  17  18
ENDBRANCH  12  13
ENDBRANCH   9  12
ENDBRANCH   8   9
ENDBRANCH   6   8
ENDBRANCH   5   6
ENDBRANCH   4   5
ENDBRANCH   3   4
ENDBRANCH   2   3
ENDBRANCH   1   2
BRANCH   1  23
ATOM     23  C   UNL     1       0.140  -2.734  -3.067  1.00  0.00     0.188 C 
BRANCH  23  24
ATOM     24  O   UNL     1       1.550  -2.185  -2.657  1.00  0.00    -0.376 OA
BRANCH  24  25
ATOM     25  C   UNL     1       2.505  -2.054  -3.716  1.00  0.00     0.202 C 
BRANCH  25  26
ATOM     26  C   UNL     1       2.761  -3.300  -4.586  1.00  0.00     0.261 C 
BRANCH  26  27
ATOM     27  O   UNL     1       2.312  -4.548  -4.032  1.00  0.00    -0.460 OA
BRANCH  27  28
ATOM     28  C   UNL     1       2.727  -4.849  -2.778  1.00  0.00     0.338 C 
ATOM     29  O   UNL     1       3.658  -4.341  -2.179  1.00  0.00    -0.246 OA
BRANCH  28  30
ATOM     30  C   UNL     1       1.745  -5.795  -2.163  1.00  0.00     0.060 A 
ATOM     31  C   UNL     1       1.543  -5.729  -0.778  1.00  0.00     0.016 A 
ATOM     32  C   UNL     1       0.982  -6.693  -2.924  1.00  0.00     0.016 A 
ATOM     33  C   UNL     1       0.670  -6.621  -0.143  1.00  0.00     0.010 A 
ATOM     34  C   UNL     1       0.106  -7.589  -2.289  1.00  0.00     0.010 A 
ATOM     35  C   UNL     1       0.003  -7.607  -0.885  1.00  0.00    -0.014 A 
BRANCH  35  36
ATOM     36  C   UNL     1      -0.451  -8.841  -0.177  1.00  0.00     0.031 A 
ATOM     37  C   UNL     1       0.539  -9.983  -0.111  1.00  0.00     0.074 A 
ATOM     38  C   UNL     1      -1.630  -8.954   0.465  1.00  0.00     0.049 A 
ATOM     39  N   UNL     1       0.452 -11.135   0.505  1.00  0.00    -0.248 NA
ATOM     40  C   UNL     1       1.804  -9.789  -0.840  1.00  0.00     0.031 C 
ATOM     41  C   UNL     1      -2.669  -7.931   0.537  1.00  0.00     0.029 A 
ATOM     42  N   UNL     1      -2.140 -10.000   1.202  1.00  0.00    -0.354 N 
ATOM     43  C   UNL     1       1.650 -11.791   0.241  1.00  0.00     0.074 A 
ATOM     44  C   UNL     1       2.420 -10.939  -0.633  1.00  0.00     0.031 C 
ATOM     45  C   UNL     1      -3.689  -8.396   1.285  1.00  0.00     0.029 A 
ATOM     46  C   UNL     1      -3.388  -9.759   1.728  1.00  0.00     0.049 A 
ATOM     47  H   UNL     1      -1.655 -10.846   1.339  1.00  0.00     0.167 HD
ATOM     48  C   UNL     1       2.093 -12.986   0.696  1.00  0.00     0.031 A 
ATOM     49  C   UNL     1      -4.193 -10.545   2.475  1.00  0.00     0.031 A 
ATOM     50  C   UNL     1       1.328 -13.864   1.537  1.00  0.00     0.049 A 
ATOM     51  C   UNL     1      -3.723 -11.925   2.880  1.00  0.00     0.074 A 
ATOM     52  C   UNL     1       1.689 -15.100   2.043  1.00  0.00     0.029 A 
ATOM     53  N   UNL     1       0.042 -13.606   1.980  1.00  0.00    -0.354 N 
ATOM     54  N   UNL     1      -2.572 -12.513   2.657  1.00  0.00    -0.248 NA
ATOM     55  C   UNL     1      -4.666 -12.744   3.660  1.00  0.00     0.031 C 
ATOM     56  C   UNL     1       0.588 -15.627   2.725  1.00  0.00     0.029 A 
ATOM     57  C   UNL     1      -0.421 -14.678   2.724  1.00  0.00     0.049 A 
ATOM     58  H   UNL     1      -0.468 -12.785   1.794  1.00  0.00     0.167 HD
ATOM     59  C   UNL     1      -2.640 -13.747   3.300  1.00  0.00     0.074 A 
ATOM     60  C   UNL     1      -3.934 -13.811   3.943  1.00  0.00     0.031 C 
ATOM     61  C   UNL     1      -1.714 -14.738   3.356  1.00  0.00     0.031 A 
BRANCH  48  62
ATOM     62  C   UNL     1       3.458 -13.429   0.241  1.00  0.00    -0.014 A 
ATOM     63  C   UNL     1       4.623 -12.761   0.655  1.00  0.00     0.009 A 
ATOM     64  C   UNL     1       3.578 -14.532  -0.618  1.00  0.00     0.009 A 
ATOM     65  C   UNL     1       5.874 -13.161   0.180  1.00  0.00     0.001 A 
ATOM     66  C   UNL     1       4.833 -14.954  -1.058  1.00  0.00     0.001 A 
ATOM     67  C   UNL     1       5.978 -14.260  -0.670  1.00  0.00     0.000 A 
ENDBRANCH  48  62
BRANCH  49  68
ATOM     68  C   UNL     1      -5.550 -10.077   2.890  1.00  0.00    -0.014 A 
ATOM     69  C   UNL     1      -5.878  -9.907   4.247  1.00  0.00     0.009 A 
ATOM     70  C   UNL     1      -6.554  -9.872   1.931  1.00  0.00     0.009 A 
ATOM     71  C   UNL     1      -7.183  -9.581   4.631  1.00  0.00     0.001 A 
ATOM     72  C   UNL     1      -7.848  -9.508   2.315  1.00  0.00     0.001 A 
ATOM     73  C   UNL     1      -8.165  -9.377   3.665  1.00  0.00     0.000 A 
ENDBRANCH  49  68
BRANCH  61  74
ATOM     74  C   UNL     1      -2.043 -15.956   4.182  1.00  0.00    -0.014 A 
ATOM     75  C   UNL     1      -3.075 -16.839   3.826  1.00  0.00     0.009 A 
ATOM     76  C   UNL     1      -1.285 -16.236   5.332  1.00  0.00     0.009 A 
ATOM     77  C   UNL     1      -3.382 -17.936   4.637  1.00  0.00     0.001 A 
ATOM     78  C   UNL     1      -1.563 -17.358   6.115  1.00  0.00     0.001 A 
ATOM     79  C   UNL     1      -2.623 -18.196   5.777  1.00  0.00     0.000 A 
ENDBRANCH  61  74
ENDBRANCH  35  36
ENDBRANCH  28  30
ENDBRANCH  27  28
ENDBRANCH  26  27
ENDBRANCH  25  26
ENDBRANCH  24  25
ENDBRANCH  23  24
ENDBRANCH   1  23
TORSDOF 21
