REMARK SMILES O=C(CCC(=O)N1Cc2[nH]cnc2C[C@H]1C(=O)NCc1ccccc1)OCCOCCOCCOC(=O)c1ccc(-c2c3nc(c(-c4ccccc4)c4ccc([nH]4)c(-c4ccccc4)c4nc(c(-c5ccccc5)c5ccc2[nH]5)C=C4)C=C3)cc1
REMARK SMILES IDX 28 1 27 2 26 3 2 4 1 5 3 6 4 7 5 8 6 9 7 10 8 11 15 12 9 13
REMARK SMILES IDX 14 14 10 15 13 16 11 17 12 19 16 20 17 21 18 22 19 24 20 25
REMARK SMILES IDX 21 26 25 27 22 28 24 29 23 30 29 31 30 32 31 33 32 34 33 35
REMARK SMILES IDX 34 36 35 37 36 38 37 39 38 40 39 41 85 42 40 43 84 44 41 45
REMARK SMILES IDX 42 46 43 47 78 48 44 49 83 50 77 51 79 52 45 53 82 54 76 55
REMARK SMILES IDX 75 56 46 58 68 59 53 60 67 61 54 62 57 63 66 64 80 65 55 66
REMARK SMILES IDX 56 67 65 69 81 70 58 71 47 72 48 73 52 74 49 75 51 76 50 77
REMARK SMILES IDX 69 78 70 79 74 80 71 81 73 82 72 83 59 84 60 85 64 86 61 87
REMARK SMILES IDX 63 88 62 89
REMARK H PARENT 10 18 18 23 79 57 57 68
REMARK Flexibility Score: inf
ROOT
ATOM      1  C   UNL     1       5.184  -0.005   2.182  1.00  0.00     0.202 C 
ENDROOT
BRANCH   1   2
ATOM      2  C   UNL     1       4.871  -0.064   0.694  1.00  0.00     0.261 C 
BRANCH   2   3
ATOM      3  O   UNL     1       3.479   0.145   0.432  1.00  0.00    -0.463 OA
BRANCH   3   4
ATOM      4  C   UNL     1       2.593  -0.780   0.004  1.00  0.00     0.306 C 
ATOM      5  O   UNL     1       1.384  -0.581   0.095  1.00  0.00    -0.252 OA
BRANCH   4   6
ATOM      6  C   UNL     1       3.133  -1.968  -0.694  1.00  0.00     0.132 C 
BRANCH   6   7
ATOM      7  C   UNL     1       3.399  -1.618  -2.148  1.00  0.00     0.112 C 
BRANCH   7   8
ATOM      8  C   UNL     1       4.543  -0.650  -2.412  1.00  0.00     0.224 C 
ATOM      9  O   UNL     1       5.667  -1.153  -2.556  1.00  0.00    -0.275 OA
BRANCH   8  10
ATOM     10  N   UNL     1       4.373   0.735  -2.484  1.00  0.00    -0.324 N 
ATOM     11  C   UNL     1       5.593   1.459  -2.892  1.00  0.00     0.176 C 
ATOM     12  C   UNL     1       3.124   1.542  -2.154  1.00  0.00     0.180 C 
ATOM     13  C   UNL     1       5.588   2.840  -2.393  1.00  0.00     0.058 A 
ATOM     14  C   UNL     1       3.359   2.803  -1.278  1.00  0.00     0.093 C 
ATOM     15  N   UNL     1       6.522   3.804  -2.644  1.00  0.00    -0.347 N 
ATOM     16  C   UNL     1       4.624   3.459  -1.645  1.00  0.00     0.066 A 
ATOM     17  C   UNL     1       6.094   4.945  -2.020  1.00  0.00     0.197 A 
ATOM     18  H   UNL     1       7.346   3.698  -3.173  1.00  0.00     0.167 HD
ATOM     19  N   UNL     1       4.948   4.762  -1.399  1.00  0.00    -0.242 NA
BRANCH  12  20
ATOM     20  C   UNL     1       1.984   1.708  -3.181  1.00  0.00     0.243 C 
ATOM     21  O   UNL     1       1.150   0.805  -3.328  1.00  0.00    -0.273 OA
ATOM     22  N   UNL     1       1.847   2.772  -4.009  1.00  0.00    -0.350 N 
ATOM     23  H   UNL     1       0.936   2.916  -4.354  1.00  0.00     0.163 HD
BRANCH  22  24
ATOM     24  C   UNL     1       2.829   3.724  -4.463  1.00  0.00     0.151 C 
BRANCH  24  25
ATOM     25  C   UNL     1       3.799   3.138  -5.461  1.00  0.00    -0.029 A 
ATOM     26  C   UNL     1       3.760   1.792  -5.868  1.00  0.00     0.005 A 
ATOM     27  C   UNL     1       4.803   3.962  -5.988  1.00  0.00     0.005 A 
ATOM     28  C   UNL     1       4.725   1.272  -6.728  1.00  0.00     0.000 A 
ATOM     29  C   UNL     1       5.755   3.447  -6.870  1.00  0.00     0.000 A 
ATOM     30  C   UNL     1       5.723   2.100  -7.228  1.00  0.00     0.000 A 
ENDBRANCH  24  25
ENDBRANCH  22  24
ENDBRANCH  12  20
ENDBRANCH   8  10
ENDBRANCH   7   8
ENDBRANCH   6   7
ENDBRANCH   4   6
ENDBRANCH   3   4
ENDBRANCH   2   3
ENDBRANCH   1   2
BRANCH   1  31
ATOM     31  O   UNL     1       4.218  -0.437   3.119  1.00  0.00    -0.376 OA
BRANCH  31  32
ATOM     32  C   UNL     1       2.840  -0.130   2.977  1.00  0.00     0.188 C 
BRANCH  32  33
ATOM     33  C   UNL     1       2.250   1.299   2.755  1.00  0.00     0.188 C 
BRANCH  33  34
ATOM     34  O   UNL     1       2.865   2.347   2.031  1.00  0.00    -0.376 OA
BRANCH  34  35
ATOM     35  C   UNL     1       4.014   3.101   2.385  1.00  0.00     0.202 C 
BRANCH  35  36
ATOM     36  C   UNL     1       4.480   3.339   3.813  1.00  0.00     0.261 C 
BRANCH  36  37
ATOM     37  O   UNL     1       4.438   2.149   4.559  1.00  0.00    -0.460 OA
BRANCH  37  38
ATOM     38  C   UNL     1       3.345   2.059   5.342  1.00  0.00     0.338 C 
ATOM     39  O   UNL     1       2.499   2.906   5.544  1.00  0.00    -0.246 OA
BRANCH  38  40
ATOM     40  C   UNL     1       3.342   0.733   5.963  1.00  0.00     0.060 A 
ATOM     41  C   UNL     1       2.276   0.518   6.829  1.00  0.00     0.016 A 
ATOM     42  C   UNL     1       4.568   0.066   6.060  1.00  0.00     0.016 A 
ATOM     43  C   UNL     1       2.613   0.046   8.059  1.00  0.00     0.010 A 
ATOM     44  C   UNL     1       4.908  -0.400   7.285  1.00  0.00     0.010 A 
ATOM     45  C   UNL     1       3.962  -0.249   8.287  1.00  0.00    -0.014 A 
BRANCH  45  46
ATOM     46  C   UNL     1       4.368  -0.494   9.634  1.00  0.00     0.031 A 
ATOM     47  C   UNL     1       3.964  -1.848  10.018  1.00  0.00     0.074 A 
ATOM     48  C   UNL     1       5.060   0.416  10.338  1.00  0.00     0.049 A 
ATOM     49  N   UNL     1       2.886  -2.163  10.651  1.00  0.00    -0.248 NA
ATOM     50  C   UNL     1       4.625  -2.974   9.335  1.00  0.00     0.031 C 
ATOM     51  C   UNL     1       5.691   1.658   9.881  1.00  0.00     0.029 A 
ATOM     52  N   UNL     1       5.434   0.348  11.633  1.00  0.00    -0.354 N 
ATOM     53  C   UNL     1       2.914  -3.545  10.701  1.00  0.00     0.074 A 
ATOM     54  C   UNL     1       3.779  -3.962   9.629  1.00  0.00     0.031 C 
ATOM     55  C   UNL     1       6.577   2.071  10.820  1.00  0.00     0.029 A 
ATOM     56  C   UNL     1       6.472   1.198  11.979  1.00  0.00     0.049 A 
ATOM     57  H   UNL     1       5.004  -0.257  12.280  1.00  0.00     0.167 HD
ATOM     58  C   UNL     1       2.632  -4.165  11.879  1.00  0.00     0.031 A 
ATOM     59  C   UNL     1       7.226   1.095  13.103  1.00  0.00     0.031 A 
ATOM     60  C   UNL     1       1.911  -3.276  12.770  1.00  0.00     0.049 A 
ATOM     61  C   UNL     1       6.479   0.233  14.057  1.00  0.00     0.074 A 
ATOM     62  C   UNL     1       0.745  -2.540  12.685  1.00  0.00     0.029 A 
ATOM     63  N   UNL     1       2.640  -2.717  13.794  1.00  0.00    -0.354 N 
ATOM     64  N   UNL     1       5.368   0.599  14.630  1.00  0.00    -0.248 NA
ATOM     65  C   UNL     1       6.694  -1.207  13.989  1.00  0.00     0.031 C 
ATOM     66  C   UNL     1       1.013  -1.324  13.384  1.00  0.00     0.029 A 
ATOM     67  C   UNL     1       2.298  -1.400  13.926  1.00  0.00     0.049 A 
ATOM     68  H   UNL     1       3.304  -3.191  14.346  1.00  0.00     0.167 HD
ATOM     69  C   UNL     1       4.550  -0.523  14.565  1.00  0.00     0.074 A 
ATOM     70  C   UNL     1       5.455  -1.632  14.259  1.00  0.00     0.031 C 
ATOM     71  C   UNL     1       3.193  -0.390  14.451  1.00  0.00     0.031 A 
BRANCH  58  72
ATOM     72  C   UNL     1       3.504  -5.287  12.407  1.00  0.00    -0.014 A 
ATOM     73  C   UNL     1       3.205  -5.792  13.682  1.00  0.00     0.009 A 
ATOM     74  C   UNL     1       4.763  -5.637  11.874  1.00  0.00     0.009 A 
ATOM     75  C   UNL     1       4.164  -6.481  14.431  1.00  0.00     0.001 A 
ATOM     76  C   UNL     1       5.709  -6.357  12.603  1.00  0.00     0.001 A 
ATOM     77  C   UNL     1       5.422  -6.745  13.899  1.00  0.00     0.000 A 
ENDBRANCH  58  72
BRANCH  59  78
ATOM     78  C   UNL     1       8.665   1.393  13.278  1.00  0.00    -0.014 A 
ATOM     79  C   UNL     1       9.230   1.438  14.564  1.00  0.00     0.009 A 
ATOM     80  C   UNL     1       9.545   1.357  12.181  1.00  0.00     0.009 A 
ATOM     81  C   UNL     1      10.620   1.405  14.744  1.00  0.00     0.001 A 
ATOM     82  C   UNL     1      10.933   1.329  12.360  1.00  0.00     0.001 A 
ATOM     83  C   UNL     1      11.470   1.336  13.643  1.00  0.00     0.000 A 
ENDBRANCH  59  78
BRANCH  71  84
ATOM     84  C   UNL     1       2.600   0.977  14.691  1.00  0.00    -0.014 A 
ATOM     85  C   UNL     1       2.903   2.109  13.912  1.00  0.00     0.009 A 
ATOM     86  C   UNL     1       1.604   1.093  15.671  1.00  0.00     0.009 A 
ATOM     87  C   UNL     1       2.253   3.328  14.138  1.00  0.00     0.001 A 
ATOM     88  C   UNL     1       0.941   2.303  15.883  1.00  0.00     0.001 A 
ATOM     89  C   UNL     1       1.272   3.422  15.123  1.00  0.00     0.000 A 
ENDBRANCH  71  84
ENDBRANCH  45  46
ENDBRANCH  38  40
ENDBRANCH  37  38
ENDBRANCH  36  37
ENDBRANCH  35  36
ENDBRANCH  34  35
ENDBRANCH  33  34
ENDBRANCH  32  33
ENDBRANCH  31  32
ENDBRANCH   1  31
TORSDOF 23
