REMARK SMILES Cc1ccccc1/C=C1\SC(=O)N(CC(=O)Nc2ccccc2C(=O)OCCOCCOCCOC(=O)c2ccc(-c3c4nc(c(-c5ccccc5)c5ccc([nH]5)c(-c5ccccc5)c5nc(c(-c6ccccc6)c6ccc3[nH]6)C=C5)C=C4)cc2)C1=O
REMARK SMILES IDX 30 1 29 2 28 3 27 4 26 5 24 6 25 7 23 8 18 9 19 10 20 11
REMARK SMILES IDX 22 12 21 13 17 14 15 15 16 16 14 18 13 19 8 20 9 21 10 22
REMARK SMILES IDX 86 23 11 24 87 25 12 26 7 27 1 28 2 29 3 30 4 31 6 32 5 33
REMARK SMILES IDX 31 34 32 35 33 36 34 37 35 38 36 39 37 40 38 41 39 42 85 43
REMARK SMILES IDX 40 44 84 45 41 46 42 47 43 48 78 49 44 50 83 51 77 52 79 53
REMARK SMILES IDX 45 54 82 55 76 56 75 57 46 59 68 60 53 61 67 62 54 63 57 64
REMARK SMILES IDX 66 65 80 66 55 67 56 68 65 70 81 71 58 72 47 73 48 74 52 75
REMARK SMILES IDX 49 76 51 77 50 78 69 79 70 80 74 81 71 82 73 83 72 84 59 85
REMARK SMILES IDX 60 86 64 87 61 88 63 89 62 90
REMARK H PARENT 17 17 79 58 57 69
REMARK Flexibility Score: inf
ROOT
ATOM      1  C   UNL     1       7.625   4.056   0.608  1.00  0.00     0.188 C 
ENDROOT
BRANCH   1   2
ATOM      2  O   UNL     1       6.893   3.414   1.625  1.00  0.00    -0.376 OA
BRANCH   2   3
ATOM      3  C   UNL     1       5.590   2.911   1.380  1.00  0.00     0.202 C 
BRANCH   3   4
ATOM      4  C   UNL     1       5.072   2.605  -0.156  1.00  0.00     0.261 C 
BRANCH   4   5
ATOM      5  O   UNL     1       3.678   3.368  -1.438  1.00  0.00    -0.460 OA
BRANCH   5   6
ATOM      6  C   UNL     1       3.202   4.714  -2.228  1.00  0.00     0.340 C 
ATOM      7  O   UNL     1       3.215   5.769  -1.581  1.00  0.00    -0.246 OA
BRANCH   6   8
ATOM      8  C   UNL     1       2.652   5.125  -3.624  1.00  0.00     0.083 A 
ATOM      9  C   UNL     1       3.359   6.127  -4.292  1.00  0.00     0.055 A 
ATOM     10  C   UNL     1       2.871   6.650  -5.543  1.00  0.00     0.027 A 
ATOM     11  C   UNL     1       1.712   6.191  -6.173  1.00  0.00     0.002 A 
ATOM     12  C   UNL     1       1.332   4.923  -4.187  1.00  0.00     0.018 A 
ATOM     13  C   UNL     1       0.914   5.328  -5.472  1.00  0.00     0.001 A 
BRANCH   9  14
ATOM     14  N   UNL     1       4.467   6.820  -3.776  1.00  0.00    -0.324 N 
ATOM     15  C   UNL     1       5.303   6.776  -2.706  1.00  0.00     0.244 C 
ATOM     16  O   UNL     1       5.991   7.818  -2.639  1.00  0.00    -0.273 OA
ATOM     17  H   UNL     1       4.712   7.565  -4.372  1.00  0.00     0.170 HD
BRANCH  15  18
ATOM     18  C   UNL     1       5.753   5.601  -1.741  1.00  0.00     0.230 C 
BRANCH  18  19
ATOM     19  N   UNL     1       5.156   4.356  -1.158  1.00  0.00    -0.259 N 
ATOM     20  C   UNL     1       2.152   1.859   0.999  1.00  0.00     0.029 C 
ATOM     21  C   UNL     1       3.000   2.492   0.114  1.00  0.00     0.083 C 
ATOM     22  S   UNL     1       3.854   1.306  -1.597  1.00  0.00    -0.022 SA
ATOM     23  C   UNL     1       3.931   4.246   0.166  1.00  0.00     0.268 C 
ATOM     24  C   UNL     1       5.265   3.006  -2.241  1.00  0.00     0.294 C 
ATOM     25  O   UNL     1       3.942   4.952   1.172  1.00  0.00    -0.268 OA
ATOM     26  O   UNL     1       6.111   2.899  -3.118  1.00  0.00    -0.261 OA
BRANCH  20  27
ATOM     27  C   UNL     1       1.325   0.569   0.982  1.00  0.00    -0.021 A 
ATOM     28  C   UNL     1       3.166  -1.170   0.605  1.00  0.00     0.045 C 
ATOM     29  C   UNL     1       1.735  -0.736   0.656  1.00  0.00    -0.044 A 
ATOM     30  C   UNL     1       0.779  -1.781   0.478  1.00  0.00     0.004 A 
ATOM     31  C   UNL     1      -0.572  -1.597   0.742  1.00  0.00     0.000 A 
ATOM     32  C   UNL     1      -0.035   0.665   1.390  1.00  0.00     0.008 A 
ATOM     33  C   UNL     1      -0.972  -0.380   1.255  1.00  0.00     0.001 A 
ENDBRANCH  20  27
ENDBRANCH  18  19
ENDBRANCH  15  18
ENDBRANCH   9  14
ENDBRANCH   6   8
ENDBRANCH   5   6
ENDBRANCH   4   5
ENDBRANCH   3   4
ENDBRANCH   2   3
ENDBRANCH   1   2
BRANCH   1  34
ATOM     34  C   UNL     1       8.207   3.201  -0.562  1.00  0.00     0.188 C 
BRANCH  34  35
ATOM     35  O   UNL     1       8.202   1.793  -0.352  1.00  0.00    -0.376 OA
BRANCH  35  36
ATOM     36  C   UNL     1       7.940   0.872  -1.433  1.00  0.00     0.202 C 
BRANCH  36  37
ATOM     37  C   UNL     1       8.302   1.154  -2.924  1.00  0.00     0.261 C 
BRANCH  37  38
ATOM     38  O   UNL     1       7.205   0.647  -3.786  1.00  0.00    -0.460 OA
BRANCH  38  39
ATOM     39  C   UNL     1       6.855   1.367  -4.911  1.00  0.00     0.338 C 
ATOM     40  O   UNL     1       7.602   2.128  -5.510  1.00  0.00    -0.246 OA
BRANCH  39  41
ATOM     41  C   UNL     1       5.327   1.365  -5.089  1.00  0.00     0.060 A 
ATOM     42  C   UNL     1       4.671   2.547  -5.439  1.00  0.00     0.016 A 
ATOM     43  C   UNL     1       4.496   0.359  -4.614  1.00  0.00     0.016 A 
ATOM     44  C   UNL     1       3.313   2.789  -5.032  1.00  0.00     0.010 A 
ATOM     45  C   UNL     1       3.140   0.647  -4.208  1.00  0.00     0.010 A 
ATOM     46  C   UNL     1       2.579   1.960  -4.163  1.00  0.00    -0.014 A 
BRANCH  46  47
ATOM     47  C   UNL     1       1.267   2.248  -3.129  1.00  0.00     0.031 A 
ATOM     48  C   UNL     1       0.025   1.692  -3.740  1.00  0.00     0.074 A 
ATOM     49  C   UNL     1       0.856   2.998  -1.956  1.00  0.00     0.049 A 
ATOM     50  N   UNL     1      -1.155   2.232  -3.615  1.00  0.00    -0.248 NA
ATOM     51  C   UNL     1       0.051   0.600  -4.717  1.00  0.00     0.031 C 
ATOM     52  C   UNL     1      -0.232   2.662  -1.011  1.00  0.00     0.029 A 
ATOM     53  N   UNL     1       1.235   4.211  -1.292  1.00  0.00    -0.354 N 
ATOM     54  C   UNL     1      -2.004   1.231  -4.004  1.00  0.00     0.074 A 
ATOM     55  C   UNL     1      -1.248   0.517  -4.994  1.00  0.00     0.031 C 
ATOM     56  C   UNL     1      -0.322   3.536   0.030  1.00  0.00     0.029 A 
ATOM     57  C   UNL     1       0.687   4.587  -0.060  1.00  0.00     0.049 A 
ATOM     58  H   UNL     1       1.902   4.798  -1.715  1.00  0.00     0.167 HD
ATOM     59  C   UNL     1      -2.983   0.823  -3.142  1.00  0.00     0.031 A 
ATOM     60  C   UNL     1       0.630   5.886   0.435  1.00  0.00     0.031 A 
ATOM     61  C   UNL     1      -3.327   1.829  -2.097  1.00  0.00     0.049 A 
ATOM     62  C   UNL     1      -0.712   6.387   0.031  1.00  0.00     0.074 A 
ATOM     63  C   UNL     1      -3.554   1.750  -0.729  1.00  0.00     0.029 A 
ATOM     64  N   UNL     1      -3.290   3.214  -2.374  1.00  0.00    -0.354 N 
ATOM     65  N   UNL     1      -1.409   5.740  -0.853  1.00  0.00    -0.248 NA
ATOM     66  C   UNL     1      -1.385   7.572   0.550  1.00  0.00     0.031 C 
ATOM     67  C   UNL     1      -3.639   3.061  -0.195  1.00  0.00     0.029 A 
ATOM     68  C   UNL     1      -3.498   3.969  -1.232  1.00  0.00     0.049 A 
ATOM     69  H   UNL     1      -3.135   3.595  -3.268  1.00  0.00     0.167 HD
ATOM     70  C   UNL     1      -2.674   6.191  -0.785  1.00  0.00     0.074 A 
ATOM     71  C   UNL     1      -2.596   7.429  -0.022  1.00  0.00     0.031 C 
ATOM     72  C   UNL     1      -3.693   5.424  -1.243  1.00  0.00     0.031 A 
BRANCH  59  73
ATOM     73  C   UNL     1      -3.359  -0.678  -3.065  1.00  0.00    -0.014 A 
ATOM     74  C   UNL     1      -4.239  -1.149  -2.078  1.00  0.00     0.009 A 
ATOM     75  C   UNL     1      -2.796  -1.705  -3.862  1.00  0.00     0.009 A 
ATOM     76  C   UNL     1      -4.475  -2.524  -1.866  1.00  0.00     0.001 A 
ATOM     77  C   UNL     1      -3.041  -3.073  -3.681  1.00  0.00     0.001 A 
ATOM     78  C   UNL     1      -3.872  -3.487  -2.664  1.00  0.00     0.000 A 
ENDBRANCH  59  73
BRANCH  60  79
ATOM     79  C   UNL     1       1.754   6.894   0.671  1.00  0.00    -0.014 A 
ATOM     80  C   UNL     1       2.476   6.889   1.886  1.00  0.00     0.009 A 
ATOM     81  C   UNL     1       2.239   7.779  -0.310  1.00  0.00     0.009 A 
ATOM     82  C   UNL     1       3.752   7.503   2.004  1.00  0.00     0.001 A 
ATOM     83  C   UNL     1       3.516   8.387  -0.197  1.00  0.00     0.001 A 
ATOM     84  C   UNL     1       4.303   8.191   0.932  1.00  0.00     0.000 A 
ENDBRANCH  60  79
BRANCH  72  85
ATOM     85  C   UNL     1      -5.054   5.967  -1.471  1.00  0.00    -0.014 A 
ATOM     86  C   UNL     1      -5.307   7.318  -1.734  1.00  0.00     0.009 A 
ATOM     87  C   UNL     1      -6.119   5.058  -1.581  1.00  0.00     0.009 A 
ATOM     88  C   UNL     1      -6.596   7.750  -2.039  1.00  0.00     0.001 A 
ATOM     89  C   UNL     1      -7.393   5.478  -1.932  1.00  0.00     0.001 A 
ATOM     90  C   UNL     1      -7.633   6.827  -2.149  1.00  0.00     0.000 A 
ENDBRANCH  72  85
ENDBRANCH  46  47
ENDBRANCH  39  41
ENDBRANCH  38  39
ENDBRANCH  37  38
ENDBRANCH  36  37
ENDBRANCH  35  36
ENDBRANCH  34  35
ENDBRANCH   1  34
TORSDOF 21
