REMARK SMILES COc1ccc(CN(CC(=O)OCCOCCOCCOC(=O)c2ccc(-c3c4nc(c(-c5ccccc5)c5ccc([nH]5)c(-c5ccccc5)c5nc(c(-c6ccccc6)c6ccc3[nH]6)C=C5)C=C4)cc2)N=O)cc1
REMARK SMILES IDX 16 1 15 2 14 3 13 4 12 5 10 6 11 7 9 8 8 9 7 10 6 11 3 12
REMARK SMILES IDX 4 13 75 14 5 15 74 16 2 17 1 18 72 19 73 20 17 21 18 22
REMARK SMILES IDX 19 23 20 24 21 25 22 26 23 27 24 28 25 29 71 30 26 31 70 32
REMARK SMILES IDX 27 33 28 34 29 35 64 36 30 37 69 38 63 39 65 40 31 41 68 42
REMARK SMILES IDX 62 43 61 44 32 46 54 47 39 48 53 49 40 50 43 51 52 52 66 53
REMARK SMILES IDX 41 54 42 55 51 57 67 58 44 59 33 60 34 61 38 62 35 63 37 64
REMARK SMILES IDX 36 65 55 66 56 67 60 68 57 69 59 70 58 71 45 72 46 73 50 74
REMARK SMILES IDX 47 75 49 76 48 77
REMARK H PARENT 65 45 43 56
REMARK Flexibility Score: inf
ROOT
ATOM      1  C   UNL     1       2.947   1.929  10.491  1.00  0.00     0.188 C 
ENDROOT
BRANCH   1   2
ATOM      2  O   UNL     1       2.874   1.356  11.797  1.00  0.00    -0.376 OA
BRANCH   2   3
ATOM      3  C   UNL     1       3.384   0.044  11.977  1.00  0.00     0.202 C 
BRANCH   3   4
ATOM      4  C   UNL     1       2.522  -1.085  11.406  1.00  0.00     0.261 C 
BRANCH   4   5
ATOM      5  O   UNL     1       2.151  -0.887  10.025  1.00  0.00    -0.462 OA
BRANCH   5   6
ATOM      6  C   UNL     1       0.819  -0.910   9.747  1.00  0.00     0.327 C 
ATOM      7  O   UNL     1      -0.050  -1.160  10.579  1.00  0.00    -0.250 OA
BRANCH   6   8
ATOM      8  C   UNL     1       0.452  -0.660   8.286  1.00  0.00     0.264 C 
BRANCH   8   9
ATOM      9  N   UNL     1       1.598  -0.307   7.435  1.00  0.00    -0.245 NA
BRANCH   9  10
ATOM     10  C   UNL     1       1.942  -1.313   6.414  1.00  0.00     0.178 C 
BRANCH  10  11
ATOM     11  C   UNL     1       1.526  -0.970   4.988  1.00  0.00    -0.027 A 
ATOM     12  C   UNL     1       0.837  -0.169   2.371  1.00  0.00     0.118 A 
ATOM     13  C   UNL     1      -0.126  -0.205   3.379  1.00  0.00     0.047 A 
ATOM     14  C   UNL     1       2.146  -0.547   2.663  1.00  0.00     0.047 A 
ATOM     15  C   UNL     1       0.206  -0.623   4.671  1.00  0.00     0.009 A 
ATOM     16  C   UNL     1       2.487  -0.947   3.962  1.00  0.00     0.009 A 
BRANCH  12  17
ATOM     17  O   UNL     1       0.398   0.306   1.166  1.00  0.00    -0.497 OA
ATOM     18  C   UNL     1       1.101  -0.157   0.019  1.00  0.00     0.278 C 
ENDBRANCH  12  17
ENDBRANCH  10  11
ENDBRANCH   9  10
BRANCH   9  19
ATOM     19  N   UNL     1       1.832   0.940   7.085  1.00  0.00     0.053 NA
ATOM     20  O   UNL     1       1.130   1.764   7.676  1.00  0.00    -0.125 OA
ENDBRANCH   9  19
ENDBRANCH   8   9
ENDBRANCH   6   8
ENDBRANCH   5   6
ENDBRANCH   4   5
ENDBRANCH   3   4
ENDBRANCH   2   3
ENDBRANCH   1   2
BRANCH   1  21
ATOM     21  C   UNL     1       4.049   1.458   9.529  1.00  0.00     0.188 C 
BRANCH  21  22
ATOM     22  O   UNL     1       5.320   1.427  10.174  1.00  0.00    -0.376 OA
BRANCH  22  23
ATOM     23  C   UNL     1       6.373   1.981   9.396  1.00  0.00     0.202 C 
BRANCH  23  24
ATOM     24  C   UNL     1       6.595   3.438   9.806  1.00  0.00     0.261 C 
BRANCH  24  25
ATOM     25  O   UNL     1       5.414   4.258   9.718  1.00  0.00    -0.460 OA
BRANCH  25  26
ATOM     26  C   UNL     1       4.976   4.550   8.476  1.00  0.00     0.338 C 
ATOM     27  O   UNL     1       5.477   4.190   7.418  1.00  0.00    -0.246 OA
BRANCH  26  28
ATOM     28  C   UNL     1       3.701   5.285   8.581  1.00  0.00     0.060 A 
ATOM     29  C   UNL     1       2.585   4.820   7.878  1.00  0.00     0.016 A 
ATOM     30  C   UNL     1       3.616   6.458   9.336  1.00  0.00     0.016 A 
ATOM     31  C   UNL     1       1.386   5.539   7.905  1.00  0.00     0.010 A 
ATOM     32  C   UNL     1       2.422   7.186   9.348  1.00  0.00     0.010 A 
ATOM     33  C   UNL     1       1.307   6.748   8.610  1.00  0.00    -0.014 A 
BRANCH  33  34
ATOM     34  C   UNL     1       0.130   7.642   8.460  1.00  0.00     0.031 A 
ATOM     35  C   UNL     1       0.235   8.828   7.538  1.00  0.00     0.074 A 
ATOM     36  C   UNL     1      -1.010   7.428   9.142  1.00  0.00     0.049 A 
ATOM     37  N   UNL     1      -0.613   9.807   7.341  1.00  0.00    -0.248 NA
ATOM     38  C   UNL     1       1.465   8.926   6.734  1.00  0.00     0.031 C 
ATOM     39  C   UNL     1      -1.269   6.300  10.034  1.00  0.00     0.029 A 
ATOM     40  N   UNL     1      -2.164   8.174   9.198  1.00  0.00    -0.354 N 
ATOM     41  C   UNL     1      -0.009  10.647   6.413  1.00  0.00     0.074 A 
ATOM     42  C   UNL     1       1.279  10.071   6.094  1.00  0.00     0.031 C 
ATOM     43  C   UNL     1      -2.497   6.437  10.565  1.00  0.00     0.029 A 
ATOM     44  C   UNL     1      -3.094   7.682  10.082  1.00  0.00     0.049 A 
ATOM     45  H   UNL     1      -2.310   8.983   8.657  1.00  0.00     0.167 HD
ATOM     46  C   UNL     1      -0.483  11.796   5.875  1.00  0.00     0.031 A 
ATOM     47  C   UNL     1      -4.276   8.193  10.481  1.00  0.00     0.031 A 
ATOM     48  C   UNL     1      -1.764  12.371   6.181  1.00  0.00     0.049 A 
ATOM     49  C   UNL     1      -4.753   9.506   9.913  1.00  0.00     0.074 A 
ATOM     50  C   UNL     1      -2.337  13.520   5.662  1.00  0.00     0.029 A 
ATOM     51  N   UNL     1      -2.668  11.847   7.089  1.00  0.00    -0.354 N 
ATOM     52  N   UNL     1      -4.184  10.278   9.019  1.00  0.00    -0.248 NA
ATOM     53  C   UNL     1      -6.041  10.016  10.410  1.00  0.00     0.031 C 
ATOM     54  C   UNL     1      -3.567  13.719   6.296  1.00  0.00     0.029 A 
ATOM     55  C   UNL     1      -3.784  12.664   7.166  1.00  0.00     0.049 A 
ATOM     56  H   UNL     1      -2.538  11.017   7.603  1.00  0.00     0.167 HD
ATOM     57  C   UNL     1      -5.056  11.344   8.827  1.00  0.00     0.074 A 
ATOM     58  C   UNL     1      -6.198  11.114   9.684  1.00  0.00     0.031 C 
ATOM     59  C   UNL     1      -4.920  12.419   8.014  1.00  0.00     0.031 A 
BRANCH  46  60
ATOM     60  C   UNL     1       0.409  12.536   4.919  1.00  0.00    -0.014 A 
ATOM     61  C   UNL     1       0.627  12.071   3.613  1.00  0.00     0.009 A 
ATOM     62  C   UNL     1       0.991  13.750   5.316  1.00  0.00     0.009 A 
ATOM     63  C   UNL     1       1.431  12.798   2.732  1.00  0.00     0.001 A 
ATOM     64  C   UNL     1       1.773  14.486   4.426  1.00  0.00     0.001 A 
ATOM     65  C   UNL     1       1.997  14.007   3.136  1.00  0.00     0.000 A 
ENDBRANCH  46  60
BRANCH  47  66
ATOM     66  C   UNL     1      -5.088   7.493  11.514  1.00  0.00    -0.014 A 
ATOM     67  C   UNL     1      -6.329   6.923  11.189  1.00  0.00     0.009 A 
ATOM     68  C   UNL     1      -4.646   7.439  12.845  1.00  0.00     0.009 A 
ATOM     69  C   UNL     1      -7.124   6.345  12.183  1.00  0.00     0.001 A 
ATOM     70  C   UNL     1      -5.428   6.833  13.830  1.00  0.00     0.001 A 
ATOM     71  C   UNL     1      -6.672   6.297  13.501  1.00  0.00     0.000 A 
ENDBRANCH  47  66
BRANCH  59  72
ATOM     72  C   UNL     1      -6.053  13.407   7.972  1.00  0.00    -0.014 A 
ATOM     73  C   UNL     1      -6.298  14.285   9.039  1.00  0.00     0.009 A 
ATOM     74  C   UNL     1      -6.856  13.493   6.823  1.00  0.00     0.009 A 
ATOM     75  C   UNL     1      -7.345  15.207   8.968  1.00  0.00     0.001 A 
ATOM     76  C   UNL     1      -7.883  14.434   6.743  1.00  0.00     0.001 A 
ATOM     77  C   UNL     1      -8.133  15.284   7.819  1.00  0.00     0.000 A 
ENDBRANCH  59  72
ENDBRANCH  33  34
ENDBRANCH  26  28
ENDBRANCH  25  26
ENDBRANCH  24  25
ENDBRANCH  23  24
ENDBRANCH  22  23
ENDBRANCH  21  22
ENDBRANCH   1  21
TORSDOF 22
