REMARK SMILES CN(C(=O)C[C@](C)(C(=O)OCCOCCOCCOC(=O)c1ccc(-c2c3nc(c(-c4ccccc4)c4ccc([nH]4)c(-c4ccccc4)c4nc(c(-c5ccccc5)c5ccc2[nH]5)C=C4)C=C3)cc1)c1ccccc1)[C@@H]1CCSC1
REMARK SMILES IDX 14 1 13 2 12 3 11 4 10 5 8 6 9 7 6 8 7 9 5 10 3 11 4 12 2 13
REMARK SMILES IDX 1 14 76 15 77 16 80 17 78 18 79 19 70 20 71 21 75 22 72 23
REMARK SMILES IDX 74 24 73 25 15 26 16 27 17 28 18 29 19 30 20 31 21 32 22 33
REMARK SMILES IDX 23 34 69 35 24 36 68 37 25 38 26 39 27 40 62 41 28 42 67 43
REMARK SMILES IDX 61 44 63 45 29 46 66 47 60 48 59 49 30 51 52 52 37 53 51 54
REMARK SMILES IDX 38 55 41 56 50 57 64 58 39 59 40 60 49 62 65 63 42 64 31 65
REMARK SMILES IDX 32 66 36 67 33 68 35 69 34 70 53 71 54 72 58 73 55 74 57 75
REMARK SMILES IDX 56 76 43 77 44 78 48 79 45 80 47 81 46 82
REMARK H PARENT 63 50 41 61
REMARK Flexibility Score: inf
ROOT
ATOM      1  C   UNL     1      -0.466   1.157  -6.234  1.00  0.00     0.188 C 
ENDROOT
BRANCH   1   2
ATOM      2  O   UNL     1      -0.521   0.093  -7.174  1.00  0.00    -0.376 OA
BRANCH   2   3
ATOM      3  C   UNL     1      -0.768  -1.224  -6.677  1.00  0.00     0.202 C 
BRANCH   3   4
ATOM      4  C   UNL     1       0.084  -1.734  -5.501  1.00  0.00     0.261 C 
BRANCH   4   5
ATOM      5  O   UNL     1       0.007  -0.910  -4.317  1.00  0.00    -0.463 OA
BRANCH   5   6
ATOM      6  C   UNL     1       1.181  -0.454  -3.796  1.00  0.00     0.316 C 
ATOM      7  O   UNL     1       2.276  -0.778  -4.248  1.00  0.00    -0.251 OA
BRANCH   6   8
ATOM      8  C   UNL     1       1.001   0.572  -2.618  1.00  0.00     0.099 C 
ATOM      9  C   UNL     1      -0.487   0.575  -2.137  1.00  0.00     0.029 C 
BRANCH   8  10
ATOM     10  C   UNL     1       1.972   0.087  -1.481  1.00  0.00     0.123 C 
BRANCH  10  11
ATOM     11  C   UNL     1       1.292  -0.379  -0.215  1.00  0.00     0.224 C 
ATOM     12  O   UNL     1       1.178  -1.592  -0.046  1.00  0.00    -0.275 OA
BRANCH  11  13
ATOM     13  N   UNL     1       0.739   0.571   0.640  1.00  0.00    -0.342 N 
ATOM     14  C   UNL     1       1.014   2.005   0.543  1.00  0.00     0.147 C 
BRANCH  13  15
ATOM     15  C   UNL     1      -0.132   0.185   1.776  1.00  0.00     0.095 C 
ATOM     16  C   UNL     1       0.668  -0.026   3.062  1.00  0.00     0.037 C 
ATOM     17  C   UNL     1      -1.059  -1.036   1.607  1.00  0.00     0.094 C 
ATOM     18  C   UNL     1       1.132  -1.469   3.077  1.00  0.00     0.072 C 
ATOM     19  S   UNL     1      -0.347  -2.394   2.596  1.00  0.00    -0.160 SA
ENDBRANCH  13  15
ENDBRANCH  11  13
ENDBRANCH  10  11
ENDBRANCH   8  10
BRANCH   8  20
ATOM     20  C   UNL     1       1.552   1.981  -3.053  1.00  0.00    -0.030 A 
ATOM     21  C   UNL     1       2.865   2.079  -3.576  1.00  0.00     0.005 A 
ATOM     22  C   UNL     1       0.891   3.198  -2.808  1.00  0.00     0.005 A 
ATOM     23  C   UNL     1       3.488   3.309  -3.812  1.00  0.00     0.000 A 
ATOM     24  C   UNL     1       1.528   4.433  -3.022  1.00  0.00     0.000 A 
ATOM     25  C   UNL     1       2.823   4.490  -3.523  1.00  0.00     0.000 A 
ENDBRANCH   8  20
ENDBRANCH   6   8
ENDBRANCH   5   6
ENDBRANCH   4   5
ENDBRANCH   3   4
ENDBRANCH   2   3
ENDBRANCH   1   2
BRANCH   1  26
ATOM     26  C   UNL     1      -1.666   1.348  -5.303  1.00  0.00     0.188 C 
BRANCH  26  27
ATOM     27  O   UNL     1      -2.520   0.233  -5.217  1.00  0.00    -0.376 OA
BRANCH  27  28
ATOM     28  C   UNL     1      -3.928   0.411  -5.267  1.00  0.00     0.202 C 
BRANCH  28  29
ATOM     29  C   UNL     1      -4.579   1.237  -6.402  1.00  0.00     0.261 C 
BRANCH  29  30
ATOM     30  O   UNL     1      -3.969   2.488  -6.770  1.00  0.00    -0.460 OA
BRANCH  30  31
ATOM     31  C   UNL     1      -4.040   3.505  -5.870  1.00  0.00     0.338 C 
ATOM     32  O   UNL     1      -4.661   3.510  -4.829  1.00  0.00    -0.246 OA
BRANCH  31  33
ATOM     33  C   UNL     1      -2.978   4.492  -6.222  1.00  0.00     0.060 A 
ATOM     34  C   UNL     1      -2.016   4.806  -5.247  1.00  0.00     0.016 A 
ATOM     35  C   UNL     1      -2.881   5.050  -7.497  1.00  0.00     0.016 A 
ATOM     36  C   UNL     1      -0.984   5.703  -5.533  1.00  0.00     0.010 A 
ATOM     37  C   UNL     1      -1.863   5.973  -7.772  1.00  0.00     0.010 A 
ATOM     38  C   UNL     1      -0.928   6.330  -6.781  1.00  0.00    -0.014 A 
BRANCH  38  39
ATOM     39  C   UNL     1      -0.072   7.530  -6.966  1.00  0.00     0.031 A 
ATOM     40  C   UNL     1      -0.726   8.879  -6.822  1.00  0.00     0.074 A 
ATOM     41  C   UNL     1       1.248   7.457  -7.219  1.00  0.00     0.049 A 
ATOM     42  N   UNL     1      -0.245  10.072  -7.059  1.00  0.00    -0.248 NA
ATOM     43  C   UNL     1      -2.118   8.874  -6.341  1.00  0.00     0.031 C 
ATOM     44  C   UNL     1       2.041   6.231  -7.276  1.00  0.00     0.029 A 
ATOM     45  N   UNL     1       2.153   8.457  -7.488  1.00  0.00    -0.354 N 
ATOM     46  C   UNL     1      -1.283  10.954  -6.784  1.00  0.00     0.074 A 
ATOM     47  C   UNL     1      -2.421  10.161  -6.377  1.00  0.00     0.031 C 
ATOM     48  C   UNL     1       3.311   6.550  -7.585  1.00  0.00     0.029 A 
ATOM     49  C   UNL     1       3.410   7.994  -7.796  1.00  0.00     0.049 A 
ATOM     50  H   UNL     1       1.923   9.413  -7.461  1.00  0.00     0.167 HD
ATOM     51  C   UNL     1      -1.293  12.305  -6.865  1.00  0.00     0.031 A 
ATOM     52  C   UNL     1       4.500   8.657  -8.236  1.00  0.00     0.031 A 
ATOM     53  C   UNL     1      -0.169  13.097  -7.283  1.00  0.00     0.049 A 
ATOM     54  C   UNL     1       4.430  10.152  -8.442  1.00  0.00     0.074 A 
ATOM     55  C   UNL     1      -0.086  14.472  -7.414  1.00  0.00     0.029 A 
ATOM     56  N   UNL     1       1.065  12.583  -7.645  1.00  0.00    -0.354 N 
ATOM     57  N   UNL     1       3.440  10.978  -8.202  1.00  0.00    -0.248 NA
ATOM     58  C   UNL     1       5.635  10.805  -8.980  1.00  0.00     0.031 C 
ATOM     59  C   UNL     1       1.181  14.785  -7.916  1.00  0.00     0.029 A 
ATOM     60  C   UNL     1       1.910  13.612  -8.024  1.00  0.00     0.049 A 
ATOM     61  H   UNL     1       1.306  11.628  -7.635  1.00  0.00     0.167 HD
ATOM     62  C   UNL     1       3.915  12.246  -8.521  1.00  0.00     0.074 A 
ATOM     63  C   UNL     1       5.283  12.083  -8.963  1.00  0.00     0.031 C 
ATOM     64  C   UNL     1       3.276  13.440  -8.447  1.00  0.00     0.031 A 
BRANCH  51  65
ATOM     65  C   UNL     1      -2.587  13.003  -6.553  1.00  0.00    -0.014 A 
ATOM     66  C   UNL     1      -3.096  13.062  -5.245  1.00  0.00     0.009 A 
ATOM     67  C   UNL     1      -3.303  13.623  -7.589  1.00  0.00     0.009 A 
ATOM     68  C   UNL     1      -4.315  13.693  -4.990  1.00  0.00     0.001 A 
ATOM     69  C   UNL     1      -4.504  14.283  -7.325  1.00  0.00     0.001 A 
ATOM     70  C   UNL     1      -5.014  14.308  -6.029  1.00  0.00     0.000 A 
ENDBRANCH  51  65
BRANCH  52  71
ATOM     71  C   UNL     1       5.750   7.918  -8.566  1.00  0.00    -0.014 A 
ATOM     72  C   UNL     1       6.923   8.121  -7.822  1.00  0.00     0.009 A 
ATOM     73  C   UNL     1       5.791   7.039  -9.660  1.00  0.00     0.009 A 
ATOM     74  C   UNL     1       8.114   7.484  -8.184  1.00  0.00     0.001 A 
ATOM     75  C   UNL     1       6.974   6.378 -10.000  1.00  0.00     0.001 A 
ATOM     76  C   UNL     1       8.137   6.610  -9.269  1.00  0.00     0.000 A 
ENDBRANCH  52  71
BRANCH  64  77
ATOM     77  C   UNL     1       4.061  14.679  -8.786  1.00  0.00    -0.014 A 
ATOM     78  C   UNL     1       4.438  14.980 -10.103  1.00  0.00     0.009 A 
ATOM     79  C   UNL     1       4.372  15.595  -7.766  1.00  0.00     0.009 A 
ATOM     80  C   UNL     1       5.137  16.157 -10.386  1.00  0.00     0.001 A 
ATOM     81  C   UNL     1       5.040  16.785  -8.057  1.00  0.00     0.001 A 
ATOM     82  C   UNL     1       5.431  17.061  -9.366  1.00  0.00     0.000 A 
ENDBRANCH  64  77
ENDBRANCH  38  39
ENDBRANCH  31  33
ENDBRANCH  30  31
ENDBRANCH  29  30
ENDBRANCH  28  29
ENDBRANCH  27  28
ENDBRANCH  26  27
ENDBRANCH   1  26
TORSDOF 22
