REMARK SMILES CC(=O)N(c1ccccc1)c1nc(/C=C(/C#N)C(=O)OCCOCCOCCOC(=O)c2ccc(-c3c4nc(c(-c5ccccc5)c5ccc([nH]5)c(-c5ccccc5)c5nc(c(-c6ccccc6)c6ccc3[nH]6)C=C5)C=C4)cc2)cs1
REMARK SMILES IDX 24 1 23 2 22 3 21 4 20 5 18 6 19 7 15 8 14 9 13 10 11 11
REMARK SMILES IDX 12 12 81 13 80 14 4 15 2 16 1 17 3 18 5 19 6 20 10 21 7 22
REMARK SMILES IDX 9 23 8 24 16 25 17 26 25 27 26 28 27 29 28 30 29 31 30 32
REMARK SMILES IDX 31 33 32 34 33 35 79 36 34 37 78 38 35 39 36 40 37 41 72 42
REMARK SMILES IDX 38 43 77 44 71 45 73 46 39 47 76 48 70 49 69 50 40 52 62 53
REMARK SMILES IDX 47 54 61 55 48 56 51 57 60 58 74 59 49 60 50 61 59 63 75 64
REMARK SMILES IDX 52 65 41 66 42 67 46 68 43 69 45 70 44 71 63 72 64 73 68 74
REMARK SMILES IDX 65 75 67 76 66 77 53 78 54 79 58 80 55 81 57 82 56 83
REMARK H PARENT 73 51 51 62
REMARK Flexibility Score: inf
ROOT
ATOM      1  C   UNL     1      -0.302  -5.557   6.549  1.00  0.00     0.188 C 
ENDROOT
BRANCH   1   2
ATOM      2  O   UNL     1       0.818  -5.956   7.303  1.00  0.00    -0.376 OA
BRANCH   2   3
ATOM      3  C   UNL     1       0.939  -5.589   8.668  1.00  0.00     0.202 C 
BRANCH   3   4
ATOM      4  C   UNL     1       0.040  -4.549   9.389  1.00  0.00     0.261 C 
BRANCH   4   5
ATOM      5  O   UNL     1      -1.169  -4.137   8.720  1.00  0.00    -0.459 OA
BRANCH   5   6
ATOM      6  C   UNL     1      -1.207  -2.885   8.180  1.00  0.00     0.349 C 
ATOM      7  O   UNL     1      -0.376  -2.013   8.368  1.00  0.00    -0.245 OA
BRANCH   6   8
ATOM      8  C   UNL     1      -2.288  -2.800   7.153  1.00  0.00     0.139 C 
ATOM      9  C   UNL     1      -2.068  -2.548   5.837  1.00  0.00     0.056 C 
BRANCH   9  10
ATOM     10  C   UNL     1      -0.844  -2.300   5.119  1.00  0.00     0.078 A 
ATOM     11  C   UNL     1       0.307  -1.753   3.307  1.00  0.00     0.197 A 
ATOM     12  N   UNL     1      -0.917  -1.908   3.783  1.00  0.00    -0.220 NA
ATOM     13  S   UNL     1       1.584  -1.978   4.443  1.00  0.00    -0.104 S 
ATOM     14  C   UNL     1       0.441  -2.471   5.584  1.00  0.00     0.097 A 
BRANCH  11  15
ATOM     15  N   UNL     1       0.744  -1.418   2.032  1.00  0.00    -0.256 N 
BRANCH  15  16
ATOM     16  C   UNL     1       0.342  -0.193   1.531  1.00  0.00     0.230 C 
ATOM     17  C   UNL     1       0.761   0.188   0.132  1.00  0.00     0.115 C 
ATOM     18  O   UNL     1      -0.342   0.619   2.167  1.00  0.00    -0.274 OA
ENDBRANCH  15  16
BRANCH  15  19
ATOM     19  C   UNL     1       1.712  -2.351   1.512  1.00  0.00     0.051 A 
ATOM     20  C   UNL     1       1.143  -4.223   1.862  1.00  0.00     0.027 A 
ATOM     21  C   UNL     1       3.445  -1.609   0.891  1.00  0.00     0.027 A 
ATOM     22  C   UNL     1       2.491  -5.661   1.278  1.00  0.00     0.002 A 
ATOM     23  C   UNL     1       4.780  -3.058   0.281  1.00  0.00     0.002 A 
ATOM     24  C   UNL     1       4.123  -4.915   0.443  1.00  0.00     0.000 A 
ENDBRANCH  15  19
ENDBRANCH  11  15
ENDBRANCH   9  10
BRANCH   8  25
ATOM     25  C   UNL     1      -3.606  -3.111   7.598  1.00  0.00     0.107 C 
ATOM     26  N   UNL     1      -4.689  -3.380   7.917  1.00  0.00    -0.192 NA
ENDBRANCH   8  25
ENDBRANCH   6   8
ENDBRANCH   5   6
ENDBRANCH   4   5
ENDBRANCH   3   4
ENDBRANCH   2   3
ENDBRANCH   1   2
BRANCH   1  27
ATOM     27  C   UNL     1      -1.693  -6.179   6.781  1.00  0.00     0.188 C 
BRANCH  27  28
ATOM     28  O   UNL     1      -1.952  -6.785   8.017  1.00  0.00    -0.376 OA
BRANCH  28  29
ATOM     29  C   UNL     1      -1.248  -7.972   8.326  1.00  0.00     0.202 C 
BRANCH  29  30
ATOM     30  C   UNL     1      -0.476  -8.834   7.283  1.00  0.00     0.261 C 
BRANCH  30  31
ATOM     31  O   UNL     1      -0.083  -8.258   6.006  1.00  0.00    -0.460 OA
BRANCH  31  32
ATOM     32  C   UNL     1      -0.909  -8.502   4.950  1.00  0.00     0.338 C 
ATOM     33  O   UNL     1      -1.920  -9.185   4.989  1.00  0.00    -0.246 OA
BRANCH  32  34
ATOM     34  C   UNL     1      -0.571  -7.725   3.717  1.00  0.00     0.060 A 
ATOM     35  C   UNL     1      -1.344  -6.630   3.277  1.00  0.00     0.016 A 
ATOM     36  C   UNL     1       0.358  -8.254   2.841  1.00  0.00     0.016 A 
ATOM     37  C   UNL     1      -1.130  -6.016   2.010  1.00  0.00     0.010 A 
ATOM     38  C   UNL     1       0.528  -7.671   1.568  1.00  0.00     0.010 A 
ATOM     39  C   UNL     1      -0.070  -6.431   1.181  1.00  0.00    -0.014 A 
BRANCH  39  40
ATOM     40  C   UNL     1       0.614  -5.468  -0.071  1.00  0.00     0.031 A 
ATOM     41  C   UNL     1       0.324  -6.140  -1.397  1.00  0.00     0.074 A 
ATOM     42  C   UNL     1       1.757  -4.396   0.058  1.00  0.00     0.049 A 
ATOM     43  N   UNL     1       0.839  -5.922  -2.572  1.00  0.00    -0.248 NA
ATOM     44  C   UNL     1      -0.532  -7.352  -1.329  1.00  0.00     0.031 C 
ATOM     45  C   UNL     1       2.857  -4.056   1.794  1.00  0.00     0.029 A 
ATOM     46  N   UNL     1       2.186  -3.719  -0.981  1.00  0.00    -0.354 N 
ATOM     47  C   UNL     1       0.417  -6.994  -3.350  1.00  0.00     0.074 A 
ATOM     48  C   UNL     1      -0.314  -7.903  -2.508  1.00  0.00     0.031 C 
ATOM     49  C   UNL     1       3.559  -3.213   1.499  1.00  0.00     0.029 A 
ATOM     50  C   UNL     1       3.051  -2.863  -0.487  1.00  0.00     0.049 A 
ATOM     51  H   UNL     1       1.919  -3.828  -1.923  1.00  0.00     0.167 HD
ATOM     52  C   UNL     1       0.614  -7.211  -4.663  1.00  0.00     0.031 A 
ATOM     53  C   UNL     1       3.773  -1.810  -1.390  1.00  0.00     0.031 A 
ATOM     54  C   UNL     1       1.389  -6.350  -5.494  1.00  0.00     0.049 A 
ATOM     55  C   UNL     1       3.863  -2.062  -2.886  1.00  0.00     0.074 A 
ATOM     56  C   UNL     1       1.555  -6.417  -6.862  1.00  0.00     0.029 A 
ATOM     57  N   UNL     1       2.154  -5.296  -5.029  1.00  0.00    -0.354 N 
ATOM     58  N   UNL     1       3.332  -3.009  -3.614  1.00  0.00    -0.248 NA
ATOM     59  C   UNL     1       4.800  -1.194  -3.629  1.00  0.00     0.031 C 
ATOM     60  C   UNL     1       2.503  -5.464  -7.218  1.00  0.00     0.029 A 
ATOM     61  C   UNL     1       2.826  -4.729  -6.091  1.00  0.00     0.049 A 
ATOM     62  H   UNL     1       2.210  -5.000  -4.091  1.00  0.00     0.167 HD
ATOM     63  C   UNL     1       3.878  -2.851  -4.885  1.00  0.00     0.074 A 
ATOM     64  C   UNL     1       4.764  -1.714  -4.841  1.00  0.00     0.031 C 
ATOM     65  C   UNL     1       3.685  -3.587  -6.001  1.00  0.00     0.031 A 
BRANCH  52  66
ATOM     66  C   UNL     1      -0.020  -8.425  -5.269  1.00  0.00    -0.014 A 
ATOM     67  C   UNL     1      -1.418  -8.557  -5.325  1.00  0.00     0.009 A 
ATOM     68  C   UNL     1       0.788  -9.426  -5.823  1.00  0.00     0.009 A 
ATOM     69  C   UNL     1      -1.993  -9.690  -5.896  1.00  0.00     0.001 A 
ATOM     70  C   UNL     1       0.209 -10.534  -6.437  1.00  0.00     0.001 A 
ATOM     71  C   UNL     1      -1.179 -10.668  -6.464  1.00  0.00     0.000 A 
ENDBRANCH  52  66
BRANCH  53  72
ATOM     72  C   UNL     1       4.863  -0.537  -0.908  1.00  0.00    -0.014 A 
ATOM     73  C   UNL     1       4.584   0.803  -1.240  1.00  0.00     0.009 A 
ATOM     74  C   UNL     1       5.982  -0.660  -0.001  1.00  0.00     0.009 A 
ATOM     75  C   UNL     1       5.328   1.881  -0.679  1.00  0.00     0.001 A 
ATOM     76  C   UNL     1       6.635   0.398   0.639  1.00  0.00     0.001 A 
ATOM     77  C   UNL     1       6.315   1.682   0.288  1.00  0.00     0.000 A 
ENDBRANCH  53  72
BRANCH  65  78
ATOM     78  C   UNL     1       4.311  -3.092  -7.271  1.00  0.00    -0.014 A 
ATOM     79  C   UNL     1       5.689  -3.152  -7.515  1.00  0.00     0.009 A 
ATOM     80  C   UNL     1       3.458  -2.575  -8.259  1.00  0.00     0.009 A 
ATOM     81  C   UNL     1       6.203  -2.664  -8.717  1.00  0.00     0.001 A 
ATOM     82  C   UNL     1       3.967  -2.141  -9.477  1.00  0.00     0.001 A 
ATOM     83  C   UNL     1       5.341  -2.171  -9.699  1.00  0.00     0.000 A 
ENDBRANCH  65  78
ENDBRANCH  39  40
ENDBRANCH  32  34
ENDBRANCH  31  32
ENDBRANCH  30  31
ENDBRANCH  29  30
ENDBRANCH  28  29
ENDBRANCH  27  28
ENDBRANCH   1  27
TORSDOF 22
