REMARK SMILES COc1c(C(=O)OCCOCCOCCOC(=O)c2ccc(-c3c4nc(c(-c5ccccc5)c5ccc([nH]5)c(-c5ccccc5)c5nc(c(-c6ccccc6)c6ccc3[nH]6)C=C5)C=C4)cc2)cccc1-c1cc(C)ccc1C
REMARK SMILES IDX 12 1 11 2 10 3 9 4 8 5 7 6 5 7 6 8 4 9 3 10 70 11 67 12
REMARK SMILES IDX 69 13 68 14 2 15 1 16 71 17 72 18 77 19 73 20 76 21 78 22
REMARK SMILES IDX 74 23 75 24 13 25 14 26 15 27 16 28 17 29 18 30 19 31 20 32
REMARK SMILES IDX 66 33 21 34 65 35 22 36 23 37 24 38 59 39 25 40 64 41 58 42
REMARK SMILES IDX 60 43 26 44 63 45 57 46 56 47 27 49 49 50 34 51 48 52 35 53
REMARK SMILES IDX 38 54 47 55 61 56 36 57 37 58 46 60 62 61 39 62 28 63 29 64
REMARK SMILES IDX 33 65 30 66 32 67 31 68 50 69 51 70 55 71 52 72 54 73 53 74
REMARK SMILES IDX 40 75 41 76 45 77 42 78 44 79 43 80
REMARK H PARENT 60 48 38 59
REMARK Flexibility Score: inf
ROOT
ATOM      1  C   UNL     1      -1.944  -0.382  -2.955  1.00  0.00     0.188 C 
ENDROOT
BRANCH   1   2
ATOM      2  C   UNL     1      -2.973  -1.510  -3.183  1.00  0.00     0.188 C 
BRANCH   2   3
ATOM      3  O   UNL     1      -4.225  -1.482  -2.522  1.00  0.00    -0.376 OA
BRANCH   3   4
ATOM      4  C   UNL     1      -4.271  -1.460  -1.101  1.00  0.00     0.202 C 
BRANCH   4   5
ATOM      5  C   UNL     1      -3.327  -2.329  -0.262  1.00  0.00     0.261 C 
BRANCH   5   6
ATOM      6  O   UNL     1      -1.947  -2.176  -0.619  1.00  0.00    -0.460 OA
BRANCH   6   7
ATOM      7  C   UNL     1      -1.290  -3.324  -0.916  1.00  0.00     0.342 C 
ATOM      8  O   UNL     1      -1.735  -4.459  -0.841  1.00  0.00    -0.246 OA
BRANCH   7   9
ATOM      9  C   UNL     1      -0.016  -3.028  -1.608  1.00  0.00     0.102 A 
ATOM     10  C   UNL     1       0.955  -2.155  -1.096  1.00  0.00     0.141 A 
ATOM     11  C   UNL     1       2.216  -2.063  -1.732  1.00  0.00     0.025 A 
ATOM     12  C   UNL     1       0.188  -3.675  -2.837  1.00  0.00     0.019 A 
ATOM     13  C   UNL     1       2.373  -2.690  -2.988  1.00  0.00     0.012 A 
ATOM     14  C   UNL     1       1.361  -3.468  -3.549  1.00  0.00     0.002 A 
BRANCH  10  15
ATOM     15  O   UNL     1       0.672  -1.498   0.077  1.00  0.00    -0.495 OA
ATOM     16  C   UNL     1       0.755  -0.074  -0.056  1.00  0.00     0.278 C 
ENDBRANCH  10  15
BRANCH  11  17
ATOM     17  C   UNL     1       3.409  -1.464  -1.084  1.00  0.00    -0.011 A 
ATOM     18  C   UNL     1       4.173  -0.496  -1.772  1.00  0.00     0.012 A 
ATOM     19  C   UNL     1       3.855  -1.877   0.196  1.00  0.00    -0.043 A 
ATOM     20  C   UNL     1       5.330   0.069  -1.212  1.00  0.00    -0.050 A 
ATOM     21  C   UNL     1       4.977  -1.260   0.774  1.00  0.00     0.004 A 
ATOM     22  C   UNL     1       3.168  -2.946   1.010  1.00  0.00     0.045 C 
ATOM     23  C   UNL     1       6.155   1.045  -1.998  1.00  0.00     0.044 C 
ATOM     24  C   UNL     1       5.710  -0.304   0.076  1.00  0.00     0.004 A 
ENDBRANCH  11  17
ENDBRANCH   7   9
ENDBRANCH   6   7
ENDBRANCH   5   6
ENDBRANCH   4   5
ENDBRANCH   3   4
ENDBRANCH   2   3
ENDBRANCH   1   2
BRANCH   1  25
ATOM     25  O   UNL     1      -2.197   0.625  -2.006  1.00  0.00    -0.376 OA
BRANCH  25  26
ATOM     26  C   UNL     1      -3.194   1.603  -2.240  1.00  0.00     0.202 C 
BRANCH  26  27
ATOM     27  C   UNL     1      -3.754   1.988  -3.622  1.00  0.00     0.261 C 
BRANCH  27  28
ATOM     28  O   UNL     1      -3.693   1.010  -4.664  1.00  0.00    -0.460 OA
BRANCH  28  29
ATOM     29  C   UNL     1      -2.788   1.254  -5.639  1.00  0.00     0.338 C 
ATOM     30  O   UNL     1      -2.007   2.198  -5.714  1.00  0.00    -0.246 OA
BRANCH  29  31
ATOM     31  C   UNL     1      -2.737   0.100  -6.551  1.00  0.00     0.060 A 
ATOM     32  C   UNL     1      -1.577  -0.687  -6.588  1.00  0.00     0.016 A 
ATOM     33  C   UNL     1      -3.814  -0.183  -7.390  1.00  0.00     0.016 A 
ATOM     34  C   UNL     1      -1.488  -1.760  -7.474  1.00  0.00     0.010 A 
ATOM     35  C   UNL     1      -3.713  -1.243  -8.295  1.00  0.00     0.010 A 
ATOM     36  C   UNL     1      -2.543  -2.022  -8.357  1.00  0.00    -0.014 A 
BRANCH  36  37
ATOM     37  C   UNL     1      -2.376  -3.011  -9.450  1.00  0.00     0.031 A 
ATOM     38  C   UNL     1      -2.020  -2.514 -10.824  1.00  0.00     0.074 A 
ATOM     39  C   UNL     1      -2.557  -4.326  -9.233  1.00  0.00     0.049 A 
ATOM     40  N   UNL     1      -1.922  -3.179 -11.946  1.00  0.00    -0.248 NA
ATOM     41  C   UNL     1      -1.740  -1.073 -10.950  1.00  0.00     0.031 C 
ATOM     42  C   UNL     1      -2.859  -4.941  -7.941  1.00  0.00     0.029 A 
ATOM     43  N   UNL     1      -2.530  -5.382 -10.111  1.00  0.00    -0.354 N 
ATOM     44  C   UNL     1      -1.594  -2.237 -12.914  1.00  0.00     0.074 A 
ATOM     45  C   UNL     1      -1.516  -0.954 -12.251  1.00  0.00     0.031 C 
ATOM     46  C   UNL     1      -3.010  -6.267  -8.116  1.00  0.00     0.029 A 
ATOM     47  C   UNL     1      -2.858  -6.585  -9.534  1.00  0.00     0.049 A 
ATOM     48  H   UNL     1      -2.298  -5.285 -11.063  1.00  0.00     0.167 HD
ATOM     49  C   UNL     1      -1.383  -2.425 -14.237  1.00  0.00     0.031 A 
ATOM     50  C   UNL     1      -3.050  -7.796 -10.095  1.00  0.00     0.031 A 
ATOM     51  C   UNL     1      -1.462  -3.699 -14.899  1.00  0.00     0.049 A 
ATOM     52  C   UNL     1      -2.885  -7.956 -11.586  1.00  0.00     0.074 A 
ATOM     53  C   UNL     1      -1.224  -3.991 -16.231  1.00  0.00     0.029 A 
ATOM     54  N   UNL     1      -1.818  -4.888 -14.285  1.00  0.00    -0.354 N 
ATOM     55  N   UNL     1      -2.526  -7.069 -12.482  1.00  0.00    -0.248 NA
ATOM     56  C   UNL     1      -3.152  -9.293 -12.142  1.00  0.00     0.031 C 
ATOM     57  C   UNL     1      -1.503  -5.344 -16.437  1.00  0.00     0.029 A 
ATOM     58  C   UNL     1      -1.846  -5.909 -15.219  1.00  0.00     0.049 A 
ATOM     59  H   UNL     1      -2.022  -4.991 -13.327  1.00  0.00     0.167 HD
ATOM     60  C   UNL     1      -2.488  -7.748 -13.695  1.00  0.00     0.074 A 
ATOM     61  C   UNL     1      -2.844  -9.123 -13.419  1.00  0.00     0.031 C 
ATOM     62  C   UNL     1      -2.187  -7.276 -14.930  1.00  0.00     0.031 A 
BRANCH  49  63
ATOM     63  C   UNL     1      -1.089  -1.217 -15.080  1.00  0.00    -0.014 A 
ATOM     64  C   UNL     1       0.154  -0.568 -15.024  1.00  0.00     0.009 A 
ATOM     65  C   UNL     1      -2.049  -0.771 -16.003  1.00  0.00     0.009 A 
ATOM     66  C   UNL     1       0.422   0.513 -15.867  1.00  0.00     0.001 A 
ATOM     67  C   UNL     1      -1.768   0.292 -16.861  1.00  0.00     0.001 A 
ATOM     68  C   UNL     1      -0.535   0.936 -16.789  1.00  0.00     0.000 A 
ENDBRANCH  49  63
BRANCH  50  69
ATOM     69  C   UNL     1      -3.471  -8.959  -9.267  1.00  0.00    -0.014 A 
ATOM     70  C   UNL     1      -2.632 -10.075  -9.116  1.00  0.00     0.009 A 
ATOM     71  C   UNL     1      -4.748  -8.992  -8.685  1.00  0.00     0.009 A 
ATOM     72  C   UNL     1      -3.080 -11.213  -8.441  1.00  0.00     0.001 A 
ATOM     73  C   UNL     1      -5.180 -10.117  -7.980  1.00  0.00     0.001 A 
ATOM     74  C   UNL     1      -4.352 -11.233  -7.872  1.00  0.00     0.000 A 
ENDBRANCH  50  69
BRANCH  62  75
ATOM     75  C   UNL     1      -2.174  -8.260 -16.067  1.00  0.00    -0.014 A 
ATOM     76  C   UNL     1      -3.360  -8.816 -16.571  1.00  0.00     0.009 A 
ATOM     77  C   UNL     1      -0.954  -8.600 -16.674  1.00  0.00     0.009 A 
ATOM     78  C   UNL     1      -3.320  -9.721 -17.634  1.00  0.00     0.001 A 
ATOM     79  C   UNL     1      -0.920  -9.478 -17.758  1.00  0.00     0.001 A 
ATOM     80  C   UNL     1      -2.101 -10.046 -18.230  1.00  0.00     0.000 A 
ENDBRANCH  62  75
ENDBRANCH  36  37
ENDBRANCH  29  31
ENDBRANCH  28  29
ENDBRANCH  27  28
ENDBRANCH  26  27
ENDBRANCH  25  26
ENDBRANCH   1  25
TORSDOF 19
