REMARK SMILES O=C(OCCOCCOCCOC(=O)[C@H]1C[C@H](O)CN1C(=O)c1ccccc1O)c1ccc(-c2c3nc(c(-c4ccccc4)c4ccc([nH]4)c(-c4ccccc4)c4nc(c(-c5ccccc5)c5ccc2[nH]5)C=C4)C=C3)cc1
REMARK SMILES IDX 8 1 7 2 6 3 5 4 4 5 3 6 2 7 1 8 30 9 31 10 77 11 32 12 76 13
REMARK SMILES IDX 33 14 34 15 35 16 70 17 36 18 75 19 69 20 71 21 37 22 74 23
REMARK SMILES IDX 68 24 67 25 38 27 60 28 45 29 59 30 46 31 49 32 58 33 72 34
REMARK SMILES IDX 47 35 48 36 57 38 73 39 50 40 39 41 40 42 44 43 41 44 43 45
REMARK SMILES IDX 42 46 61 47 62 48 66 49 63 50 65 51 64 52 51 53 52 54 56 55
REMARK SMILES IDX 53 56 55 57 54 58 9 59 10 60 11 61 12 62 13 63 14 64 15 65
REMARK SMILES IDX 16 66 20 67 17 68 19 69 21 70 22 71 23 72 24 73 28 74 25 75
REMARK SMILES IDX 27 76 26 77 29 78 18 80
REMARK H PARENT 71 26 49 37 29 79 18 81
REMARK Flexibility Score: inf
ROOT
ATOM      1  C   UNL     1       2.172  -0.515  -3.195  1.00  0.00     0.188 C 
ENDROOT
BRANCH   1   2
ATOM      2  C   UNL     1       2.667  -0.772  -1.771  1.00  0.00     0.188 C 
BRANCH   2   3
ATOM      3  O   UNL     1       3.986  -0.263  -1.538  1.00  0.00    -0.376 OA
BRANCH   3   4
ATOM      4  C   UNL     1       4.816  -1.115  -0.740  1.00  0.00     0.202 C 
BRANCH   4   5
ATOM      5  C   UNL     1       4.425  -1.251   0.743  1.00  0.00     0.261 C 
BRANCH   5   6
ATOM      6  O   UNL     1       3.027  -1.037   1.007  1.00  0.00    -0.460 OA
BRANCH   6   7
ATOM      7  C   UNL     1       2.407   0.097   1.420  1.00  0.00     0.338 C 
ATOM      8  O   UNL     1       1.237   0.027   1.790  1.00  0.00    -0.246 OA
BRANCH   7   9
ATOM      9  C   UNL     1       3.067   1.439   1.447  1.00  0.00     0.060 A 
ATOM     10  C   UNL     1       4.199   1.784   0.713  1.00  0.00     0.016 A 
ATOM     11  C   UNL     1       2.469   2.442   2.229  1.00  0.00     0.016 A 
ATOM     12  C   UNL     1       4.798   3.026   0.829  1.00  0.00     0.010 A 
ATOM     13  C   UNL     1       3.033   3.720   2.316  1.00  0.00     0.010 A 
ATOM     14  C   UNL     1       4.230   3.994   1.647  1.00  0.00    -0.014 A 
BRANCH  14  15
ATOM     15  C   UNL     1       5.024   5.208   1.906  1.00  0.00     0.031 A 
ATOM     16  C   UNL     1       5.732   5.309   3.217  1.00  0.00     0.074 A 
ATOM     17  C   UNL     1       5.240   6.096   0.921  1.00  0.00     0.049 A 
ATOM     18  N   UNL     1       6.503   6.260   3.665  1.00  0.00    -0.248 NA
ATOM     19  C   UNL     1       5.567   4.173   4.139  1.00  0.00     0.031 C 
ATOM     20  C   UNL     1       4.715   5.966  -0.435  1.00  0.00     0.029 A 
ATOM     21  N   UNL     1       5.983   7.242   0.878  1.00  0.00    -0.354 N 
ATOM     22  C   UNL     1       6.886   5.853   4.935  1.00  0.00     0.074 A 
ATOM     23  C   UNL     1       6.256   4.579   5.191  1.00  0.00     0.031 C 
ATOM     24  C   UNL     1       5.172   6.976  -1.191  1.00  0.00     0.029 A 
ATOM     25  C   UNL     1       5.964   7.860  -0.349  1.00  0.00     0.049 A 
ATOM     26  H   UNL     1       6.482   7.591   1.652  1.00  0.00     0.167 HD
ATOM     27  C   UNL     1       7.686   6.503   5.809  1.00  0.00     0.031 A 
ATOM     28  C   UNL     1       6.510   9.028  -0.733  1.00  0.00     0.031 A 
ATOM     29  C   UNL     1       8.270   7.784   5.526  1.00  0.00     0.049 A 
ATOM     30  C   UNL     1       7.282   9.797   0.300  1.00  0.00     0.074 A 
ATOM     31  C   UNL     1       9.037   8.588   6.344  1.00  0.00     0.029 A 
ATOM     32  N   UNL     1       8.136   8.450   4.312  1.00  0.00    -0.354 N 
ATOM     33  N   UNL     1       7.580   9.447   1.530  1.00  0.00    -0.248 NA
ATOM     34  C   UNL     1       7.784  11.116  -0.095  1.00  0.00     0.031 C 
ATOM     35  C   UNL     1       9.313   9.770   5.647  1.00  0.00     0.029 A 
ATOM     36  C   UNL     1       8.783   9.671   4.368  1.00  0.00     0.049 A 
ATOM     37  H   UNL     1       7.652   8.103   3.528  1.00  0.00     0.167 HD
ATOM     38  C   UNL     1       8.328  10.491   2.051  1.00  0.00     0.074 A 
ATOM     39  C   UNL     1       8.448  11.478   0.994  1.00  0.00     0.031 C 
ATOM     40  C   UNL     1       8.871  10.624   3.288  1.00  0.00     0.031 A 
BRANCH  27  41
ATOM     41  C   UNL     1       7.846   5.873   7.164  1.00  0.00    -0.014 A 
ATOM     42  C   UNL     1       8.545   4.668   7.347  1.00  0.00     0.009 A 
ATOM     43  C   UNL     1       7.197   6.452   8.265  1.00  0.00     0.009 A 
ATOM     44  C   UNL     1       8.536   4.027   8.589  1.00  0.00     0.001 A 
ATOM     45  C   UNL     1       7.218   5.827   9.512  1.00  0.00     0.001 A 
ATOM     46  C   UNL     1       7.872   4.606   9.669  1.00  0.00     0.000 A 
ENDBRANCH  27  41
BRANCH  28  47
ATOM     47  C   UNL     1       6.308   9.544  -2.114  1.00  0.00    -0.014 A 
ATOM     48  C   UNL     1       7.387   9.691  -2.998  1.00  0.00     0.009 A 
ATOM     49  C   UNL     1       5.021   9.888  -2.565  1.00  0.00     0.009 A 
ATOM     50  C   UNL     1       7.186  10.186  -4.291  1.00  0.00     0.001 A 
ATOM     51  C   UNL     1       4.818  10.350  -3.867  1.00  0.00     0.001 A 
ATOM     52  C   UNL     1       5.902  10.509  -4.726  1.00  0.00     0.000 A 
ENDBRANCH  28  47
BRANCH  40  53
ATOM     53  C   UNL     1       9.680  11.863   3.534  1.00  0.00    -0.014 A 
ATOM     54  C   UNL     1       9.073  13.121   3.664  1.00  0.00     0.009 A 
ATOM     55  C   UNL     1      11.071  11.753   3.682  1.00  0.00     0.009 A 
ATOM     56  C   UNL     1       9.852  14.253   3.905  1.00  0.00     0.001 A 
ATOM     57  C   UNL     1      11.842  12.880   3.958  1.00  0.00     0.001 A 
ATOM     58  C   UNL     1      11.233  14.130   4.059  1.00  0.00     0.000 A 
ENDBRANCH  40  53
ENDBRANCH  14  15
ENDBRANCH   7   9
ENDBRANCH   6   7
ENDBRANCH   5   6
ENDBRANCH   4   5
ENDBRANCH   3   4
ENDBRANCH   2   3
ENDBRANCH   1   2
BRANCH   1  59
ATOM     59  O   UNL     1       2.872  -1.181  -4.246  1.00  0.00    -0.376 OA
BRANCH  59  60
ATOM     60  C   UNL     1       4.278  -0.971  -4.318  1.00  0.00     0.202 C 
BRANCH  60  61
ATOM     61  C   UNL     1       4.776   0.449  -4.644  1.00  0.00     0.261 C 
BRANCH  61  62
ATOM     62  O   UNL     1       4.138   1.479  -3.872  1.00  0.00    -0.462 OA
BRANCH  62  63
ATOM     63  C   UNL     1       3.577   2.499  -4.590  1.00  0.00     0.329 C 
ATOM     64  O   UNL     1       3.820   2.730  -5.764  1.00  0.00    -0.250 OA
BRANCH  63  65
ATOM     65  C   UNL     1       2.636   3.341  -3.702  1.00  0.00     0.198 C 
ATOM     66  C   UNL     1       3.268   4.691  -3.405  1.00  0.00     0.071 C 
ATOM     67  N   UNL     1       1.407   3.684  -4.421  1.00  0.00    -0.322 N 
ATOM     68  C   UNL     1       2.810   5.576  -4.563  1.00  0.00     0.136 C 
ATOM     69  C   UNL     1       1.382   5.089  -4.802  1.00  0.00     0.152 C 
BRANCH  67  70
ATOM     70  C   UNL     1       0.392   2.767  -4.584  1.00  0.00     0.258 C 
ATOM     71  O   UNL     1       0.212   1.850  -3.784  1.00  0.00    -0.269 OA
BRANCH  70  72
ATOM     72  C   UNL     1      -0.490   2.848  -5.777  1.00  0.00     0.081 A 
ATOM     73  C   UNL     1      -1.834   2.481  -5.623  1.00  0.00     0.018 A 
ATOM     74  C   UNL     1       0.002   3.103  -7.065  1.00  0.00     0.128 A 
ATOM     75  C   UNL     1      -2.681   2.427  -6.732  1.00  0.00     0.001 A 
ATOM     76  C   UNL     1      -0.848   3.071  -8.170  1.00  0.00     0.047 A 
ATOM     77  C   UNL     1      -2.190   2.734  -8.001  1.00  0.00     0.004 A 
BRANCH  74  78
ATOM     78  O   UNL     1       1.328   3.356  -7.270  1.00  0.00    -0.507 OA
ATOM     79  H   UNL     1       1.917   3.382  -6.542  1.00  0.00     0.293 HD
ENDBRANCH  74  78
ENDBRANCH  70  72
ENDBRANCH  67  70
BRANCH  68  80
ATOM     80  O   UNL     1       2.880   6.949  -4.209  1.00  0.00    -0.391 OA
ATOM     81  H   UNL     1       2.351   7.104  -3.411  1.00  0.00     0.211 HD
ENDBRANCH  68  80
ENDBRANCH  63  65
ENDBRANCH  62  63
ENDBRANCH  61  62
ENDBRANCH  60  61
ENDBRANCH  59  60
ENDBRANCH   1  59
TORSDOF 21
