REMARK SMILES Cc1ccc(S(=O)(=O)n2cc(C(=O)C(=O)N[C@H](Cc3c[nH]c4ccccc34)C(=O)NCC(=O)OCCOCCOCCOC(=O)c3ccc(-c4c5nc(c(-c6ccccc6)c6ccc([nH]6)c(-c6ccccc6)c6nc(c(-c7ccccc7)c7ccc4[nH]7)C=C6)C=C5)cc3)c3ccccc32)cc1
REMARK SMILES IDX 36 1 35 2 34 3 32 4 33 5 31 6 30 7 28 8 29 9 17 11 16 12
REMARK SMILES IDX 14 13 15 14 12 16 13 17 11 18 9 19 10 20 99 21 94 22 98 23
REMARK SMILES IDX 95 24 97 25 96 26 6 27 7 28 8 29 5 30 1 31 2 32 3 33 101 34
REMARK SMILES IDX 4 35 100 36 18 37 19 38 20 39 27 40 21 41 22 42 26 43 23 45
REMARK SMILES IDX 25 46 24 47 37 48 38 49 39 50 40 51 41 52 42 53 43 54 44 55
REMARK SMILES IDX 45 56 46 57 47 58 93 59 48 60 92 61 49 62 50 63 51 64 86 65
REMARK SMILES IDX 52 66 91 67 85 68 87 69 53 70 90 71 84 72 83 73 54 75 76 76
REMARK SMILES IDX 61 77 75 78 62 79 65 80 74 81 88 82 63 83 64 84 73 86 89 87
REMARK SMILES IDX 66 88 55 89 56 90 60 91 57 92 59 93 58 94 77 95 78 96 82 97
REMARK SMILES IDX 79 98 81 99 80 100 67 101 68 102 72 103 69 104 71 105 70 106
REMARK H PARENT 30 10 16 15 21 44 87 74 65 85
REMARK Flexibility Score: inf
ROOT
ATOM      1  C   UNL     1     -12.506   8.077  -4.285  1.00  0.00     0.202 C 
ENDROOT
BRANCH   1   2
ATOM      2  C   UNL     1     -12.678   6.653  -3.743  1.00  0.00     0.261 C 
BRANCH   2   3
ATOM      3  O   UNL     1     -13.674   6.377  -2.689  1.00  0.00    -0.462 OA
BRANCH   3   4
ATOM      4  C   UNL     1     -14.478   5.251  -2.668  1.00  0.00     0.325 C 
ATOM      5  O   UNL     1     -15.174   4.908  -3.623  1.00  0.00    -0.250 OA
BRANCH   4   6
ATOM      6  C   UNL     1     -14.400   4.411  -1.269  1.00  0.00     0.238 C 
BRANCH   6   7
ATOM      7  N   UNL     1     -14.555   2.926  -1.008  1.00  0.00    -0.343 N 
ATOM      8  C   UNL     1     -13.798   1.903  -0.447  1.00  0.00     0.243 C 
ATOM      9  O   UNL     1     -14.404   0.816  -0.402  1.00  0.00    -0.273 OA
ATOM     10  H   UNL     1     -15.428   2.595  -1.321  1.00  0.00     0.164 HD
BRANCH   8  11
ATOM     11  C   UNL     1     -12.204   1.843  -0.043  1.00  0.00     0.176 C 
BRANCH  11  12
ATOM     12  N   UNL     1     -11.686   2.861   0.970  1.00  0.00    -0.337 N 
ATOM     13  C   UNL     1     -12.062   4.173   1.308  1.00  0.00     0.293 C 
ATOM     14  O   UNL     1     -13.257   4.442   1.413  1.00  0.00    -0.265 OA
ATOM     15  H   UNL     1     -10.926   2.528   1.499  1.00  0.00     0.164 HD
BRANCH  13  16
ATOM     16  C   UNL     1     -10.923   5.194   1.856  1.00  0.00     0.252 C 
ATOM     17  O   UNL     1     -10.484   4.593   2.858  1.00  0.00    -0.283 OA
BRANCH  16  18
ATOM     18  C   UNL     1     -10.431   6.811   1.455  1.00  0.00     0.054 A 
ATOM     19  N   UNL     1     -10.799   9.063   1.969  1.00  0.00    -0.240 N 
ATOM     20  C   UNL     1     -11.188   7.772   2.025  1.00  0.00     0.117 A 
ATOM     21  C   UNL     1      -9.790   9.100   1.010  1.00  0.00     0.065 A 
ATOM     22  C   UNL     1      -9.508   7.765   0.634  1.00  0.00     0.012 A 
ATOM     23  C   UNL     1      -9.186  10.228   0.390  1.00  0.00     0.028 A 
ATOM     24  C   UNL     1      -8.556   7.708  -0.460  1.00  0.00     0.011 A 
ATOM     25  C   UNL     1      -8.304  10.085  -0.661  1.00  0.00     0.002 A 
ATOM     26  C   UNL     1      -7.988   8.826  -1.089  1.00  0.00     0.001 A 
BRANCH  19  27
ATOM     27  S   UNL     1     -11.486  10.604   2.394  1.00  0.00     0.268 S 
ATOM     28  O   UNL     1     -12.099  10.980   1.120  1.00  0.00    -0.201 OA
ATOM     29  O   UNL     1     -10.282  11.306   2.840  1.00  0.00    -0.201 OA
BRANCH  27  30
ATOM     30  C   UNL     1     -12.643  11.298   3.569  1.00  0.00     0.088 A 
ATOM     31  C   UNL     1     -15.055  13.933   6.087  1.00  0.00     0.044 C 
ATOM     32  C   UNL     1     -14.259  13.003   5.218  1.00  0.00    -0.051 A 
ATOM     33  C   UNL     1     -13.631  13.512   4.091  1.00  0.00     0.005 A 
ATOM     34  C   UNL     1     -14.052  11.654   5.534  1.00  0.00     0.005 A 
ATOM     35  C   UNL     1     -12.863  12.672   3.285  1.00  0.00     0.022 A 
ATOM     36  C   UNL     1     -13.213  10.825   4.742  1.00  0.00     0.022 A 
ENDBRANCH  27  30
ENDBRANCH  19  27
ENDBRANCH  16  18
ENDBRANCH  13  16
ENDBRANCH  11  12
BRANCH  11  37
ATOM     37  C   UNL     1     -11.333   1.486  -1.377  1.00  0.00     0.072 C 
BRANCH  37  38
ATOM     38  C   UNL     1      -9.842   1.245  -1.934  1.00  0.00    -0.020 A 
ATOM     39  C   UNL     1      -8.957   2.247  -2.352  1.00  0.00     0.087 A 
ATOM     40  C   UNL     1      -9.202   0.061  -2.477  1.00  0.00     0.003 A 
ATOM     41  N   UNL     1      -7.996   1.794  -3.193  1.00  0.00    -0.361 N 
ATOM     42  C   UNL     1      -8.159   0.459  -3.339  1.00  0.00     0.046 A 
ATOM     43  C   UNL     1      -9.434  -1.319  -2.389  1.00  0.00     0.010 A 
ATOM     44  H   UNL     1      -7.300   2.342  -3.624  1.00  0.00     0.166 HD
ATOM     45  C   UNL     1      -7.443  -0.385  -4.186  1.00  0.00     0.026 A 
ATOM     46  C   UNL     1      -8.664  -2.200  -3.173  1.00  0.00     0.001 A 
ATOM     47  C   UNL     1      -7.716  -1.738  -4.086  1.00  0.00     0.002 A 
ENDBRANCH  37  38
ENDBRANCH  11  37
ENDBRANCH   8  11
ENDBRANCH   6   7
ENDBRANCH   4   6
ENDBRANCH   3   4
ENDBRANCH   2   3
ENDBRANCH   1   2
BRANCH   1  48
ATOM     48  O   UNL     1     -13.726   8.564  -4.785  1.00  0.00    -0.376 OA
BRANCH  48  49
ATOM     49  C   UNL     1     -14.030   8.140  -6.109  1.00  0.00     0.188 C 
BRANCH  49  50
ATOM     50  C   UNL     1     -13.777   6.672  -6.484  1.00  0.00     0.188 C 
BRANCH  50  51
ATOM     51  O   UNL     1     -12.371   6.386  -6.551  1.00  0.00    -0.376 OA
BRANCH  51  52
ATOM     52  C   UNL     1     -11.805   6.154  -7.833  1.00  0.00     0.202 C 
BRANCH  52  53
ATOM     53  C   UNL     1     -12.328   4.879  -8.501  1.00  0.00     0.261 C 
BRANCH  53  54
ATOM     54  O   UNL     1     -11.818   3.759  -7.753  1.00  0.00    -0.460 OA
BRANCH  54  55
ATOM     55  C   UNL     1     -12.655   3.334  -6.779  1.00  0.00     0.338 C 
ATOM     56  O   UNL     1     -13.850   3.124  -6.924  1.00  0.00    -0.246 OA
BRANCH  55  57
ATOM     57  C   UNL     1     -11.960   3.415  -5.457  1.00  0.00     0.060 A 
ATOM     58  C   UNL     1     -12.715   3.155  -4.353  1.00  0.00     0.016 A 
ATOM     59  C   UNL     1     -10.688   3.978  -5.228  1.00  0.00     0.016 A 
ATOM     60  C   UNL     1     -12.243   3.628  -3.112  1.00  0.00     0.010 A 
ATOM     61  C   UNL     1     -10.273   4.489  -3.935  1.00  0.00     0.010 A 
ATOM     62  C   UNL     1     -11.082   4.392  -2.796  1.00  0.00    -0.014 A 
BRANCH  62  63
ATOM     63  C   UNL     1     -10.845   5.065  -1.311  1.00  0.00     0.031 A 
ATOM     64  C   UNL     1      -9.568   4.541  -0.291  1.00  0.00     0.074 A 
ATOM     65  C   UNL     1     -11.663   6.165  -0.897  1.00  0.00     0.049 A 
ATOM     66  N   UNL     1      -8.832   5.362   0.414  1.00  0.00    -0.248 NA
ATOM     67  C   UNL     1      -9.166   3.204   0.212  1.00  0.00     0.031 C 
ATOM     68  C   UNL     1     -11.572   7.588  -1.334  1.00  0.00     0.029 A 
ATOM     69  N   UNL     1     -12.737   6.354   0.045  1.00  0.00    -0.354 N 
ATOM     70  C   UNL     1      -8.071   4.806   1.411  1.00  0.00     0.074 A 
ATOM     71  C   UNL     1      -8.287   3.401   1.202  1.00  0.00     0.031 C 
ATOM     72  C   UNL     1     -12.543   8.376  -0.786  1.00  0.00     0.029 A 
ATOM     73  C   UNL     1     -13.316   7.617   0.186  1.00  0.00     0.049 A 
ATOM     74  H   UNL     1     -13.061   5.597   0.585  1.00  0.00     0.167 HD
ATOM     75  C   UNL     1      -7.573   5.359   2.577  1.00  0.00     0.031 A 
ATOM     76  C   UNL     1     -14.326   8.068   1.020  1.00  0.00     0.031 A 
ATOM     77  C   UNL     1      -8.293   6.462   3.376  1.00  0.00     0.049 A 
ATOM     78  C   UNL     1     -14.181   7.875   2.596  1.00  0.00     0.074 A 
ATOM     79  C   UNL     1      -8.091   7.808   3.673  1.00  0.00     0.029 A 
ATOM     80  N   UNL     1      -9.475   6.210   4.149  1.00  0.00    -0.354 N 
ATOM     81  N   UNL     1     -13.160   8.349   3.295  1.00  0.00    -0.248 NA
ATOM     82  C   UNL     1     -15.059   7.183   3.544  1.00  0.00     0.031 C 
ATOM     83  C   UNL     1      -9.239   8.347   4.412  1.00  0.00     0.029 A 
ATOM     84  C   UNL     1     -10.237   7.376   4.520  1.00  0.00     0.049 A 
ATOM     85  H   UNL     1      -9.749   5.300   4.408  1.00  0.00     0.167 HD
ATOM     86  C   UNL     1     -12.920   7.560   4.443  1.00  0.00     0.074 A 
ATOM     87  C   UNL     1     -14.283   7.055   4.654  1.00  0.00     0.031 C 
ATOM     88  C   UNL     1     -11.690   7.274   5.096  1.00  0.00     0.031 A 
BRANCH  75  89
ATOM     89  C   UNL     1      -6.062   5.037   2.684  1.00  0.00    -0.014 A 
ATOM     90  C   UNL     1      -5.201   5.877   3.399  1.00  0.00     0.009 A 
ATOM     91  C   UNL     1      -5.415   3.981   1.978  1.00  0.00     0.009 A 
ATOM     92  C   UNL     1      -3.806   5.681   3.404  1.00  0.00     0.001 A 
ATOM     93  C   UNL     1      -4.031   3.766   1.995  1.00  0.00     0.001 A 
ATOM     94  C   UNL     1      -3.222   4.625   2.710  1.00  0.00     0.000 A 
ENDBRANCH  75  89
BRANCH  76  95
ATOM     95  C   UNL     1     -15.616   7.976   0.236  1.00  0.00    -0.014 A 
ATOM     96  C   UNL     1     -15.800   8.840  -0.868  1.00  0.00     0.009 A 
ATOM     97  C   UNL     1     -16.433   6.835   0.294  1.00  0.00     0.009 A 
ATOM     98  C   UNL     1     -16.627   8.489  -1.947  1.00  0.00     0.001 A 
ATOM     99  C   UNL     1     -17.273   6.492  -0.783  1.00  0.00     0.001 A 
ATOM    100  C   UNL     1     -17.334   7.294  -1.921  1.00  0.00     0.000 A 
ENDBRANCH  76  95
BRANCH  88 101
ATOM    101  C   UNL     1     -11.713   6.952   6.578  1.00  0.00    -0.014 A 
ATOM    102  C   UNL     1     -12.649   7.530   7.449  1.00  0.00     0.009 A 
ATOM    103  C   UNL     1     -10.601   6.316   7.169  1.00  0.00     0.009 A 
ATOM    104  C   UNL     1     -12.481   7.468   8.838  1.00  0.00     0.001 A 
ATOM    105  C   UNL     1     -10.407   6.293   8.549  1.00  0.00     0.001 A 
ATOM    106  C   UNL     1     -11.351   6.867   9.385  1.00  0.00     0.000 A 
ENDBRANCH  88 101
ENDBRANCH  62  63
ENDBRANCH  55  57
ENDBRANCH  54  55
ENDBRANCH  53  54
ENDBRANCH  52  53
ENDBRANCH  51  52
ENDBRANCH  50  51
ENDBRANCH  49  50
ENDBRANCH  48  49
ENDBRANCH   1  48
TORSDOF 26
