REMARK SMILES CCc1ccc2oc(-c3ccccc3)c(OCC(=O)OCCOCCOCCOC(=O)c3ccc(-c4c5nc(c(-c6ccccc6)c6ccc([nH]6)c(-c6ccccc6)c6nc(c(-c7ccccc7)c7ccc4[nH]7)C=C6)C=C5)cc3)c(=O)c2c1
REMARK SMILES IDX 24 1 23 2 22 3 21 4 20 5 18 6 19 7 17 8 16 9 15 10 3 11 4 12
REMARK SMILES IDX 83 13 5 14 82 15 6 16 80 17 7 18 81 19 8 20 2 21 1 22 9 23
REMARK SMILES IDX 10 24 14 25 11 26 13 27 12 28 25 29 26 30 27 31 28 32 29 33
REMARK SMILES IDX 30 34 31 35 32 36 33 37 79 38 34 39 78 40 35 41 36 42 37 43
REMARK SMILES IDX 72 44 38 45 77 46 71 47 73 48 39 49 76 50 70 51 69 52 40 54
REMARK SMILES IDX 62 55 47 56 61 57 48 58 51 59 60 60 74 61 49 62 50 63 59 65
REMARK SMILES IDX 75 66 52 67 41 68 42 69 46 70 43 71 45 72 44 73 63 74 64 75
REMARK SMILES IDX 68 76 65 77 67 78 66 79 53 80 54 81 58 82 55 83 57 84 56 85
REMARK H PARENT 73 53 51 64
REMARK Flexibility Score: inf
ROOT
ATOM      1  C   UNL     1      -2.770  -6.182   0.208  1.00  0.00     0.188 C 
ENDROOT
BRANCH   1   2
ATOM      2  O   UNL     1      -4.074  -6.721   0.377  1.00  0.00    -0.376 OA
BRANCH   2   3
ATOM      3  C   UNL     1      -4.207  -7.836   1.255  1.00  0.00     0.202 C 
BRANCH   3   4
ATOM      4  C   UNL     1      -3.415  -9.077   0.827  1.00  0.00     0.261 C 
BRANCH   4   5
ATOM      5  O   UNL     1      -2.006  -8.869   1.077  1.00  0.00    -0.461 OA
BRANCH   5   6
ATOM      6  C   UNL     1      -1.132  -9.392   0.173  1.00  0.00     0.344 C 
ATOM      7  O   UNL     1      -1.448 -10.196  -0.697  1.00  0.00    -0.248 OA
BRANCH   6   8
ATOM      8  C   UNL     1       0.247  -8.696   0.230  1.00  0.00     0.352 C 
BRANCH   8   9
ATOM      9  O   UNL     1       0.777  -8.404   1.514  1.00  0.00    -0.474 OA
BRANCH   9  10
ATOM     10  C   UNL     1       1.508  -7.245   1.792  1.00  0.00     0.211 A 
ATOM     11  C   UNL     1       2.329  -2.372   1.274  1.00  0.00    -0.047 A 
ATOM     12  C   UNL     1       2.584  -2.347   2.646  1.00  0.00     0.007 A 
ATOM     13  C   UNL     1       2.214  -3.635   0.649  1.00  0.00     0.020 A 
ATOM     14  C   UNL     1       2.710  -3.540   3.366  1.00  0.00     0.048 A 
ATOM     15  C   UNL     1       2.206  -4.823   1.393  1.00  0.00     0.069 A 
ATOM     16  C   UNL     1       2.500  -4.768   2.739  1.00  0.00     0.138 A 
ATOM     17  C   UNL     1       1.791  -6.131   0.818  1.00  0.00     0.235 A 
ATOM     18  O   UNL     1       2.619  -5.899   3.491  1.00  0.00    -0.452 OA
ATOM     19  O   UNL     1       1.697  -6.273  -0.390  1.00  0.00    -0.285 OA
ATOM     20  C   UNL     1       2.071  -7.077   3.007  1.00  0.00     0.180 A 
BRANCH  11  21
ATOM     21  C   UNL     1       1.941  -1.126   0.501  1.00  0.00     0.032 C 
ATOM     22  C   UNL     1       2.394   0.233   1.004  1.00  0.00     0.009 C 
ENDBRANCH  11  21
BRANCH  20  23
ATOM     23  C   UNL     1       2.307  -8.190   3.945  1.00  0.00     0.021 A 
ATOM     24  C   UNL     1       2.019  -8.054   5.308  1.00  0.00     0.012 A 
ATOM     25  C   UNL     1       3.042  -9.305   3.511  1.00  0.00     0.012 A 
ATOM     26  C   UNL     1       2.472  -9.008   6.221  1.00  0.00     0.001 A 
ATOM     27  C   UNL     1       3.497 -10.255   4.425  1.00  0.00     0.001 A 
ATOM     28  C   UNL     1       3.218 -10.101   5.780  1.00  0.00     0.000 A 
ENDBRANCH  20  23
ENDBRANCH   9  10
ENDBRANCH   8   9
ENDBRANCH   6   8
ENDBRANCH   5   6
ENDBRANCH   4   5
ENDBRANCH   3   4
ENDBRANCH   2   3
ENDBRANCH   1   2
BRANCH   1  29
ATOM     29  C   UNL     1      -1.931  -5.894   1.470  1.00  0.00     0.188 C 
BRANCH  29  30
ATOM     30  O   UNL     1      -2.566  -5.392   2.634  1.00  0.00    -0.376 OA
BRANCH  30  31
ATOM     31  C   UNL     1      -3.587  -4.420   2.482  1.00  0.00     0.202 C 
BRANCH  31  32
ATOM     32  C   UNL     1      -3.154  -3.055   1.948  1.00  0.00     0.261 C 
BRANCH  32  33
ATOM     33  O   UNL     1      -2.744  -3.077   0.560  1.00  0.00    -0.460 OA
BRANCH  33  34
ATOM     34  C   UNL     1      -1.426  -2.852   0.388  1.00  0.00     0.338 C 
ATOM     35  O   UNL     1      -0.625  -2.671   1.298  1.00  0.00    -0.246 OA
BRANCH  34  36
ATOM     36  C   UNL     1      -0.956  -2.922  -1.013  1.00  0.00     0.060 A 
ATOM     37  C   UNL     1      -0.323  -4.090  -1.445  1.00  0.00     0.016 A 
ATOM     38  C   UNL     1      -0.765  -1.741  -1.732  1.00  0.00     0.016 A 
ATOM     39  C   UNL     1       0.592  -4.055  -2.504  1.00  0.00     0.010 A 
ATOM     40  C   UNL     1       0.129  -1.715  -2.818  1.00  0.00     0.010 A 
ATOM     41  C   UNL     1       0.859  -2.860  -3.182  1.00  0.00    -0.014 A 
BRANCH  41  42
ATOM     42  C   UNL     1       1.854  -2.812  -4.289  1.00  0.00     0.031 A 
ATOM     43  C   UNL     1       3.121  -2.006  -4.199  1.00  0.00     0.074 A 
ATOM     44  C   UNL     1       1.607  -3.493  -5.420  1.00  0.00     0.049 A 
ATOM     45  N   UNL     1       3.861  -1.495  -5.150  1.00  0.00    -0.248 NA
ATOM     46  C   UNL     1       3.633  -1.751  -2.852  1.00  0.00     0.031 C 
ATOM     47  C   UNL     1       0.500  -4.426  -5.621  1.00  0.00     0.029 A 
ATOM     48  N   UNL     1       2.258  -3.466  -6.627  1.00  0.00    -0.354 N 
ATOM     49  C   UNL     1       4.874  -0.784  -4.508  1.00  0.00     0.074 A 
ATOM     50  C   UNL     1       4.653  -0.934  -3.086  1.00  0.00     0.031 C 
ATOM     51  C   UNL     1       0.519  -4.851  -6.891  1.00  0.00     0.029 A 
ATOM     52  C   UNL     1       1.573  -4.141  -7.605  1.00  0.00     0.049 A 
ATOM     53  H   UNL     1       3.120  -3.014  -6.774  1.00  0.00     0.167 HD
ATOM     54  C   UNL     1       5.900  -0.091  -5.061  1.00  0.00     0.031 A 
ATOM     55  C   UNL     1       1.703  -4.112  -8.942  1.00  0.00     0.031 A 
ATOM     56  C   UNL     1       6.176  -0.066  -6.476  1.00  0.00     0.049 A 
ATOM     57  C   UNL     1       2.766  -3.260  -9.561  1.00  0.00     0.074 A 
ATOM     58  C   UNL     1       7.213   0.561  -7.147  1.00  0.00     0.029 A 
ATOM     59  N   UNL     1       5.428  -0.734  -7.432  1.00  0.00    -0.354 N 
ATOM     60  N   UNL     1       3.639  -2.479  -8.974  1.00  0.00    -0.248 NA
ATOM     61  C   UNL     1       2.854  -3.280 -11.025  1.00  0.00     0.031 C 
ATOM     62  C   UNL     1       7.063   0.310  -8.516  1.00  0.00     0.029 A 
ATOM     63  C   UNL     1       5.963  -0.513  -8.690  1.00  0.00     0.049 A 
ATOM     64  H   UNL     1       4.633  -1.284  -7.245  1.00  0.00     0.167 HD
ATOM     65  C   UNL     1       4.396  -1.926  -9.996  1.00  0.00     0.074 A 
ATOM     66  C   UNL     1       3.880  -2.467 -11.238  1.00  0.00     0.031 C 
ATOM     67  C   UNL     1       5.429  -1.052  -9.913  1.00  0.00     0.031 A 
BRANCH  54  68
ATOM     68  C   UNL     1       6.786   0.733  -4.162  1.00  0.00    -0.014 A 
ATOM     69  C   UNL     1       7.740   0.155  -3.311  1.00  0.00     0.009 A 
ATOM     70  C   UNL     1       6.717   2.135  -4.240  1.00  0.00     0.009 A 
ATOM     71  C   UNL     1       8.585   0.963  -2.542  1.00  0.00     0.001 A 
ATOM     72  C   UNL     1       7.579   2.939  -3.491  1.00  0.00     0.001 A 
ATOM     73  C   UNL     1       8.509   2.353  -2.637  1.00  0.00     0.000 A 
ENDBRANCH  54  68
BRANCH  55  74
ATOM     74  C   UNL     1       0.709  -4.850  -9.757  1.00  0.00    -0.014 A 
ATOM     75  C   UNL     1       1.046  -6.060 -10.374  1.00  0.00     0.009 A 
ATOM     76  C   UNL     1      -0.620  -4.394  -9.819  1.00  0.00     0.009 A 
ATOM     77  C   UNL     1       0.066  -6.807 -11.031  1.00  0.00     0.001 A 
ATOM     78  C   UNL     1      -1.601  -5.157 -10.450  1.00  0.00     0.001 A 
ATOM     79  C   UNL     1      -1.257  -6.363 -11.056  1.00  0.00     0.000 A 
ENDBRANCH  55  74
BRANCH  67  80
ATOM     80  C   UNL     1       6.086  -0.659 -11.202  1.00  0.00    -0.014 A 
ATOM     81  C   UNL     1       5.478   0.256 -12.075  1.00  0.00     0.009 A 
ATOM     82  C   UNL     1       7.338  -1.197 -11.537  1.00  0.00     0.009 A 
ATOM     83  C   UNL     1       6.099   0.599 -13.276  1.00  0.00     0.001 A 
ATOM     84  C   UNL     1       7.967  -0.833 -12.727  1.00  0.00     0.001 A 
ATOM     85  C   UNL     1       7.343   0.057 -13.600  1.00  0.00     0.000 A 
ENDBRANCH  67  80
ENDBRANCH  41  42
ENDBRANCH  34  36
ENDBRANCH  33  34
ENDBRANCH  32  33
ENDBRANCH  31  32
ENDBRANCH  30  31
ENDBRANCH  29  30
ENDBRANCH   1  29
TORSDOF 21
