REMARK SMILES CC(C)(C[NH2+]CCc1cccnc1)C(=O)OCCOCCOCCOC(=O)c1ccc(-c2c3nc(c(-c4ccccc4)c4ccc([nH]4)c(-c4ccccc4)c4nc(c(-c5ccccc5)c5ccc2[nH]5)C=C4)C=C3)cc1
REMARK SMILES IDX 19 1 18 2 17 3 16 4 14 5 15 6 2 7 1 8 3 9 4 10 5 11 6 14
REMARK SMILES IDX 7 15 8 16 9 17 13 18 10 19 12 20 11 21 20 22 21 23 22 24
REMARK SMILES IDX 23 25 24 26 25 27 26 28 27 29 28 30 29 31 75 32 30 33 74 34
REMARK SMILES IDX 31 35 32 36 33 37 68 38 34 39 73 40 67 41 69 42 35 43 72 44
REMARK SMILES IDX 66 45 65 46 36 48 58 49 43 50 57 51 44 52 47 53 56 54 70 55
REMARK SMILES IDX 45 56 46 57 55 59 71 60 48 61 37 62 38 63 42 64 39 65 41 66
REMARK SMILES IDX 40 67 59 68 60 69 64 70 61 71 63 72 62 73 49 74 50 75 54 76
REMARK SMILES IDX 51 77 53 78 52 79
REMARK H PARENT 5 12 5 13 69 47 47 58
REMARK Flexibility Score: inf
ROOT
ATOM      1  O   UNL     1       2.287  -4.636   0.243  1.00  0.00    -0.376 OA
ENDROOT
BRANCH   1   2
ATOM      2  C   UNL     1       1.905  -5.087   1.540  1.00  0.00     0.202 C 
BRANCH   2   3
ATOM      3  C   UNL     1       1.772  -4.024   2.647  1.00  0.00     0.261 C 
BRANCH   3   4
ATOM      4  O   UNL     1       0.930  -2.884   2.343  1.00  0.00    -0.463 OA
BRANCH   4   5
ATOM      5  C   UNL     1       1.583  -1.704   2.154  1.00  0.00     0.317 C 
ATOM      6  O   UNL     1       2.805  -1.591   2.236  1.00  0.00    -0.251 OA
BRANCH   5   7
ATOM      7  C   UNL     1       0.690  -0.493   1.805  1.00  0.00     0.111 C 
ATOM      8  C   UNL     1       1.220   0.117   0.487  1.00  0.00     0.029 C 
ATOM      9  C   UNL     1       0.982   0.517   2.940  1.00  0.00     0.029 C 
BRANCH   7  10
ATOM     10  C   UNL     1      -0.858  -0.726   1.766  1.00  0.00     0.278 C 
BRANCH  10  11
ATOM     11  N   UNL     1      -1.448  -0.871   0.422  1.00  0.00    -0.345 N 
ATOM     12  H   UNL     1      -1.041  -1.693  -0.024  1.00  0.00     0.346 HD
ATOM     13  H   UNL     1      -1.244  -0.013  -0.092  1.00  0.00     0.346 HD
BRANCH  11  14
ATOM     14  C   UNL     1      -2.914  -1.027   0.443  1.00  0.00     0.265 C 
BRANCH  14  15
ATOM     15  C   UNL     1      -3.733   0.236   0.071  1.00  0.00     0.098 C 
BRANCH  15  16
ATOM     16  C   UNL     1      -3.380   0.907  -1.235  1.00  0.00    -0.024 A 
ATOM     17  C   UNL     1      -3.288   2.299  -1.333  1.00  0.00     0.007 A 
ATOM     18  C   UNL     1      -3.169   0.187  -2.405  1.00  0.00     0.114 A 
ATOM     19  C   UNL     1      -2.903   2.889  -2.536  1.00  0.00     0.020 A 
ATOM     20  N   UNL     1      -2.761   0.726  -3.578  1.00  0.00    -0.264 NA
ATOM     21  C   UNL     1      -2.623   2.067  -3.613  1.00  0.00     0.111 A 
ENDBRANCH  15  16
ENDBRANCH  14  15
ENDBRANCH  11  14
ENDBRANCH  10  11
ENDBRANCH   7  10
ENDBRANCH   5   7
ENDBRANCH   4   5
ENDBRANCH   3   4
ENDBRANCH   2   3
ENDBRANCH   1   2
BRANCH   1  22
ATOM     22  C   UNL     1       1.396  -3.728  -0.387  1.00  0.00     0.188 C 
BRANCH  22  23
ATOM     23  C   UNL     1      -0.057  -4.177  -0.519  1.00  0.00     0.188 C 
BRANCH  23  24
ATOM     24  O   UNL     1      -0.671  -4.759   0.620  1.00  0.00    -0.376 OA
BRANCH  24  25
ATOM     25  C   UNL     1      -2.025  -5.185   0.446  1.00  0.00     0.202 C 
BRANCH  25  26
ATOM     26  C   UNL     1      -2.357  -6.048  -0.795  1.00  0.00     0.261 C 
BRANCH  26  27
ATOM     27  O   UNL     1      -1.986  -5.509  -2.084  1.00  0.00    -0.460 OA
BRANCH  27  28
ATOM     28  C   UNL     1      -2.459  -4.291  -2.432  1.00  0.00     0.338 C 
ATOM     29  O   UNL     1      -3.360  -3.681  -1.879  1.00  0.00    -0.246 OA
BRANCH  28  30
ATOM     30  C   UNL     1      -1.543  -3.699  -3.449  1.00  0.00     0.060 A 
ATOM     31  C   UNL     1      -1.063  -2.397  -3.247  1.00  0.00     0.016 A 
ATOM     32  C   UNL     1      -1.124  -4.411  -4.572  1.00  0.00     0.016 A 
ATOM     33  C   UNL     1      -0.243  -1.771  -4.189  1.00  0.00     0.010 A 
ATOM     34  C   UNL     1      -0.296  -3.787  -5.518  1.00  0.00     0.010 A 
ATOM     35  C   UNL     1       0.117  -2.450  -5.353  1.00  0.00    -0.014 A 
BRANCH  35  36
ATOM     36  C   UNL     1       0.768  -1.733  -6.481  1.00  0.00     0.031 A 
ATOM     37  C   UNL     1      -0.072  -1.378  -7.677  1.00  0.00     0.074 A 
ATOM     38  C   UNL     1       2.072  -1.402  -6.467  1.00  0.00     0.049 A 
ATOM     39  N   UNL     1       0.295  -0.950  -8.858  1.00  0.00    -0.248 NA
ATOM     40  C   UNL     1      -1.527  -1.538  -7.518  1.00  0.00     0.031 C 
ATOM     41  C   UNL     1       2.987  -1.584  -5.343  1.00  0.00     0.029 A 
ATOM     42  N   UNL     1       2.858  -0.855  -7.456  1.00  0.00    -0.354 N 
ATOM     43  C   UNL     1      -0.877  -0.831  -9.595  1.00  0.00     0.074 A 
ATOM     44  C   UNL     1      -1.964  -1.242  -8.732  1.00  0.00     0.031 C 
ATOM     45  C   UNL     1       4.216  -1.180  -5.713  1.00  0.00     0.029 A 
ATOM     46  C   UNL     1       4.186  -0.769  -7.116  1.00  0.00     0.049 A 
ATOM     47  H   UNL     1       2.502  -0.555  -8.323  1.00  0.00     0.167 HD
ATOM     48  C   UNL     1      -1.034  -0.420 -10.875  1.00  0.00     0.031 A 
ATOM     49  C   UNL     1       5.261  -0.445  -7.863  1.00  0.00     0.031 A 
ATOM     50  C   UNL     1       0.045  -0.003 -11.730  1.00  0.00     0.049 A 
ATOM     51  C   UNL     1       5.079  -0.098  -9.320  1.00  0.00     0.074 A 
ATOM     52  C   UNL     1      -0.014   0.435 -13.042  1.00  0.00     0.029 A 
ATOM     53  N   UNL     1       1.380   0.027 -11.357  1.00  0.00    -0.354 N 
ATOM     54  N   UNL     1       3.974  -0.012 -10.020  1.00  0.00    -0.248 NA
ATOM     55  C   UNL     1       6.298   0.192 -10.093  1.00  0.00     0.031 C 
ATOM     56  C   UNL     1       1.291   0.667 -13.484  1.00  0.00     0.029 A 
ATOM     57  C   UNL     1       2.156   0.447 -12.424  1.00  0.00     0.049 A 
ATOM     58  H   UNL     1       1.724  -0.214 -10.467  1.00  0.00     0.167 HD
ATOM     59  C   UNL     1       4.360   0.377 -11.299  1.00  0.00     0.074 A 
ATOM     60  C   UNL     1       5.800   0.518 -11.278  1.00  0.00     0.031 C 
ATOM     61  C   UNL     1       3.588   0.600 -12.390  1.00  0.00     0.031 A 
BRANCH  48  62
ATOM     62  C   UNL     1      -2.423  -0.457 -11.451  1.00  0.00    -0.014 A 
ATOM     63  C   UNL     1      -3.421   0.435 -11.030  1.00  0.00     0.009 A 
ATOM     64  C   UNL     1      -2.726  -1.387 -12.459  1.00  0.00     0.009 A 
ATOM     65  C   UNL     1      -4.704   0.370 -11.580  1.00  0.00     0.001 A 
ATOM     66  C   UNL     1      -3.998  -1.427 -13.031  1.00  0.00     0.001 A 
ATOM     67  C   UNL     1      -4.989  -0.556 -12.583  1.00  0.00     0.000 A 
ENDBRANCH  48  62
BRANCH  49  68
ATOM     68  C   UNL     1       6.627  -0.482  -7.270  1.00  0.00    -0.014 A 
ATOM     69  C   UNL     1       7.375   0.695  -7.115  1.00  0.00     0.009 A 
ATOM     70  C   UNL     1       7.205  -1.704  -6.888  1.00  0.00     0.009 A 
ATOM     71  C   UNL     1       8.680   0.647  -6.616  1.00  0.00     0.001 A 
ATOM     72  C   UNL     1       8.497  -1.745  -6.358  1.00  0.00     0.001 A 
ATOM     73  C   UNL     1       9.237  -0.572  -6.232  1.00  0.00     0.000 A 
ENDBRANCH  49  68
BRANCH  61  74
ATOM     74  C   UNL     1       4.266   1.083 -13.644  1.00  0.00    -0.014 A 
ATOM     75  C   UNL     1       5.066   0.234 -14.423  1.00  0.00     0.009 A 
ATOM     76  C   UNL     1       4.036   2.395 -14.090  1.00  0.00     0.009 A 
ATOM     77  C   UNL     1       5.641   0.698 -15.610  1.00  0.00     0.001 A 
ATOM     78  C   UNL     1       4.584   2.846 -15.292  1.00  0.00     0.001 A 
ATOM     79  C   UNL     1       5.393   1.999 -16.047  1.00  0.00     0.000 A 
ENDBRANCH  61  74
ENDBRANCH  35  36
ENDBRANCH  28  30
ENDBRANCH  27  28
ENDBRANCH  26  27
ENDBRANCH  25  26
ENDBRANCH  24  25
ENDBRANCH  23  24
ENDBRANCH  22  23
ENDBRANCH   1  22
TORSDOF 22
