REMARK SMILES CS(=O)(=O)Nc1ccc(-c2cc(Cl)cc3c2O[C@H](C(F)(F)F)C(C(=O)OCCOCCOCCOC(=O)c2ccc(-c4c5nc(c(-c6ccccc6)c6ccc([nH]6)c(-c6ccccc6)c6nc(c(-c7ccccc7)c7ccc4[nH]7)C=C6)C=C5)cc2)=C3)cc1
REMARK SMILES IDX 30 1 29 2 28 3 27 4 26 5 24 6 25 7 23 8 10 9 11 10 16 11
REMARK SMILES IDX 12 12 15 13 17 14 13 15 14 16 86 17 18 18 9 19 6 20 7 21
REMARK SMILES IDX 88 22 8 23 87 24 5 25 2 27 1 28 3 29 4 30 19 31 20 32 21 33
REMARK SMILES IDX 22 34 31 35 32 36 33 37 34 38 35 39 36 40 37 41 38 42 39 43
REMARK SMILES IDX 85 44 40 45 84 46 41 47 42 48 43 49 78 50 44 51 83 52 77 53
REMARK SMILES IDX 79 54 45 55 82 56 76 57 75 58 46 60 68 61 53 62 67 63 54 64
REMARK SMILES IDX 57 65 66 66 80 67 55 68 56 69 65 71 81 72 58 73 47 74 48 75
REMARK SMILES IDX 52 76 49 77 51 78 50 79 69 80 70 81 74 82 71 83 73 84 72 85
REMARK SMILES IDX 59 86 60 87 64 88 61 89 63 90 62 91
REMARK H PARENT 5 26 79 59 57 70
REMARK Flexibility Score: inf
ROOT
ATOM      1  C   UNL     1       6.928   6.718  -6.837  1.00  0.00     0.188 C 
ENDROOT
BRANCH   1   2
ATOM      2  O   UNL     1       6.778   8.123  -6.902  1.00  0.00    -0.376 OA
BRANCH   2   3
ATOM      3  C   UNL     1       7.389   8.876  -5.857  1.00  0.00     0.202 C 
BRANCH   3   4
ATOM      4  C   UNL     1       8.866   8.564  -5.554  1.00  0.00     0.261 C 
BRANCH   4   5
ATOM      5  O   UNL     1       9.063   7.215  -5.052  1.00  0.00    -0.460 OA
BRANCH   5   6
ATOM      6  C   UNL     1       8.924   7.072  -3.717  1.00  0.00     0.338 C 
ATOM      7  O   UNL     1       8.752   8.001  -2.939  1.00  0.00    -0.246 OA
BRANCH   6   8
ATOM      8  C   UNL     1       8.867   5.644  -3.291  1.00  0.00     0.087 C 
ATOM      9  C   UNL     1       5.569   3.211  -3.864  1.00  0.00     0.026 A 
ATOM     10  C   UNL     1       4.507   4.130  -4.038  1.00  0.00     0.033 A 
ATOM     11  C   UNL     1       6.782   3.789  -3.471  1.00  0.00     0.135 A 
ATOM     12  C   UNL     1       4.577   5.466  -3.644  1.00  0.00     0.042 A 
ATOM     13  C   UNL     1       6.770   5.054  -2.849  1.00  0.00     0.019 A 
ATOM     14  O   UNL     1       8.045   3.306  -3.814  1.00  0.00    -0.475 OA
ATOM     15  Cl  UNL     1       3.258   6.532  -3.906  1.00  0.00    -0.084 Cl
ATOM     16  C   UNL     1       5.688   5.913  -2.963  1.00  0.00     0.032 A 
ATOM     17  C   UNL     1       8.037   5.516  -2.243  1.00  0.00     0.027 C 
ATOM     18  C   UNL     1       8.952   4.447  -4.239  1.00  0.00     0.316 C 
BRANCH   9  19
ATOM     19  C   UNL     1       5.098   1.799  -3.661  1.00  0.00    -0.014 A 
ATOM     20  C   UNL     1       3.112  -0.112  -2.850  1.00  0.00     0.048 A 
ATOM     21  C   UNL     1       3.241   0.264  -4.185  1.00  0.00     0.027 A 
ATOM     22  C   UNL     1       4.060   0.364  -1.948  1.00  0.00     0.027 A 
ATOM     23  C   UNL     1       4.237   1.177  -4.585  1.00  0.00     0.011 A 
ATOM     24  C   UNL     1       5.045   1.296  -2.349  1.00  0.00     0.011 A 
BRANCH  20  25
ATOM     25  N   UNL     1       1.867  -0.696  -2.451  1.00  0.00    -0.284 N 
ATOM     26  H   UNL     1       1.064  -0.452  -2.966  1.00  0.00     0.180 HD
BRANCH  25  27
ATOM     27  S   UNL     1       1.674  -1.759  -1.180  1.00  0.00     0.229 S 
ATOM     28  C   UNL     1       1.754  -0.724   0.274  1.00  0.00     0.183 C 
ATOM     29  O   UNL     1       2.774  -2.693  -1.157  1.00  0.00    -0.207 OA
ATOM     30  O   UNL     1       0.300  -2.215  -1.284  1.00  0.00    -0.207 OA
ENDBRANCH  25  27
ENDBRANCH  20  25
ENDBRANCH   9  19
BRANCH  18  31
ATOM     31  C   UNL     1      10.419   4.019  -4.361  1.00  0.00     0.430 C 
ATOM     32  F   UNL     1      10.926   3.602  -3.180  1.00  0.00    -0.167 F 
ATOM     33  F   UNL     1      10.581   3.025  -5.261  1.00  0.00    -0.167 F 
ATOM     34  F   UNL     1      11.187   5.057  -4.781  1.00  0.00    -0.167 F 
ENDBRANCH  18  31
ENDBRANCH   6   8
ENDBRANCH   5   6
ENDBRANCH   4   5
ENDBRANCH   3   4
ENDBRANCH   2   3
ENDBRANCH   1   2
BRANCH   1  35
ATOM     35  C   UNL     1       8.046   6.146  -7.736  1.00  0.00     0.188 C 
BRANCH  35  36
ATOM     36  O   UNL     1       8.864   7.019  -8.498  1.00  0.00    -0.376 OA
BRANCH  36  37
ATOM     37  C   UNL     1       8.257   8.036  -9.284  1.00  0.00     0.202 C 
BRANCH  37  38
ATOM     38  C   UNL     1       7.119   7.671 -10.251  1.00  0.00     0.261 C 
BRANCH  38  39
ATOM     39  O   UNL     1       6.002   6.975  -9.664  1.00  0.00    -0.460 OA
BRANCH  39  40
ATOM     40  C   UNL     1       5.815   5.705 -10.094  1.00  0.00     0.338 C 
ATOM     41  O   UNL     1       6.499   5.091 -10.904  1.00  0.00    -0.246 OA
BRANCH  40  42
ATOM     42  C   UNL     1       4.745   5.041  -9.325  1.00  0.00     0.060 A 
ATOM     43  C   UNL     1       5.078   3.899  -8.590  1.00  0.00     0.016 A 
ATOM     44  C   UNL     1       3.412   5.448  -9.416  1.00  0.00     0.016 A 
ATOM     45  C   UNL     1       4.075   3.149  -7.975  1.00  0.00     0.010 A 
ATOM     46  C   UNL     1       2.406   4.687  -8.797  1.00  0.00     0.010 A 
ATOM     47  C   UNL     1       2.725   3.520  -8.084  1.00  0.00    -0.014 A 
BRANCH  47  48
ATOM     48  C   UNL     1       1.661   2.582  -7.614  1.00  0.00     0.031 A 
ATOM     49  C   UNL     1       1.266   1.446  -8.509  1.00  0.00     0.074 A 
ATOM     50  C   UNL     1       1.062   2.715  -6.414  1.00  0.00     0.049 A 
ATOM     51  N   UNL     1       0.424   0.472  -8.283  1.00  0.00    -0.248 NA
ATOM     52  C   UNL     1       1.877   1.428  -9.847  1.00  0.00     0.031 C 
ATOM     53  C   UNL     1       1.342   3.792  -5.484  1.00  0.00     0.029 A 
ATOM     54  N   UNL     1       0.148   1.932  -5.743  1.00  0.00    -0.354 N 
ATOM     55  C   UNL     1       0.342  -0.229  -9.478  1.00  0.00     0.074 A 
ATOM     56  C   UNL     1       1.258   0.400 -10.406  1.00  0.00     0.031 C 
ATOM     57  C   UNL     1       0.744   3.532  -4.309  1.00  0.00     0.029 A 
ATOM     58  C   UNL     1      -0.078   2.331  -4.438  1.00  0.00     0.049 A 
ATOM     59  H   UNL     1      -0.302   1.160  -6.154  1.00  0.00     0.167 HD
ATOM     60  C   UNL     1      -0.465  -1.269  -9.791  1.00  0.00     0.031 A 
ATOM     61  C   UNL     1      -0.854   1.788  -3.470  1.00  0.00     0.031 A 
ATOM     62  C   UNL     1      -1.392  -1.877  -8.876  1.00  0.00     0.049 A 
ATOM     63  C   UNL     1      -1.680   0.569  -3.838  1.00  0.00     0.074 A 
ATOM     64  C   UNL     1      -2.271  -2.920  -9.109  1.00  0.00     0.029 A 
ATOM     65  N   UNL     1      -1.566  -1.492  -7.556  1.00  0.00    -0.354 N 
ATOM     66  N   UNL     1      -1.631  -0.168  -4.924  1.00  0.00    -0.248 NA
ATOM     67  C   UNL     1      -2.669   0.107  -2.852  1.00  0.00     0.031 C 
ATOM     68  C   UNL     1      -3.017  -3.128  -7.945  1.00  0.00     0.029 A 
ATOM     69  C   UNL     1      -2.557  -2.259  -6.969  1.00  0.00     0.049 A 
ATOM     70  H   UNL     1      -1.060  -0.780  -7.103  1.00  0.00     0.167 HD
ATOM     71  C   UNL     1      -2.568  -1.183  -4.737  1.00  0.00     0.074 A 
ATOM     72  C   UNL     1      -3.093  -1.022  -3.398  1.00  0.00     0.031 C 
ATOM     73  C   UNL     1      -3.003  -2.129  -5.606  1.00  0.00     0.031 A 
BRANCH  60  74
ATOM     74  C   UNL     1      -0.454  -1.738 -11.218  1.00  0.00    -0.014 A 
ATOM     75  C   UNL     1       0.630  -2.444 -11.759  1.00  0.00     0.009 A 
ATOM     76  C   UNL     1      -1.564  -1.464 -12.034  1.00  0.00     0.009 A 
ATOM     77  C   UNL     1       0.616  -2.834 -13.100  1.00  0.00     0.001 A 
ATOM     78  C   UNL     1      -1.589  -1.883 -13.364  1.00  0.00     0.001 A 
ATOM     79  C   UNL     1      -0.494  -2.558 -13.899  1.00  0.00     0.000 A 
ENDBRANCH  60  74
BRANCH  61  80
ATOM     80  C   UNL     1      -0.879   2.324  -2.061  1.00  0.00    -0.014 A 
ATOM     81  C   UNL     1      -0.719   1.454  -0.967  1.00  0.00     0.009 A 
ATOM     82  C   UNL     1      -1.083   3.681  -1.764  1.00  0.00     0.009 A 
ATOM     83  C   UNL     1      -0.759   1.909   0.356  1.00  0.00     0.001 A 
ATOM     84  C   UNL     1      -1.054   4.151  -0.443  1.00  0.00     0.001 A 
ATOM     85  C   UNL     1      -0.899   3.264   0.618  1.00  0.00     0.000 A 
ENDBRANCH  61  80
BRANCH  73  86
ATOM     86  C   UNL     1      -4.055  -3.096  -5.122  1.00  0.00    -0.014 A 
ATOM     87  C   UNL     1      -5.363  -2.671  -4.831  1.00  0.00     0.009 A 
ATOM     88  C   UNL     1      -3.752  -4.463  -5.016  1.00  0.00     0.009 A 
ATOM     89  C   UNL     1      -6.327  -3.584  -4.399  1.00  0.00     0.001 A 
ATOM     90  C   UNL     1      -4.730  -5.380  -4.622  1.00  0.00     0.001 A 
ATOM     91  C   UNL     1      -6.012  -4.938  -4.302  1.00  0.00     0.000 A 
ENDBRANCH  73  86
ENDBRANCH  47  48
ENDBRANCH  40  42
ENDBRANCH  39  40
ENDBRANCH  38  39
ENDBRANCH  37  38
ENDBRANCH  36  37
ENDBRANCH  35  36
ENDBRANCH   1  35
TORSDOF 21
