REMARK SMILES O=C(N[C@@H](Cc1ccc(O)cc1)C(=O)N[C@@H](Cc1c[nH]c2ccccc12)C(=O)N[C@@H](CO)C(=O)OCCOCCOCCOC(=O)c1ccc(-c2c3nc(c(-c4ccccc4)c4ccc([nH]4)c(-c4ccccc4)c4nc(c(-c5ccccc5)c5ccc2[nH]5)C=C4)C=C3)cc1)c1ccc(F)cc1
REMARK SMILES IDX 37 1 36 2 35 3 33 4 34 5 30 6 29 7 27 8 28 9 16 11 15 12
REMARK SMILES IDX 13 13 14 14 4 16 3 17 1 18 2 19 95 21 96 22 101 23 97 24
REMARK SMILES IDX 100 25 98 26 99 27 5 28 6 29 7 30 12 31 8 32 11 33 9 34
REMARK SMILES IDX 10 35 17 37 18 38 19 39 26 40 20 41 21 42 25 43 22 45 24 46
REMARK SMILES IDX 23 47 31 48 32 49 38 51 39 52 40 53 41 54 42 55 43 56 44 57
REMARK SMILES IDX 45 58 46 59 47 60 48 61 94 62 49 63 93 64 50 65 51 66 52 67
REMARK SMILES IDX 87 68 53 69 92 70 86 71 88 72 54 73 91 74 85 75 84 76 55 78
REMARK SMILES IDX 77 79 62 80 76 81 63 82 66 83 75 84 89 85 64 86 65 87 74 89
REMARK SMILES IDX 90 90 67 91 56 92 57 93 61 94 58 95 60 96 59 97 78 98 79 99
REMARK SMILES IDX 83 100 80 101 82 102 81 103 68 104 69 105 73 106 70 107
REMARK SMILES IDX 72 108 71 109
REMARK H PARENT 29 10 15 15 3 20 10 36 20 44 32 50 88 77 66 88
REMARK Flexibility Score: inf
ROOT
ATOM      1  C   UNL     1       3.827 -10.231   3.543  1.00  0.00     0.202 C 
ENDROOT
BRANCH   1   2
ATOM      2  C   UNL     1       4.717 -10.222   2.285  1.00  0.00     0.261 C 
BRANCH   2   3
ATOM      3  O   UNL     1       5.254  -8.900   2.060  1.00  0.00    -0.462 OA
BRANCH   3   4
ATOM      4  C   UNL     1       5.389  -8.495   0.764  1.00  0.00     0.331 C 
ATOM      5  O   UNL     1       5.367  -9.247  -0.205  1.00  0.00    -0.250 OA
BRANCH   4   6
ATOM      6  C   UNL     1       5.711  -6.979   0.664  1.00  0.00     0.218 C 
BRANCH   6   7
ATOM      7  N   UNL     1       5.234  -6.180   1.809  1.00  0.00    -0.339 N 
ATOM      8  C   UNL     1       4.167  -5.328   1.895  1.00  0.00     0.243 C 
ATOM      9  O   UNL     1       3.510  -5.355   2.942  1.00  0.00    -0.273 OA
ATOM     10  H   UNL     1       5.762  -6.274   2.634  1.00  0.00     0.164 HD
BRANCH   8  11
ATOM     11  C   UNL     1       3.688  -4.382   0.778  1.00  0.00     0.175 C 
BRANCH  11  12
ATOM     12  N   UNL     1       4.739  -3.814  -0.056  1.00  0.00    -0.342 N 
ATOM     13  C   UNL     1       5.263  -2.553  -0.072  1.00  0.00     0.243 C 
ATOM     14  O   UNL     1       6.351  -2.433  -0.651  1.00  0.00    -0.273 OA
ATOM     15  H   UNL     1       5.134  -4.436  -0.709  1.00  0.00     0.164 HD
BRANCH  13  16
ATOM     16  C   UNL     1       4.643  -1.311   0.642  1.00  0.00     0.176 C 
BRANCH  16  17
ATOM     17  N   UNL     1       3.184  -1.171   0.563  1.00  0.00    -0.340 N 
ATOM     18  O   UNL     1       1.198  -0.218   0.190  1.00  0.00    -0.269 OA
ATOM     19  C   UNL     1       2.411  -0.185  -0.002  1.00  0.00     0.251 C 
ATOM     20  H   UNL     1       2.676  -1.903   0.982  1.00  0.00     0.164 HD
BRANCH  19  21
ATOM     21  C   UNL     1       3.008   0.956  -0.744  1.00  0.00     0.040 A 
ATOM     22  C   UNL     1       3.983   0.787  -1.736  1.00  0.00     0.017 A 
ATOM     23  C   UNL     1       2.552   2.247  -0.435  1.00  0.00     0.017 A 
ATOM     24  C   UNL     1       4.572   1.905  -2.333  1.00  0.00     0.040 A 
ATOM     25  C   UNL     1       3.126   3.362  -1.052  1.00  0.00     0.040 A 
ATOM     26  C   UNL     1       4.146   3.181  -1.979  1.00  0.00     0.123 A 
ATOM     27  F   UNL     1       4.723   4.250  -2.543  1.00  0.00    -0.207 F 
ENDBRANCH  19  21
ENDBRANCH  16  17
BRANCH  16  28
ATOM     28  C   UNL     1       5.210  -0.987   2.037  1.00  0.00     0.070 C 
BRANCH  28  29
ATOM     29  C   UNL     1       5.021  -1.984   3.149  1.00  0.00    -0.045 A 
ATOM     30  C   UNL     1       3.884  -1.949   3.973  1.00  0.00     0.007 A 
ATOM     31  C   UNL     1       6.034  -2.913   3.428  1.00  0.00     0.007 A 
ATOM     32  C   UNL     1       3.756  -2.841   5.043  1.00  0.00     0.046 A 
ATOM     33  C   UNL     1       5.912  -3.794   4.504  1.00  0.00     0.046 A 
ATOM     34  C   UNL     1       4.768  -3.762   5.292  1.00  0.00     0.115 A 
BRANCH  34  35
ATOM     35  O   UNL     1       4.662  -4.676   6.298  1.00  0.00    -0.508 OA
ATOM     36  H   UNL     1       3.904  -4.682   6.848  1.00  0.00     0.293 HD
ENDBRANCH  34  35
ENDBRANCH  28  29
ENDBRANCH  16  28
ENDBRANCH  13  16
ENDBRANCH  11  12
BRANCH  11  37
ATOM     37  C   UNL     1       2.433  -4.855   0.018  1.00  0.00     0.072 C 
BRANCH  37  38
ATOM     38  C   UNL     1       2.412  -6.263  -0.487  1.00  0.00    -0.020 A 
ATOM     39  C   UNL     1       3.121  -6.775  -1.554  1.00  0.00     0.087 A 
ATOM     40  C   UNL     1       1.595  -7.340   0.009  1.00  0.00     0.003 A 
ATOM     41  N   UNL     1       2.916  -8.130  -1.595  1.00  0.00    -0.361 N 
ATOM     42  C   UNL     1       2.002  -8.502  -0.640  1.00  0.00     0.046 A 
ATOM     43  C   UNL     1       0.570  -7.451   0.973  1.00  0.00     0.010 A 
ATOM     44  H   UNL     1       3.361  -8.747  -2.220  1.00  0.00     0.166 HD
ATOM     45  C   UNL     1       1.515  -9.772  -0.302  1.00  0.00     0.026 A 
ATOM     46  C   UNL     1       0.044  -8.705   1.302  1.00  0.00     0.001 A 
ATOM     47  C   UNL     1       0.534  -9.853   0.690  1.00  0.00     0.002 A 
ENDBRANCH  37  38
ENDBRANCH  11  37
ENDBRANCH   8  11
ENDBRANCH   6   7
BRANCH   6  48
ATOM     48  C   UNL     1       7.225  -6.852   0.486  1.00  0.00     0.193 C 
BRANCH  48  49
ATOM     49  O   UNL     1       7.942  -7.356   1.611  1.00  0.00    -0.394 OA
ATOM     50  H   UNL     1       7.704  -6.846   2.401  1.00  0.00     0.210 HD
ENDBRANCH  48  49
ENDBRANCH   6  48
ENDBRANCH   4   6
ENDBRANCH   3   4
ENDBRANCH   2   3
ENDBRANCH   1   2
BRANCH   1  51
ATOM     51  O   UNL     1       2.640  -9.454   3.400  1.00  0.00    -0.376 OA
BRANCH  51  52
ATOM     52  C   UNL     1       2.834  -8.054   3.536  1.00  0.00     0.188 C 
BRANCH  52  53
ATOM     53  C   UNL     1       2.905  -7.463   4.942  1.00  0.00     0.188 C 
BRANCH  53  54
ATOM     54  O   UNL     1       2.587  -8.340   6.007  1.00  0.00    -0.376 OA
BRANCH  54  55
ATOM     55  C   UNL     1       1.237  -8.801   6.032  1.00  0.00     0.202 C 
BRANCH  55  56
ATOM     56  C   UNL     1       0.223  -7.734   6.456  1.00  0.00     0.261 C 
BRANCH  56  57
ATOM     57  O   UNL     1      -0.283  -6.999   5.317  1.00  0.00    -0.460 OA
BRANCH  57  58
ATOM     58  C   UNL     1      -0.065  -5.665   5.305  1.00  0.00     0.338 C 
ATOM     59  O   UNL     1       0.558  -5.006   6.134  1.00  0.00    -0.246 OA
BRANCH  58  60
ATOM     60  C   UNL     1      -0.591  -5.081   4.054  1.00  0.00     0.060 A 
ATOM     61  C   UNL     1       0.243  -4.238   3.312  1.00  0.00     0.016 A 
ATOM     62  C   UNL     1      -1.906  -5.307   3.634  1.00  0.00     0.016 A 
ATOM     63  C   UNL     1      -0.231  -3.630   2.146  1.00  0.00     0.010 A 
ATOM     64  C   UNL     1      -2.376  -4.702   2.459  1.00  0.00     0.010 A 
ATOM     65  C   UNL     1      -1.538  -3.866   1.701  1.00  0.00    -0.014 A 
BRANCH  65  66
ATOM     66  C   UNL     1      -2.066  -3.137   0.519  1.00  0.00     0.031 A 
ATOM     67  C   UNL     1      -2.692  -1.790   0.724  1.00  0.00     0.074 A 
ATOM     68  C   UNL     1      -1.972  -3.636  -0.728  1.00  0.00     0.049 A 
ATOM     69  N   UNL     1      -3.329  -1.031  -0.129  1.00  0.00    -0.248 NA
ATOM     70  C   UNL     1      -2.585  -1.231   2.079  1.00  0.00     0.031 C 
ATOM     71  C   UNL     1      -1.282  -4.865  -1.097  1.00  0.00     0.029 A 
ATOM     72  N   UNL     1      -2.458  -3.158  -1.922  1.00  0.00    -0.354 N 
ATOM     73  C   UNL     1      -3.706   0.096   0.588  1.00  0.00     0.074 A 
ATOM     74  C   UNL     1      -3.241  -0.089   1.946  1.00  0.00     0.031 C 
ATOM     75  C   UNL     1      -1.377  -5.045  -2.425  1.00  0.00     0.029 A 
ATOM     76  C   UNL     1      -2.197  -3.979  -2.993  1.00  0.00     0.049 A 
ATOM     77  H   UNL     1      -2.947  -2.307  -2.002  1.00  0.00     0.167 HD
ATOM     78  C   UNL     1      -4.394   1.180   0.160  1.00  0.00     0.031 A 
ATOM     79  C   UNL     1      -2.607  -3.901  -4.275  1.00  0.00     0.031 A 
ATOM     80  C   UNL     1      -4.890   1.349  -1.179  1.00  0.00     0.049 A 
ATOM     81  C   UNL     1      -3.521  -2.776  -4.688  1.00  0.00     0.074 A 
ATOM     82  C   UNL     1      -5.632   2.394  -1.700  1.00  0.00     0.029 A 
ATOM     83  N   UNL     1      -4.704   0.438  -2.208  1.00  0.00    -0.354 N 
ATOM     84  N   UNL     1      -3.916  -1.734  -3.997  1.00  0.00    -0.248 NA
ATOM     85  C   UNL     1      -4.064  -2.829  -6.054  1.00  0.00     0.031 C 
ATOM     86  C   UNL     1      -5.959   2.079  -3.023  1.00  0.00     0.029 A 
ATOM     87  C   UNL     1      -5.360   0.872  -3.348  1.00  0.00     0.049 A 
ATOM     88  H   UNL     1      -4.183  -0.395  -2.138  1.00  0.00     0.167 HD
ATOM     89  C   UNL     1      -4.733  -0.999  -4.847  1.00  0.00     0.074 A 
ATOM     90  C   UNL     1      -4.766  -1.705  -6.111  1.00  0.00     0.031 C 
ATOM     91  C   UNL     1      -5.394   0.159  -4.601  1.00  0.00     0.031 A 
BRANCH  78  92
ATOM     92  C   UNL     1      -4.732   2.212   1.198  1.00  0.00    -0.014 A 
ATOM     93  C   UNL     1      -3.749   3.029   1.778  1.00  0.00     0.009 A 
ATOM     94  C   UNL     1      -6.061   2.330   1.637  1.00  0.00     0.009 A 
ATOM     95  C   UNL     1      -4.081   3.901   2.817  1.00  0.00     0.001 A 
ATOM     96  C   UNL     1      -6.395   3.226   2.652  1.00  0.00     0.001 A 
ATOM     97  C   UNL     1      -5.402   3.998   3.253  1.00  0.00     0.000 A 
ENDBRANCH  78  92
BRANCH  79  98
ATOM     98  C   UNL     1      -2.215  -4.947  -5.261  1.00  0.00    -0.014 A 
ATOM     99  C   UNL     1      -1.391  -4.627  -6.351  1.00  0.00     0.009 A 
ATOM    100  C   UNL     1      -2.691  -6.263  -5.140  1.00  0.00     0.009 A 
ATOM    101  C   UNL     1      -1.066  -5.595  -7.305  1.00  0.00     0.001 A 
ATOM    102  C   UNL     1      -2.341  -7.236  -6.079  1.00  0.00     0.001 A 
ATOM    103  C   UNL     1      -1.536  -6.900  -7.165  1.00  0.00     0.000 A 
ENDBRANCH  79  98
BRANCH  91 104
ATOM    104  C   UNL     1      -6.194   0.758  -5.725  1.00  0.00    -0.014 A 
ATOM    105  C   UNL     1      -7.404   0.186  -6.148  1.00  0.00     0.009 A 
ATOM    106  C   UNL     1      -5.763   1.953  -6.325  1.00  0.00     0.009 A 
ATOM    107  C   UNL     1      -8.154   0.787  -7.161  1.00  0.00     0.001 A 
ATOM    108  C   UNL     1      -6.529   2.568  -7.316  1.00  0.00     0.001 A 
ATOM    109  C   UNL     1      -7.721   1.981  -7.738  1.00  0.00     0.000 A 
ENDBRANCH  91 104
ENDBRANCH  65  66
ENDBRANCH  58  60
ENDBRANCH  57  58
ENDBRANCH  56  57
ENDBRANCH  55  56
ENDBRANCH  54  55
ENDBRANCH  53  54
ENDBRANCH  52  53
ENDBRANCH  51  52
ENDBRANCH   1  51
TORSDOF 30
