REMARK SMILES C[C@@H](O)[C@@H](NC(=O)CN(C)C(=O)c1cccs1)C(=O)OCCOCCOCCOC(=O)c1ccc(-c2c3nc(c(-c4ccccc4)c4ccc([nH]4)c(-c4ccccc4)c4nc(c(-c5ccccc5)c5ccc2[nH]5)C=C4)C=C3)cc1
REMARK SMILES IDX 23 1 22 2 21 3 20 4 18 5 19 6 4 7 2 8 1 9 3 10 5 12 6 13
REMARK SMILES IDX 7 15 8 16 9 17 10 18 11 19 12 20 13 21 14 22 17 23 15 24
REMARK SMILES IDX 16 25 24 26 25 27 26 28 27 29 28 30 29 31 30 32 31 33 32 34
REMARK SMILES IDX 33 35 79 36 34 37 78 38 35 39 36 40 37 41 72 42 38 43 77 44
REMARK SMILES IDX 71 45 73 46 39 47 76 48 70 49 69 50 40 52 62 53 47 54 61 55
REMARK SMILES IDX 48 56 51 57 60 58 74 59 49 60 50 61 59 63 75 64 52 65 41 66
REMARK SMILES IDX 42 67 46 68 43 69 45 70 44 71 63 72 64 73 68 74 65 75 67 76
REMARK SMILES IDX 66 77 53 78 54 79 58 80 55 81 57 82 56 83
REMARK H PARENT 3 11 5 14 73 51 51 62
REMARK Flexibility Score: inf
ROOT
ATOM      1  O   UNL     1      -2.913  -5.612   1.666  1.00  0.00    -0.376 OA
ENDROOT
BRANCH   1   2
ATOM      2  C   UNL     1      -3.071  -5.490   0.248  1.00  0.00     0.202 C 
BRANCH   2   3
ATOM      3  C   UNL     1      -3.739  -4.171  -0.161  1.00  0.00     0.261 C 
BRANCH   3   4
ATOM      4  O   UNL     1      -2.712  -3.177  -0.390  1.00  0.00    -0.462 OA
BRANCH   4   5
ATOM      5  C   UNL     1      -3.046  -1.878  -0.195  1.00  0.00     0.331 C 
ATOM      6  O   UNL     1      -4.149  -1.513   0.200  1.00  0.00    -0.250 OA
BRANCH   5   7
ATOM      7  C   UNL     1      -1.974  -0.904  -0.715  1.00  0.00     0.221 C 
BRANCH   7   8
ATOM      8  C   UNL     1      -0.501  -1.104  -0.293  1.00  0.00     0.145 C 
ATOM      9  C   UNL     1       0.292   0.204  -0.409  1.00  0.00     0.041 C 
BRANCH   8  10
ATOM     10  O   UNL     1      -0.393  -1.564   1.053  1.00  0.00    -0.391 OA
ATOM     11  H   UNL     1      -0.758  -0.896   1.654  1.00  0.00     0.211 HD
ENDBRANCH   8  10
ENDBRANCH   7   8
BRANCH   7  12
ATOM     12  N   UNL     1      -2.111  -0.582  -2.146  1.00  0.00    -0.339 N 
ATOM     13  C   UNL     1      -1.829  -1.283  -3.280  1.00  0.00     0.240 C 
ATOM     14  H   UNL     1      -2.478   0.316  -2.316  1.00  0.00     0.164 HD
ATOM     15  O   UNL     1      -1.592  -0.599  -4.280  1.00  0.00    -0.273 OA
BRANCH  13  16
ATOM     16  C   UNL     1      -1.832  -2.822  -3.346  1.00  0.00     0.219 C 
BRANCH  16  17
ATOM     17  N   UNL     1      -0.555  -3.534  -3.236  1.00  0.00    -0.332 N 
ATOM     18  C   UNL     1      -0.237  -4.223  -1.993  1.00  0.00     0.147 C 
BRANCH  17  19
ATOM     19  C   UNL     1       0.202  -3.736  -4.404  1.00  0.00     0.264 C 
ATOM     20  O   UNL     1      -0.071  -3.180  -5.460  1.00  0.00    -0.268 OA
BRANCH  19  21
ATOM     21  C   UNL     1       1.292  -4.694  -4.290  1.00  0.00     0.092 A 
ATOM     22  C   UNL     1       1.218  -6.057  -4.063  1.00  0.00     0.025 A 
ATOM     23  S   UNL     1       2.908  -4.150  -4.371  1.00  0.00    -0.139 S 
ATOM     24  C   UNL     1       2.502  -6.633  -3.842  1.00  0.00     0.012 A 
ATOM     25  C   UNL     1       3.509  -5.703  -3.969  1.00  0.00     0.065 A 
ENDBRANCH  19  21
ENDBRANCH  17  19
ENDBRANCH  16  17
ENDBRANCH  13  16
ENDBRANCH   7  12
ENDBRANCH   5   7
ENDBRANCH   4   5
ENDBRANCH   3   4
ENDBRANCH   2   3
ENDBRANCH   1   2
BRANCH   1  26
ATOM     26  C   UNL     1      -2.088  -4.612   2.250  1.00  0.00     0.188 C 
BRANCH  26  27
ATOM     27  C   UNL     1      -0.622  -5.004   2.341  1.00  0.00     0.188 C 
BRANCH  27  28
ATOM     28  O   UNL     1      -0.051  -5.576   1.163  1.00  0.00    -0.376 OA
BRANCH  28  29
ATOM     29  C   UNL     1       0.625  -6.817   1.431  1.00  0.00     0.202 C 
BRANCH  29  30
ATOM     30  C   UNL     1       1.972  -6.665   2.164  1.00  0.00     0.261 C 
BRANCH  30  31
ATOM     31  O   UNL     1       1.774  -6.087   3.470  1.00  0.00    -0.460 OA
BRANCH  31  32
ATOM     32  C   UNL     1       2.320  -4.859   3.658  1.00  0.00     0.338 C 
ATOM     33  O   UNL     1       3.191  -4.341   2.979  1.00  0.00    -0.246 OA
BRANCH  32  34
ATOM     34  C   UNL     1       1.538  -4.109   4.681  1.00  0.00     0.060 A 
ATOM     35  C   UNL     1       1.509  -2.712   4.561  1.00  0.00     0.016 A 
ATOM     36  C   UNL     1       0.768  -4.733   5.671  1.00  0.00     0.016 A 
ATOM     37  C   UNL     1       0.758  -1.941   5.448  1.00  0.00     0.010 A 
ATOM     38  C   UNL     1       0.011  -3.959   6.561  1.00  0.00     0.010 A 
ATOM     39  C   UNL     1       0.036  -2.557   6.478  1.00  0.00    -0.014 A 
BRANCH  39  40
ATOM     40  C   UNL     1      -0.474  -1.715   7.588  1.00  0.00     0.031 A 
ATOM     41  C   UNL     1       0.418  -1.518   8.785  1.00  0.00     0.074 A 
ATOM     42  C   UNL     1      -1.651  -1.068   7.519  1.00  0.00     0.049 A 
ATOM     43  N   UNL     1       0.260  -0.733   9.820  1.00  0.00    -0.248 NA
ATOM     44  C   UNL     1       1.660  -2.309   8.811  1.00  0.00     0.031 C 
ATOM     45  C   UNL     1      -2.605  -1.141   6.415  1.00  0.00     0.029 A 
ATOM     46  N   UNL     1      -2.233  -0.199   8.410  1.00  0.00    -0.354 N 
ATOM     47  C   UNL     1       1.389  -0.921  10.605  1.00  0.00     0.074 A 
ATOM     48  C   UNL     1       2.203  -1.924   9.954  1.00  0.00     0.031 C 
ATOM     49  C   UNL     1      -3.653  -0.342   6.691  1.00  0.00     0.029 A 
ATOM     50  C   UNL     1      -3.443   0.296   7.990  1.00  0.00     0.049 A 
ATOM     51  H   UNL     1      -1.821   0.047   9.270  1.00  0.00     0.167 HD
ATOM     52  C   UNL     1       1.737  -0.306  11.759  1.00  0.00     0.031 A 
ATOM     53  C   UNL     1      -4.279   1.171   8.583  1.00  0.00     0.031 A 
ATOM     54  C   UNL     1       0.934   0.671  12.436  1.00  0.00     0.049 A 
ATOM     55  C   UNL     1      -3.902   1.794   9.902  1.00  0.00     0.074 A 
ATOM     56  C   UNL     1       1.204   1.343  13.615  1.00  0.00     0.029 A 
ATOM     57  N   UNL     1      -0.303   1.108  11.996  1.00  0.00    -0.354 N 
ATOM     58  N   UNL     1      -2.809   1.642  10.609  1.00  0.00    -0.248 NA
ATOM     59  C   UNL     1      -4.874   2.729  10.493  1.00  0.00     0.031 C 
ATOM     60  C   UNL     1       0.109   2.164  13.908  1.00  0.00     0.029 A 
ATOM     61  C   UNL     1      -0.820   2.030  12.889  1.00  0.00     0.049 A 
ATOM     62  H   UNL     1      -0.749   0.808  11.171  1.00  0.00     0.167 HD
ATOM     63  C   UNL     1      -2.948   2.482  11.709  1.00  0.00     0.074 A 
ATOM     64  C   UNL     1      -4.226   3.147  11.573  1.00  0.00     0.031 C 
ATOM     65  C   UNL     1      -2.090   2.688  12.737  1.00  0.00     0.031 A 
BRANCH  52  66
ATOM     66  C   UNL     1       3.051  -0.703  12.362  1.00  0.00    -0.014 A 
ATOM     67  C   UNL     1       4.260  -0.249  11.812  1.00  0.00     0.009 A 
ATOM     68  C   UNL     1       3.080  -1.550  13.479  1.00  0.00     0.009 A 
ATOM     69  C   UNL     1       5.478  -0.664  12.353  1.00  0.00     0.001 A 
ATOM     70  C   UNL     1       4.300  -1.947  14.029  1.00  0.00     0.001 A 
ATOM     71  C   UNL     1       5.497  -1.511  13.461  1.00  0.00     0.000 A 
ENDBRANCH  52  66
BRANCH  53  72
ATOM     72  C   UNL     1      -5.565   1.536   7.936  1.00  0.00    -0.014 A 
ATOM     73  C   UNL     1      -5.740   2.803   7.357  1.00  0.00     0.009 A 
ATOM     74  C   UNL     1      -6.641   0.636   7.942  1.00  0.00     0.009 A 
ATOM     75  C   UNL     1      -6.976   3.170   6.821  1.00  0.00     0.001 A 
ATOM     76  C   UNL     1      -7.870   1.000   7.387  1.00  0.00     0.001 A 
ATOM     77  C   UNL     1      -8.040   2.269   6.835  1.00  0.00     0.000 A 
ENDBRANCH  53  72
BRANCH  65  78
ATOM     78  C   UNL     1      -2.485   3.698  13.775  1.00  0.00    -0.014 A 
ATOM     79  C   UNL     1      -3.461   3.406  14.740  1.00  0.00     0.009 A 
ATOM     80  C   UNL     1      -1.838   4.943  13.814  1.00  0.00     0.009 A 
ATOM     81  C   UNL     1      -3.802   4.354  15.707  1.00  0.00     0.001 A 
ATOM     82  C   UNL     1      -2.166   5.881  14.794  1.00  0.00     0.001 A 
ATOM     83  C   UNL     1      -3.152   5.589  15.735  1.00  0.00     0.000 A 
ENDBRANCH  65  78
ENDBRANCH  39  40
ENDBRANCH  32  34
ENDBRANCH  31  32
ENDBRANCH  30  31
ENDBRANCH  29  30
ENDBRANCH  28  29
ENDBRANCH  27  28
ENDBRANCH  26  27
ENDBRANCH   1  26
TORSDOF 24
