REMARK SMILES CC(C)Cc1cc2c(cc1Cl)C=C(C(=O)OCCOCCOCCOC(=O)c1ccc(-c3c4nc(c(-c5ccccc5)c5ccc([nH]5)c(-c5ccccc5)c5nc(c(-c6ccccc6)c6ccc3[nH]6)C=C5)C=C4)cc1)[C@@H](C(F)(F)F)O2
REMARK SMILES IDX 20 1 19 2 18 3 17 4 16 5 14 6 15 7 13 8 5 9 6 10 10 11 7 12
REMARK SMILES IDX 9 13 11 14 8 15 81 16 12 17 76 18 4 19 2 20 1 21 3 22 77 23
REMARK SMILES IDX 78 24 79 25 80 26 21 27 22 28 23 29 24 30 25 31 26 32 27 33
REMARK SMILES IDX 28 34 29 35 75 36 30 37 74 38 31 39 32 40 33 41 68 42 34 43
REMARK SMILES IDX 73 44 67 45 69 46 35 47 72 48 66 49 65 50 36 52 58 53 43 54
REMARK SMILES IDX 57 55 44 56 47 57 56 58 70 59 45 60 46 61 55 63 71 64 48 65
REMARK SMILES IDX 37 66 38 67 42 68 39 69 41 70 40 71 59 72 60 73 64 74 61 75
REMARK SMILES IDX 63 76 62 77 49 78 50 79 54 80 51 81 53 82 52 83
REMARK H PARENT 69 51 47 62
REMARK Flexibility Score: inf
ROOT
ATOM      1  C   UNL     1      -1.825   6.892   4.746  1.00  0.00     0.188 C 
ENDROOT
BRANCH   1   2
ATOM      2  O   UNL     1      -2.414   7.819   5.626  1.00  0.00    -0.376 OA
BRANCH   2   3
ATOM      3  C   UNL     1      -3.774   7.723   6.012  1.00  0.00     0.202 C 
BRANCH   3   4
ATOM      4  C   UNL     1      -4.835   6.831   5.345  1.00  0.00     0.261 C 
BRANCH   4   5
ATOM      5  O   UNL     1      -4.367   5.674   4.648  1.00  0.00    -0.460 OA
BRANCH   5   6
ATOM      6  C   UNL     1      -4.528   5.713   3.304  1.00  0.00     0.338 C 
ATOM      7  O   UNL     1      -5.027   6.616   2.654  1.00  0.00    -0.246 OA
BRANCH   6   8
ATOM      8  C   UNL     1      -3.850   4.555   2.692  1.00  0.00     0.087 C 
ATOM      9  C   UNL     1      -1.363   1.526  -0.458  1.00  0.00    -0.025 A 
ATOM     10  C   UNL     1      -2.082   1.332   0.739  1.00  0.00     0.052 A 
ATOM     11  C   UNL     1      -1.170   2.841  -0.910  1.00  0.00     0.045 A 
ATOM     12  C   UNL     1      -2.623   2.413   1.440  1.00  0.00     0.128 A 
ATOM     13  C   UNL     1      -1.685   3.923  -0.192  1.00  0.00     0.032 A 
ATOM     14  Cl  UNL     1      -0.355   3.201  -2.390  1.00  0.00    -0.084 Cl
ATOM     15  C   UNL     1      -2.433   3.709   0.968  1.00  0.00     0.019 A 
ATOM     16  O   UNL     1      -3.332   2.114   2.569  1.00  0.00    -0.475 OA
ATOM     17  C   UNL     1      -3.063   4.827   1.643  1.00  0.00     0.027 C 
ATOM     18  C   UNL     1      -4.066   3.173   3.248  1.00  0.00     0.316 C 
BRANCH   9  19
ATOM     19  C   UNL     1      -0.875   0.313  -1.223  1.00  0.00     0.040 C 
BRANCH  19  20
ATOM     20  C   UNL     1       0.652   0.101  -1.218  1.00  0.00    -0.013 C 
ATOM     21  C   UNL     1       1.194  -0.167   0.186  1.00  0.00     0.008 C 
ATOM     22  C   UNL     1       1.015  -1.060  -2.149  1.00  0.00     0.008 C 
ENDBRANCH  19  20
ENDBRANCH   9  19
BRANCH  18  23
ATOM     23  C   UNL     1      -5.554   2.800   3.291  1.00  0.00     0.430 C 
ATOM     24  F   UNL     1      -5.737   1.541   3.755  1.00  0.00    -0.167 F 
ATOM     25  F   UNL     1      -6.250   3.622   4.114  1.00  0.00    -0.167 F 
ATOM     26  F   UNL     1      -6.129   2.872   2.069  1.00  0.00    -0.167 F 
ENDBRANCH  18  23
ENDBRANCH   6   8
ENDBRANCH   5   6
ENDBRANCH   4   5
ENDBRANCH   3   4
ENDBRANCH   2   3
ENDBRANCH   1   2
BRANCH   1  27
ATOM     27  C   UNL     1      -1.488   5.478   5.263  1.00  0.00     0.188 C 
BRANCH  27  28
ATOM     28  O   UNL     1      -1.868   5.076   6.564  1.00  0.00    -0.376 OA
BRANCH  28  29
ATOM     29  C   UNL     1      -1.430   5.834   7.682  1.00  0.00     0.202 C 
BRANCH  29  30
ATOM     30  C   UNL     1       0.017   6.337   7.809  1.00  0.00     0.261 C 
BRANCH  30  31
ATOM     31  O   UNL     1       0.552   6.979   6.643  1.00  0.00    -0.460 OA
BRANCH  31  32
ATOM     32  C   UNL     1       1.584   6.328   6.038  1.00  0.00     0.338 C 
ATOM     33  O   UNL     1       2.095   5.282   6.367  1.00  0.00    -0.246 OA
BRANCH  32  34
ATOM     34  C   UNL     1       1.868   7.006   4.755  1.00  0.00     0.060 A 
ATOM     35  C   UNL     1       2.312   8.327   4.731  1.00  0.00     0.016 A 
ATOM     36  C   UNL     1       1.669   6.297   3.563  1.00  0.00     0.016 A 
ATOM     37  C   UNL     1       2.561   8.942   3.501  1.00  0.00     0.010 A 
ATOM     38  C   UNL     1       1.895   6.921   2.335  1.00  0.00     0.010 A 
ATOM     39  C   UNL     1       2.354   8.245   2.297  1.00  0.00    -0.014 A 
BRANCH  39  40
ATOM     40  C   UNL     1       2.742   8.855   1.003  1.00  0.00     0.031 A 
ATOM     41  C   UNL     1       1.726   9.467   0.087  1.00  0.00     0.074 A 
ATOM     42  C   UNL     1       4.041   8.832   0.652  1.00  0.00     0.049 A 
ATOM     43  N   UNL     1       1.919  10.073  -1.057  1.00  0.00    -0.248 NA
ATOM     44  C   UNL     1       0.318   9.393   0.502  1.00  0.00     0.031 C 
ATOM     45  C   UNL     1       5.115   8.259   1.465  1.00  0.00     0.029 A 
ATOM     46  N   UNL     1       4.680   9.302  -0.467  1.00  0.00    -0.354 N 
ATOM     47  C   UNL     1       0.663  10.473  -1.492  1.00  0.00     0.074 A 
ATOM     48  C   UNL     1      -0.291  10.001  -0.510  1.00  0.00     0.031 C 
ATOM     49  C   UNL     1       6.282   8.429   0.826  1.00  0.00     0.029 A 
ATOM     50  C   UNL     1       6.037   9.089  -0.454  1.00  0.00     0.049 A 
ATOM     51  H   UNL     1       4.211   9.749  -1.209  1.00  0.00     0.167 HD
ATOM     52  C   UNL     1       0.346  11.182  -2.601  1.00  0.00     0.031 A 
ATOM     53  C   UNL     1       6.982   9.384  -1.368  1.00  0.00     0.031 A 
ATOM     54  C   UNL     1       1.304  11.629  -3.582  1.00  0.00     0.049 A 
ATOM     55  C   UNL     1       6.591  10.103  -2.629  1.00  0.00     0.074 A 
ATOM     56  C   UNL     1       1.073  12.390  -4.715  1.00  0.00     0.029 A 
ATOM     57  N   UNL     1       2.660  11.346  -3.561  1.00  0.00    -0.354 N 
ATOM     58  N   UNL     1       5.410  10.544  -2.989  1.00  0.00    -0.248 NA
ATOM     59  C   UNL     1       7.656  10.375  -3.605  1.00  0.00     0.031 C 
ATOM     60  C   UNL     1       2.271  12.498  -5.421  1.00  0.00     0.029 A 
ATOM     61  C   UNL     1       3.269  11.879  -4.685  1.00  0.00     0.049 A 
ATOM     62  H   UNL     1       3.122  10.841  -2.852  1.00  0.00     0.167 HD
ATOM     63  C   UNL     1       5.594  11.166  -4.217  1.00  0.00     0.074 A 
ATOM     64  C   UNL     1       7.001  11.057  -4.537  1.00  0.00     0.031 C 
ATOM     65  C   UNL     1       4.671  11.773  -5.002  1.00  0.00     0.031 A 
BRANCH  52  66
ATOM     66  C   UNL     1      -1.097  11.541  -2.835  1.00  0.00    -0.014 A 
ATOM     67  C   UNL     1      -1.778  11.015  -3.946  1.00  0.00     0.009 A 
ATOM     68  C   UNL     1      -1.736  12.509  -2.045  1.00  0.00     0.009 A 
ATOM     69  C   UNL     1      -3.058  11.466  -4.273  1.00  0.00     0.001 A 
ATOM     70  C   UNL     1      -3.029  12.936  -2.358  1.00  0.00     0.001 A 
ATOM     71  C   UNL     1      -3.683  12.424  -3.478  1.00  0.00     0.000 A 
ENDBRANCH  52  66
BRANCH  53  72
ATOM     72  C   UNL     1       8.396   9.018  -1.091  1.00  0.00    -0.014 A 
ATOM     73  C   UNL     1       8.784   7.669  -1.023  1.00  0.00     0.009 A 
ATOM     74  C   UNL     1       9.351  10.010  -0.826  1.00  0.00     0.009 A 
ATOM     75  C   UNL     1      10.088   7.321  -0.664  1.00  0.00     0.001 A 
ATOM     76  C   UNL     1      10.664   9.660  -0.500  1.00  0.00     0.001 A 
ATOM     77  C   UNL     1      11.028   8.317  -0.406  1.00  0.00     0.000 A 
ENDBRANCH  53  72
BRANCH  65  78
ATOM     78  C   UNL     1       5.125  12.393  -6.296  1.00  0.00    -0.014 A 
ATOM     79  C   UNL     1       5.064  13.788  -6.458  1.00  0.00     0.009 A 
ATOM     80  C   UNL     1       5.456  11.596  -7.402  1.00  0.00     0.009 A 
ATOM     81  C   UNL     1       5.287  14.368  -7.708  1.00  0.00     0.001 A 
ATOM     82  C   UNL     1       5.709  12.182  -8.644  1.00  0.00     0.001 A 
ATOM     83  C   UNL     1       5.608  13.565  -8.800  1.00  0.00     0.000 A 
ENDBRANCH  65  78
ENDBRANCH  39  40
ENDBRANCH  32  34
ENDBRANCH  31  32
ENDBRANCH  30  31
ENDBRANCH  29  30
ENDBRANCH  28  29
ENDBRANCH  27  28
ENDBRANCH   1  27
TORSDOF 20
