REMARK SMILES CC(C)c1nc(N(C)C[C@@H]2CC[N@@H+](C)C2)sc1C(=O)OCCOCCOCCOC(=O)c1ccc(-c2c3nc(c(-c4ccccc4)c4ccc([nH]4)c(-c4ccccc4)c4nc(c(-c5ccccc5)c5ccc2[nH]5)C=C4)C=C3)cc1
REMARK SMILES IDX 24 1 23 2 22 3 21 4 20 5 18 6 19 7 17 8 4 9 5 10 6 11 16 12
REMARK SMILES IDX 2 13 1 14 3 15 7 16 8 17 9 18 10 19 11 20 15 21 12 22 13 23
REMARK SMILES IDX 14 24 25 26 26 27 27 28 28 29 29 30 30 31 31 32 32 33 33 34
REMARK SMILES IDX 79 35 34 36 78 37 35 38 36 39 37 40 72 41 38 42 77 43 71 44
REMARK SMILES IDX 73 45 39 46 76 47 70 48 69 49 40 51 62 52 47 53 61 54 48 55
REMARK SMILES IDX 51 56 60 57 74 58 49 59 50 60 59 62 75 63 52 64 41 65 42 66
REMARK SMILES IDX 46 67 43 68 45 69 44 70 63 71 64 72 68 73 65 74 67 75 66 76
REMARK SMILES IDX 53 77 54 78 58 79 55 80 57 81 56 82
REMARK H PARENT 13 25 73 50 51 61
REMARK Flexibility Score: inf
ROOT
ATOM      1  C   UNL     1      -1.567   5.356  -1.625  1.00  0.00     0.188 C 
ENDROOT
BRANCH   1   2
ATOM      2  O   UNL     1      -0.646   6.388  -1.347  1.00  0.00    -0.376 OA
BRANCH   2   3
ATOM      3  C   UNL     1      -0.064   6.519  -0.068  1.00  0.00     0.202 C 
BRANCH   3   4
ATOM      4  C   UNL     1       0.470   5.328   0.748  1.00  0.00     0.261 C 
BRANCH   4   5
ATOM      5  O   UNL     1      -0.082   4.040   0.473  1.00  0.00    -0.459 OA
BRANCH   5   6
ATOM      6  C   UNL     1      -1.094   3.607   1.276  1.00  0.00     0.350 C 
ATOM      7  O   UNL     1      -1.595   4.274   2.164  1.00  0.00    -0.245 OA
BRANCH   6   8
ATOM      8  C   UNL     1      -1.535   2.308   0.821  1.00  0.00     0.137 A 
ATOM      9  C   UNL     1      -0.849   1.209   0.329  1.00  0.00     0.071 A 
ATOM     10  N   UNL     1      -1.676   0.158  -0.053  1.00  0.00    -0.224 NA
ATOM     11  C   UNL     1      -2.951   0.432   0.110  1.00  0.00     0.186 A 
ATOM     12  S   UNL     1      -3.218   1.989   0.811  1.00  0.00    -0.089 S 
BRANCH   9  13
ATOM     13  C   UNL     1       0.646   1.003   0.198  1.00  0.00     0.034 C 
ATOM     14  C   UNL     1       1.036  -0.471   0.376  1.00  0.00     0.014 C 
ATOM     15  C   UNL     1       1.190   1.497  -1.143  1.00  0.00     0.014 C 
ENDBRANCH   9  13
BRANCH  11  16
ATOM     16  N   UNL     1      -3.955  -0.429  -0.230  1.00  0.00    -0.351 N 
ATOM     17  C   UNL     1      -5.358  -0.065  -0.122  1.00  0.00     0.146 C 
BRANCH  16  18
ATOM     18  C   UNL     1      -3.653  -1.857  -0.383  1.00  0.00     0.128 C 
BRANCH  18  19
ATOM     19  C   UNL     1      -2.881  -2.197  -1.666  1.00  0.00     0.069 C 
ATOM     20  C   UNL     1      -3.565  -1.691  -2.944  1.00  0.00     0.072 C 
ATOM     21  C   UNL     1      -2.790  -3.717  -1.858  1.00  0.00     0.267 C 
ATOM     22  C   UNL     1      -3.697  -2.918  -3.832  1.00  0.00     0.262 C 
ATOM     23  N   UNL     1      -3.830  -3.997  -2.852  1.00  0.00    -0.337 N 
ATOM     24  C   UNL     1      -3.688  -5.314  -3.454  1.00  0.00     0.332 C 
ATOM     25  H   UNL     1      -4.759  -4.020  -2.432  1.00  0.00     0.347 HD
ENDBRANCH  18  19
ENDBRANCH  16  18
ENDBRANCH  11  16
ENDBRANCH   6   8
ENDBRANCH   5   6
ENDBRANCH   4   5
ENDBRANCH   3   4
ENDBRANCH   2   3
ENDBRANCH   1   2
BRANCH   1  26
ATOM     26  C   UNL     1      -0.944   4.206  -2.437  1.00  0.00     0.188 C 
BRANCH  26  27
ATOM     27  O   UNL     1       0.385   4.351  -2.933  1.00  0.00    -0.376 OA
BRANCH  27  28
ATOM     28  C   UNL     1       0.740   5.527  -3.656  1.00  0.00     0.202 C 
BRANCH  28  29
ATOM     29  C   UNL     1       0.004   5.801  -4.967  1.00  0.00     0.261 C 
BRANCH  29  30
ATOM     30  O   UNL     1      -1.409   5.982  -4.783  1.00  0.00    -0.460 OA
BRANCH  30  31
ATOM     31  C   UNL     1      -2.188   5.083  -5.430  1.00  0.00     0.338 C 
ATOM     32  O   UNL     1      -1.834   4.186  -6.175  1.00  0.00    -0.246 OA
BRANCH  31  33
ATOM     33  C   UNL     1      -3.582   5.230  -4.975  1.00  0.00     0.060 A 
ATOM     34  C   UNL     1      -4.229   4.095  -4.469  1.00  0.00     0.016 A 
ATOM     35  C   UNL     1      -4.262   6.441  -5.110  1.00  0.00     0.016 A 
ATOM     36  C   UNL     1      -5.577   4.159  -4.130  1.00  0.00     0.010 A 
ATOM     37  C   UNL     1      -5.620   6.498  -4.788  1.00  0.00     0.010 A 
ATOM     38  C   UNL     1      -6.288   5.349  -4.329  1.00  0.00    -0.014 A 
BRANCH  38  39
ATOM     39  C   UNL     1      -7.764   5.345  -4.224  1.00  0.00     0.031 A 
ATOM     40  C   UNL     1      -8.572   5.094  -5.466  1.00  0.00     0.074 A 
ATOM     41  C   UNL     1      -8.373   5.551  -3.045  1.00  0.00     0.049 A 
ATOM     42  N   UNL     1      -9.871   5.074  -5.618  1.00  0.00    -0.248 NA
ATOM     43  C   UNL     1      -7.814   4.827  -6.700  1.00  0.00     0.031 C 
ATOM     44  C   UNL     1      -7.697   5.761  -1.766  1.00  0.00     0.029 A 
ATOM     45  N   UNL     1      -9.708   5.623  -2.740  1.00  0.00    -0.354 N 
ATOM     46  C   UNL     1     -10.086   4.795  -6.962  1.00  0.00     0.074 A 
ATOM     47  C   UNL     1      -8.787   4.674  -7.586  1.00  0.00     0.031 C 
ATOM     48  C   UNL     1      -8.625   5.952  -0.811  1.00  0.00     0.029 A 
ATOM     49  C   UNL     1      -9.954   5.904  -1.419  1.00  0.00     0.049 A 
ATOM     50  H   UNL     1     -10.421   5.487  -3.404  1.00  0.00     0.167 HD
ATOM     51  C   UNL     1     -11.261   4.651  -7.618  1.00  0.00     0.031 A 
ATOM     52  C   UNL     1     -11.120   6.117  -0.781  1.00  0.00     0.031 A 
ATOM     53  C   UNL     1     -12.553   4.796  -7.007  1.00  0.00     0.049 A 
ATOM     54  C   UNL     1     -12.410   6.038  -1.553  1.00  0.00     0.074 A 
ATOM     55  C   UNL     1     -13.802   4.662  -7.586  1.00  0.00     0.029 A 
ATOM     56  N   UNL     1     -12.759   5.122  -5.676  1.00  0.00    -0.354 N 
ATOM     57  N   UNL     1     -12.602   5.745  -2.816  1.00  0.00    -0.248 NA
ATOM     58  C   UNL     1     -13.646   6.318  -0.806  1.00  0.00     0.031 C 
ATOM     59  C   UNL     1     -14.766   4.953  -6.614  1.00  0.00     0.029 A 
ATOM     60  C   UNL     1     -14.115   5.220  -5.420  1.00  0.00     0.049 A 
ATOM     61  H   UNL     1     -12.046   5.262  -5.011  1.00  0.00     0.167 HD
ATOM     62  C   UNL     1     -13.978   5.778  -3.009  1.00  0.00     0.074 A 
ATOM     63  C   UNL     1     -14.573   6.111  -1.731  1.00  0.00     0.031 C 
ATOM     64  C   UNL     1     -14.687   5.550  -4.141  1.00  0.00     0.031 A 
BRANCH  51  65
ATOM     65  C   UNL     1     -11.193   4.355  -9.088  1.00  0.00    -0.014 A 
ATOM     66  C   UNL     1     -10.825   3.084  -9.556  1.00  0.00     0.009 A 
ATOM     67  C   UNL     1     -11.518   5.357 -10.015  1.00  0.00     0.009 A 
ATOM     68  C   UNL     1     -10.757   2.831 -10.928  1.00  0.00     0.001 A 
ATOM     69  C   UNL     1     -11.470   5.094 -11.385  1.00  0.00     0.001 A 
ATOM     70  C   UNL     1     -11.083   3.834 -11.840  1.00  0.00     0.000 A 
ENDBRANCH  51  65
BRANCH  52  71
ATOM     71  C   UNL     1     -11.130   6.449   0.666  1.00  0.00    -0.014 A 
ATOM     72  C   UNL     1     -11.608   5.526   1.608  1.00  0.00     0.009 A 
ATOM     73  C   UNL     1     -10.685   7.705   1.109  1.00  0.00     0.009 A 
ATOM     74  C   UNL     1     -11.663   5.863   2.962  1.00  0.00     0.001 A 
ATOM     75  C   UNL     1     -10.719   8.030   2.467  1.00  0.00     0.001 A 
ATOM     76  C   UNL     1     -11.216   7.112   3.391  1.00  0.00     0.000 A 
ENDBRANCH  52  71
BRANCH  64  77
ATOM     77  C   UNL     1     -16.183   5.617  -4.041  1.00  0.00    -0.014 A 
ATOM     78  C   UNL     1     -16.852   6.846  -3.941  1.00  0.00     0.009 A 
ATOM     79  C   UNL     1     -16.936   4.433  -4.095  1.00  0.00     0.009 A 
ATOM     80  C   UNL     1     -18.246   6.886  -3.870  1.00  0.00     0.001 A 
ATOM     81  C   UNL     1     -18.329   4.477  -4.049  1.00  0.00     0.001 A 
ATOM     82  C   UNL     1     -18.983   5.703  -3.928  1.00  0.00     0.000 A 
ENDBRANCH  64  77
ENDBRANCH  38  39
ENDBRANCH  31  33
ENDBRANCH  30  31
ENDBRANCH  29  30
ENDBRANCH  28  29
ENDBRANCH  27  28
ENDBRANCH  26  27
ENDBRANCH   1  26
TORSDOF 21
