REMARK SMILES Cc1ncccc1NC(=O)Nc1ccc(C(=O)OCCOCCOCCOC(=O)c2ccc(-c3c4nc(c(-c5ccccc5)c5ccc([nH]5)c(-c5ccccc5)c5nc(c(-c6ccccc6)c6ccc3[nH]6)C=C5)C=C4)cc2)c(O)c1
REMARK SMILES IDX 22 1 21 2 20 3 19 4 18 5 16 6 17 7 15 8 12 9 13 10 80 11
REMARK SMILES IDX 14 12 78 13 11 14 8 15 9 16 10 18 7 20 1 21 2 22 3 23 4 24
REMARK SMILES IDX 6 25 5 26 79 27 23 29 24 30 25 31 26 32 27 33 28 34 29 35
REMARK SMILES IDX 30 36 31 37 77 38 32 39 76 40 33 41 34 42 35 43 70 44 36 45
REMARK SMILES IDX 75 46 69 47 71 48 37 49 74 50 68 51 67 52 38 54 60 55 45 56
REMARK SMILES IDX 59 57 46 58 49 59 58 60 72 61 47 62 48 63 57 65 73 66 50 67
REMARK SMILES IDX 39 68 40 69 44 70 41 71 43 72 42 73 61 74 62 75 66 76 63 77
REMARK SMILES IDX 65 78 64 79 51 80 52 81 56 82 53 83 55 84 54 85
REMARK H PARENT 8 17 11 19 79 28 71 53 49 64
REMARK Flexibility Score: inf
ROOT
ATOM      1  C   UNL     1      -3.367   3.268   0.352  1.00  0.00     0.188 C 
ENDROOT
BRANCH   1   2
ATOM      2  O   UNL     1      -4.480   4.058  -0.016  1.00  0.00    -0.376 OA
BRANCH   2   3
ATOM      3  C   UNL     1      -5.774   3.670   0.395  1.00  0.00     0.202 C 
BRANCH   3   4
ATOM      4  C   UNL     1      -6.341   2.345  -0.121  1.00  0.00     0.261 C 
BRANCH   4   5
ATOM      5  O   UNL     1      -5.495   1.193   0.077  1.00  0.00    -0.460 OA
BRANCH   5   6
ATOM      6  C   UNL     1      -4.947   0.672  -1.055  1.00  0.00     0.341 C 
ATOM      7  O   UNL     1      -5.064   1.126  -2.186  1.00  0.00    -0.246 OA
BRANCH   6   8
ATOM      8  C   UNL     1      -4.090  -0.505  -0.752  1.00  0.00     0.101 A 
ATOM      9  C   UNL     1      -2.427  -2.769  -0.373  1.00  0.00     0.046 A 
ATOM     10  C   UNL     1      -2.126  -1.833  -1.364  1.00  0.00     0.027 A 
ATOM     11  C   UNL     1      -3.576  -2.575   0.411  1.00  0.00     0.073 A 
ATOM     12  C   UNL     1      -2.971  -0.727  -1.573  1.00  0.00     0.022 A 
ATOM     13  C   UNL     1      -4.363  -1.423   0.264  1.00  0.00     0.132 A 
BRANCH   9  14
ATOM     14  N   UNL     1      -1.629  -3.909  -0.106  1.00  0.00    -0.308 N 
ATOM     15  N   UNL     1       0.646  -3.179  -0.076  1.00  0.00    -0.306 N 
ATOM     16  C   UNL     1      -0.294  -4.150  -0.281  1.00  0.00     0.323 C 
ATOM     17  H   UNL     1       1.528  -3.340  -0.484  1.00  0.00     0.171 HD
ATOM     18  O   UNL     1       0.082  -5.287  -0.572  1.00  0.00    -0.248 OA
ATOM     19  H   UNL     1      -2.127  -4.667   0.276  1.00  0.00     0.171 HD
BRANCH  15  20
ATOM     20  C   UNL     1       0.509  -1.981   0.643  1.00  0.00     0.064 A 
ATOM     21  C   UNL     1       2.551  -0.801  -0.349  1.00  0.00     0.069 C 
ATOM     22  C   UNL     1       1.180  -0.826   0.250  1.00  0.00     0.061 A 
ATOM     23  N   UNL     1       0.607   0.380   0.432  1.00  0.00    -0.259 NA
ATOM     24  C   UNL     1      -0.531   0.403   1.152  1.00  0.00     0.111 A 
ATOM     25  C   UNL     1      -0.464  -1.869   1.638  1.00  0.00     0.030 A 
ATOM     26  C   UNL     1      -1.032  -0.641   1.881  1.00  0.00     0.022 A 
ENDBRANCH  15  20
ENDBRANCH   9  14
BRANCH  13  27
ATOM     27  O   UNL     1      -5.370  -1.265   1.178  1.00  0.00    -0.507 OA
ATOM     28  H   UNL     1      -5.930  -0.516   1.133  1.00  0.00     0.293 HD
ENDBRANCH  13  27
ENDBRANCH   6   8
ENDBRANCH   5   6
ENDBRANCH   4   5
ENDBRANCH   3   4
ENDBRANCH   2   3
ENDBRANCH   1   2
BRANCH   1  29
ATOM     29  C   UNL     1      -3.266   2.597   1.739  1.00  0.00     0.188 C 
BRANCH  29  30
ATOM     30  O   UNL     1      -4.077   3.000   2.817  1.00  0.00    -0.376 OA
BRANCH  30  31
ATOM     31  C   UNL     1      -3.934   4.308   3.349  1.00  0.00     0.202 C 
BRANCH  31  32
ATOM     32  C   UNL     1      -2.564   5.000   3.445  1.00  0.00     0.261 C 
BRANCH  32  33
ATOM     33  O   UNL     1      -1.762   4.965   2.252  1.00  0.00    -0.460 OA
BRANCH  33  34
ATOM     34  C   UNL     1      -0.424   4.890   2.484  1.00  0.00     0.338 C 
ATOM     35  O   UNL     1       0.125   4.827   3.572  1.00  0.00    -0.246 OA
BRANCH  34  36
ATOM     36  C   UNL     1       0.354   4.850   1.229  1.00  0.00     0.060 A 
ATOM     37  C   UNL     1       0.257   3.737   0.406  1.00  0.00     0.016 A 
ATOM     38  C   UNL     1       1.342   5.795   0.974  1.00  0.00     0.016 A 
ATOM     39  C   UNL     1       1.181   3.496  -0.606  1.00  0.00     0.010 A 
ATOM     40  C   UNL     1       2.226   5.603  -0.101  1.00  0.00     0.010 A 
ATOM     41  C   UNL     1       2.182   4.427  -0.877  1.00  0.00    -0.014 A 
BRANCH  41  42
ATOM     42  C   UNL     1       3.237   4.104  -1.876  1.00  0.00     0.031 A 
ATOM     43  C   UNL     1       4.671   4.005  -1.427  1.00  0.00     0.074 A 
ATOM     44  C   UNL     1       2.930   3.819  -3.158  1.00  0.00     0.049 A 
ATOM     45  N   UNL     1       5.764   3.946  -2.143  1.00  0.00    -0.248 NA
ATOM     46  C   UNL     1       4.901   3.968   0.026  1.00  0.00     0.031 C 
ATOM     47  C   UNL     1       1.578   3.727  -3.712  1.00  0.00     0.029 A 
ATOM     48  N   UNL     1       3.744   3.537  -4.230  1.00  0.00    -0.354 N 
ATOM     49  C   UNL     1       6.812   3.938  -1.230  1.00  0.00     0.074 A 
ATOM     50  C   UNL     1       6.224   3.987   0.091  1.00  0.00     0.031 C 
ATOM     51  C   UNL     1       1.654   3.383  -5.007  1.00  0.00     0.029 A 
ATOM     52  C   UNL     1       3.057   3.339  -5.404  1.00  0.00     0.049 A 
ATOM     53  H   UNL     1       4.725   3.481  -4.163  1.00  0.00     0.167 HD
ATOM     54  C   UNL     1       8.145   3.908  -1.475  1.00  0.00     0.031 A 
ATOM     55  C   UNL     1       3.500   3.203  -6.669  1.00  0.00     0.031 A 
ATOM     56  C   UNL     1       8.717   3.823  -2.793  1.00  0.00     0.049 A 
ATOM     57  C   UNL     1       4.979   3.280  -6.931  1.00  0.00     0.074 A 
ATOM     58  C   UNL     1      10.053   3.818  -3.157  1.00  0.00     0.029 A 
ATOM     59  N   UNL     1       7.983   3.712  -3.964  1.00  0.00    -0.354 N 
ATOM     60  N   UNL     1       5.967   3.386  -6.075  1.00  0.00    -0.248 NA
ATOM     61  C   UNL     1       5.404   3.244  -8.338  1.00  0.00     0.031 C 
ATOM     62  C   UNL     1      10.124   3.761  -4.553  1.00  0.00     0.029 A 
ATOM     63  C   UNL     1       8.836   3.660  -5.054  1.00  0.00     0.049 A 
ATOM     64  H   UNL     1       7.000   3.675  -4.013  1.00  0.00     0.167 HD
ATOM     65  C   UNL     1       7.128   3.410  -6.836  1.00  0.00     0.074 A 
ATOM     66  C   UNL     1       6.724   3.285  -8.221  1.00  0.00     0.031 C 
ATOM     67  C   UNL     1       8.415   3.531  -6.425  1.00  0.00     0.031 A 
BRANCH  54  68
ATOM     68  C   UNL     1       9.069   4.054  -0.297  1.00  0.00    -0.014 A 
ATOM     69  C   UNL     1       9.233   3.037   0.656  1.00  0.00     0.009 A 
ATOM     70  C   UNL     1       9.798   5.245  -0.147  1.00  0.00     0.009 A 
ATOM     71  C   UNL     1      10.075   3.228   1.755  1.00  0.00     0.001 A 
ATOM     72  C   UNL     1      10.663   5.421   0.934  1.00  0.00     0.001 A 
ATOM     73  C   UNL     1      10.792   4.417   1.891  1.00  0.00     0.000 A 
ENDBRANCH  54  68
BRANCH  55  74
ATOM     74  C   UNL     1       2.534   3.075  -7.796  1.00  0.00    -0.014 A 
ATOM     75  C   UNL     1       2.483   1.911  -8.577  1.00  0.00     0.009 A 
ATOM     76  C   UNL     1       1.665   4.135  -8.111  1.00  0.00     0.009 A 
ATOM     77  C   UNL     1       1.600   1.819  -9.657  1.00  0.00     0.001 A 
ATOM     78  C   UNL     1       0.758   4.026  -9.166  1.00  0.00     0.001 A 
ATOM     79  C   UNL     1       0.734   2.872  -9.945  1.00  0.00     0.000 A 
ENDBRANCH  55  74
BRANCH  67  80
ATOM     80  C   UNL     1       9.480   3.483  -7.485  1.00  0.00    -0.014 A 
ATOM     81  C   UNL     1       9.674   4.546  -8.379  1.00  0.00     0.009 A 
ATOM     82  C   UNL     1      10.327   2.366  -7.561  1.00  0.00     0.009 A 
ATOM     83  C   UNL     1      10.673   4.476  -9.352  1.00  0.00     0.001 A 
ATOM     84  C   UNL     1      11.346   2.313  -8.513  1.00  0.00     0.001 A 
ATOM     85  C   UNL     1      11.511   3.363  -9.414  1.00  0.00     0.000 A 
ENDBRANCH  67  80
ENDBRANCH  41  42
ENDBRANCH  34  36
ENDBRANCH  33  34
ENDBRANCH  32  33
ENDBRANCH  31  32
ENDBRANCH  30  31
ENDBRANCH  29  30
ENDBRANCH   1  29
TORSDOF 20
