REMARK SMILES C#CCN(CC(=O)OCCOCCOCCOC(=O)c1ccc(-c2c3nc(c(-c4ccccc4)c4ccc([nH]4)c(-c4ccccc4)c4nc(c(-c5ccccc5)c5ccc2[nH]5)C=C4)C=C3)cc1)C(=O)Nc1cc(Br)ccc1C
REMARK SMILES IDX 12 1 11 2 10 3 9 4 8 5 6 6 7 7 5 8 4 9 3 10 2 11 1 12 68 13
REMARK SMILES IDX 69 14 70 15 71 17 72 18 77 19 73 20 76 21 78 22 74 23 75 24
REMARK SMILES IDX 13 25 14 26 15 27 16 28 17 29 18 30 19 31 20 32 21 33 67 34
REMARK SMILES IDX 22 35 66 36 23 37 24 38 25 39 60 40 26 41 65 42 59 43 61 44
REMARK SMILES IDX 27 45 64 46 58 47 57 48 28 50 50 51 35 52 49 53 36 54 39 55
REMARK SMILES IDX 48 56 62 57 37 58 38 59 47 61 63 62 40 63 29 64 30 65 34 66
REMARK SMILES IDX 31 67 33 68 32 69 51 70 52 71 56 72 53 73 55 74 54 75 41 76
REMARK SMILES IDX 42 77 46 78 43 79 45 80 44 81
REMARK H PARENT 70 16 61 49 39 60
REMARK Flexibility Score: inf
ROOT
ATOM      1  C   UNL     1      -7.008   3.287  -3.158  1.00  0.00     0.188 C 
ENDROOT
BRANCH   1   2
ATOM      2  O   UNL     1      -7.626   2.388  -2.229  1.00  0.00    -0.376 OA
BRANCH   2   3
ATOM      3  C   UNL     1      -7.081   1.917  -0.989  1.00  0.00     0.202 C 
BRANCH   3   4
ATOM      4  C   UNL     1      -6.804   0.368  -0.918  1.00  0.00     0.261 C 
BRANCH   4   5
ATOM      5  O   UNL     1      -5.370   0.043  -0.858  1.00  0.00    -0.462 OA
BRANCH   5   6
ATOM      6  C   UNL     1      -4.958  -1.163  -1.358  1.00  0.00     0.325 C 
ATOM      7  O   UNL     1      -5.747  -2.075  -1.601  1.00  0.00    -0.250 OA
BRANCH   6   8
ATOM      8  C   UNL     1      -3.405  -1.331  -1.636  1.00  0.00     0.245 C 
BRANCH   8   9
ATOM      9  N   UNL     1      -2.325  -0.308  -1.467  1.00  0.00    -0.302 N 
BRANCH   9  10
ATOM     10  C   UNL     1      -1.879  -0.052  -0.065  1.00  0.00     0.211 C 
BRANCH  10  11
ATOM     11  C   UNL     1      -0.359  -0.052  -0.065  1.00  0.00    -0.085 C 
ATOM     12  C   UNL     1       0.945  -0.052  -0.065  1.00  0.00     0.006 C 
ENDBRANCH  10  11
ENDBRANCH   9  10
BRANCH   9  13
ATOM     13  C   UNL     1      -1.670   0.424  -2.480  1.00  0.00     0.323 C 
ATOM     14  O   UNL     1      -0.759   1.232  -2.271  1.00  0.00    -0.248 OA
ATOM     15  N   UNL     1      -1.985   0.298  -3.804  1.00  0.00    -0.307 N 
ATOM     16  H   UNL     1      -1.227   0.113  -4.405  1.00  0.00     0.171 HD
BRANCH  15  17
ATOM     17  C   UNL     1      -3.236   0.397  -4.424  1.00  0.00     0.046 A 
ATOM     18  C   UNL     1      -3.385   0.251  -5.806  1.00  0.00     0.042 A 
ATOM     19  C   UNL     1      -4.343   0.771  -3.691  1.00  0.00    -0.027 A 
ATOM     20  C   UNL     1      -4.672   0.190  -6.352  1.00  0.00     0.020 A 
ATOM     21  C   UNL     1      -5.610   0.461  -4.187  1.00  0.00     0.007 A 
ATOM     22  C   UNL     1      -4.154   1.724  -2.547  1.00  0.00     0.046 C 
ATOM     23  Br  UNL     1      -5.001   0.169  -8.207  1.00  0.00    -0.051 Br
ATOM     24  C   UNL     1      -5.781   0.170  -5.526  1.00  0.00     0.016 A 
ENDBRANCH  15  17
ENDBRANCH   9  13
ENDBRANCH   8   9
ENDBRANCH   6   8
ENDBRANCH   5   6
ENDBRANCH   4   5
ENDBRANCH   3   4
ENDBRANCH   2   3
ENDBRANCH   1   2
BRANCH   1  25
ATOM     25  C   UNL     1      -5.833   4.268  -2.927  1.00  0.00     0.188 C 
BRANCH  25  26
ATOM     26  O   UNL     1      -5.307   4.350  -1.612  1.00  0.00    -0.376 OA
BRANCH  26  27
ATOM     27  C   UNL     1      -5.534   5.607  -0.994  1.00  0.00     0.202 C 
BRANCH  27  28
ATOM     28  C   UNL     1      -4.625   6.755  -1.473  1.00  0.00     0.261 C 
BRANCH  28  29
ATOM     29  O   UNL     1      -4.039   6.526  -2.767  1.00  0.00    -0.460 OA
BRANCH  29  30
ATOM     30  C   UNL     1      -2.768   6.042  -2.743  1.00  0.00     0.338 C 
ATOM     31  O   UNL     1      -2.065   5.917  -1.757  1.00  0.00    -0.246 OA
BRANCH  30  32
ATOM     32  C   UNL     1      -2.338   5.617  -4.105  1.00  0.00     0.060 A 
ATOM     33  C   UNL     1      -1.324   4.654  -4.203  1.00  0.00     0.016 A 
ATOM     34  C   UNL     1      -2.876   6.168  -5.275  1.00  0.00     0.016 A 
ATOM     35  C   UNL     1      -0.826   4.269  -5.454  1.00  0.00     0.010 A 
ATOM     36  C   UNL     1      -2.374   5.785  -6.528  1.00  0.00     0.010 A 
ATOM     37  C   UNL     1      -1.326   4.855  -6.625  1.00  0.00    -0.014 A 
BRANCH  37  38
ATOM     38  C   UNL     1      -0.645   4.628  -7.927  1.00  0.00     0.031 A 
ATOM     39  C   UNL     1       0.488   5.528  -8.322  1.00  0.00     0.074 A 
ATOM     40  C   UNL     1      -1.000   3.634  -8.760  1.00  0.00     0.049 A 
ATOM     41  N   UNL     1       1.202   5.522  -9.419  1.00  0.00    -0.248 NA
ATOM     42  C   UNL     1       0.869   6.565  -7.353  1.00  0.00     0.031 C 
ATOM     43  C   UNL     1      -2.034   2.645  -8.488  1.00  0.00     0.029 A 
ATOM     44  N   UNL     1      -0.524   3.292 -10.006  1.00  0.00    -0.354 N 
ATOM     45  C   UNL     1       2.129   6.541  -9.266  1.00  0.00     0.074 A 
ATOM     46  C   UNL     1       1.867   7.164  -7.985  1.00  0.00     0.031 C 
ATOM     47  C   UNL     1      -2.109   1.807  -9.535  1.00  0.00     0.029 A 
ATOM     48  C   UNL     1      -1.187   2.234 -10.576  1.00  0.00     0.049 A 
ATOM     49  H   UNL     1       0.221   3.762 -10.447  1.00  0.00     0.167 HD
ATOM     50  C   UNL     1       3.111   6.928 -10.114  1.00  0.00     0.031 A 
ATOM     51  C   UNL     1      -1.106   1.680 -11.803  1.00  0.00     0.031 A 
ATOM     52  C   UNL     1       3.345   6.362 -11.414  1.00  0.00     0.049 A 
ATOM     53  C   UNL     1      -0.112   2.223 -12.788  1.00  0.00     0.074 A 
ATOM     54  C   UNL     1       4.309   6.711 -12.344  1.00  0.00     0.029 A 
ATOM     55  N   UNL     1       2.593   5.345 -11.981  1.00  0.00    -0.354 N 
ATOM     56  N   UNL     1       0.774   3.173 -12.619  1.00  0.00    -0.248 NA
ATOM     57  C   UNL     1      -0.102   1.619 -14.128  1.00  0.00     0.031 C 
ATOM     58  C   UNL     1       4.103   5.946 -13.497  1.00  0.00     0.029 A 
ATOM     59  C   UNL     1       3.048   5.079 -13.263  1.00  0.00     0.049 A 
ATOM     60  H   UNL     1       1.847   4.880 -11.539  1.00  0.00     0.167 HD
ATOM     61  C   UNL     1       1.468   3.259 -13.818  1.00  0.00     0.074 A 
ATOM     62  C   UNL     1       0.906   2.261 -14.704  1.00  0.00     0.031 C 
ATOM     63  C   UNL     1       2.486   4.089 -14.145  1.00  0.00     0.031 A 
BRANCH  50  64
ATOM     64  C   UNL     1       3.969   8.071  -9.660  1.00  0.00    -0.014 A 
ATOM     65  C   UNL     1       4.928   7.901  -8.649  1.00  0.00     0.009 A 
ATOM     66  C   UNL     1       3.799   9.338 -10.236  1.00  0.00     0.009 A 
ATOM     67  C   UNL     1       5.673   8.990  -8.196  1.00  0.00     0.001 A 
ATOM     68  C   UNL     1       4.563  10.420  -9.798  1.00  0.00     0.001 A 
ATOM     69  C   UNL     1       5.491  10.248  -8.771  1.00  0.00     0.000 A 
ENDBRANCH  50  64
BRANCH  51  70
ATOM     70  C   UNL     1      -2.033   0.583 -12.201  1.00  0.00    -0.014 A 
ATOM     71  C   UNL     1      -1.560  -0.718 -12.432  1.00  0.00     0.009 A 
ATOM     72  C   UNL     1      -3.401   0.845 -12.386  1.00  0.00     0.009 A 
ATOM     73  C   UNL     1      -2.430  -1.723 -12.865  1.00  0.00     0.001 A 
ATOM     74  C   UNL     1      -4.273  -0.168 -12.791  1.00  0.00     0.001 A 
ATOM     75  C   UNL     1      -3.786  -1.448 -13.041  1.00  0.00     0.000 A 
ENDBRANCH  51  70
BRANCH  63  76
ATOM     76  C   UNL     1       3.094   3.926 -15.508  1.00  0.00    -0.014 A 
ATOM     77  C   UNL     1       2.422   4.350 -16.665  1.00  0.00     0.009 A 
ATOM     78  C   UNL     1       4.376   3.369 -15.631  1.00  0.00     0.009 A 
ATOM     79  C   UNL     1       3.013   4.193 -17.921  1.00  0.00     0.001 A 
ATOM     80  C   UNL     1       4.976   3.239 -16.884  1.00  0.00     0.001 A 
ATOM     81  C   UNL     1       4.291   3.643 -18.028  1.00  0.00     0.000 A 
ENDBRANCH  63  76
ENDBRANCH  37  38
ENDBRANCH  30  32
ENDBRANCH  29  30
ENDBRANCH  28  29
ENDBRANCH  27  28
ENDBRANCH  26  27
ENDBRANCH  25  26
ENDBRANCH   1  25
TORSDOF 22
