REMARK SMILES O=C(OCCOCCOCCOC(=O)[C@@]1([NH2+]C2CC2)CC[C@H](SC2CCCC2)C1)c1ccc(-c2c3nc(c(-c4ccccc4)c4ccc([nH]4)c(-c4ccccc4)c4nc(c(-c5ccccc5)c5ccc2[nH]5)C=C4)C=C3)cc1
REMARK SMILES IDX 7 1 6 2 5 3 4 4 3 5 2 6 1 7 30 8 31 9 77 10 32 11 76 12
REMARK SMILES IDX 33 13 34 14 35 15 70 16 36 17 75 18 69 19 71 20 37 21 74 22
REMARK SMILES IDX 68 23 67 24 38 26 60 27 45 28 59 29 46 30 49 31 58 32 72 33
REMARK SMILES IDX 47 34 48 35 57 37 73 38 50 39 39 40 40 41 44 42 41 43 43 44
REMARK SMILES IDX 42 45 61 46 62 47 66 48 63 49 65 50 64 51 51 52 52 53 56 54
REMARK SMILES IDX 53 55 55 56 54 57 8 58 9 59 10 60 11 61 12 62 13 63 14 64
REMARK SMILES IDX 15 65 20 66 29 67 21 68 22 69 16 70 17 73 18 74 19 75 23 76
REMARK SMILES IDX 24 77 25 78 28 79 26 80 27 81
REMARK H PARENT 71 25 49 36 16 71 16 72
REMARK Flexibility Score: inf
ROOT
ATOM      1  C   UNL     1       2.373   0.011  -1.514  1.00  0.00     0.188 C 
ENDROOT
BRANCH   1   2
ATOM      2  O   UNL     1       3.702   0.469  -1.300  1.00  0.00    -0.376 OA
BRANCH   2   3
ATOM      3  C   UNL     1       4.699  -0.494  -0.995  1.00  0.00     0.202 C 
BRANCH   3   4
ATOM      4  C   UNL     1       4.432  -1.593   0.041  1.00  0.00     0.261 C 
BRANCH   4   5
ATOM      5  O   UNL     1       3.210  -1.579   0.801  1.00  0.00    -0.460 OA
BRANCH   5   6
ATOM      6  C   UNL     1       2.639  -0.681   1.625  1.00  0.00     0.338 C 
ATOM      7  O   UNL     1       1.543  -0.947   2.116  1.00  0.00    -0.246 OA
BRANCH   6   8
ATOM      8  C   UNL     1       3.247   0.636   1.948  1.00  0.00     0.060 A 
ATOM      9  C   UNL     1       4.609   0.907   1.869  1.00  0.00     0.016 A 
ATOM     10  C   UNL     1       2.386   1.633   2.454  1.00  0.00     0.016 A 
ATOM     11  C   UNL     1       5.101   2.153   2.238  1.00  0.00     0.010 A 
ATOM     12  C   UNL     1       2.881   2.865   2.891  1.00  0.00     0.010 A 
ATOM     13  C   UNL     1       4.250   3.115   2.800  1.00  0.00    -0.014 A 
BRANCH  13  14
ATOM     14  C   UNL     1       4.912   4.210   3.537  1.00  0.00     0.031 A 
ATOM     15  C   UNL     1       5.566   3.834   4.832  1.00  0.00     0.074 A 
ATOM     16  C   UNL     1       5.084   5.421   2.986  1.00  0.00     0.049 A 
ATOM     17  N   UNL     1       6.483   4.463   5.513  1.00  0.00    -0.248 NA
ATOM     18  C   UNL     1       5.143   2.549   5.418  1.00  0.00     0.031 C 
ATOM     19  C   UNL     1       4.483   5.864   1.735  1.00  0.00     0.029 A 
ATOM     20  N   UNL     1       5.890   6.465   3.362  1.00  0.00    -0.354 N 
ATOM     21  C   UNL     1       6.741   3.654   6.611  1.00  0.00     0.074 A 
ATOM     22  C   UNL     1       5.911   2.478   6.492  1.00  0.00     0.031 C 
ATOM     23  C   UNL     1       5.037   7.035   1.375  1.00  0.00     0.029 A 
ATOM     24  C   UNL     1       5.996   7.442   2.397  1.00  0.00     0.049 A 
ATOM     25  H   UNL     1       6.346   6.511   4.233  1.00  0.00     0.167 HD
ATOM     26  C   UNL     1       7.567   3.898   7.653  1.00  0.00     0.031 A 
ATOM     27  C   UNL     1       6.805   8.518   2.346  1.00  0.00     0.031 A 
ATOM     28  C   UNL     1       8.300   5.122   7.803  1.00  0.00     0.049 A 
ATOM     29  C   UNL     1       7.705   8.776   3.528  1.00  0.00     0.074 A 
ATOM     30  C   UNL     1       9.079   5.543   8.863  1.00  0.00     0.029 A 
ATOM     31  N   UNL     1       8.314   6.141   6.859  1.00  0.00    -0.354 N 
ATOM     32  N   UNL     1       7.943   8.015   4.571  1.00  0.00    -0.248 NA
ATOM     33  C   UNL     1       8.423  10.058   3.542  1.00  0.00     0.031 C 
ATOM     34  C   UNL     1       9.514   6.844   8.587  1.00  0.00     0.029 A 
ATOM     35  C   UNL     1       9.070   7.201   7.321  1.00  0.00     0.049 A 
ATOM     36  H   UNL     1       7.853   6.112   5.989  1.00  0.00     0.167 HD
ATOM     37  C   UNL     1       8.826   8.729   5.370  1.00  0.00     0.074 A 
ATOM     38  C   UNL     1       9.123   9.960   4.663  1.00  0.00     0.031 C 
ATOM     39  C   UNL     1       9.331   8.414   6.589  1.00  0.00     0.031 A 
BRANCH  26  40
ATOM     40  C   UNL     1       7.575   2.876   8.752  1.00  0.00    -0.014 A 
ATOM     41  C   UNL     1       8.166   1.613   8.585  1.00  0.00     0.009 A 
ATOM     42  C   UNL     1       6.900   3.158   9.949  1.00  0.00     0.009 A 
ATOM     43  C   UNL     1       8.040   0.639   9.579  1.00  0.00     0.001 A 
ATOM     44  C   UNL     1       6.800   2.193  10.951  1.00  0.00     0.001 A 
ATOM     45  C   UNL     1       7.358   0.930  10.760  1.00  0.00     0.000 A 
ENDBRANCH  26  40
BRANCH  27  46
ATOM     46  C   UNL     1       6.806   9.436   1.169  1.00  0.00    -0.014 A 
ATOM     47  C   UNL     1       7.976   9.643   0.418  1.00  0.00     0.009 A 
ATOM     48  C   UNL     1       5.651  10.149   0.809  1.00  0.00     0.009 A 
ATOM     49  C   UNL     1       7.997  10.560  -0.638  1.00  0.00     0.001 A 
ATOM     50  C   UNL     1       5.662  11.035  -0.272  1.00  0.00     0.001 A 
ATOM     51  C   UNL     1       6.838  11.251  -0.986  1.00  0.00     0.000 A 
ENDBRANCH  27  46
BRANCH  39  52
ATOM     52  C   UNL     1      10.261   9.411   7.220  1.00  0.00    -0.014 A 
ATOM     53  C   UNL     1       9.791  10.638   7.713  1.00  0.00     0.009 A 
ATOM     54  C   UNL     1      11.619   9.090   7.368  1.00  0.00     0.009 A 
ATOM     55  C   UNL     1      10.674  11.542   8.308  1.00  0.00     0.001 A 
ATOM     56  C   UNL     1      12.492   9.981   7.992  1.00  0.00     0.001 A 
ATOM     57  C   UNL     1      12.021  11.210   8.451  1.00  0.00     0.000 A 
ENDBRANCH  39  52
ENDBRANCH  13  14
ENDBRANCH   6   8
ENDBRANCH   5   6
ENDBRANCH   4   5
ENDBRANCH   3   4
ENDBRANCH   2   3
ENDBRANCH   1   2
BRANCH   1  58
ATOM     58  C   UNL     1       1.746   0.404  -2.856  1.00  0.00     0.188 C 
BRANCH  58  59
ATOM     59  O   UNL     1       2.262  -0.228  -4.027  1.00  0.00    -0.376 OA
BRANCH  59  60
ATOM     60  C   UNL     1       3.629  -0.009  -4.352  1.00  0.00     0.202 C 
BRANCH  60  61
ATOM     61  C   UNL     1       4.064   1.419  -4.681  1.00  0.00     0.261 C 
BRANCH  61  62
ATOM     62  O   UNL     1       3.755   2.347  -3.636  1.00  0.00    -0.459 OA
BRANCH  62  63
ATOM     63  C   UNL     1       2.979   3.409  -3.965  1.00  0.00     0.368 C 
ATOM     64  O   UNL     1       2.526   3.596  -5.096  1.00  0.00    -0.245 OA
BRANCH  63  65
ATOM     65  C   UNL     1       2.717   4.392  -2.807  1.00  0.00     0.195 C 
ATOM     66  C   UNL     1       3.128   5.803  -3.244  1.00  0.00     0.082 C 
ATOM     67  C   UNL     1       1.183   4.584  -2.628  1.00  0.00     0.095 C 
ATOM     68  C   UNL     1       2.331   6.727  -2.343  1.00  0.00     0.022 C 
ATOM     69  C   UNL     1       0.974   6.045  -2.162  1.00  0.00     0.054 C 
BRANCH  65  70
ATOM     70  N   UNL     1       3.215   3.994  -1.479  1.00  0.00    -0.330 N 
ATOM     71  H   UNL     1       2.672   3.170  -1.221  1.00  0.00     0.347 HD
ATOM     72  H   UNL     1       3.124   4.876  -0.976  1.00  0.00     0.347 HD
BRANCH  70  73
ATOM     73  C   UNL     1       4.596   3.659  -1.174  1.00  0.00     0.183 C 
ATOM     74  C   UNL     1       5.763   3.691  -2.112  1.00  0.00     0.071 C 
ATOM     75  C   UNL     1       5.647   4.726  -1.041  1.00  0.00     0.071 C 
ENDBRANCH  70  73
ENDBRANCH  65  70
BRANCH  69  76
ATOM     76  S   UNL     1       0.376   6.128  -0.426  1.00  0.00    -0.155 SA
BRANCH  76  77
ATOM     77  C   UNL     1       0.060   7.915  -0.143  1.00  0.00     0.047 C 
ATOM     78  C   UNL     1       1.301   8.772   0.083  1.00  0.00     0.014 C 
ATOM     79  C   UNL     1      -0.723   8.667  -1.215  1.00  0.00     0.014 C 
ATOM     80  C   UNL     1       0.779  10.199  -0.016  1.00  0.00     0.001 C 
ATOM     81  C   UNL     1      -0.408  10.146  -0.975  1.00  0.00     0.001 C 
ENDBRANCH  76  77
ENDBRANCH  69  76
ENDBRANCH  63  65
ENDBRANCH  62  63
ENDBRANCH  61  62
ENDBRANCH  60  61
ENDBRANCH  59  60
ENDBRANCH  58  59
ENDBRANCH   1  58
TORSDOF 21
