REMARK SMILES Cc1cccc(C(=O)NCc2ccc(C(=O)OCCOCCOCCOC(=O)c3ccc(-c4c5nc(c(-c6ccccc6)c6ccc([nH]6)c(-c6ccccc6)c6nc(c(-c7ccccc7)c7ccc4[nH]7)C=C6)C=C5)cc3)o2)c1O
REMARK SMILES IDX 21 1 20 2 19 3 18 4 17 5 15 6 16 7 14 8 11 9 12 10 77 11
REMARK SMILES IDX 13 12 10 13 9 14 7 15 8 16 6 18 1 19 2 20 3 21 78 22 4 23
REMARK SMILES IDX 5 24 79 25 22 27 23 28 24 29 25 30 26 31 27 32 28 33 29 34
REMARK SMILES IDX 30 35 76 36 31 37 75 38 32 39 33 40 34 41 69 42 35 43 74 44
REMARK SMILES IDX 68 45 70 46 36 47 73 48 67 49 66 50 37 52 59 53 44 54 58 55
REMARK SMILES IDX 45 56 48 57 57 58 71 59 46 60 47 61 56 63 72 64 49 65 38 66
REMARK SMILES IDX 39 67 43 68 40 69 42 70 41 71 60 72 61 73 65 74 62 75 64 76
REMARK SMILES IDX 63 77 50 78 51 79 55 80 52 81 54 82 53 83
REMARK H PARENT 9 17 79 26 70 51 48 62
REMARK Flexibility Score: inf
ROOT
ATOM      1  C   UNL     1       7.338   1.853  -4.076  1.00  0.00     0.188 C 
ENDROOT
BRANCH   1   2
ATOM      2  O   UNL     1       7.486   1.399  -5.416  1.00  0.00    -0.376 OA
BRANCH   2   3
ATOM      3  C   UNL     1       7.153   2.263  -6.496  1.00  0.00     0.202 C 
BRANCH   3   4
ATOM      4  C   UNL     1       5.676   2.630  -6.652  1.00  0.00     0.261 C 
BRANCH   4   5
ATOM      5  O   UNL     1       5.202   3.443  -5.566  1.00  0.00    -0.457 OA
BRANCH   5   6
ATOM      6  C   UNL     1       4.220   2.898  -4.788  1.00  0.00     0.374 C 
ATOM      7  O   UNL     1       3.653   1.837  -5.022  1.00  0.00    -0.242 OA
BRANCH   6   8
ATOM      8  C   UNL     1       4.057   3.692  -3.591  1.00  0.00     0.211 A 
ATOM      9  C   UNL     1       3.617   3.976  -1.445  1.00  0.00     0.124 A 
ATOM     10  C   UNL     1       4.041   5.200  -1.922  1.00  0.00     0.048 A 
ATOM     11  O   UNL     1       3.617   3.061  -2.454  1.00  0.00    -0.452 OA
ATOM     12  C   UNL     1       4.328   5.017  -3.297  1.00  0.00     0.058 A 
BRANCH   9  13
ATOM     13  C   UNL     1       3.166   3.510  -0.106  1.00  0.00     0.191 C 
BRANCH  13  14
ATOM     14  N   UNL     1       1.724   3.599  -0.067  1.00  0.00    -0.345 N 
ATOM     15  C   UNL     1       0.647   2.755  -0.110  1.00  0.00     0.255 C 
ATOM     16  O   UNL     1      -0.428   3.363  -0.146  1.00  0.00    -0.269 OA
ATOM     17  H   UNL     1       1.433   4.536   0.013  1.00  0.00     0.164 HD
BRANCH  15  18
ATOM     18  C   UNL     1       0.679   1.247  -0.109  1.00  0.00     0.081 A 
ATOM     19  C   UNL     1      -1.855  -1.665   0.124  1.00  0.00     0.048 C 
ATOM     20  C   UNL     1      -0.568  -0.895   0.018  1.00  0.00    -0.008 A 
ATOM     21  C   UNL     1       0.631  -1.595  -0.125  1.00  0.00     0.007 A 
ATOM     22  C   UNL     1      -0.530   0.517   0.043  1.00  0.00     0.131 A 
ATOM     23  C   UNL     1       1.827  -0.904  -0.277  1.00  0.00     0.001 A 
ATOM     24  C   UNL     1       1.844   0.497  -0.302  1.00  0.00     0.018 A 
BRANCH  22  25
ATOM     25  O   UNL     1      -1.712   1.183   0.252  1.00  0.00    -0.507 OA
ATOM     26  H   UNL     1      -2.509   0.701   0.352  1.00  0.00     0.293 HD
ENDBRANCH  22  25
ENDBRANCH  15  18
ENDBRANCH  13  14
ENDBRANCH   9  13
ENDBRANCH   6   8
ENDBRANCH   5   6
ENDBRANCH   4   5
ENDBRANCH   3   4
ENDBRANCH   2   3
ENDBRANCH   1   2
BRANCH   1  27
ATOM     27  C   UNL     1       7.761   3.287  -3.705  1.00  0.00     0.188 C 
BRANCH  27  28
ATOM     28  O   UNL     1       8.684   3.881  -4.607  1.00  0.00    -0.376 OA
BRANCH  28  29
ATOM     29  C   UNL     1       9.985   4.126  -4.090  1.00  0.00     0.202 C 
BRANCH  29  30
ATOM     30  C   UNL     1      10.867   2.875  -4.122  1.00  0.00     0.261 C 
BRANCH  30  31
ATOM     31  O   UNL     1      10.424   1.825  -3.245  1.00  0.00    -0.460 OA
BRANCH  31  32
ATOM     32  C   UNL     1      10.454   2.102  -1.924  1.00  0.00     0.338 C 
ATOM     33  O   UNL     1      10.833   3.130  -1.392  1.00  0.00    -0.246 OA
BRANCH  32  34
ATOM     34  C   UNL     1       9.793   1.001  -1.202  1.00  0.00     0.060 A 
ATOM     35  C   UNL     1       8.777   1.317  -0.294  1.00  0.00     0.016 A 
ATOM     36  C   UNL     1      10.202  -0.324  -1.384  1.00  0.00     0.016 A 
ATOM     37  C   UNL     1       8.201   0.308   0.477  1.00  0.00     0.010 A 
ATOM     38  C   UNL     1       9.632  -1.332  -0.603  1.00  0.00     0.010 A 
ATOM     39  C   UNL     1       8.659  -1.012   0.358  1.00  0.00    -0.014 A 
BRANCH  39  40
ATOM     40  C   UNL     1       8.256  -2.008   1.378  1.00  0.00     0.031 A 
ATOM     41  C   UNL     1       9.133  -2.194   2.585  1.00  0.00     0.074 A 
ATOM     42  C   UNL     1       7.114  -2.707   1.260  1.00  0.00     0.049 A 
ATOM     43  N   UNL     1       8.941  -2.939   3.644  1.00  0.00    -0.248 NA
ATOM     44  C   UNL     1      10.396  -1.436   2.601  1.00  0.00     0.031 C 
ATOM     45  C   UNL     1       6.175  -2.620   0.145  1.00  0.00     0.029 A 
ATOM     46  N   UNL     1       6.553  -3.630   2.107  1.00  0.00    -0.354 N 
ATOM     47  C   UNL     1      10.050  -2.732   4.454  1.00  0.00     0.074 A 
ATOM     48  C   UNL     1      10.927  -1.821   3.751  1.00  0.00     0.031 C 
ATOM     49  C   UNL     1       5.147  -3.456   0.379  1.00  0.00     0.029 A 
ATOM     50  C   UNL     1       5.360  -4.135   1.656  1.00  0.00     0.049 A 
ATOM     51  H   UNL     1       6.968  -3.904   2.957  1.00  0.00     0.167 HD
ATOM     52  C   UNL     1      10.315  -3.244   5.679  1.00  0.00     0.031 A 
ATOM     53  C   UNL     1       4.533  -5.040   2.215  1.00  0.00     0.031 A 
ATOM     54  C   UNL     1       9.467  -4.172   6.373  1.00  0.00     0.049 A 
ATOM     55  C   UNL     1       4.871  -5.630   3.558  1.00  0.00     0.074 A 
ATOM     56  C   UNL     1       9.649  -4.741   7.622  1.00  0.00     0.029 A 
ATOM     57  N   UNL     1       8.279  -4.678   5.871  1.00  0.00    -0.354 N 
ATOM     58  N   UNL     1       5.896  -5.384   4.337  1.00  0.00    -0.248 NA
ATOM     59  C   UNL     1       3.924  -6.614   4.103  1.00  0.00     0.031 C 
ATOM     60  C   UNL     1       8.588  -5.624   7.857  1.00  0.00     0.029 A 
ATOM     61  C   UNL     1       7.725  -5.567   6.775  1.00  0.00     0.049 A 
ATOM     62  H   UNL     1       7.887  -4.440   5.000  1.00  0.00     0.167 HD
ATOM     63  C   UNL     1       5.703  -6.161   5.474  1.00  0.00     0.074 A 
ATOM     64  C   UNL     1       4.458  -6.876   5.288  1.00  0.00     0.031 C 
ATOM     65  C   UNL     1       6.486  -6.271   6.575  1.00  0.00     0.031 A 
BRANCH  52  66
ATOM     66  C   UNL     1      11.598  -2.817   6.329  1.00  0.00    -0.014 A 
ATOM     67  C   UNL     1      11.741  -1.529   6.868  1.00  0.00     0.009 A 
ATOM     68  C   UNL     1      12.674  -3.714   6.408  1.00  0.00     0.009 A 
ATOM     69  C   UNL     1      12.950  -1.136   7.445  1.00  0.00     0.001 A 
ATOM     70  C   UNL     1      13.874  -3.325   7.005  1.00  0.00     0.001 A 
ATOM     71  C   UNL     1      14.014  -2.035   7.514  1.00  0.00     0.000 A 
ENDBRANCH  52  66
BRANCH  53  72
ATOM     72  C   UNL     1       3.287  -5.441   1.514  1.00  0.00    -0.014 A 
ATOM     73  C   UNL     1       2.034  -5.022   1.990  1.00  0.00     0.009 A 
ATOM     74  C   UNL     1       3.343  -6.271   0.385  1.00  0.00     0.009 A 
ATOM     75  C   UNL     1       0.862  -5.452   1.364  1.00  0.00     0.001 A 
ATOM     76  C   UNL     1       2.170  -6.677  -0.254  1.00  0.00     0.001 A 
ATOM     77  C   UNL     1       0.931  -6.275   0.241  1.00  0.00     0.000 A 
ENDBRANCH  53  72
BRANCH  65  78
ATOM     78  C   UNL     1       6.001  -7.170   7.677  1.00  0.00    -0.014 A 
ATOM     79  C   UNL     1       6.050  -8.567   7.552  1.00  0.00     0.009 A 
ATOM     80  C   UNL     1       5.517  -6.609   8.869  1.00  0.00     0.009 A 
ATOM     81  C   UNL     1       5.590  -9.384   8.587  1.00  0.00     0.001 A 
ATOM     82  C   UNL     1       5.080  -7.428   9.911  1.00  0.00     0.001 A 
ATOM     83  C   UNL     1       5.108  -8.814   9.766  1.00  0.00     0.000 A 
ENDBRANCH  65  78
ENDBRANCH  39  40
ENDBRANCH  32  34
ENDBRANCH  31  32
ENDBRANCH  30  31
ENDBRANCH  29  30
ENDBRANCH  28  29
ENDBRANCH  27  28
ENDBRANCH   1  27
TORSDOF 21
