REMARK SMILES COc1cc(N[C@H]2C=C[C@@H](C(=O)OCCOCCOCCOC(=O)c3ccc(-c4c5nc(c(-c6ccccc6)c6ccc([nH]6)c(-c6ccccc6)c6nc(c(-c7ccccc7)c7ccc4[nH]7)C=C6)C=C5)cc3)C2)c([N+](=O)[O-])cc1F
REMARK SMILES IDX 17 1 16 2 15 3 14 4 13 5 11 6 12 7 10 8 7 9 8 10 73 11 9 12
REMARK SMILES IDX 6 13 5 15 3 16 4 17 79 18 78 19 80 20 74 21 2 22 1 23 75 24
REMARK SMILES IDX 76 25 77 26 18 27 19 28 20 29 21 30 22 31 23 32 24 33 25 34
REMARK SMILES IDX 26 35 72 36 27 37 71 38 28 39 29 40 30 41 65 42 31 43 70 44
REMARK SMILES IDX 64 45 66 46 32 47 69 48 63 49 62 50 33 52 55 53 40 54 54 55
REMARK SMILES IDX 41 56 44 57 53 58 67 59 42 60 43 61 52 63 68 64 45 65 34 66
REMARK SMILES IDX 35 67 39 68 36 69 38 70 37 71 56 72 57 73 61 74 58 75 60 76
REMARK SMILES IDX 59 77 46 78 47 79 51 80 48 81 50 82 49 83
REMARK H PARENT 6 14 66 51 44 62
REMARK Flexibility Score: inf
ROOT
ATOM      1  C   UNL     1      -4.472  -0.030  -2.633  1.00  0.00     0.188 C 
ENDROOT
BRANCH   1   2
ATOM      2  O   UNL     1      -4.178   1.105  -1.829  1.00  0.00    -0.376 OA
BRANCH   2   3
ATOM      3  C   UNL     1      -2.973   1.102  -1.065  1.00  0.00     0.202 C 
BRANCH   3   4
ATOM      4  C   UNL     1      -2.648  -0.137  -0.211  1.00  0.00     0.261 C 
BRANCH   4   5
ATOM      5  O   UNL     1      -2.622  -1.381  -0.946  1.00  0.00    -0.463 OA
BRANCH   5   6
ATOM      6  C   UNL     1      -3.195  -2.451  -0.338  1.00  0.00     0.312 C 
ATOM      7  O   UNL     1      -3.665  -2.418   0.797  1.00  0.00    -0.252 OA
BRANCH   6   8
ATOM      8  C   UNL     1      -3.312  -3.704  -1.225  1.00  0.00     0.124 C 
ATOM      9  C   UNL     1      -1.756  -5.125  -2.522  1.00  0.00     0.103 C 
ATOM     10  C   UNL     1      -1.941  -5.633  -1.140  1.00  0.00    -0.006 C 
ATOM     11  C   UNL     1      -2.525  -3.803  -2.546  1.00  0.00     0.048 C 
ATOM     12  C   UNL     1      -2.813  -4.891  -0.449  1.00  0.00    -0.014 C 
BRANCH   9  13
ATOM     13  N   UNL     1      -0.355  -5.020  -2.892  1.00  0.00    -0.373 N 
ATOM     14  H   UNL     1      -0.040  -5.714  -3.515  1.00  0.00     0.161 HD
BRANCH  13  15
ATOM     15  C   UNL     1       0.612  -4.103  -2.511  1.00  0.00     0.117 A 
ATOM     16  C   UNL     1       1.305  -2.225  -1.066  1.00  0.00     0.157 A 
ATOM     17  C   UNL     1       0.410  -3.241  -1.419  1.00  0.00     0.082 A 
ATOM     18  C   UNL     1       2.497  -2.110  -1.768  1.00  0.00     0.172 A 
ATOM     19  C   UNL     1       2.784  -2.976  -2.814  1.00  0.00     0.131 A 
ATOM     20  F   UNL     1       3.411  -1.185  -1.446  1.00  0.00    -0.203 F 
ATOM     21  C   UNL     1       1.849  -3.961  -3.188  1.00  0.00     0.295 A 
BRANCH  16  22
ATOM     22  O   UNL     1       0.901  -1.451  -0.012  1.00  0.00    -0.494 OA
ATOM     23  C   UNL     1       1.384  -0.113  -0.010  1.00  0.00     0.278 C 
ENDBRANCH  16  22
BRANCH  21  24
ATOM     24  N   UNL     1       2.218  -4.831  -4.319  1.00  0.00     0.065 N 
ATOM     25  O   UNL     1       1.333  -5.515  -4.856  1.00  0.00    -0.258 OA
ATOM     26  O   UNL     1       3.405  -4.828  -4.681  1.00  0.00    -0.258 OA
ENDBRANCH  21  24
ENDBRANCH  13  15
ENDBRANCH   9  13
ENDBRANCH   6   8
ENDBRANCH   5   6
ENDBRANCH   4   5
ENDBRANCH   3   4
ENDBRANCH   2   3
ENDBRANCH   1   2
BRANCH   1  27
ATOM     27  C   UNL     1      -3.369  -0.586  -3.548  1.00  0.00     0.188 C 
BRANCH  27  28
ATOM     28  O   UNL     1      -2.120   0.049  -3.425  1.00  0.00    -0.376 OA
BRANCH  28  29
ATOM     29  C   UNL     1      -1.647   0.816  -4.519  1.00  0.00     0.202 C 
BRANCH  29  30
ATOM     30  C   UNL     1      -2.574   1.800  -5.261  1.00  0.00     0.261 C 
BRANCH  30  31
ATOM     31  O   UNL     1      -3.957   1.433  -5.404  1.00  0.00    -0.460 OA
BRANCH  31  32
ATOM     32  C   UNL     1      -4.272   0.571  -6.402  1.00  0.00     0.338 C 
ATOM     33  O   UNL     1      -3.513   0.071  -7.206  1.00  0.00    -0.246 OA
BRANCH  32  34
ATOM     34  C   UNL     1      -5.675   0.136  -6.186  1.00  0.00     0.060 A 
ATOM     35  C   UNL     1      -5.935  -1.216  -5.913  1.00  0.00     0.016 A 
ATOM     36  C   UNL     1      -6.722   1.058  -6.225  1.00  0.00     0.016 A 
ATOM     37  C   UNL     1      -7.244  -1.652  -5.695  1.00  0.00     0.010 A 
ATOM     38  C   UNL     1      -8.035   0.615  -6.038  1.00  0.00     0.010 A 
ATOM     39  C   UNL     1      -8.306  -0.746  -5.799  1.00  0.00    -0.014 A 
BRANCH  39  40
ATOM     40  C   UNL     1      -9.704  -1.239  -5.862  1.00  0.00     0.031 A 
ATOM     41  C   UNL     1     -10.335  -1.411  -7.217  1.00  0.00     0.074 A 
ATOM     42  C   UNL     1     -10.407  -1.528  -4.752  1.00  0.00     0.049 A 
ATOM     43  N   UNL     1     -11.563  -1.740  -7.528  1.00  0.00    -0.248 NA
ATOM     44  C   UNL     1      -9.461  -1.174  -8.378  1.00  0.00     0.031 C 
ATOM     45  C   UNL     1      -9.901  -1.460  -3.383  1.00  0.00     0.029 A 
ATOM     46  N   UNL     1     -11.714  -1.927  -4.611  1.00  0.00    -0.354 N 
ATOM     47  C   UNL     1     -11.612  -1.734  -8.916  1.00  0.00     0.074 A 
ATOM     48  C   UNL     1     -10.300  -1.346  -9.387  1.00  0.00     0.031 C 
ATOM     49  C   UNL     1     -10.894  -1.792  -2.537  1.00  0.00     0.029 A 
ATOM     50  C   UNL     1     -12.112  -2.054  -3.302  1.00  0.00     0.049 A 
ATOM     51  H   UNL     1     -12.309  -2.104  -5.375  1.00  0.00     0.167 HD
ATOM     52  C   UNL     1     -12.654  -2.026  -9.729  1.00  0.00     0.031 A 
ATOM     53  C   UNL     1     -13.327  -2.321  -2.783  1.00  0.00     0.031 A 
ATOM     54  C   UNL     1     -13.964  -2.393  -9.265  1.00  0.00     0.049 A 
ATOM     55  C   UNL     1     -14.497  -2.548  -3.708  1.00  0.00     0.074 A 
ATOM     56  C   UNL     1     -15.083  -2.718 -10.013  1.00  0.00     0.029 A 
ATOM     57  N   UNL     1     -14.336  -2.473  -7.933  1.00  0.00    -0.354 N 
ATOM     58  N   UNL     1     -14.528  -2.562  -5.019  1.00  0.00    -0.248 NA
ATOM     59  C   UNL     1     -15.801  -2.803  -3.076  1.00  0.00     0.031 C 
ATOM     60  C   UNL     1     -16.149  -2.930  -9.133  1.00  0.00     0.029 A 
ATOM     61  C   UNL     1     -15.675  -2.810  -7.836  1.00  0.00     0.049 A 
ATOM     62  H   UNL     1     -13.736  -2.312  -7.168  1.00  0.00     0.167 HD
ATOM     63  C   UNL     1     -15.841  -2.861  -5.366  1.00  0.00     0.074 A 
ATOM     64  C   UNL     1     -16.573  -3.034  -4.129  1.00  0.00     0.031 C 
ATOM     65  C   UNL     1     -16.392  -2.984  -6.599  1.00  0.00     0.031 A 
BRANCH  52  66
ATOM     66  C   UNL     1     -12.426  -1.915 -11.211  1.00  0.00    -0.014 A 
ATOM     67  C   UNL     1     -11.609  -2.828 -11.898  1.00  0.00     0.009 A 
ATOM     68  C   UNL     1     -13.063  -0.896 -11.936  1.00  0.00     0.009 A 
ATOM     69  C   UNL     1     -11.408  -2.699 -13.274  1.00  0.00     0.001 A 
ATOM     70  C   UNL     1     -12.886  -0.789 -13.316  1.00  0.00     0.001 A 
ATOM     71  C   UNL     1     -12.051  -1.684 -13.982  1.00  0.00     0.000 A 
ENDBRANCH  52  66
BRANCH  53  72
ATOM     72  C   UNL     1     -13.521  -2.360  -1.308  1.00  0.00    -0.014 A 
ATOM     73  C   UNL     1     -13.845  -3.562  -0.659  1.00  0.00     0.009 A 
ATOM     74  C   UNL     1     -13.423  -1.186  -0.544  1.00  0.00     0.009 A 
ATOM     75  C   UNL     1     -14.095  -3.581   0.716  1.00  0.00     0.001 A 
ATOM     76  C   UNL     1     -13.640  -1.214   0.835  1.00  0.00     0.001 A 
ATOM     77  C   UNL     1     -13.987  -2.409   1.462  1.00  0.00     0.000 A 
ENDBRANCH  53  72
BRANCH  65  78
ATOM     78  C   UNL     1     -17.844  -3.373  -6.678  1.00  0.00    -0.014 A 
ATOM     79  C   UNL     1     -18.865  -2.484  -6.309  1.00  0.00     0.009 A 
ATOM     80  C   UNL     1     -18.194  -4.638  -7.178  1.00  0.00     0.009 A 
ATOM     81  C   UNL     1     -20.205  -2.868  -6.405  1.00  0.00     0.001 A 
ATOM     82  C   UNL     1     -19.534  -5.007  -7.305  1.00  0.00     0.001 A 
ATOM     83  C   UNL     1     -20.538  -4.126  -6.908  1.00  0.00     0.000 A 
ENDBRANCH  65  78
ENDBRANCH  39  40
ENDBRANCH  32  34
ENDBRANCH  31  32
ENDBRANCH  30  31
ENDBRANCH  29  30
ENDBRANCH  28  29
ENDBRANCH  27  28
ENDBRANCH   1  27
TORSDOF 21
