REMARK SMILES COc1ccc(Cl)c2c1N[C@@H](c1ccc(C(=O)OCCOCCOCCOC(=O)c3ccc(-c4c5nc(c(-c6ccccc6)c6ccc([nH]6)c(-c6ccccc6)c6nc(c(-c7ccccc7)c7ccc4[nH]7)C=C6)C=C5)cc3)cc1)[C@@H]1CC=C[C@H]21
REMARK SMILES IDX 22 1 21 2 20 3 19 4 18 5 16 6 17 7 15 8 12 9 13 10 79 11
REMARK SMILES IDX 14 12 78 13 11 14 3 15 4 16 9 17 5 18 8 19 10 20 6 21 84 22
REMARK SMILES IDX 7 24 80 25 83 26 81 27 82 28 2 29 1 30 23 31 24 32 25 33
REMARK SMILES IDX 26 34 27 35 28 36 29 37 30 38 31 39 77 40 32 41 76 42 33 43
REMARK SMILES IDX 34 44 35 45 70 46 36 47 75 48 69 49 71 50 37 51 74 52 68 53
REMARK SMILES IDX 67 54 38 56 60 57 45 58 59 59 46 60 49 61 58 62 72 63 47 64
REMARK SMILES IDX 48 65 57 67 73 68 50 69 39 70 40 71 44 72 41 73 43 74 42 75
REMARK SMILES IDX 61 76 62 77 66 78 63 79 65 80 64 81 51 82 52 83 56 84 53 85
REMARK SMILES IDX 55 86 54 87
REMARK H PARENT 10 23 71 55 49 66
REMARK Flexibility Score: inf
ROOT
ATOM      1  C   UNL     1       7.942  -2.229  -3.559  1.00  0.00     0.188 C 
ENDROOT
BRANCH   1   2
ATOM      2  O   UNL     1       9.100  -2.588  -4.283  1.00  0.00    -0.376 OA
BRANCH   2   3
ATOM      3  C   UNL     1      10.394  -2.302  -3.778  1.00  0.00     0.202 C 
BRANCH   3   4
ATOM      4  C   UNL     1      10.716  -1.060  -2.938  1.00  0.00     0.261 C 
BRANCH   4   5
ATOM      5  O   UNL     1       9.749  -0.736  -1.936  1.00  0.00    -0.460 OA
BRANCH   5   6
ATOM      6  C   UNL     1       9.140   0.471  -2.103  1.00  0.00     0.338 C 
ATOM      7  O   UNL     1       9.374   1.290  -2.962  1.00  0.00    -0.246 OA
BRANCH   6   8
ATOM      8  C   UNL     1       7.988   0.588  -1.175  1.00  0.00     0.060 A 
ATOM      9  C   UNL     1       5.774   0.961   0.524  1.00  0.00    -0.025 A 
ATOM     10  C   UNL     1       5.760   1.455  -0.791  1.00  0.00     0.007 A 
ATOM     11  C   UNL     1       6.880   0.190   0.931  1.00  0.00     0.007 A 
ATOM     12  C   UNL     1       6.851   1.257  -1.638  1.00  0.00     0.016 A 
ATOM     13  C   UNL     1       7.996   0.034   0.105  1.00  0.00     0.016 A 
BRANCH   9  14
ATOM     14  C   UNL     1       4.696   1.338   1.546  1.00  0.00     0.114 C 
ATOM     15  C   UNL     1       1.068   2.123   0.983  1.00  0.00     0.142 A 
ATOM     16  C   UNL     1      -0.004   2.805   1.560  1.00  0.00     0.050 A 
ATOM     17  C   UNL     1       2.371   2.204   1.515  1.00  0.00     0.083 A 
ATOM     18  C   UNL     1       0.204   3.561   2.707  1.00  0.00     0.025 A 
ATOM     19  C   UNL     1       2.579   2.971   2.675  1.00  0.00     0.005 A 
ATOM     20  N   UNL     1       3.429   1.577   0.873  1.00  0.00    -0.375 N 
ATOM     21  C   UNL     1       1.483   3.644   3.261  1.00  0.00     0.047 A 
ATOM     22  C   UNL     1       3.968   3.111   3.236  1.00  0.00     0.051 C 
ATOM     23  H   UNL     1       3.319   1.286  -0.061  1.00  0.00     0.161 HD
ATOM     24  Cl  UNL     1       1.660   4.640   4.668  1.00  0.00    -0.084 Cl
ATOM     25  C   UNL     1       5.116   2.605   2.334  1.00  0.00     0.031 C 
ATOM     26  C   UNL     1       4.220   2.338   4.506  1.00  0.00    -0.023 C 
ATOM     27  C   UNL     1       6.245   2.352   3.355  1.00  0.00     0.034 C 
ATOM     28  C   UNL     1       5.492   1.927   4.574  1.00  0.00    -0.030 C 
BRANCH  15  29
ATOM     29  O   UNL     1       0.813   1.417  -0.169  1.00  0.00    -0.495 OA
ATOM     30  C   UNL     1       0.718   0.018   0.104  1.00  0.00     0.278 C 
ENDBRANCH  15  29
ENDBRANCH   9  14
ENDBRANCH   6   8
ENDBRANCH   5   6
ENDBRANCH   4   5
ENDBRANCH   3   4
ENDBRANCH   2   3
ENDBRANCH   1   2
BRANCH   1  31
ATOM     31  C   UNL     1       7.648  -2.858  -2.181  1.00  0.00     0.188 C 
BRANCH  31  32
ATOM     32  O   UNL     1       8.565  -3.740  -1.572  1.00  0.00    -0.376 OA
BRANCH  32  33
ATOM     33  C   UNL     1       8.896  -4.960  -2.215  1.00  0.00     0.202 C 
BRANCH  33  34
ATOM     34  C   UNL     1       7.862  -5.810  -2.967  1.00  0.00     0.261 C 
BRANCH  34  35
ATOM     35  O   UNL     1       6.957  -5.093  -3.815  1.00  0.00    -0.460 OA
BRANCH  35  36
ATOM     36  C   UNL     1       5.656  -5.144  -3.445  1.00  0.00     0.338 C 
ATOM     37  O   UNL     1       5.174  -5.719  -2.476  1.00  0.00    -0.246 OA
BRANCH  36  38
ATOM     38  C   UNL     1       4.867  -4.260  -4.312  1.00  0.00     0.060 A 
ATOM     39  C   UNL     1       4.362  -3.061  -3.789  1.00  0.00     0.016 A 
ATOM     40  C   UNL     1       4.563  -4.655  -5.615  1.00  0.00     0.016 A 
ATOM     41  C   UNL     1       3.545  -2.249  -4.571  1.00  0.00     0.010 A 
ATOM     42  C   UNL     1       3.712  -3.860  -6.384  1.00  0.00     0.010 A 
ATOM     43  C   UNL     1       3.181  -2.670  -5.856  1.00  0.00    -0.014 A 
BRANCH  43  44
ATOM     44  C   UNL     1       2.092  -1.976  -6.577  1.00  0.00     0.031 A 
ATOM     45  C   UNL     1       0.683  -2.456  -6.371  1.00  0.00     0.074 A 
ATOM     46  C   UNL     1       2.345  -0.940  -7.394  1.00  0.00     0.049 A 
ATOM     47  N   UNL     1      -0.417  -2.059  -6.955  1.00  0.00    -0.248 NA
ATOM     48  C   UNL     1       0.485  -3.517  -5.367  1.00  0.00     0.031 C 
ATOM     49  C   UNL     1       3.656  -0.333  -7.615  1.00  0.00     0.029 A 
ATOM     50  N   UNL     1       1.496  -0.215  -8.192  1.00  0.00    -0.354 N 
ATOM     51  C   UNL     1      -1.433  -2.815  -6.389  1.00  0.00     0.074 A 
ATOM     52  C   UNL     1      -0.825  -3.708  -5.430  1.00  0.00     0.031 C 
ATOM     53  C   UNL     1       3.524   0.674  -8.497  1.00  0.00     0.029 A 
ATOM     54  C   UNL     1       2.129   0.756  -8.928  1.00  0.00     0.049 A 
ATOM     55  H   UNL     1       0.526  -0.376  -8.233  1.00  0.00     0.167 HD
ATOM     56  C   UNL     1      -2.759  -2.766  -6.646  1.00  0.00     0.031 A 
ATOM     57  C   UNL     1       1.639   1.600  -9.857  1.00  0.00     0.031 A 
ATOM     58  C   UNL     1      -3.365  -1.897  -7.614  1.00  0.00     0.049 A 
ATOM     59  C   UNL     1       0.177   1.552 -10.210  1.00  0.00     0.074 A 
ATOM     60  C   UNL     1      -4.702  -1.798  -7.957  1.00  0.00     0.029 A 
ATOM     61  N   UNL     1      -2.678  -0.981  -8.392  1.00  0.00    -0.354 N 
ATOM     62  N   UNL     1      -0.772   0.811  -9.691  1.00  0.00    -0.248 NA
ATOM     63  C   UNL     1      -0.282   2.451 -11.281  1.00  0.00     0.031 C 
ATOM     64  C   UNL     1      -4.818  -0.850  -8.975  1.00  0.00     0.029 A 
ATOM     65  C   UNL     1      -3.562  -0.323  -9.226  1.00  0.00     0.049 A 
ATOM     66  H   UNL     1      -1.707  -0.823  -8.356  1.00  0.00     0.167 HD
ATOM     67  C   UNL     1      -1.941   1.175 -10.348  1.00  0.00     0.074 A 
ATOM     68  C   UNL     1      -1.585   2.202 -11.305  1.00  0.00     0.031 C 
ATOM     69  C   UNL     1      -3.197   0.703 -10.167  1.00  0.00     0.031 A 
BRANCH  56  70
ATOM     70  C   UNL     1      -3.660  -3.683  -5.875  1.00  0.00    -0.014 A 
ATOM     71  C   UNL     1      -4.023  -3.383  -4.554  1.00  0.00     0.009 A 
ATOM     72  C   UNL     1      -4.237  -4.792  -6.511  1.00  0.00     0.009 A 
ATOM     73  C   UNL     1      -4.955  -4.176  -3.885  1.00  0.00     0.001 A 
ATOM     74  C   UNL     1      -5.183  -5.572  -5.845  1.00  0.00     0.001 A 
ATOM     75  C   UNL     1      -5.542  -5.263  -4.534  1.00  0.00     0.000 A 
ENDBRANCH  56  70
BRANCH  57  76
ATOM     76  C   UNL     1       2.545   2.572 -10.520  1.00  0.00    -0.014 A 
ATOM     77  C   UNL     1       2.469   3.937 -10.205  1.00  0.00     0.009 A 
ATOM     78  C   UNL     1       3.499   2.142 -11.455  1.00  0.00     0.009 A 
ATOM     79  C   UNL     1       3.326   4.853 -10.818  1.00  0.00     0.001 A 
ATOM     80  C   UNL     1       4.369   3.058 -12.051  1.00  0.00     0.001 A 
ATOM     81  C   UNL     1       4.280   4.413 -11.734  1.00  0.00     0.000 A 
ENDBRANCH  57  76
BRANCH  69  82
ATOM     82  C   UNL     1      -4.306   1.297 -10.985  1.00  0.00    -0.014 A 
ATOM     83  C   UNL     1      -4.490   0.932 -12.326  1.00  0.00     0.009 A 
ATOM     84  C   UNL     1      -5.255   2.127 -10.365  1.00  0.00     0.009 A 
ATOM     85  C   UNL     1      -5.603   1.392 -13.033  1.00  0.00     0.001 A 
ATOM     86  C   UNL     1      -6.378   2.565 -11.068  1.00  0.00     0.001 A 
ATOM     87  C   UNL     1      -6.550   2.198 -12.401  1.00  0.00     0.000 A 
ENDBRANCH  69  82
ENDBRANCH  43  44
ENDBRANCH  36  38
ENDBRANCH  35  36
ENDBRANCH  34  35
ENDBRANCH  33  34
ENDBRANCH  32  33
ENDBRANCH  31  32
ENDBRANCH   1  31
TORSDOF 19
