REMARK SMILES O=C(OCCOCCOCCOC(=O)[C@]1(CCc2cccnc2)CCC[NH2+]C1)c1ccc(-c2c3nc(c(-c4ccccc4)c4ccc([nH]4)c(-c4ccccc4)c4nc(c(-c5ccccc5)c5ccc2[nH]5)C=C4)C=C3)cc1
REMARK SMILES IDX 8 1 7 2 6 3 5 4 4 5 3 6 2 7 1 8 29 9 30 10 76 11 31 12 75 13
REMARK SMILES IDX 32 14 33 15 34 16 69 17 35 18 74 19 68 20 70 21 36 22 73 23
REMARK SMILES IDX 67 24 66 25 37 27 59 28 44 29 58 30 45 31 48 32 57 33 71 34
REMARK SMILES IDX 46 35 47 36 56 38 72 39 49 40 38 41 39 42 43 43 40 44 42 45
REMARK SMILES IDX 41 46 60 47 61 48 65 49 62 50 64 51 63 52 50 53 51 54 55 55
REMARK SMILES IDX 52 56 54 57 53 58 9 59 10 60 11 61 12 62 13 63 14 64 15 65
REMARK SMILES IDX 24 66 28 67 25 68 27 69 26 70 16 73 17 74 18 75 19 76 23 77
REMARK SMILES IDX 20 78 22 79 21 80
REMARK H PARENT 70 26 48 37 27 71 27 72
REMARK Flexibility Score: inf
ROOT
ATOM      1  C   UNL     1       1.980   2.498  -0.092  1.00  0.00     0.188 C 
ENDROOT
BRANCH   1   2
ATOM      2  C   UNL     1       2.716   1.204   0.274  1.00  0.00     0.188 C 
BRANCH   2   3
ATOM      3  O   UNL     1       4.114   1.077   0.049  1.00  0.00    -0.376 OA
BRANCH   3   4
ATOM      4  C   UNL     1       4.555   0.975  -1.298  1.00  0.00     0.202 C 
BRANCH   4   5
ATOM      5  C   UNL     1       4.388  -0.389  -1.980  1.00  0.00     0.261 C 
BRANCH   5   6
ATOM      6  O   UNL     1       3.128  -1.030  -1.741  1.00  0.00    -0.460 OA
BRANCH   6   7
ATOM      7  C   UNL     1       2.800  -1.932  -0.784  1.00  0.00     0.338 C 
ATOM      8  O   UNL     1       1.742  -2.553  -0.919  1.00  0.00    -0.246 OA
BRANCH   7   9
ATOM      9  C   UNL     1       3.577  -2.157   0.484  1.00  0.00     0.060 A 
ATOM     10  C   UNL     1       4.846  -1.652   0.775  1.00  0.00     0.016 A 
ATOM     11  C   UNL     1       2.955  -2.940   1.477  1.00  0.00     0.016 A 
ATOM     12  C   UNL     1       5.490  -1.919   1.979  1.00  0.00     0.010 A 
ATOM     13  C   UNL     1       3.588  -3.207   2.698  1.00  0.00     0.010 A 
ATOM     14  C   UNL     1       4.878  -2.713   2.938  1.00  0.00    -0.014 A 
BRANCH  14  15
ATOM     15  C   UNL     1       5.703  -3.196   4.062  1.00  0.00     0.031 A 
ATOM     16  C   UNL     1       6.225  -4.596   3.967  1.00  0.00     0.074 A 
ATOM     17  C   UNL     1       6.105  -2.378   5.053  1.00  0.00     0.049 A 
ATOM     18  N   UNL     1       7.032  -5.227   4.775  1.00  0.00    -0.248 NA
ATOM     19  C   UNL     1       5.849  -5.361   2.763  1.00  0.00     0.031 C 
ATOM     20  C   UNL     1       5.852  -0.942   5.131  1.00  0.00     0.029 A 
ATOM     21  N   UNL     1       6.804  -2.641   6.201  1.00  0.00    -0.354 N 
ATOM     22  C   UNL     1       7.318  -6.426   4.139  1.00  0.00     0.074 A 
ATOM     23  C   UNL     1       6.522  -6.485   2.937  1.00  0.00     0.031 C 
ATOM     24  C   UNL     1       6.242  -0.478   6.329  1.00  0.00     0.029 A 
ATOM     25  C   UNL     1       6.847  -1.574   7.068  1.00  0.00     0.049 A 
ATOM     26  H   UNL     1       7.234  -3.507   6.387  1.00  0.00     0.167 HD
ATOM     27  C   UNL     1       8.219  -7.366   4.497  1.00  0.00     0.031 A 
ATOM     28  C   UNL     1       7.331  -1.496   8.320  1.00  0.00     0.031 A 
ATOM     29  C   UNL     1       8.966  -7.314   5.720  1.00  0.00     0.049 A 
ATOM     30  C   UNL     1       8.123  -2.665   8.826  1.00  0.00     0.074 A 
ATOM     31  C   UNL     1       9.849  -8.241   6.235  1.00  0.00     0.029 A 
ATOM     32  N   UNL     1       8.896  -6.267   6.630  1.00  0.00    -0.354 N 
ATOM     33  N   UNL     1       8.391  -3.797   8.219  1.00  0.00    -0.248 NA
ATOM     34  C   UNL     1       8.746  -2.521  10.145  1.00  0.00     0.031 C 
ATOM     35  C   UNL     1      10.269  -7.781   7.489  1.00  0.00     0.029 A 
ATOM     36  C   UNL     1       9.696  -6.539   7.724  1.00  0.00     0.049 A 
ATOM     37  H   UNL     1       8.356  -5.452   6.514  1.00  0.00     0.167 HD
ATOM     38  C   UNL     1       9.270  -4.472   9.049  1.00  0.00     0.074 A 
ATOM     39  C   UNL     1       9.481  -3.622  10.206  1.00  0.00     0.031 C 
ATOM     40  C   UNL     1       9.871  -5.673   8.863  1.00  0.00     0.031 A 
BRANCH  27  41
ATOM     41  C   UNL     1       8.391  -8.514   3.549  1.00  0.00    -0.014 A 
ATOM     42  C   UNL     1       9.024  -8.334   2.306  1.00  0.00     0.009 A 
ATOM     43  C   UNL     1       7.854  -9.769   3.864  1.00  0.00     0.009 A 
ATOM     44  C   UNL     1       9.074  -9.378   1.380  1.00  0.00     0.001 A 
ATOM     45  C   UNL     1       7.929 -10.818   2.946  1.00  0.00     0.001 A 
ATOM     46  C   UNL     1       8.527 -10.619   1.702  1.00  0.00     0.000 A 
ENDBRANCH  27  41
BRANCH  28  47
ATOM     47  C   UNL     1       7.108  -0.283   9.150  1.00  0.00    -0.014 A 
ATOM     48  C   UNL     1       8.160   0.581   9.484  1.00  0.00     0.009 A 
ATOM     49  C   UNL     1       5.823  -0.007   9.650  1.00  0.00     0.009 A 
ATOM     50  C   UNL     1       7.941   1.666  10.340  1.00  0.00     0.001 A 
ATOM     51  C   UNL     1       5.603   1.090  10.486  1.00  0.00     0.001 A 
ATOM     52  C   UNL     1       6.666   1.918  10.842  1.00  0.00     0.000 A 
ENDBRANCH  28  47
BRANCH  40  53
ATOM     53  C   UNL     1      10.836  -6.110   9.924  1.00  0.00    -0.014 A 
ATOM     54  C   UNL     1      10.394  -6.494  11.198  1.00  0.00     0.009 A 
ATOM     55  C   UNL     1      12.207  -6.162   9.628  1.00  0.00     0.009 A 
ATOM     56  C   UNL     1      11.314  -6.881  12.172  1.00  0.00     0.001 A 
ATOM     57  C   UNL     1      13.120  -6.587  10.591  1.00  0.00     0.001 A 
ATOM     58  C   UNL     1      12.674  -6.934  11.866  1.00  0.00     0.000 A 
ENDBRANCH  40  53
ENDBRANCH  14  15
ENDBRANCH   7   9
ENDBRANCH   6   7
ENDBRANCH   5   6
ENDBRANCH   4   5
ENDBRANCH   3   4
ENDBRANCH   2   3
ENDBRANCH   1   2
BRANCH   1  59
ATOM     59  O   UNL     1       2.684   3.638  -0.538  1.00  0.00    -0.376 OA
BRANCH  59  60
ATOM     60  C   UNL     1       3.913   3.977   0.070  1.00  0.00     0.202 C 
BRANCH  60  61
ATOM     61  C   UNL     1       4.005   4.157   1.583  1.00  0.00     0.261 C 
BRANCH  61  62
ATOM     62  O   UNL     1       3.532   3.101   2.441  1.00  0.00    -0.463 OA
BRANCH  62  63
ATOM     63  C   UNL     1       2.386   3.397   3.111  1.00  0.00     0.317 C 
ATOM     64  O   UNL     1       1.649   4.336   2.813  1.00  0.00    -0.251 OA
BRANCH  63  65
ATOM     65  C   UNL     1       2.101   2.517   4.340  1.00  0.00     0.117 C 
ATOM     66  C   UNL     1       3.108   1.401   4.690  1.00  0.00     0.030 C 
ATOM     67  C   UNL     1       0.685   1.920   4.114  1.00  0.00     0.279 C 
ATOM     68  C   UNL     1       2.874   0.054   4.010  1.00  0.00     0.063 C 
ATOM     69  N   UNL     1       0.676   0.746   3.236  1.00  0.00    -0.345 N 
ATOM     70  C   UNL     1       1.420  -0.338   3.858  1.00  0.00     0.260 C 
ATOM     71  H   UNL     1      -0.286   0.448   3.078  1.00  0.00     0.346 HD
ATOM     72  H   UNL     1       1.112   0.987   2.346  1.00  0.00     0.346 HD
BRANCH  65  73
ATOM     73  C   UNL     1       2.026   3.501   5.561  1.00  0.00     0.029 C 
BRANCH  73  74
ATOM     74  C   UNL     1       3.355   4.098   6.076  1.00  0.00     0.038 C 
BRANCH  74  75
ATOM     75  C   UNL     1       4.052   5.059   5.154  1.00  0.00    -0.030 A 
ATOM     76  C   UNL     1       3.442   6.245   4.737  1.00  0.00     0.007 A 
ATOM     77  C   UNL     1       5.336   4.805   4.678  1.00  0.00     0.114 A 
ATOM     78  C   UNL     1       4.100   7.090   3.848  1.00  0.00     0.020 A 
ATOM     79  N   UNL     1       6.004   5.614   3.821  1.00  0.00    -0.264 NA
ATOM     80  C   UNL     1       5.367   6.734   3.419  1.00  0.00     0.111 A 
ENDBRANCH  74  75
ENDBRANCH  73  74
ENDBRANCH  65  73
ENDBRANCH  63  65
ENDBRANCH  62  63
ENDBRANCH  61  62
ENDBRANCH  60  61
ENDBRANCH  59  60
ENDBRANCH   1  59
TORSDOF 20
