REMARK SMILES CC(C)CCOCC[N@@H+]1[C@@H](C(=O)OCCOCCOCCOC(=O)c2ccc(-c3c4nc(c(-c5ccccc5)c5ccc([nH]5)c(-c5ccccc5)c5nc(c(-c6ccccc6)c6ccc3[nH]6)C=C5)C=C4)cc2)CC[C@H]2CCCC[C@H]21
REMARK SMILES IDX 15 1 14 2 13 3 11 4 12 5 10 6 9 7 80 8 73 10 75 11 79 12
REMARK SMILES IDX 74 13 76 14 78 15 77 16 8 17 7 18 6 19 5 20 4 21 2 22 1 23
REMARK SMILES IDX 3 24 16 25 17 26 18 27 19 28 20 29 21 30 22 31 23 32 24 33
REMARK SMILES IDX 25 34 26 35 72 36 27 37 71 38 28 39 29 40 30 41 65 42 31 43
REMARK SMILES IDX 70 44 64 45 66 46 32 47 69 48 63 49 62 50 33 52 55 53 40 54
REMARK SMILES IDX 54 55 41 56 44 57 53 58 67 59 42 60 43 61 52 63 68 64 45 65
REMARK SMILES IDX 34 66 35 67 39 68 36 69 38 70 37 71 56 72 57 73 61 74 58 75
REMARK SMILES IDX 60 76 59 77 46 78 47 79 51 80 48 81 50 82 49 83
REMARK H PARENT 9 9 66 51 44 62
REMARK Flexibility Score: inf
ROOT
ATOM      1  C   UNL     1       3.417   2.991   0.002  1.00  0.00     0.202 C 
ENDROOT
BRANCH   1   2
ATOM      2  C   UNL     1       3.399   1.847   1.093  1.00  0.00     0.261 C 
BRANCH   2   3
ATOM      3  O   UNL     1       2.382   0.828   0.866  1.00  0.00    -0.459 OA
BRANCH   3   4
ATOM      4  C   UNL     1       2.418  -0.433   1.422  1.00  0.00     0.364 C 
ATOM      5  O   UNL     1       3.362  -0.876   2.060  1.00  0.00    -0.245 OA
BRANCH   4   6
ATOM      6  C   UNL     1       1.039  -1.151   1.165  1.00  0.00     0.295 C 
ATOM      7  N   UNL     1       0.421  -1.717   2.392  1.00  0.00    -0.319 N 
ATOM      8  C   UNL     1      -0.262  -3.058   2.314  1.00  0.00     0.187 C 
ATOM      9  H   UNL     1       1.246  -1.941   2.948  1.00  0.00     0.349 HD
ATOM     10  C   UNL     1       0.960  -2.050  -0.063  1.00  0.00     0.078 C 
ATOM     11  C   UNL     1      -0.681  -3.627   0.923  1.00  0.00     0.048 C 
ATOM     12  C   UNL     1       0.480  -4.156   3.103  1.00  0.00     0.065 C 
ATOM     13  C   UNL     1      -0.462  -2.609  -0.177  1.00  0.00     0.016 C 
ATOM     14  C   UNL     1      -0.042  -4.975   0.516  1.00  0.00     0.010 C 
ATOM     15  C   UNL     1       1.691  -4.732   2.378  1.00  0.00     0.006 C 
ATOM     16  C   UNL     1       1.406  -5.172   0.945  1.00  0.00     0.001 C 
BRANCH   7  17
ATOM     17  C   UNL     1      -0.441  -0.702   3.094  1.00  0.00     0.291 C 
BRANCH  17  18
ATOM     18  C   UNL     1      -0.241   0.840   2.878  1.00  0.00     0.221 C 
BRANCH  18  19
ATOM     19  O   UNL     1      -0.825   1.599   1.804  1.00  0.00    -0.376 OA
BRANCH  19  20
ATOM     20  C   UNL     1      -1.648   1.049   0.779  1.00  0.00     0.160 C 
BRANCH  20  21
ATOM     21  C   UNL     1      -1.258   1.612  -0.640  1.00  0.00     0.031 C 
BRANCH  21  22
ATOM     22  C   UNL     1      -0.241   0.745  -1.427  1.00  0.00    -0.015 C 
ATOM     23  C   UNL     1      -0.575   0.278  -2.832  1.00  0.00     0.007 C 
ATOM     24  C   UNL     1       1.161   1.294  -1.480  1.00  0.00     0.007 C 
ENDBRANCH  21  22
ENDBRANCH  20  21
ENDBRANCH  19  20
ENDBRANCH  18  19
ENDBRANCH  17  18
ENDBRANCH   7  17
ENDBRANCH   4   6
ENDBRANCH   3   4
ENDBRANCH   2   3
ENDBRANCH   1   2
BRANCH   1  25
ATOM     25  O   UNL     1       2.214   3.794  -0.062  1.00  0.00    -0.376 OA
BRANCH  25  26
ATOM     26  C   UNL     1       2.179   4.753  -1.149  1.00  0.00     0.188 C 
BRANCH  26  27
ATOM     27  C   UNL     1       0.917   4.678  -2.056  1.00  0.00     0.188 C 
BRANCH  27  28
ATOM     28  O   UNL     1       0.946   3.723  -3.121  1.00  0.00    -0.376 OA
BRANCH  28  29
ATOM     29  C   UNL     1       1.781   3.986  -4.246  1.00  0.00     0.202 C 
BRANCH  29  30
ATOM     30  C   UNL     1       1.087   4.714  -5.412  1.00  0.00     0.261 C 
BRANCH  30  31
ATOM     31  O   UNL     1      -0.148   5.302  -4.997  1.00  0.00    -0.460 OA
BRANCH  31  32
ATOM     32  C   UNL     1      -1.185   4.425  -5.018  1.00  0.00     0.338 C 
ATOM     33  O   UNL     1      -1.283   3.417  -5.668  1.00  0.00    -0.246 OA
BRANCH  32  34
ATOM     34  C   UNL     1      -2.138   4.822  -3.942  1.00  0.00     0.060 A 
ATOM     35  C   UNL     1      -2.881   3.811  -3.328  1.00  0.00     0.016 A 
ATOM     36  C   UNL     1      -2.261   6.148  -3.520  1.00  0.00     0.016 A 
ATOM     37  C   UNL     1      -3.780   4.127  -2.310  1.00  0.00     0.010 A 
ATOM     38  C   UNL     1      -3.159   6.467  -2.503  1.00  0.00     0.010 A 
ATOM     39  C   UNL     1      -3.950   5.462  -1.921  1.00  0.00    -0.014 A 
BRANCH  39  40
ATOM     40  C   UNL     1      -5.136   5.861  -1.133  1.00  0.00     0.031 A 
ATOM     41  C   UNL     1      -6.378   6.226  -1.899  1.00  0.00     0.074 A 
ATOM     42  C   UNL     1      -5.120   5.931   0.208  1.00  0.00     0.049 A 
ATOM     43  N   UNL     1      -7.522   6.682  -1.459  1.00  0.00    -0.248 NA
ATOM     44  C   UNL     1      -6.315   6.056  -3.361  1.00  0.00     0.031 C 
ATOM     45  C   UNL     1      -4.001   5.563   1.073  1.00  0.00     0.029 A 
ATOM     46  N   UNL     1      -6.095   6.358   1.076  1.00  0.00    -0.354 N 
ATOM     47  C   UNL     1      -8.312   6.846  -2.589  1.00  0.00     0.074 A 
ATOM     48  C   UNL     1      -7.514   6.471  -3.733  1.00  0.00     0.031 C 
ATOM     49  C   UNL     1      -4.349   5.796   2.353  1.00  0.00     0.029 A 
ATOM     50  C   UNL     1      -5.700   6.356   2.391  1.00  0.00     0.049 A 
ATOM     51  H   UNL     1      -6.991   6.639   0.783  1.00  0.00     0.167 HD
ATOM     52  C   UNL     1      -9.593   7.274  -2.673  1.00  0.00     0.031 A 
ATOM     53  C   UNL     1      -6.353   6.782   3.490  1.00  0.00     0.031 A 
ATOM     54  C   UNL     1     -10.380   7.695  -1.552  1.00  0.00     0.049 A 
ATOM     55  C   UNL     1      -7.741   7.359   3.358  1.00  0.00     0.074 A 
ATOM     56  C   UNL     1     -11.682   8.162  -1.539  1.00  0.00     0.029 A 
ATOM     57  N   UNL     1      -9.929   7.716  -0.242  1.00  0.00    -0.354 N 
ATOM     58  N   UNL     1      -8.490   7.487   2.290  1.00  0.00    -0.248 NA
ATOM     59  C   UNL     1      -8.372   7.851   4.593  1.00  0.00     0.031 C 
ATOM     60  C   UNL     1     -12.003   8.514  -0.223  1.00  0.00     0.029 A 
ATOM     61  C   UNL     1     -10.918   8.215   0.586  1.00  0.00     0.049 A 
ATOM     62  H   UNL     1      -9.039   7.420   0.054  1.00  0.00     0.167 HD
ATOM     63  C   UNL     1      -9.686   8.045   2.728  1.00  0.00     0.074 A 
ATOM     64  C   UNL     1      -9.569   8.222   4.159  1.00  0.00     0.031 C 
ATOM     65  C   UNL     1     -10.786   8.380   2.009  1.00  0.00     0.031 A 
BRANCH  52  66
ATOM     66  C   UNL     1     -10.190   7.343  -4.046  1.00  0.00    -0.014 A 
ATOM     67  C   UNL     1     -10.557   6.176  -4.735  1.00  0.00     0.009 A 
ATOM     68  C   UNL     1     -10.371   8.589  -4.664  1.00  0.00     0.009 A 
ATOM     69  C   UNL     1     -11.063   6.256  -6.033  1.00  0.00     0.001 A 
ATOM     70  C   UNL     1     -10.899   8.666  -5.953  1.00  0.00     0.001 A 
ATOM     71  C   UNL     1     -11.236   7.500  -6.639  1.00  0.00     0.000 A 
ENDBRANCH  52  66
BRANCH  53  72
ATOM     72  C   UNL     1      -5.703   6.716   4.826  1.00  0.00    -0.014 A 
ATOM     73  C   UNL     1      -6.173   5.827   5.804  1.00  0.00     0.009 A 
ATOM     74  C   UNL     1      -4.650   7.585   5.149  1.00  0.00     0.009 A 
ATOM     75  C   UNL     1      -5.624   5.833   7.089  1.00  0.00     0.001 A 
ATOM     76  C   UNL     1      -4.086   7.571   6.426  1.00  0.00     0.001 A 
ATOM     77  C   UNL     1      -4.581   6.704   7.399  1.00  0.00     0.000 A 
ENDBRANCH  53  72
BRANCH  65  78
ATOM     78  C   UNL     1     -11.964   8.934   2.759  1.00  0.00    -0.014 A 
ATOM     79  C   UNL     1     -11.958  10.243   3.263  1.00  0.00     0.009 A 
ATOM     80  C   UNL     1     -13.121   8.152   2.908  1.00  0.00     0.009 A 
ATOM     81  C   UNL     1     -13.079  10.749   3.926  1.00  0.00     0.001 A 
ATOM     82  C   UNL     1     -14.248   8.669   3.548  1.00  0.00     0.001 A 
ATOM     83  C   UNL     1     -14.224   9.964   4.063  1.00  0.00     0.000 A 
ENDBRANCH  65  78
ENDBRANCH  39  40
ENDBRANCH  32  34
ENDBRANCH  31  32
ENDBRANCH  30  31
ENDBRANCH  29  30
ENDBRANCH  28  29
ENDBRANCH  27  28
ENDBRANCH  26  27
ENDBRANCH  25  26
ENDBRANCH   1  25
TORSDOF 23
