REMARK SMILES C[C@H](Oc1ccc(-c2ccccc2)cc1)C(=O)N[C@H](C)C(=O)OCCOCCOCCOC(=O)c1ccc(-c2c3nc(c(-c4ccccc4)c4ccc([nH]4)c(-c4ccccc4)c4nc(c(-c5ccccc5)c5ccc2[nH]5)C=C4)C=C3)cc1
REMARK SMILES IDX 26 1 25 2 24 3 23 4 21 5 22 6 19 7 20 8 18 9 16 10 17 11
REMARK SMILES IDX 2 13 1 14 3 15 4 16 5 17 15 18 6 19 14 20 7 21 8 22 9 23
REMARK SMILES IDX 13 24 10 25 12 26 11 27 27 28 28 29 29 30 30 31 31 32 32 33
REMARK SMILES IDX 33 34 34 35 35 36 36 37 82 38 37 39 81 40 38 41 39 42 40 43
REMARK SMILES IDX 75 44 41 45 80 46 74 47 76 48 42 49 79 50 73 51 72 52 43 54
REMARK SMILES IDX 65 55 50 56 64 57 51 58 54 59 63 60 77 61 52 62 53 63 62 65
REMARK SMILES IDX 78 66 55 67 44 68 45 69 49 70 46 71 48 72 47 73 66 74 67 75
REMARK SMILES IDX 71 76 68 77 70 78 69 79 56 80 57 81 61 82 58 83 60 84 59 85
REMARK H PARENT 18 12 76 53 54 64
REMARK Flexibility Score: inf
ROOT
ATOM      1  O   UNL     1      -0.523   0.959  -6.496  1.00  0.00    -0.376 OA
ENDROOT
BRANCH   1   2
ATOM      2  C   UNL     1      -1.746   0.289  -6.770  1.00  0.00     0.202 C 
BRANCH   2   3
ATOM      3  C   UNL     1      -1.901  -1.077  -6.085  1.00  0.00     0.261 C 
BRANCH   3   4
ATOM      4  O   UNL     1      -2.064  -1.053  -4.649  1.00  0.00    -0.462 OA
BRANCH   4   5
ATOM      5  C   UNL     1      -0.914  -1.149  -3.935  1.00  0.00     0.328 C 
ATOM      6  O   UNL     1       0.210  -1.110  -4.429  1.00  0.00    -0.250 OA
BRANCH   5   7
ATOM      7  C   UNL     1      -1.114  -1.219  -2.408  1.00  0.00     0.189 C 
ATOM      8  C   UNL     1      -0.604   0.059  -1.757  1.00  0.00     0.043 C 
BRANCH   7   9
ATOM      9  N   UNL     1      -2.347  -1.789  -1.824  1.00  0.00    -0.340 N 
ATOM     10  C   UNL     1      -3.560  -1.398  -1.360  1.00  0.00     0.261 C 
ATOM     11  O   UNL     1      -4.248  -2.312  -0.880  1.00  0.00    -0.271 OA
ATOM     12  H   UNL     1      -2.259  -2.767  -1.748  1.00  0.00     0.164 HD
BRANCH  10  13
ATOM     13  C   UNL     1      -4.158   0.018  -1.445  1.00  0.00     0.258 C 
ATOM     14  C   UNL     1      -4.495   0.278  -2.906  1.00  0.00     0.064 C 
BRANCH  13  15
ATOM     15  O   UNL     1      -3.293   0.921  -0.771  1.00  0.00    -0.481 OA
BRANCH  15  16
ATOM     16  C   UNL     1      -3.512   2.261  -0.673  1.00  0.00     0.120 A 
ATOM     17  C   UNL     1      -4.496   3.016  -1.288  1.00  0.00     0.047 A 
ATOM     18  C   UNL     1      -2.553   2.939   0.078  1.00  0.00     0.047 A 
ATOM     19  C   UNL     1      -4.391   4.424  -1.329  1.00  0.00     0.012 A 
ATOM     20  C   UNL     1      -2.471   4.340   0.067  1.00  0.00     0.012 A 
ATOM     21  C   UNL     1      -3.318   5.123  -0.737  1.00  0.00    -0.018 A 
BRANCH  21  22
ATOM     22  C   UNL     1      -2.954   6.535  -1.133  1.00  0.00    -0.018 A 
ATOM     23  C   UNL     1      -3.756   7.303  -2.004  1.00  0.00     0.009 A 
ATOM     24  C   UNL     1      -1.664   7.060  -0.874  1.00  0.00     0.009 A 
ATOM     25  C   UNL     1      -3.268   8.453  -2.648  1.00  0.00     0.001 A 
ATOM     26  C   UNL     1      -1.173   8.207  -1.516  1.00  0.00     0.001 A 
ATOM     27  C   UNL     1      -1.969   8.891  -2.422  1.00  0.00     0.000 A 
ENDBRANCH  21  22
ENDBRANCH  15  16
ENDBRANCH  13  15
ENDBRANCH  10  13
ENDBRANCH   7   9
ENDBRANCH   5   7
ENDBRANCH   4   5
ENDBRANCH   3   4
ENDBRANCH   2   3
ENDBRANCH   1   2
BRANCH   1  28
ATOM     28  C   UNL     1      -0.450   1.914  -5.435  1.00  0.00     0.188 C 
BRANCH  28  29
ATOM     29  C   UNL     1      -1.709   2.209  -4.627  1.00  0.00     0.188 C 
BRANCH  29  30
ATOM     30  O   UNL     1      -2.753   2.730  -5.445  1.00  0.00    -0.376 OA
BRANCH  30  31
ATOM     31  C   UNL     1      -3.258   4.002  -5.064  1.00  0.00     0.202 C 
BRANCH  31  32
ATOM     32  C   UNL     1      -2.448   5.154  -5.681  1.00  0.00     0.261 C 
BRANCH  32  33
ATOM     33  O   UNL     1      -1.050   5.219  -5.333  1.00  0.00    -0.460 OA
BRANCH  33  34
ATOM     34  C   UNL     1      -0.785   5.222  -4.016  1.00  0.00     0.338 C 
ATOM     35  O   UNL     1      -1.608   5.126  -3.120  1.00  0.00    -0.246 OA
BRANCH  34  36
ATOM     36  C   UNL     1       0.643   5.141  -3.727  1.00  0.00     0.060 A 
ATOM     37  C   UNL     1       1.051   4.283  -2.693  1.00  0.00     0.016 A 
ATOM     38  C   UNL     1       1.559   5.933  -4.415  1.00  0.00     0.016 A 
ATOM     39  C   UNL     1       2.392   4.215  -2.341  1.00  0.00     0.010 A 
ATOM     40  C   UNL     1       2.901   5.866  -4.057  1.00  0.00     0.010 A 
ATOM     41  C   UNL     1       3.317   5.016  -3.017  1.00  0.00    -0.014 A 
BRANCH  41  42
ATOM     42  C   UNL     1       4.737   5.016  -2.621  1.00  0.00     0.031 A 
ATOM     43  C   UNL     1       5.270   6.155  -1.810  1.00  0.00     0.074 A 
ATOM     44  C   UNL     1       5.538   4.026  -3.047  1.00  0.00     0.049 A 
ATOM     45  N   UNL     1       6.506   6.436  -1.494  1.00  0.00    -0.248 NA
ATOM     46  C   UNL     1       4.277   7.111  -1.295  1.00  0.00     0.031 C 
ATOM     47  C   UNL     1       5.101   2.849  -3.798  1.00  0.00     0.029 A 
ATOM     48  N   UNL     1       6.892   3.869  -2.924  1.00  0.00    -0.354 N 
ATOM     49  C   UNL     1       6.446   7.618  -0.769  1.00  0.00     0.074 A 
ATOM     50  C   UNL     1       5.053   8.004  -0.698  1.00  0.00     0.031 C 
ATOM     51  C   UNL     1       6.174   2.091  -4.078  1.00  0.00     0.029 A 
ATOM     52  C   UNL     1       7.370   2.758  -3.572  1.00  0.00     0.049 A 
ATOM     53  H   UNL     1       7.465   4.490  -2.420  1.00  0.00     0.167 HD
ATOM     54  C   UNL     1       7.468   8.319  -0.224  1.00  0.00     0.031 A 
ATOM     55  C   UNL     1       8.636   2.349  -3.762  1.00  0.00     0.031 A 
ATOM     56  C   UNL     1       8.849   7.927  -0.324  1.00  0.00     0.049 A 
ATOM     57  C   UNL     1       9.758   3.187  -3.216  1.00  0.00     0.074 A 
ATOM     58  C   UNL     1       9.965   8.549   0.206  1.00  0.00     0.029 A 
ATOM     59  N   UNL     1       9.301   6.811  -1.013  1.00  0.00    -0.354 N 
ATOM     60  N   UNL     1       9.696   4.299  -2.522  1.00  0.00    -0.248 NA
ATOM     61  C   UNL     1      11.122   2.716  -3.485  1.00  0.00     0.031 C 
ATOM     62  C   UNL     1      11.097   7.838  -0.210  1.00  0.00     0.029 A 
ATOM     63  C   UNL     1      10.682   6.741  -0.949  1.00  0.00     0.049 A 
ATOM     64  H   UNL     1       8.724   6.163  -1.479  1.00  0.00     0.167 HD
ATOM     65  C   UNL     1      11.011   4.646  -2.245  1.00  0.00     0.074 A 
ATOM     66  C   UNL     1      11.847   3.621  -2.841  1.00  0.00     0.031 C 
ATOM     67  C   UNL     1      11.488   5.712  -1.557  1.00  0.00     0.031 A 
BRANCH  54  68
ATOM     68  C   UNL     1       7.124   9.608   0.469  1.00  0.00    -0.014 A 
ATOM     69  C   UNL     1       6.438   9.625   1.694  1.00  0.00     0.009 A 
ATOM     70  C   UNL     1       7.489  10.828  -0.120  1.00  0.00     0.009 A 
ATOM     71  C   UNL     1       6.088  10.839   2.292  1.00  0.00     0.001 A 
ATOM     72  C   UNL     1       7.164  12.039   0.493  1.00  0.00     0.001 A 
ATOM     73  C   UNL     1       6.453  12.044   1.692  1.00  0.00     0.000 A 
ENDBRANCH  54  68
BRANCH  55  74
ATOM     74  C   UNL     1       8.906   1.095  -4.510  1.00  0.00    -0.014 A 
ATOM     75  C   UNL     1       9.378  -0.040  -3.836  1.00  0.00     0.009 A 
ATOM     76  C   UNL     1       8.675   1.018  -5.893  1.00  0.00     0.009 A 
ATOM     77  C   UNL     1       9.627  -1.224  -4.533  1.00  0.00     0.001 A 
ATOM     78  C   UNL     1       8.899  -0.175  -6.583  1.00  0.00     0.001 A 
ATOM     79  C   UNL     1       9.382  -1.293  -5.904  1.00  0.00     0.000 A 
ENDBRANCH  55  74
BRANCH  67  80
ATOM     80  C   UNL     1      12.977   5.796  -1.381  1.00  0.00    -0.014 A 
ATOM     81  C   UNL     1      13.819   6.149  -2.446  1.00  0.00     0.009 A 
ATOM     82  C   UNL     1      13.539   5.548  -0.118  1.00  0.00     0.009 A 
ATOM     83  C   UNL     1      15.201   6.218  -2.257  1.00  0.00     0.001 A 
ATOM     84  C   UNL     1      14.917   5.646   0.074  1.00  0.00     0.001 A 
ATOM     85  C   UNL     1      15.747   5.972  -0.997  1.00  0.00     0.000 A 
ENDBRANCH  67  80
ENDBRANCH  41  42
ENDBRANCH  34  36
ENDBRANCH  33  34
ENDBRANCH  32  33
ENDBRANCH  31  32
ENDBRANCH  30  31
ENDBRANCH  29  30
ENDBRANCH  28  29
ENDBRANCH   1  28
TORSDOF 22
