REMARK SMILES Cc1ccc(NC(=O)C[C@@H](C(=O)OCCOCCOCCOC(=O)c2ccc(-c3c4nc(c(-c5ccccc5)c5ccc([nH]5)c(-c5ccccc5)c5nc(c(-c6ccccc6)c6ccc3[nH]6)C=C5)C=C4)cc2)[NH+]2CCOCC2)cc1
REMARK SMILES IDX 17 1 16 2 15 3 14 4 13 5 11 6 12 7 10 8 9 9 7 10 6 11 8 13
REMARK SMILES IDX 5 14 1 15 2 16 3 17 80 18 4 19 79 20 73 21 74 22 78 23 75 25
REMARK SMILES IDX 77 26 76 27 18 28 19 29 20 30 21 31 22 32 23 33 24 34 25 35
REMARK SMILES IDX 26 36 72 37 27 38 71 39 28 40 29 41 30 42 65 43 31 44 70 45
REMARK SMILES IDX 64 46 66 47 32 48 69 49 63 50 62 51 33 53 55 54 40 55 54 56
REMARK SMILES IDX 41 57 44 58 53 59 67 60 42 61 43 62 52 64 68 65 45 66 34 67
REMARK SMILES IDX 35 68 39 69 36 70 38 71 37 72 56 73 57 74 61 75 58 76 60 77
REMARK SMILES IDX 59 78 46 79 47 80 51 81 48 82 50 83 49 84
REMARK H PARENT 6 12 73 24 66 52 44 63
REMARK Flexibility Score: inf
ROOT
ATOM      1  C   UNL     1       1.197   0.438   1.812  1.00  0.00     0.188 C 
ENDROOT
BRANCH   1   2
ATOM      2  O   UNL     1       0.799   1.793   1.417  1.00  0.00    -0.376 OA
BRANCH   2   3
ATOM      3  C   UNL     1      -0.460   2.232   0.314  1.00  0.00     0.202 C 
BRANCH   3   4
ATOM      4  C   UNL     1      -0.758   1.643  -1.818  1.00  0.00     0.261 C 
BRANCH   4   5
ATOM      5  O   UNL     1      -1.133   0.121  -2.898  1.00  0.00    -0.459 OA
BRANCH   5   6
ATOM      6  C   UNL     1      -1.670  -1.393  -3.509  1.00  0.00     0.365 C 
ATOM      7  O   UNL     1      -1.532  -1.728  -4.686  1.00  0.00    -0.245 OA
BRANCH   6   8
ATOM      8  C   UNL     1      -2.648  -2.726  -2.552  1.00  0.00     0.304 C 
BRANCH   8   9
ATOM      9  C   UNL     1      -3.756  -2.388  -1.085  1.00  0.00     0.177 C 
BRANCH   9  10
ATOM     10  C   UNL     1      -4.309  -0.765  -0.274  1.00  0.00     0.231 C 
ATOM     11  N   UNL     1      -3.680   0.620  -0.188  1.00  0.00    -0.326 N 
ATOM     12  H   UNL     1      -4.363   1.289   0.050  1.00  0.00     0.169 HD
ATOM     13  O   UNL     1      -5.461  -0.809   0.209  1.00  0.00    -0.274 OA
BRANCH  11  14
ATOM     14  C   UNL     1      -2.298   1.305  -0.358  1.00  0.00     0.041 A 
ATOM     15  C   UNL     1       2.414   3.245  -0.719  1.00  0.00     0.044 C 
ATOM     16  C   UNL     1       1.020   2.784  -1.097  1.00  0.00    -0.051 A 
ATOM     17  C   UNL     1       0.881   1.101  -0.703  1.00  0.00     0.005 A 
ATOM     18  C   UNL     1      -0.474   3.739  -1.201  1.00  0.00     0.005 A 
ATOM     19  C   UNL     1      -0.741   0.425  -0.209  1.00  0.00     0.026 A 
ATOM     20  C   UNL     1      -2.099   3.029  -0.786  1.00  0.00     0.026 A 
ENDBRANCH  11  14
ENDBRANCH   9  10
ENDBRANCH   8   9
BRANCH   8  21
ATOM     21  N   UNL     1      -1.705  -3.930  -2.390  1.00  0.00    -0.319 N 
ATOM     22  C   UNL     1      -0.871  -4.326  -3.544  1.00  0.00     0.291 C 
ATOM     23  C   UNL     1      -2.074  -5.147  -1.658  1.00  0.00     0.291 C 
ATOM     24  H   UNL     1      -1.179  -3.380  -1.711  1.00  0.00     0.348 HD
ATOM     25  C   UNL     1      -1.519  -5.418  -4.392  1.00  0.00     0.221 C 
ATOM     26  C   UNL     1      -2.365  -6.445  -2.458  1.00  0.00     0.221 C 
ATOM     27  O   UNL     1      -1.560  -6.624  -3.626  1.00  0.00    -0.370 OA
ENDBRANCH   8  21
ENDBRANCH   6   8
ENDBRANCH   5   6
ENDBRANCH   4   5
ENDBRANCH   3   4
ENDBRANCH   2   3
ENDBRANCH   1   2
BRANCH   1  28
ATOM     28  C   UNL     1       0.401  -0.250   2.884  1.00  0.00     0.188 C 
BRANCH  28  29
ATOM     29  O   UNL     1      -0.906   0.271   2.909  1.00  0.00    -0.376 OA
BRANCH  29  30
ATOM     30  C   UNL     1      -1.181   1.002   4.085  1.00  0.00     0.202 C 
BRANCH  30  31
ATOM     31  C   UNL     1      -1.249   0.040   5.286  1.00  0.00     0.261 C 
BRANCH  31  32
ATOM     32  O   UNL     1      -2.097  -1.104   4.969  1.00  0.00    -0.460 OA
BRANCH  32  33
ATOM     33  C   UNL     1      -1.492  -2.273   4.558  1.00  0.00     0.338 C 
ATOM     34  O   UNL     1      -0.493  -2.757   5.065  1.00  0.00    -0.246 OA
BRANCH  33  35
ATOM     35  C   UNL     1      -2.014  -2.704   3.199  1.00  0.00     0.060 A 
ATOM     36  C   UNL     1      -1.258  -3.514   2.317  1.00  0.00     0.016 A 
ATOM     37  C   UNL     1      -2.887  -1.835   2.632  1.00  0.00     0.016 A 
ATOM     38  C   UNL     1      -1.168  -3.224   0.899  1.00  0.00     0.010 A 
ATOM     39  C   UNL     1      -2.538  -1.432   1.354  1.00  0.00     0.010 A 
ATOM     40  C   UNL     1      -1.766  -2.077   0.356  1.00  0.00    -0.014 A 
BRANCH  40  41
ATOM     41  C   UNL     1      -1.567  -1.339  -1.230  1.00  0.00     0.031 A 
ATOM     42  C   UNL     1      -3.041  -0.371  -2.216  1.00  0.00     0.074 A 
ATOM     43  C   UNL     1      -0.075  -1.448  -1.633  1.00  0.00     0.049 A 
ATOM     44  N   UNL     1      -2.995   0.795  -2.921  1.00  0.00    -0.248 NA
ATOM     45  C   UNL     1      -4.499  -0.806  -2.741  1.00  0.00     0.031 C 
ATOM     46  C   UNL     1       0.793  -0.649  -2.734  1.00  0.00     0.029 A 
ATOM     47  N   UNL     1       1.042  -2.035  -1.054  1.00  0.00    -0.354 N 
ATOM     48  C   UNL     1      -3.817   0.873  -4.022  1.00  0.00     0.074 A 
ATOM     49  C   UNL     1      -4.925   0.095  -3.619  1.00  0.00     0.031 C 
ATOM     50  C   UNL     1       2.103  -0.635  -2.551  1.00  0.00     0.029 A 
ATOM     51  C   UNL     1       2.262  -1.774  -1.747  1.00  0.00     0.049 A 
ATOM     52  H   UNL     1       0.997  -2.583  -0.238  1.00  0.00     0.167 HD
ATOM     53  C   UNL     1      -3.471   1.136  -5.333  1.00  0.00     0.031 A 
ATOM     54  C   UNL     1       3.019  -2.741  -2.317  1.00  0.00     0.031 A 
ATOM     55  C   UNL     1      -2.030   1.028  -5.733  1.00  0.00     0.049 A 
ATOM     56  C   UNL     1       2.677  -2.828  -3.863  1.00  0.00     0.074 A 
ATOM     57  C   UNL     1      -0.919   1.853  -5.673  1.00  0.00     0.029 A 
ATOM     58  N   UNL     1      -1.504  -0.163  -6.288  1.00  0.00    -0.354 N 
ATOM     59  N   UNL     1       1.577  -2.303  -4.401  1.00  0.00    -0.248 NA
ATOM     60  C   UNL     1       3.592  -3.220  -4.930  1.00  0.00     0.031 C 
ATOM     61  C   UNL     1       0.271   1.079  -5.976  1.00  0.00     0.029 A 
ATOM     62  C   UNL     1      -0.071  -0.244  -6.249  1.00  0.00     0.049 A 
ATOM     63  H   UNL     1      -2.071  -0.873  -6.668  1.00  0.00     0.167 HD
ATOM     64  C   UNL     1       1.657  -2.131  -5.763  1.00  0.00     0.074 A 
ATOM     65  C   UNL     1       2.940  -2.796  -6.039  1.00  0.00     0.031 C 
ATOM     66  C   UNL     1       0.716  -1.526  -6.605  1.00  0.00     0.031 A 
BRANCH  53  67
ATOM     67  C   UNL     1      -4.550   1.793  -6.225  1.00  0.00    -0.014 A 
ATOM     68  C   UNL     1      -4.149   2.720  -7.201  1.00  0.00     0.009 A 
ATOM     69  C   UNL     1      -5.952   1.689  -6.061  1.00  0.00     0.009 A 
ATOM     70  C   UNL     1      -5.071   3.542  -7.881  1.00  0.00     0.001 A 
ATOM     71  C   UNL     1      -6.878   2.524  -6.707  1.00  0.00     0.001 A 
ATOM     72  C   UNL     1      -6.433   3.467  -7.611  1.00  0.00     0.000 A 
ENDBRANCH  53  67
BRANCH  54  73
ATOM     73  C   UNL     1       3.508  -3.507  -1.124  1.00  0.00    -0.014 A 
ATOM     74  C   UNL     1       4.268  -2.697  -0.201  1.00  0.00     0.009 A 
ATOM     75  C   UNL     1       2.627  -4.440  -0.553  1.00  0.00     0.009 A 
ATOM     76  C   UNL     1       3.935  -2.625   1.167  1.00  0.00     0.001 A 
ATOM     77  C   UNL     1       2.330  -4.383   0.829  1.00  0.00     0.001 A 
ATOM     78  C   UNL     1       2.933  -3.442   1.671  1.00  0.00     0.000 A 
ENDBRANCH  54  73
BRANCH  66  79
ATOM     79  C   UNL     1       0.414  -2.221  -7.944  1.00  0.00    -0.014 A 
ATOM     80  C   UNL     1       0.980  -3.449  -8.339  1.00  0.00     0.009 A 
ATOM     81  C   UNL     1      -0.599  -1.731  -8.794  1.00  0.00     0.009 A 
ATOM     82  C   UNL     1       0.629  -4.096  -9.531  1.00  0.00     0.001 A 
ATOM     83  C   UNL     1      -1.016  -2.415  -9.944  1.00  0.00     0.001 A 
ATOM     84  C   UNL     1      -0.381  -3.585 -10.329  1.00  0.00     0.000 A 
ENDBRANCH  66  79
ENDBRANCH  40  41
ENDBRANCH  33  35
ENDBRANCH  32  33
ENDBRANCH  31  32
ENDBRANCH  30  31
ENDBRANCH  29  30
ENDBRANCH  28  29
ENDBRANCH   1  28
TORSDOF 21
