REMARK SMILES O=C(OCCOCCOCCOC(=O)[C@H]1[NH2+]CC[C@H]1c1cccc(Oc2ccccc2)c1)c1ccc(-c2c3nc(c(-c4ccccc4)c4ccc([nH]4)c(-c4ccccc4)c4nc(c(-c5ccccc5)c5ccc2[nH]5)C=C4)C=C3)cc1
REMARK SMILES IDX 8 1 7 2 6 3 5 4 4 5 3 6 2 7 1 8 33 9 34 10 80 11 35 12 79 13
REMARK SMILES IDX 36 14 37 15 38 16 73 17 39 18 78 19 72 20 74 21 40 22 77 23
REMARK SMILES IDX 71 24 70 25 41 27 63 28 48 29 62 30 49 31 52 32 61 33 75 34
REMARK SMILES IDX 50 35 51 36 60 38 76 39 53 40 42 41 43 42 47 43 44 44 46 45
REMARK SMILES IDX 45 46 64 47 65 48 69 49 66 50 68 51 67 52 54 53 55 54 59 55
REMARK SMILES IDX 56 56 58 57 57 58 9 59 10 60 11 61 12 62 13 63 14 64 15 65
REMARK SMILES IDX 16 66 19 67 17 68 18 71 20 72 21 73 32 74 22 75 24 76 23 77
REMARK SMILES IDX 25 78 26 79 27 80 31 81 28 82 30 83 29 84
REMARK H PARENT 74 26 52 37 16 69 16 70
REMARK Flexibility Score: inf
ROOT
ATOM      1  C   UNL     1       2.836  -3.552  -1.584  1.00  0.00     0.188 C 
ENDROOT
BRANCH   1   2
ATOM      2  C   UNL     1       3.775  -2.837  -0.551  1.00  0.00     0.188 C 
BRANCH   2   3
ATOM      3  O   UNL     1       4.892  -1.476  -0.620  1.00  0.00    -0.376 OA
BRANCH   3   4
ATOM      4  C   UNL     1       5.306  -0.257   0.743  1.00  0.00     0.202 C 
BRANCH   4   5
ATOM      5  C   UNL     1       4.057   0.260   2.121  1.00  0.00     0.261 C 
BRANCH   5   6
ATOM      6  O   UNL     1       2.270   0.192   1.688  1.00  0.00    -0.460 OA
BRANCH   6   7
ATOM      7  C   UNL     1       1.570   0.428   0.073  1.00  0.00     0.338 C 
ATOM      8  O   UNL     1       0.444  -0.094   0.148  1.00  0.00    -0.246 OA
BRANCH   7   9
ATOM      9  C   UNL     1       2.760   1.475  -1.393  1.00  0.00     0.060 A 
ATOM     10  C   UNL     1       4.138   1.163  -1.941  1.00  0.00     0.016 A 
ATOM     11  C   UNL     1       2.537   2.853  -2.036  1.00  0.00     0.016 A 
ATOM     12  C   UNL     1       4.977   1.876  -2.814  1.00  0.00     0.010 A 
ATOM     13  C   UNL     1       3.325   3.566  -2.949  1.00  0.00     0.010 A 
ATOM     14  C   UNL     1       4.535   3.051  -3.346  1.00  0.00    -0.014 A 
BRANCH  14  15
ATOM     15  C   UNL     1       5.318   3.792  -4.317  1.00  0.00     0.031 A 
ATOM     16  C   UNL     1       5.904   5.070  -3.849  1.00  0.00     0.074 A 
ATOM     17  C   UNL     1       5.265   3.358  -5.584  1.00  0.00     0.049 A 
ATOM     18  N   UNL     1       6.301   6.092  -4.541  1.00  0.00    -0.248 NA
ATOM     19  C   UNL     1       5.996   5.240  -2.386  1.00  0.00     0.031 C 
ATOM     20  C   UNL     1       4.707   2.069  -6.013  1.00  0.00     0.029 A 
ATOM     21  N   UNL     1       5.605   3.979  -6.747  1.00  0.00    -0.354 N 
ATOM     22  C   UNL     1       6.658   7.047  -3.602  1.00  0.00     0.074 A 
ATOM     23  C   UNL     1       6.384   6.501  -2.293  1.00  0.00     0.031 C 
ATOM     24  C   UNL     1       4.670   2.028  -7.352  1.00  0.00     0.029 A 
ATOM     25  C   UNL     1       5.157   3.301  -7.856  1.00  0.00     0.049 A 
ATOM     26  H   UNL     1       6.115   4.820  -6.788  1.00  0.00     0.167 HD
ATOM     27  C   UNL     1       7.168   8.273  -3.849  1.00  0.00     0.031 A 
ATOM     28  C   UNL     1       5.102   3.717  -9.132  1.00  0.00     0.031 A 
ATOM     29  C   UNL     1       7.354   8.735  -5.197  1.00  0.00     0.049 A 
ATOM     30  C   UNL     1       5.650   5.087  -9.395  1.00  0.00     0.074 A 
ATOM     31  C   UNL     1       7.882   9.922  -5.657  1.00  0.00     0.029 A 
ATOM     32  N   UNL     1       6.991   7.988  -6.321  1.00  0.00    -0.354 N 
ATOM     33  N   UNL     1       6.032   5.993  -8.519  1.00  0.00    -0.248 NA
ATOM     34  C   UNL     1       5.810   5.483 -10.793  1.00  0.00     0.031 C 
ATOM     35  C   UNL     1       7.797   9.908  -7.056  1.00  0.00     0.029 A 
ATOM     36  C   UNL     1       7.276   8.686  -7.474  1.00  0.00     0.049 A 
ATOM     37  H   UNL     1       6.589   7.090  -6.293  1.00  0.00     0.167 HD
ATOM     38  C   UNL     1       6.534   7.052  -9.254  1.00  0.00     0.074 A 
ATOM     39  C   UNL     1       6.385   6.673 -10.653  1.00  0.00     0.031 C 
ATOM     40  C   UNL     1       7.088   8.217  -8.831  1.00  0.00     0.031 A 
BRANCH  27  41
ATOM     41  C   UNL     1       7.460   9.137  -2.651  1.00  0.00    -0.014 A 
ATOM     42  C   UNL     1       8.396   8.747  -1.674  1.00  0.00     0.009 A 
ATOM     43  C   UNL     1       6.706  10.298  -2.425  1.00  0.00     0.009 A 
ATOM     44  C   UNL     1       8.504   9.443  -0.466  1.00  0.00     0.001 A 
ATOM     45  C   UNL     1       6.844  11.016  -1.233  1.00  0.00     0.001 A 
ATOM     46  C   UNL     1       7.724  10.575  -0.245  1.00  0.00     0.000 A 
ENDBRANCH  27  41
BRANCH  28  47
ATOM     47  C   UNL     1       4.558   2.808 -10.173  1.00  0.00    -0.014 A 
ATOM     48  C   UNL     1       5.422   2.109 -11.027  1.00  0.00     0.009 A 
ATOM     49  C   UNL     1       3.183   2.515 -10.223  1.00  0.00     0.009 A 
ATOM     50  C   UNL     1       4.926   1.143 -11.910  1.00  0.00     0.001 A 
ATOM     51  C   UNL     1       2.691   1.536 -11.092  1.00  0.00     0.001 A 
ATOM     52  C   UNL     1       3.563   0.851 -11.936  1.00  0.00     0.000 A 
ENDBRANCH  28  47
BRANCH  40  53
ATOM     53  C   UNL     1       7.615   9.118  -9.902  1.00  0.00    -0.014 A 
ATOM     54  C   UNL     1       6.753   9.897 -10.684  1.00  0.00     0.009 A 
ATOM     55  C   UNL     1       9.004   9.260 -10.043  1.00  0.00     0.009 A 
ATOM     56  C   UNL     1       7.278  10.802 -11.603  1.00  0.00     0.001 A 
ATOM     57  C   UNL     1       9.525  10.188 -10.939  1.00  0.00     0.001 A 
ATOM     58  C   UNL     1       8.661  10.955 -11.720  1.00  0.00     0.000 A 
ENDBRANCH  40  53
ENDBRANCH  14  15
ENDBRANCH   7   9
ENDBRANCH   6   7
ENDBRANCH   5   6
ENDBRANCH   4   5
ENDBRANCH   3   4
ENDBRANCH   2   3
ENDBRANCH   1   2
BRANCH   1  59
ATOM     59  O   UNL     1       3.393  -4.703  -2.175  1.00  0.00    -0.376 OA
BRANCH  59  60
ATOM     60  C   UNL     1       4.664  -4.437  -2.719  1.00  0.00     0.202 C 
BRANCH  60  61
ATOM     61  C   UNL     1       4.604  -3.659  -4.036  1.00  0.00     0.261 C 
BRANCH  61  62
ATOM     62  O   UNL     1       3.825  -2.419  -4.045  1.00  0.00    -0.459 OA
BRANCH  62  63
ATOM     63  C   UNL     1       2.522  -2.524  -4.482  1.00  0.00     0.365 C 
ATOM     64  O   UNL     1       2.009  -3.602  -4.770  1.00  0.00    -0.245 OA
BRANCH  63  65
ATOM     65  C   UNL     1       1.808  -1.154  -4.715  1.00  0.00     0.301 C 
ATOM     66  N   UNL     1       0.402  -1.350  -5.165  1.00  0.00    -0.334 N 
ATOM     67  C   UNL     1       1.660   0.103  -3.798  1.00  0.00     0.095 C 
ATOM     68  C   UNL     1      -0.167  -0.006  -5.331  1.00  0.00     0.262 C 
ATOM     69  H   UNL     1      -0.124  -1.873  -4.464  1.00  0.00     0.347 HD
ATOM     70  H   UNL     1       0.361  -1.881  -6.035  1.00  0.00     0.347 HD
ATOM     71  C   UNL     1       0.817   0.975  -4.719  1.00  0.00     0.076 C 
BRANCH  67  72
ATOM     72  C   UNL     1       1.208   0.112  -2.208  1.00  0.00    -0.034 A 
ATOM     73  C   UNL     1       0.548   1.587  -1.433  1.00  0.00     0.004 A 
ATOM     74  C   UNL     1       2.479  -0.742  -1.411  1.00  0.00     0.051 A 
ATOM     75  C   UNL     1       1.361   2.408  -0.016  1.00  0.00     0.004 A 
ATOM     76  C   UNL     1       3.394  -0.057  -0.022  1.00  0.00     0.127 A 
ATOM     77  C   UNL     1       2.940   1.714   0.591  1.00  0.00     0.047 A 
BRANCH  76  78
ATOM     78  O   UNL     1       3.540  -1.435   1.176  1.00  0.00    -0.457 OA
BRANCH  78  79
ATOM     79  C   UNL     1       4.822  -2.465   1.640  1.00  0.00     0.127 A 
ATOM     80  C   UNL     1       4.363  -3.563   2.369  1.00  0.00     0.047 A 
ATOM     81  C   UNL     1       6.142  -2.667   0.980  1.00  0.00     0.047 A 
ATOM     82  C   UNL     1       5.109  -4.783   2.324  1.00  0.00     0.004 A 
ATOM     83  C   UNL     1       6.841  -3.875   0.933  1.00  0.00     0.004 A 
ATOM     84  C   UNL     1       6.300  -4.950   1.587  1.00  0.00     0.000 A 
ENDBRANCH  78  79
ENDBRANCH  76  78
ENDBRANCH  67  72
ENDBRANCH  63  65
ENDBRANCH  62  63
ENDBRANCH  61  62
ENDBRANCH  60  61
ENDBRANCH  59  60
ENDBRANCH   1  59
TORSDOF 20
