REMARK SMILES O=C(OCCOCCOCCOC(=O)[C@H](c1ccccc1)N1C(=O)/C(=C/c2ccc(-c3nc4ccccc4s3)o2)SC1=S)c1ccc(-c2c3nc(c(-c4ccccc4)c4ccc([nH]4)c(-c4ccccc4)c4nc(c(-c5ccccc5)c5ccc2[nH]5)C=C4)C=C3)cc1
REMARK SMILES IDX 8 1 7 2 6 3 5 4 4 5 3 6 2 7 1 8 44 9 45 10 91 11 46 12 90 13
REMARK SMILES IDX 47 14 48 15 49 16 84 17 50 18 89 19 83 20 85 21 51 22 88 23
REMARK SMILES IDX 82 24 81 25 52 27 74 28 59 29 73 30 60 31 63 32 72 33 86 34
REMARK SMILES IDX 61 35 62 36 71 38 87 39 64 40 53 41 54 42 58 43 55 44 57 45
REMARK SMILES IDX 56 46 75 47 76 48 80 49 77 50 79 51 78 52 65 53 66 54 70 55
REMARK SMILES IDX 67 56 69 57 68 58 9 59 10 60 11 61 12 62 13 63 14 64 15 65
REMARK SMILES IDX 22 66 23 67 42 68 24 69 25 70 41 71 43 72 26 73 27 74 28 75
REMARK SMILES IDX 40 76 29 77 30 78 31 79 32 80 39 81 33 82 38 83 34 84 37 85
REMARK SMILES IDX 35 86 36 87 16 88 17 89 21 90 18 91 20 92 19 93
REMARK H PARENT 85 26 63 37
REMARK Flexibility Score: inf
ROOT
ATOM      1  C   UNL     1       5.593   1.859   2.843  1.00  0.00     0.188 C 
ENDROOT
BRANCH   1   2
ATOM      2  C   UNL     1       5.419   0.550   2.074  1.00  0.00     0.188 C 
BRANCH   2   3
ATOM      3  O   UNL     1       4.070   0.079   2.129  1.00  0.00    -0.376 OA
BRANCH   3   4
ATOM      4  C   UNL     1       3.945  -1.343   2.058  1.00  0.00     0.202 C 
BRANCH   4   5
ATOM      5  C   UNL     1       4.142  -1.952   0.660  1.00  0.00     0.261 C 
BRANCH   5   6
ATOM      6  O   UNL     1       4.986  -1.164  -0.197  1.00  0.00    -0.460 OA
BRANCH   6   7
ATOM      7  C   UNL     1       4.603  -0.288  -1.161  1.00  0.00     0.338 C 
ATOM      8  O   UNL     1       5.452   0.176  -1.919  1.00  0.00    -0.246 OA
BRANCH   7   9
ATOM      9  C   UNL     1       3.179   0.109  -1.369  1.00  0.00     0.060 A 
ATOM     10  C   UNL     1       2.227   0.184  -0.354  1.00  0.00     0.016 A 
ATOM     11  C   UNL     1       2.794   0.499  -2.659  1.00  0.00     0.016 A 
ATOM     12  C   UNL     1       0.901   0.490  -0.618  1.00  0.00     0.010 A 
ATOM     13  C   UNL     1       1.481   0.905  -2.918  1.00  0.00     0.010 A 
ATOM     14  C   UNL     1       0.513   0.851  -1.903  1.00  0.00    -0.014 A 
BRANCH  14  15
ATOM     15  C   UNL     1      -0.927   1.018  -2.194  1.00  0.00     0.031 A 
ATOM     16  C   UNL     1      -1.578   0.019  -3.104  1.00  0.00     0.074 A 
ATOM     17  C   UNL     1      -1.651   1.974  -1.580  1.00  0.00     0.049 A 
ATOM     18  N   UNL     1      -2.803  -0.019  -3.555  1.00  0.00    -0.248 NA
ATOM     19  C   UNL     1      -0.733  -1.099  -3.562  1.00  0.00     0.031 C 
ATOM     20  C   UNL     1      -1.144   2.906  -0.572  1.00  0.00     0.029 A 
ATOM     21  N   UNL     1      -2.974   2.309  -1.698  1.00  0.00    -0.354 N 
ATOM     22  C   UNL     1      -2.862  -1.143  -4.369  1.00  0.00     0.074 A 
ATOM     23  C   UNL     1      -1.546  -1.734  -4.389  1.00  0.00     0.031 C 
ATOM     24  C   UNL     1      -2.136   3.717  -0.172  1.00  0.00     0.029 A 
ATOM     25  C   UNL     1      -3.341   3.381  -0.918  1.00  0.00     0.049 A 
ATOM     26  H   UNL     1      -3.602   1.829  -2.285  1.00  0.00     0.167 HD
ATOM     27  C   UNL     1      -3.929  -1.648  -5.027  1.00  0.00     0.031 A 
ATOM     28  C   UNL     1      -4.520   4.023  -0.830  1.00  0.00     0.031 A 
ATOM     29  C   UNL     1      -5.233  -1.051  -4.986  1.00  0.00     0.049 A 
ATOM     30  C   UNL     1      -5.663   3.511  -1.659  1.00  0.00     0.074 A 
ATOM     31  C   UNL     1      -6.388  -1.444  -5.634  1.00  0.00     0.029 A 
ATOM     32  N   UNL     1      -5.549   0.076  -4.239  1.00  0.00    -0.354 N 
ATOM     33  N   UNL     1      -5.701   2.468  -2.456  1.00  0.00    -0.248 NA
ATOM     34  C   UNL     1      -6.927   4.250  -1.570  1.00  0.00     0.031 C 
ATOM     35  C   UNL     1      -7.393  -0.523  -5.316  1.00  0.00     0.029 A 
ATOM     36  C   UNL     1      -6.878   0.407  -4.424  1.00  0.00     0.049 A 
ATOM     37  H   UNL     1      -4.919   0.567  -3.663  1.00  0.00     0.167 HD
ATOM     38  C   UNL     1      -7.000   2.403  -2.935  1.00  0.00     0.074 A 
ATOM     39  C   UNL     1      -7.721   3.507  -2.329  1.00  0.00     0.031 C 
ATOM     40  C   UNL     1      -7.555   1.513  -3.794  1.00  0.00     0.031 A 
BRANCH  27  41
ATOM     41  C   UNL     1      -3.683  -2.862  -5.878  1.00  0.00    -0.014 A 
ATOM     42  C   UNL     1      -3.393  -4.114  -5.307  1.00  0.00     0.009 A 
ATOM     43  C   UNL     1      -3.670  -2.735  -7.275  1.00  0.00     0.009 A 
ATOM     44  C   UNL     1      -3.037  -5.195  -6.117  1.00  0.00     0.001 A 
ATOM     45  C   UNL     1      -3.345  -3.826  -8.083  1.00  0.00     0.001 A 
ATOM     46  C   UNL     1      -3.013  -5.050  -7.504  1.00  0.00     0.000 A 
ENDBRANCH  27  41
BRANCH  28  47
ATOM     47  C   UNL     1      -4.674   5.209   0.056  1.00  0.00    -0.014 A 
ATOM     48  C   UNL     1      -5.505   5.163   1.186  1.00  0.00     0.009 A 
ATOM     49  C   UNL     1      -3.995   6.406  -0.230  1.00  0.00     0.009 A 
ATOM     50  C   UNL     1      -5.676   6.294   1.990  1.00  0.00     0.001 A 
ATOM     51  C   UNL     1      -4.145   7.526   0.592  1.00  0.00     0.001 A 
ATOM     52  C   UNL     1      -4.995   7.473   1.694  1.00  0.00     0.000 A 
ENDBRANCH  28  47
BRANCH  40  53
ATOM     53  C   UNL     1      -9.018   1.676  -4.083  1.00  0.00    -0.014 A 
ATOM     54  C   UNL     1      -9.489   2.722  -4.890  1.00  0.00     0.009 A 
ATOM     55  C   UNL     1      -9.929   0.737  -3.574  1.00  0.00     0.009 A 
ATOM     56  C   UNL     1     -10.854   2.843  -5.154  1.00  0.00     0.001 A 
ATOM     57  C   UNL     1     -11.287   0.842  -3.867  1.00  0.00     0.001 A 
ATOM     58  C   UNL     1     -11.749   1.900  -4.649  1.00  0.00     0.000 A 
ENDBRANCH  40  53
ENDBRANCH  14  15
ENDBRANCH   7   9
ENDBRANCH   6   7
ENDBRANCH   5   6
ENDBRANCH   4   5
ENDBRANCH   3   4
ENDBRANCH   2   3
ENDBRANCH   1   2
BRANCH   1  59
ATOM     59  O   UNL     1       5.348   1.826   4.245  1.00  0.00    -0.376 OA
BRANCH  59  60
ATOM     60  C   UNL     1       4.088   1.318   4.661  1.00  0.00     0.202 C 
BRANCH  60  61
ATOM     61  C   UNL     1       2.814   2.089   4.263  1.00  0.00     0.261 C 
BRANCH  61  62
ATOM     62  O   UNL     1       2.820   2.716   2.959  1.00  0.00    -0.461 OA
BRANCH  62  63
ATOM     63  C   UNL     1       2.651   4.063   2.986  1.00  0.00     0.334 C 
ATOM     64  O   UNL     1       2.417   4.691   4.022  1.00  0.00    -0.249 OA
BRANCH  63  65
ATOM     65  C   UNL     1       2.629   4.784   1.641  1.00  0.00     0.232 C 
BRANCH  65  66
ATOM     66  N   UNL     1       3.084   6.170   1.868  1.00  0.00    -0.274 N 
ATOM     67  C   UNL     1       2.193   7.191   1.579  1.00  0.00     0.267 C 
ATOM     68  C   UNL     1       4.317   6.544   2.369  1.00  0.00     0.149 C 
ATOM     69  O   UNL     1       1.062   7.067   1.134  1.00  0.00    -0.268 OA
ATOM     70  C   UNL     1       2.826   8.503   1.840  1.00  0.00     0.084 C 
ATOM     71  S   UNL     1       4.406   8.284   2.477  1.00  0.00    -0.054 SA
ATOM     72  S   UNL     1       5.613   5.633   2.885  1.00  0.00    -0.052 S 
ATOM     73  C   UNL     1       2.222   9.667   1.572  1.00  0.00     0.068 C 
BRANCH  73  74
ATOM     74  C   UNL     1       2.933  10.885   1.720  1.00  0.00     0.129 A 
ATOM     75  C   UNL     1       4.090  11.277   1.060  1.00  0.00     0.051 A 
ATOM     76  O   UNL     1       2.607  11.860   2.630  1.00  0.00    -0.454 OA
ATOM     77  C   UNL     1       4.512  12.486   1.633  1.00  0.00     0.054 A 
ATOM     78  C   UNL     1       3.578  12.827   2.592  1.00  0.00     0.163 A 
BRANCH  78  79
ATOM     79  C   UNL     1       3.620  13.997   3.416  1.00  0.00     0.160 A 
ATOM     80  N   UNL     1       4.327  15.040   3.040  1.00  0.00    -0.233 NA
ATOM     81  S   UNL     1       2.849  14.119   4.937  1.00  0.00    -0.111 S 
ATOM     82  C   UNL     1       4.284  16.009   4.015  1.00  0.00     0.082 A 
ATOM     83  C   UNL     1       3.546  15.684   5.154  1.00  0.00     0.055 A 
ATOM     84  C   UNL     1       4.929  17.258   3.944  1.00  0.00     0.030 A 
ATOM     85  C   UNL     1       3.452  16.565   6.243  1.00  0.00     0.021 A 
ATOM     86  C   UNL     1       4.837  18.144   5.017  1.00  0.00     0.002 A 
ATOM     87  C   UNL     1       4.113  17.797   6.154  1.00  0.00     0.002 A 
ENDBRANCH  78  79
ENDBRANCH  73  74
ENDBRANCH  65  66
BRANCH  65  88
ATOM     88  C   UNL     1       3.114   4.259   0.288  1.00  0.00    -0.014 A 
ATOM     89  C   UNL     1       4.432   3.902  -0.018  1.00  0.00     0.006 A 
ATOM     90  C   UNL     1       2.221   4.353  -0.804  1.00  0.00     0.006 A 
ATOM     91  C   UNL     1       4.836   3.643  -1.337  1.00  0.00     0.000 A 
ATOM     92  C   UNL     1       2.614   4.083  -2.117  1.00  0.00     0.000 A 
ATOM     93  C   UNL     1       3.929   3.735  -2.386  1.00  0.00     0.000 A 
ENDBRANCH  65  88
ENDBRANCH  63  65
ENDBRANCH  62  63
ENDBRANCH  61  62
ENDBRANCH  60  61
ENDBRANCH  59  60
ENDBRANCH   1  59
TORSDOF 21
