REMARK SMILES COc1ccc2c(CC(=O)OCCOCCOCCOC(=O)c3ccc(-c4c5nc(c(-c6ccccc6)c6ccc([nH]6)c(-c6ccccc6)c6nc(c(-c7ccccc7)c7ccc4[nH]7)C=C6)C=C5)cc3)c(C(=O)c3cc(C)ccn3)[nH]c2c1
REMARK SMILES IDX 15 1 14 2 13 3 12 4 11 5 9 6 10 7 8 8 7 9 3 10 4 11 83 12
REMARK SMILES IDX 5 13 82 14 6 15 81 16 71 17 2 19 1 20 72 21 73 22 74 23
REMARK SMILES IDX 75 24 80 25 76 26 79 27 77 28 78 29 16 30 17 31 18 32 19 33
REMARK SMILES IDX 20 34 21 35 22 36 23 37 24 38 70 39 25 40 69 41 26 42 27 43
REMARK SMILES IDX 28 44 63 45 29 46 68 47 62 48 64 49 30 50 67 51 61 52 60 53
REMARK SMILES IDX 31 55 53 56 38 57 52 58 39 59 42 60 51 61 65 62 40 63 41 64
REMARK SMILES IDX 50 66 66 67 43 68 32 69 33 70 37 71 34 72 36 73 35 74 54 75
REMARK SMILES IDX 55 76 59 77 56 78 58 79 57 80 44 81 45 82 49 83 46 84 48 85
REMARK SMILES IDX 47 86
REMARK H PARENT 81 18 64 54 42 65
REMARK Flexibility Score: inf
ROOT
ATOM      1  C   UNL     1       3.047   8.233   5.521  1.00  0.00     0.188 C 
ENDROOT
BRANCH   1   2
ATOM      2  O   UNL     1       4.274   8.876   5.180  1.00  0.00    -0.376 OA
BRANCH   2   3
ATOM      3  C   UNL     1       4.845   8.599   3.907  1.00  0.00     0.202 C 
BRANCH   3   4
ATOM      4  C   UNL     1       5.282   7.147   3.682  1.00  0.00     0.261 C 
BRANCH   4   5
ATOM      5  O   UNL     1       4.179   6.228   3.826  1.00  0.00    -0.463 OA
BRANCH   5   6
ATOM      6  C   UNL     1       4.424   5.071   4.494  1.00  0.00     0.310 C 
ATOM      7  O   UNL     1       5.552   4.675   4.773  1.00  0.00    -0.252 OA
BRANCH   6   8
ATOM      8  C   UNL     1       3.170   4.401   5.039  1.00  0.00     0.161 C 
BRANCH   8   9
ATOM      9  C   UNL     1       1.971   4.267   4.129  1.00  0.00     0.000 A 
ATOM     10  C   UNL     1       1.153   2.000   0.684  1.00  0.00     0.120 A 
ATOM     11  C   UNL     1       2.487   2.006   1.087  1.00  0.00     0.047 A 
ATOM     12  C   UNL     1       0.212   2.823   1.305  1.00  0.00     0.073 A 
ATOM     13  C   UNL     1       2.899   2.779   2.183  1.00  0.00     0.014 A 
ATOM     14  C   UNL     1       0.634   3.550   2.422  1.00  0.00     0.050 A 
ATOM     15  C   UNL     1       1.944   3.532   2.895  1.00  0.00     0.004 A 
ATOM     16  N   UNL     1      -0.085   4.355   3.269  1.00  0.00    -0.351 N 
ATOM     17  C   UNL     1       0.634   4.580   4.423  1.00  0.00     0.093 A 
ATOM     18  H   UNL     1      -0.981   4.717   3.080  1.00  0.00     0.167 HD
BRANCH  10  19
ATOM     19  O   UNL     1       0.687   1.229  -0.349  1.00  0.00    -0.497 OA
ATOM     20  C   UNL     1       1.074  -0.141  -0.236  1.00  0.00     0.278 C 
ENDBRANCH  10  19
BRANCH  17  21
ATOM     21  C   UNL     1       0.023   4.971   5.685  1.00  0.00     0.227 C 
ATOM     22  O   UNL     1       0.590   4.855   6.769  1.00  0.00    -0.285 OA
BRANCH  21  23
ATOM     23  C   UNL     1      -1.376   5.491   5.691  1.00  0.00     0.113 A 
ATOM     24  C   UNL     1      -2.429   4.672   6.092  1.00  0.00     0.036 A 
ATOM     25  N   UNL     1      -1.517   6.800   5.362  1.00  0.00    -0.253 NA
ATOM     26  C   UNL     1      -3.706   5.236   6.186  1.00  0.00    -0.047 A 
ATOM     27  C   UNL     1      -2.750   7.329   5.522  1.00  0.00     0.112 A 
ATOM     28  C   UNL     1      -4.908   4.423   6.569  1.00  0.00     0.044 C 
ATOM     29  C   UNL     1      -3.855   6.601   5.931  1.00  0.00     0.023 A 
ENDBRANCH  21  23
ENDBRANCH  17  21
ENDBRANCH   8   9
ENDBRANCH   6   8
ENDBRANCH   5   6
ENDBRANCH   4   5
ENDBRANCH   3   4
ENDBRANCH   2   3
ENDBRANCH   1   2
BRANCH   1  30
ATOM     30  C   UNL     1       1.978   8.025   4.425  1.00  0.00     0.188 C 
BRANCH  30  31
ATOM     31  O   UNL     1       1.956   9.059   3.449  1.00  0.00    -0.376 OA
BRANCH  31  32
ATOM     32  C   UNL     1       0.763   9.832   3.442  1.00  0.00     0.202 C 
BRANCH  32  33
ATOM     33  C   UNL     1       0.723  10.802   4.620  1.00  0.00     0.261 C 
BRANCH  33  34
ATOM     34  O   UNL     1       0.625  10.094   5.876  1.00  0.00    -0.460 OA
BRANCH  34  35
ATOM     35  C   UNL     1      -0.575  10.047   6.474  1.00  0.00     0.338 C 
ATOM     36  O   UNL     1      -1.611  10.583   6.077  1.00  0.00    -0.246 OA
BRANCH  35  37
ATOM     37  C   UNL     1      -0.506   9.275   7.736  1.00  0.00     0.060 A 
ATOM     38  C   UNL     1       0.097   8.015   7.807  1.00  0.00     0.016 A 
ATOM     39  C   UNL     1      -1.168   9.773   8.857  1.00  0.00     0.016 A 
ATOM     40  C   UNL     1      -0.029   7.226   8.956  1.00  0.00     0.010 A 
ATOM     41  C   UNL     1      -1.234   9.011  10.029  1.00  0.00     0.010 A 
ATOM     42  C   UNL     1      -0.698   7.711  10.084  1.00  0.00    -0.014 A 
BRANCH  42  43
ATOM     43  C   UNL     1      -0.909   6.868  11.297  1.00  0.00     0.031 A 
ATOM     44  C   UNL     1      -2.310   6.567  11.767  1.00  0.00     0.074 A 
ATOM     45  C   UNL     1       0.128   6.382  12.007  1.00  0.00     0.049 A 
ATOM     46  N   UNL     1      -2.718   6.087  12.915  1.00  0.00    -0.248 NA
ATOM     47  C   UNL     1      -3.396   6.855  10.816  1.00  0.00     0.031 C 
ATOM     48  C   UNL     1       1.541   6.497  11.649  1.00  0.00     0.029 A 
ATOM     49  N   UNL     1       0.142   5.697  13.201  1.00  0.00    -0.354 N 
ATOM     50  C   UNL     1      -4.106   6.072  12.850  1.00  0.00     0.074 A 
ATOM     51  C   UNL     1      -4.470   6.589  11.546  1.00  0.00     0.031 C 
ATOM     52  C   UNL     1       2.284   5.900  12.596  1.00  0.00     0.029 A 
ATOM     53  C   UNL     1       1.408   5.435  13.667  1.00  0.00     0.049 A 
ATOM     54  H   UNL     1      -0.675   5.422  13.675  1.00  0.00     0.167 HD
ATOM     55  C   UNL     1      -4.997   5.675  13.790  1.00  0.00     0.031 A 
ATOM     56  C   UNL     1       1.827   4.927  14.843  1.00  0.00     0.031 A 
ATOM     57  C   UNL     1      -4.645   5.131  15.077  1.00  0.00     0.049 A 
ATOM     58  C   UNL     1       0.824   4.564  15.902  1.00  0.00     0.074 A 
ATOM     59  C   UNL     1      -5.485   4.708  16.094  1.00  0.00     0.029 A 
ATOM     60  N   UNL     1      -3.349   4.922  15.520  1.00  0.00    -0.354 N 
ATOM     61  N   UNL     1      -0.485   4.623  15.861  1.00  0.00    -0.248 NA
ATOM     62  C   UNL     1       1.363   4.074  17.180  1.00  0.00     0.031 C 
ATOM     63  C   UNL     1      -4.697   4.285  17.170  1.00  0.00     0.029 A 
ATOM     64  C   UNL     1      -3.367   4.391  16.800  1.00  0.00     0.049 A 
ATOM     65  H   UNL     1      -2.536   5.122  15.002  1.00  0.00     0.167 HD
ATOM     66  C   UNL     1      -0.924   4.158  17.094  1.00  0.00     0.074 A 
ATOM     67  C   UNL     1       0.255   3.801  17.854  1.00  0.00     0.031 C 
ATOM     68  C   UNL     1      -2.193   4.038  17.555  1.00  0.00     0.031 A 
BRANCH  55  69
ATOM     69  C   UNL     1      -6.457   5.862  13.482  1.00  0.00    -0.014 A 
ATOM     70  C   UNL     1      -7.128   5.045  12.561  1.00  0.00     0.009 A 
ATOM     71  C   UNL     1      -7.181   6.854  14.164  1.00  0.00     0.009 A 
ATOM     72  C   UNL     1      -8.488   5.239  12.306  1.00  0.00     0.001 A 
ATOM     73  C   UNL     1      -8.546   7.027  13.929  1.00  0.00     0.001 A 
ATOM     74  C   UNL     1      -9.196   6.225  12.993  1.00  0.00     0.000 A 
ENDBRANCH  55  69
BRANCH  56  75
ATOM     75  C   UNL     1       3.283   4.782  15.113  1.00  0.00    -0.014 A 
ATOM     76  C   UNL     1       3.864   3.510  15.226  1.00  0.00     0.009 A 
ATOM     77  C   UNL     1       4.093   5.916  15.284  1.00  0.00     0.009 A 
ATOM     78  C   UNL     1       5.221   3.377  15.527  1.00  0.00     0.001 A 
ATOM     79  C   UNL     1       5.456   5.780  15.550  1.00  0.00     0.001 A 
ATOM     80  C   UNL     1       6.017   4.512  15.681  1.00  0.00     0.000 A 
ENDBRANCH  56  75
BRANCH  68  81
ATOM     81  C   UNL     1      -2.372   3.455  18.930  1.00  0.00    -0.014 A 
ATOM     82  C   UNL     1      -2.025   4.175  20.083  1.00  0.00     0.009 A 
ATOM     83  C   UNL     1      -2.903   2.163  19.071  1.00  0.00     0.009 A 
ATOM     84  C   UNL     1      -2.165   3.597  21.347  1.00  0.00     0.001 A 
ATOM     85  C   UNL     1      -3.070   1.598  20.337  1.00  0.00     0.001 A 
ATOM     86  C   UNL     1      -2.689   2.311  21.473  1.00  0.00     0.000 A 
ENDBRANCH  68  81
ENDBRANCH  42  43
ENDBRANCH  35  37
ENDBRANCH  34  35
ENDBRANCH  33  34
ENDBRANCH  32  33
ENDBRANCH  31  32
ENDBRANCH  30  31
ENDBRANCH   1  30
TORSDOF 21
