REMARK SMILES [NH3+][C@H](C(=O)OCCOCCOCCOC(=O)c1ccc(-c2c3nc(c(-c4ccccc4)c4ccc([nH]4)c(-c4ccccc4)c4nc(c(-c5ccccc5)c5ccc2[nH]5)C=C4)C=C3)cc1)c1ccc(OCC(=O)N2CCCC2)cc1
REMARK SMILES IDX 9 1 8 2 7 3 6 4 5 5 3 6 4 7 2 8 1 9 65 13 66 14 79 15 67 16
REMARK SMILES IDX 78 17 68 18 69 19 70 20 71 21 72 22 73 23 74 24 77 25 75 26
REMARK SMILES IDX 76 27 10 28 11 29 12 30 13 31 14 32 15 33 16 34 17 35 18 36
REMARK SMILES IDX 64 37 19 38 63 39 20 40 21 41 22 42 57 43 23 44 62 45 56 46
REMARK SMILES IDX 58 47 24 48 61 49 55 50 54 51 25 53 47 54 32 55 46 56 33 57
REMARK SMILES IDX 36 58 45 59 59 60 34 61 35 62 44 64 60 65 37 66 26 67 27 68
REMARK SMILES IDX 31 69 28 70 30 71 29 72 48 73 49 74 53 75 50 76 52 77 51 78
REMARK SMILES IDX 38 79 39 80 43 81 40 82 42 83 41 84
REMARK H PARENT 1 10 1 11 1 12 58 52 36 63
REMARK Flexibility Score: inf
ROOT
ATOM      1  C   UNL     1       2.379  -1.870  -0.125  1.00  0.00     0.188 C 
ENDROOT
BRANCH   1   2
ATOM      2  O   UNL     1       2.721  -2.031   1.244  1.00  0.00    -0.376 OA
BRANCH   2   3
ATOM      3  C   UNL     1       1.747  -1.799   2.253  1.00  0.00     0.202 C 
BRANCH   3   4
ATOM      4  C   UNL     1       1.063  -0.425   2.337  1.00  0.00     0.261 C 
BRANCH   4   5
ATOM      5  O   UNL     1       0.390   0.034   1.148  1.00  0.00    -0.459 OA
BRANCH   5   6
ATOM      6  C   UNL     1       0.930   1.116   0.523  1.00  0.00     0.369 C 
ATOM      7  O   UNL     1       2.004   1.622   0.844  1.00  0.00    -0.245 OA
BRANCH   6   8
ATOM      8  C   UNL     1       0.153   1.604  -0.725  1.00  0.00     0.323 C 
BRANCH   8   9
ATOM      9  N   UNL     1       0.815   1.175  -1.981  1.00  0.00    -0.342 N 
ATOM     10  H   UNL     1       0.278   1.513  -2.780  1.00  0.00     0.345 HD
ATOM     11  H   UNL     1       0.863   0.157  -2.009  1.00  0.00     0.345 HD
ATOM     12  H   UNL     1       1.758   1.561  -2.017  1.00  0.00     0.345 HD
ENDBRANCH   8   9
BRANCH   8  13
ATOM     13  C   UNL     1      -1.346   1.355  -0.761  1.00  0.00     0.021 A 
ATOM     14  C   UNL     1      -2.223   2.446  -0.713  1.00  0.00     0.014 A 
ATOM     15  C   UNL     1      -1.915   0.077  -0.871  1.00  0.00     0.014 A 
ATOM     16  C   UNL     1      -3.607   2.253  -0.739  1.00  0.00     0.047 A 
ATOM     17  C   UNL     1      -3.296  -0.120  -0.888  1.00  0.00     0.047 A 
ATOM     18  C   UNL     1      -4.148   0.970  -0.818  1.00  0.00     0.120 A 
BRANCH  18  19
ATOM     19  O   UNL     1      -5.508   0.919  -0.836  1.00  0.00    -0.484 OA
BRANCH  19  20
ATOM     20  C   UNL     1      -6.121  -0.346  -0.977  1.00  0.00     0.329 C 
BRANCH  20  21
ATOM     21  C   UNL     1      -6.028  -1.149  -2.291  1.00  0.00     0.260 C 
ATOM     22  O   UNL     1      -5.997  -2.383  -2.249  1.00  0.00    -0.271 OA
ATOM     23  N   UNL     1      -6.105  -0.479  -3.490  1.00  0.00    -0.340 N 
ATOM     24  C   UNL     1      -5.941   0.940  -3.743  1.00  0.00     0.119 C 
ATOM     25  C   UNL     1      -6.350  -1.198  -4.726  1.00  0.00     0.119 C 
ATOM     26  C   UNL     1      -6.754   1.168  -5.002  1.00  0.00     0.023 C 
ATOM     27  C   UNL     1      -6.571  -0.125  -5.788  1.00  0.00     0.023 C 
ENDBRANCH  20  21
ENDBRANCH  19  20
ENDBRANCH  18  19
ENDBRANCH   8  13
ENDBRANCH   6   8
ENDBRANCH   5   6
ENDBRANCH   4   5
ENDBRANCH   3   4
ENDBRANCH   2   3
ENDBRANCH   1   2
BRANCH   1  28
ATOM     28  C   UNL     1       0.971  -2.242  -0.606  1.00  0.00     0.188 C 
BRANCH  28  29
ATOM     29  O   UNL     1       0.182  -2.928   0.335  1.00  0.00    -0.376 OA
BRANCH  29  30
ATOM     30  C   UNL     1      -0.170  -4.273   0.068  1.00  0.00     0.202 C 
BRANCH  30  31
ATOM     31  C   UNL     1       0.933  -5.283  -0.294  1.00  0.00     0.261 C 
BRANCH  31  32
ATOM     32  O   UNL     1       1.973  -4.822  -1.174  1.00  0.00    -0.460 OA
BRANCH  32  33
ATOM     33  C   UNL     1       1.690  -4.755  -2.493  1.00  0.00     0.338 C 
ATOM     34  O   UNL     1       0.631  -5.040  -3.035  1.00  0.00    -0.246 OA
BRANCH  33  35
ATOM     35  C   UNL     1       2.811  -4.055  -3.161  1.00  0.00     0.060 A 
ATOM     36  C   UNL     1       2.570  -2.829  -3.799  1.00  0.00     0.016 A 
ATOM     37  C   UNL     1       4.097  -4.597  -3.142  1.00  0.00     0.016 A 
ATOM     38  C   UNL     1       3.612  -2.152  -4.439  1.00  0.00     0.010 A 
ATOM     39  C   UNL     1       5.133  -3.931  -3.805  1.00  0.00     0.010 A 
ATOM     40  C   UNL     1       4.892  -2.720  -4.480  1.00  0.00    -0.014 A 
BRANCH  40  41
ATOM     41  C   UNL     1       5.935  -2.159  -5.375  1.00  0.00     0.031 A 
ATOM     42  C   UNL     1       6.161  -2.816  -6.710  1.00  0.00     0.074 A 
ATOM     43  C   UNL     1       6.676  -1.095  -5.020  1.00  0.00     0.049 A 
ATOM     44  N   UNL     1       7.073  -2.569  -7.616  1.00  0.00    -0.248 NA
ATOM     45  C   UNL     1       5.234  -3.902  -7.067  1.00  0.00     0.031 C 
ATOM     46  C   UNL     1       6.528  -0.331  -3.783  1.00  0.00     0.029 A 
ATOM     47  N   UNL     1       7.720  -0.483  -5.672  1.00  0.00    -0.354 N 
ATOM     48  C   UNL     1       6.838  -3.477  -8.641  1.00  0.00     0.074 A 
ATOM     49  C   UNL     1       5.719  -4.297  -8.234  1.00  0.00     0.031 C 
ATOM     50  C   UNL     1       7.460   0.639  -3.758  1.00  0.00     0.029 A 
ATOM     51  C   UNL     1       8.294   0.537  -4.955  1.00  0.00     0.049 A 
ATOM     52  H   UNL     1       8.026  -0.751  -6.568  1.00  0.00     0.167 HD
ATOM     53  C   UNL     1       7.492  -3.615  -9.819  1.00  0.00     0.031 A 
ATOM     54  C   UNL     1       9.387   1.282  -5.218  1.00  0.00     0.031 A 
ATOM     55  C   UNL     1       8.621  -2.817 -10.218  1.00  0.00     0.049 A 
ATOM     56  C   UNL     1      10.159   1.046  -6.492  1.00  0.00     0.074 A 
ATOM     57  C   UNL     1       9.347  -2.880 -11.395  1.00  0.00     0.029 A 
ATOM     58  N   UNL     1       9.193  -1.818  -9.447  1.00  0.00    -0.354 N 
ATOM     59  N   UNL     1       9.919   0.197  -7.462  1.00  0.00    -0.248 NA
ATOM     60  C   UNL     1      11.353   1.878  -6.707  1.00  0.00     0.031 C 
ATOM     61  C   UNL     1      10.399  -1.963 -11.307  1.00  0.00     0.029 A 
ATOM     62  C   UNL     1      10.283  -1.277 -10.109  1.00  0.00     0.049 A 
ATOM     63  H   UNL     1       8.873  -1.535  -8.560  1.00  0.00     0.167 HD
ATOM     64  C   UNL     1      10.909   0.417  -8.414  1.00  0.00     0.074 A 
ATOM     65  C   UNL     1      11.743   1.488  -7.912  1.00  0.00     0.031 C 
ATOM     66  C   UNL     1      11.107  -0.210  -9.601  1.00  0.00     0.031 A 
BRANCH  53  67
ATOM     67  C   UNL     1       7.024  -4.705 -10.743  1.00  0.00    -0.014 A 
ATOM     68  C   UNL     1       5.787  -4.625 -11.404  1.00  0.00     0.009 A 
ATOM     69  C   UNL     1       7.845  -5.820 -10.975  1.00  0.00     0.009 A 
ATOM     70  C   UNL     1       5.367  -5.657 -12.245  1.00  0.00     0.001 A 
ATOM     71  C   UNL     1       7.436  -6.834 -11.843  1.00  0.00     0.001 A 
ATOM     72  C   UNL     1       6.194  -6.758 -12.468  1.00  0.00     0.000 A 
ENDBRANCH  53  67
BRANCH  54  73
ATOM     73  C   UNL     1       9.846   2.307  -4.242  1.00  0.00    -0.014 A 
ATOM     74  C   UNL     1       9.794   3.674  -4.557  1.00  0.00     0.009 A 
ATOM     75  C   UNL     1      10.369   1.920  -2.997  1.00  0.00     0.009 A 
ATOM     76  C   UNL     1      10.282   4.627  -3.659  1.00  0.00     0.001 A 
ATOM     77  C   UNL     1      10.825   2.877  -2.088  1.00  0.00     0.001 A 
ATOM     78  C   UNL     1      10.791   4.229  -2.424  1.00  0.00     0.000 A 
ENDBRANCH  54  73
BRANCH  66  79
ATOM     79  C   UNL     1      12.241   0.274 -10.464  1.00  0.00    -0.014 A 
ATOM     80  C   UNL     1      13.581   0.048 -10.115  1.00  0.00     0.009 A 
ATOM     81  C   UNL     1      11.957   0.928 -11.675  1.00  0.00     0.009 A 
ATOM     82  C   UNL     1      14.613   0.499 -10.943  1.00  0.00     0.001 A 
ATOM     83  C   UNL     1      12.989   1.347 -12.516  1.00  0.00     0.001 A 
ATOM     84  C   UNL     1      14.316   1.142 -12.144  1.00  0.00     0.000 A 
ENDBRANCH  66  79
ENDBRANCH  40  41
ENDBRANCH  33  35
ENDBRANCH  32  33
ENDBRANCH  31  32
ENDBRANCH  30  31
ENDBRANCH  29  30
ENDBRANCH  28  29
ENDBRANCH   1  28
TORSDOF 22
