REMARK SMILES COc1cccc([C@@H]2CC(c3cccc(C)c3)=NN2C(=O)CCC(=O)OCCOCCOCCOC(=O)c2ccc(-c3c4nc(c(-c5ccccc5)c5ccc([nH]5)c(-c5ccccc5)c5nc(c(-c6ccccc6)c6ccc3[nH]6)C=C5)C=C4)cc2)c1
REMARK SMILES IDX 29 1 28 2 27 3 26 4 24 5 25 6 23 7 22 8 20 9 21 10 19 11
REMARK SMILES IDX 8 12 9 13 10 14 18 15 7 16 3 17 4 18 86 19 5 20 6 21 2 22
REMARK SMILES IDX 1 23 11 24 12 25 17 26 13 27 15 28 14 29 16 30 30 31 31 32
REMARK SMILES IDX 32 33 33 34 34 35 35 36 36 37 37 38 38 39 39 40 85 41 40 42
REMARK SMILES IDX 84 43 41 44 42 45 43 46 78 47 44 48 83 49 77 50 79 51 45 52
REMARK SMILES IDX 82 53 76 54 75 55 46 57 68 58 53 59 67 60 54 61 57 62 66 63
REMARK SMILES IDX 80 64 55 65 56 66 65 68 81 69 58 70 47 71 48 72 52 73 49 74
REMARK SMILES IDX 51 75 50 76 69 77 70 78 74 79 71 80 73 81 72 82 59 83 60 84
REMARK SMILES IDX 64 85 61 86 63 87 62 88
REMARK H PARENT 79 56 57 67
REMARK Flexibility Score: inf
ROOT
ATOM      1  O   UNL     1       1.925  -3.791  -4.071  1.00  0.00    -0.376 OA
ENDROOT
BRANCH   1   2
ATOM      2  C   UNL     1       0.951  -2.857  -3.533  1.00  0.00     0.202 C 
BRANCH   2   3
ATOM      3  C   UNL     1       1.232  -1.927  -2.315  1.00  0.00     0.261 C 
BRANCH   3   4
ATOM      4  O   UNL     1       1.906  -2.601  -1.271  1.00  0.00    -0.463 OA
BRANCH   4   5
ATOM      5  C   UNL     1       1.170  -3.550  -0.660  1.00  0.00     0.306 C 
ATOM      6  O   UNL     1      -0.039  -3.685  -0.777  1.00  0.00    -0.252 OA
BRANCH   5   7
ATOM      7  C   UNL     1       2.057  -4.445   0.144  1.00  0.00     0.132 C 
BRANCH   7   8
ATOM      8  C   UNL     1       3.401  -4.786  -0.504  1.00  0.00     0.114 C 
BRANCH   8   9
ATOM      9  C   UNL     1       4.391  -3.650  -0.836  1.00  0.00     0.243 C 
ATOM     10  O   UNL     1       5.018  -3.322   0.200  1.00  0.00    -0.273 OA
BRANCH   9  11
ATOM     11  N   UNL     1       4.705  -3.017  -2.065  1.00  0.00    -0.225 N 
ATOM     12  C   UNL     1       4.192  -2.645  -3.608  1.00  0.00     0.147 C 
ATOM     13  C   UNL     1       4.844  -1.258  -3.809  1.00  0.00     0.091 C 
ATOM     14  C   UNL     1       5.899  -1.298  -2.754  1.00  0.00     0.071 C 
ATOM     15  N   UNL     1       5.815  -2.201  -1.846  1.00  0.00    -0.174 NA
BRANCH  12  16
ATOM     16  C   UNL     1       4.038  -3.619  -5.144  1.00  0.00    -0.019 A 
ATOM     17  C   UNL     1       3.277  -2.862  -8.005  1.00  0.00     0.119 A 
ATOM     18  C   UNL     1       4.344  -4.076  -8.698  1.00  0.00     0.046 A 
ATOM     19  C   UNL     1       3.125  -2.596  -6.284  1.00  0.00     0.052 A 
ATOM     20  C   UNL     1       5.271  -5.180  -7.672  1.00  0.00     0.004 A 
ATOM     21  C   UNL     1       5.071  -5.042  -5.871  1.00  0.00     0.006 A 
BRANCH  17  22
ATOM     22  O   UNL     1       2.247  -2.420  -8.824  1.00  0.00    -0.497 OA
ATOM     23  C   UNL     1       0.959  -2.711  -8.250  1.00  0.00     0.278 C 
ENDBRANCH  17  22
ENDBRANCH  12  16
BRANCH  14  24
ATOM     24  C   UNL     1       6.943  -0.286  -2.655  1.00  0.00    -0.002 A 
ATOM     25  C   UNL     1       8.274  -0.652  -2.851  1.00  0.00     0.010 A 
ATOM     26  C   UNL     1       6.596   0.972  -2.166  1.00  0.00     0.013 A 
ATOM     27  C   UNL     1       9.274   0.286  -2.615  1.00  0.00     0.001 A 
ATOM     28  C   UNL     1       7.599   1.906  -1.902  1.00  0.00    -0.050 A 
ATOM     29  C   UNL     1       8.937   1.561  -2.149  1.00  0.00     0.003 A 
ATOM     30  C   UNL     1       7.256   3.243  -1.319  1.00  0.00     0.044 C 
ENDBRANCH  14  24
ENDBRANCH   9  11
ENDBRANCH   8   9
ENDBRANCH   7   8
ENDBRANCH   5   7
ENDBRANCH   4   5
ENDBRANCH   3   4
ENDBRANCH   2   3
ENDBRANCH   1   2
BRANCH   1  31
ATOM     31  C   UNL     1       2.643  -4.866  -3.407  1.00  0.00     0.188 C 
BRANCH  31  32
ATOM     32  C   UNL     1       4.439  -5.277  -3.474  1.00  0.00     0.188 C 
BRANCH  32  33
ATOM     33  O   UNL     1       5.811  -4.356  -3.777  1.00  0.00    -0.376 OA
BRANCH  33  34
ATOM     34  C   UNL     1       6.351  -3.525  -5.147  1.00  0.00     0.202 C 
BRANCH  34  35
ATOM     35  C   UNL     1       5.270  -3.252  -6.702  1.00  0.00     0.261 C 
BRANCH  35  36
ATOM     36  O   UNL     1       3.632  -4.428  -6.864  1.00  0.00    -0.460 OA
BRANCH  36  37
ATOM     37  C   UNL     1       3.079  -5.791  -6.791  1.00  0.00     0.338 C 
ATOM     38  O   UNL     1       3.691  -6.850  -6.572  1.00  0.00    -0.246 OA
BRANCH  37  39
ATOM     39  C   UNL     1       1.673  -6.058  -6.988  1.00  0.00     0.060 A 
ATOM     40  C   UNL     1       1.092  -6.880  -6.003  1.00  0.00     0.016 A 
ATOM     41  C   UNL     1       1.140  -5.995  -8.270  1.00  0.00     0.016 A 
ATOM     42  C   UNL     1      -0.056  -7.585  -6.263  1.00  0.00     0.010 A 
ATOM     43  C   UNL     1      -0.033  -6.686  -8.534  1.00  0.00     0.010 A 
ATOM     44  C   UNL     1      -0.613  -7.484  -7.533  1.00  0.00    -0.014 A 
BRANCH  44  45
ATOM     45  C   UNL     1      -1.778  -8.309  -7.839  1.00  0.00     0.031 A 
ATOM     46  C   UNL     1      -1.602  -9.510  -8.705  1.00  0.00     0.074 A 
ATOM     47  C   UNL     1      -2.953  -7.928  -7.317  1.00  0.00     0.049 A 
ATOM     48  N   UNL     1      -2.514 -10.275  -9.234  1.00  0.00    -0.248 NA
ATOM     49  C   UNL     1      -0.217  -9.888  -9.041  1.00  0.00     0.031 C 
ATOM     50  C   UNL     1      -3.148  -6.790  -6.411  1.00  0.00     0.029 A 
ATOM     51  N   UNL     1      -4.200  -8.447  -7.482  1.00  0.00    -0.354 N 
ATOM     52  C   UNL     1      -1.819 -11.202  -9.998  1.00  0.00     0.074 A 
ATOM     53  C   UNL     1      -0.412 -10.892  -9.884  1.00  0.00     0.031 C 
ATOM     54  C   UNL     1      -4.451  -6.692  -6.109  1.00  0.00     0.029 A 
ATOM     55  C   UNL     1      -5.172  -7.723  -6.840  1.00  0.00     0.049 A 
ATOM     56  H   UNL     1      -4.386  -9.258  -8.008  1.00  0.00     0.167 HD
ATOM     57  C   UNL     1      -2.333 -12.222 -10.721  1.00  0.00     0.031 A 
ATOM     58  C   UNL     1      -6.504  -7.876  -6.880  1.00  0.00     0.031 A 
ATOM     59  C   UNL     1      -3.744 -12.489 -10.790  1.00  0.00     0.049 A 
ATOM     60  C   UNL     1      -7.044  -8.995  -7.721  1.00  0.00     0.074 A 
ATOM     61  C   UNL     1      -4.409 -13.484 -11.479  1.00  0.00     0.029 A 
ATOM     62  N   UNL     1      -4.709 -11.745 -10.119  1.00  0.00    -0.354 N 
ATOM     63  N   UNL     1      -6.390  -9.863  -8.458  1.00  0.00    -0.248 NA
ATOM     64  C   UNL     1      -8.499  -9.164  -7.729  1.00  0.00     0.031 C 
ATOM     65  C   UNL     1      -5.779 -13.323 -11.249  1.00  0.00     0.029 A 
ATOM     66  C   UNL     1      -5.965 -12.260 -10.376  1.00  0.00     0.049 A 
ATOM     67  H   UNL     1      -4.524 -10.967  -9.545  1.00  0.00     0.167 HD
ATOM     68  C   UNL     1      -7.351 -10.708  -8.989  1.00  0.00     0.074 A 
ATOM     69  C   UNL     1      -8.630 -10.251  -8.477  1.00  0.00     0.031 C 
ATOM     70  C   UNL     1      -7.201 -11.767  -9.823  1.00  0.00     0.031 A 
BRANCH  57  71
ATOM     71  C   UNL     1      -1.372 -13.082 -11.492  1.00  0.00    -0.014 A 
ATOM     72  C   UNL     1      -0.471 -13.938 -10.838  1.00  0.00     0.009 A 
ATOM     73  C   UNL     1      -1.366 -13.041 -12.895  1.00  0.00     0.009 A 
ATOM     74  C   UNL     1       0.439 -14.706 -11.569  1.00  0.00     0.001 A 
ATOM     75  C   UNL     1      -0.475 -13.832 -13.626  1.00  0.00     0.001 A 
ATOM     76  C   UNL     1       0.432 -14.656 -12.962  1.00  0.00     0.000 A 
ENDBRANCH  57  71
BRANCH  58  77
ATOM     77  C   UNL     1      -7.386  -6.965  -6.111  1.00  0.00    -0.014 A 
ATOM     78  C   UNL     1      -8.102  -7.442  -5.005  1.00  0.00     0.009 A 
ATOM     79  C   UNL     1      -7.506  -5.611  -6.465  1.00  0.00     0.009 A 
ATOM     80  C   UNL     1      -8.951  -6.593  -4.292  1.00  0.00     0.001 A 
ATOM     81  C   UNL     1      -8.332  -4.757  -5.732  1.00  0.00     0.001 A 
ATOM     82  C   UNL     1      -9.064  -5.252  -4.654  1.00  0.00     0.000 A 
ENDBRANCH  58  77
BRANCH  70  83
ATOM     83  C   UNL     1      -8.450 -12.520 -10.171  1.00  0.00    -0.014 A 
ATOM     84  C   UNL     1      -9.399 -11.986 -11.054  1.00  0.00     0.009 A 
ATOM     85  C   UNL     1      -8.652 -13.800  -9.632  1.00  0.00     0.009 A 
ATOM     86  C   UNL     1     -10.549 -12.711 -11.365  1.00  0.00     0.001 A 
ATOM     87  C   UNL     1      -9.786 -14.534  -9.971  1.00  0.00     0.001 A 
ATOM     88  C   UNL     1     -10.738 -13.985 -10.829  1.00  0.00     0.000 A 
ENDBRANCH  70  83
ENDBRANCH  44  45
ENDBRANCH  37  39
ENDBRANCH  36  37
ENDBRANCH  35  36
ENDBRANCH  34  35
ENDBRANCH  33  34
ENDBRANCH  32  33
ENDBRANCH  31  32
ENDBRANCH   1  31
TORSDOF 23
