REMARK SMILES COc1c(C)cccc1C(=O)NCc1ccc(C(=O)OCCOCCOCCOC(=O)c2ccc(-c3c4nc(c(-c5ccccc5)c5ccc([nH]5)c(-c5ccccc5)c5nc(c(-c6ccccc6)c6ccc3[nH]6)C=C5)C=C4)cc2)cc1
REMARK SMILES IDX 24 1 23 2 22 3 21 4 20 5 18 6 19 7 17 8 14 9 15 10 81 11
REMARK SMILES IDX 16 12 80 13 13 14 12 15 10 16 11 17 9 19 3 20 4 21 5 22 6 23
REMARK SMILES IDX 8 24 7 25 2 26 1 27 25 28 26 29 27 30 28 31 29 32 30 33
REMARK SMILES IDX 31 34 32 35 33 36 79 37 34 38 78 39 35 40 36 41 37 42 72 43
REMARK SMILES IDX 38 44 77 45 71 46 73 47 39 48 76 49 70 50 69 51 40 53 62 54
REMARK SMILES IDX 47 55 61 56 48 57 51 58 60 59 74 60 49 61 50 62 59 64 75 65
REMARK SMILES IDX 52 66 41 67 42 68 46 69 43 70 45 71 44 72 63 73 64 74 68 75
REMARK SMILES IDX 65 76 67 77 66 78 53 79 54 80 58 81 55 82 57 83 56 84
REMARK H PARENT 12 18 73 52 51 63
REMARK Flexibility Score: inf
ROOT
ATOM      1  C   UNL     1      -0.527 -10.645  -3.122  1.00  0.00     0.188 C 
ENDROOT
BRANCH   1   2
ATOM      2  O   UNL     1      -1.638 -10.505  -4.035  1.00  0.00    -0.376 OA
BRANCH   2   3
ATOM      3  C   UNL     1      -2.749  -9.709  -3.581  1.00  0.00     0.202 C 
BRANCH   3   4
ATOM      4  C   UNL     1      -3.071  -8.267  -4.333  1.00  0.00     0.261 C 
BRANCH   4   5
ATOM      5  O   UNL     1      -3.485  -6.728  -3.804  1.00  0.00    -0.460 OA
BRANCH   5   6
ATOM      6  C   UNL     1      -3.352  -5.867  -2.716  1.00  0.00     0.338 C 
ATOM      7  O   UNL     1      -3.909  -5.958  -1.635  1.00  0.00    -0.246 OA
BRANCH   6   8
ATOM      8  C   UNL     1      -2.672  -4.552  -2.663  1.00  0.00     0.060 A 
ATOM      9  C   UNL     1      -1.942  -1.927  -1.918  1.00  0.00    -0.029 A 
ATOM     10  C   UNL     1      -1.490  -3.008  -1.159  1.00  0.00     0.006 A 
ATOM     11  C   UNL     1      -2.817  -2.161  -2.991  1.00  0.00     0.006 A 
ATOM     12  C   UNL     1      -1.850  -4.298  -1.527  1.00  0.00     0.016 A 
ATOM     13  C   UNL     1      -3.198  -3.466  -3.349  1.00  0.00     0.016 A 
BRANCH   9  14
ATOM     14  C   UNL     1      -1.265  -0.620  -1.636  1.00  0.00     0.152 C 
BRANCH  14  15
ATOM     15  N   UNL     1      -1.812   0.552  -2.248  1.00  0.00    -0.348 N 
ATOM     16  C   UNL     1      -1.157   1.565  -2.900  1.00  0.00     0.255 C 
ATOM     17  O   UNL     1      -1.862   2.460  -3.374  1.00  0.00    -0.269 OA
ATOM     18  H   UNL     1      -2.791   0.644  -2.194  1.00  0.00     0.164 HD
BRANCH  16  19
ATOM     19  C   UNL     1       0.328   1.617  -3.138  1.00  0.00     0.082 A 
ATOM     20  C   UNL     1       1.376   1.159  -2.310  1.00  0.00     0.134 A 
ATOM     21  C   UNL     1       2.720   1.225  -2.749  1.00  0.00    -0.008 A 
ATOM     22  C   UNL     1       3.851   0.609  -1.970  1.00  0.00     0.048 C 
ATOM     23  C   UNL     1       3.021   1.887  -3.947  1.00  0.00     0.007 A 
ATOM     24  C   UNL     1       0.677   2.249  -4.350  1.00  0.00     0.018 A 
ATOM     25  C   UNL     1       2.005   2.401  -4.742  1.00  0.00     0.001 A 
BRANCH  20  26
ATOM     26  O   UNL     1       1.140   0.511  -1.125  1.00  0.00    -0.496 OA
ATOM     27  C   UNL     1       1.319   1.327   0.024  1.00  0.00     0.278 C 
ENDBRANCH  20  26
ENDBRANCH  16  19
ENDBRANCH  14  15
ENDBRANCH   9  14
ENDBRANCH   6   8
ENDBRANCH   5   6
ENDBRANCH   4   5
ENDBRANCH   3   4
ENDBRANCH   2   3
ENDBRANCH   1   2
BRANCH   1  28
ATOM     28  C   UNL     1       0.756 -10.448  -3.915  1.00  0.00     0.188 C 
BRANCH  28  29
ATOM     29  O   UNL     1       0.453  -9.372  -4.790  1.00  0.00    -0.376 OA
BRANCH  29  30
ATOM     30  C   UNL     1       0.973  -9.460  -6.097  1.00  0.00     0.202 C 
BRANCH  30  31
ATOM     31  C   UNL     1       2.326  -8.753  -6.139  1.00  0.00     0.261 C 
BRANCH  31  32
ATOM     32  O   UNL     1       2.188  -7.434  -5.553  1.00  0.00    -0.460 OA
BRANCH  32  33
ATOM     33  C   UNL     1       2.671  -7.309  -4.277  1.00  0.00     0.338 C 
ATOM     34  O   UNL     1       3.811  -7.602  -3.938  1.00  0.00    -0.246 OA
BRANCH  33  35
ATOM     35  C   UNL     1       1.563  -7.015  -3.315  1.00  0.00     0.060 A 
ATOM     36  C   UNL     1       1.617  -7.331  -1.964  1.00  0.00     0.016 A 
ATOM     37  C   UNL     1       0.325  -6.697  -3.775  1.00  0.00     0.016 A 
ATOM     38  C   UNL     1       0.421  -7.569  -1.183  1.00  0.00     0.010 A 
ATOM     39  C   UNL     1      -0.801  -7.055  -2.989  1.00  0.00     0.010 A 
ATOM     40  C   UNL     1      -0.886  -7.601  -1.696  1.00  0.00    -0.014 A 
BRANCH  40  41
ATOM     41  C   UNL     1      -2.132  -8.357  -0.912  1.00  0.00     0.031 A 
ATOM     42  C   UNL     1      -3.728  -8.164  -0.868  1.00  0.00     0.074 A 
ATOM     43  C   UNL     1      -1.824  -9.377  -0.065  1.00  0.00     0.049 A 
ATOM     44  N   UNL     1      -4.393  -7.716   0.178  1.00  0.00    -0.248 NA
ATOM     45  C   UNL     1      -4.723  -8.471  -1.944  1.00  0.00     0.031 C 
ATOM     46  C   UNL     1      -2.732 -10.148   0.792  1.00  0.00     0.029 A 
ATOM     47  N   UNL     1      -0.559  -9.778   0.366  1.00  0.00    -0.354 N 
ATOM     48  C   UNL     1      -5.723  -7.485  -0.222  1.00  0.00     0.074 A 
ATOM     49  C   UNL     1      -5.835  -7.837  -1.595  1.00  0.00     0.031 C 
ATOM     50  C   UNL     1      -2.032 -10.574   1.858  1.00  0.00     0.029 A 
ATOM     51  C   UNL     1      -0.681 -10.051   1.732  1.00  0.00     0.049 A 
ATOM     52  H   UNL     1       0.256  -9.855  -0.182  1.00  0.00     0.167 HD
ATOM     53  C   UNL     1      -6.784  -7.212   0.582  1.00  0.00     0.031 A 
ATOM     54  C   UNL     1      -0.014  -9.289   2.642  1.00  0.00     0.031 A 
ATOM     55  C   UNL     1      -6.484  -7.684   1.899  1.00  0.00     0.049 A 
ATOM     56  C   UNL     1      -0.952  -8.595   3.603  1.00  0.00     0.074 A 
ATOM     57  C   UNL     1      -6.516  -8.982   2.380  1.00  0.00     0.029 A 
ATOM     58  N   UNL     1      -5.610  -6.967   2.685  1.00  0.00    -0.354 N 
ATOM     59  N   UNL     1      -2.220  -8.367   3.380  1.00  0.00    -0.248 NA
ATOM     60  C   UNL     1      -0.507  -8.097   4.900  1.00  0.00     0.031 C 
ATOM     61  C   UNL     1      -5.511  -9.082   3.371  1.00  0.00     0.029 A 
ATOM     62  C   UNL     1      -4.976  -7.821   3.565  1.00  0.00     0.049 A 
ATOM     63  H   UNL     1      -5.461  -5.995   2.628  1.00  0.00     0.167 HD
ATOM     64  C   UNL     1      -2.748  -7.699   4.456  1.00  0.00     0.074 A 
ATOM     65  C   UNL     1      -1.643  -7.575   5.388  1.00  0.00     0.031 C 
ATOM     66  C   UNL     1      -4.043  -7.279   4.528  1.00  0.00     0.031 A 
BRANCH  53  67
ATOM     67  C   UNL     1      -8.151  -6.995  -0.024  1.00  0.00    -0.014 A 
ATOM     68  C   UNL     1      -9.232  -7.825   0.302  1.00  0.00     0.009 A 
ATOM     69  C   UNL     1      -8.366  -6.027  -1.034  1.00  0.00     0.009 A 
ATOM     70  C   UNL     1     -10.436  -7.770  -0.417  1.00  0.00     0.001 A 
ATOM     71  C   UNL     1      -9.564  -5.984  -1.766  1.00  0.00     0.001 A 
ATOM     72  C   UNL     1     -10.592  -6.872  -1.471  1.00  0.00     0.000 A 
ENDBRANCH  53  67
BRANCH  54  73
ATOM     73  C   UNL     1       1.334  -8.781   2.211  1.00  0.00    -0.014 A 
ATOM     74  C   UNL     1       2.233  -9.694   1.605  1.00  0.00     0.009 A 
ATOM     75  C   UNL     1       1.665  -7.419   2.154  1.00  0.00     0.009 A 
ATOM     76  C   UNL     1       3.354  -9.264   0.886  1.00  0.00     0.001 A 
ATOM     77  C   UNL     1       2.808  -6.989   1.453  1.00  0.00     0.001 A 
ATOM     78  C   UNL     1       3.642  -7.907   0.811  1.00  0.00     0.000 A 
ENDBRANCH  54  73
BRANCH  66  79
ATOM     79  C   UNL     1      -4.602  -6.332   5.558  1.00  0.00    -0.014 A 
ATOM     80  C   UNL     1      -3.836  -5.362   6.211  1.00  0.00     0.009 A 
ATOM     81  C   UNL     1      -6.002  -6.287   5.761  1.00  0.00     0.009 A 
ATOM     82  C   UNL     1      -4.429  -4.429   7.068  1.00  0.00     0.001 A 
ATOM     83  C   UNL     1      -6.603  -5.320   6.566  1.00  0.00     0.001 A 
ATOM     84  C   UNL     1      -5.811  -4.399   7.234  1.00  0.00     0.000 A 
ENDBRANCH  66  79
ENDBRANCH  40  41
ENDBRANCH  33  35
ENDBRANCH  32  33
ENDBRANCH  31  32
ENDBRANCH  30  31
ENDBRANCH  29  30
ENDBRANCH  28  29
ENDBRANCH   1  28
TORSDOF 21
