REMARK SMILES Cc1ccc(S(=O)(=O)n2cc(C(=O)C(=O)NCC(=O)OCCOCCOCCOC(=O)c3ccc(-c4c5nc(c(-c6ccccc6)c6ccc([nH]6)c(-c6ccccc6)c6nc(c(-c7ccccc7)c7ccc4[nH]7)C=C6)C=C5)cc3)c3ccccc32)cc1
REMARK SMILES IDX 23 1 22 2 21 3 20 4 18 5 19 6 17 7 16 8 14 9 15 10 12 12
REMARK SMILES IDX 13 13 11 14 9 15 10 16 85 17 80 18 84 19 81 20 83 21 82 22
REMARK SMILES IDX 6 23 7 24 8 25 5 26 1 27 2 28 3 29 87 30 4 31 86 32 24 33
REMARK SMILES IDX 25 34 26 35 27 36 28 37 29 38 30 39 31 40 32 41 33 42 79 43
REMARK SMILES IDX 34 44 78 45 35 46 36 47 37 48 72 49 38 50 77 51 71 52 73 53
REMARK SMILES IDX 39 54 76 55 70 56 69 57 40 59 62 60 47 61 61 62 48 63 51 64
REMARK SMILES IDX 60 65 74 66 49 67 50 68 59 70 75 71 52 72 41 73 42 74 46 75
REMARK SMILES IDX 43 76 45 77 44 78 63 79 64 80 68 81 65 82 67 83 66 84 53 85
REMARK SMILES IDX 54 86 58 87 55 88 57 89 56 90
REMARK H PARENT 16 11 73 58 51 69
REMARK Flexibility Score: inf
ROOT
ATOM      1  O   UNL     1     -12.310   5.315   2.417  1.00  0.00    -0.376 OA
ENDROOT
BRANCH   1   2
ATOM      2  C   UNL     1     -12.187   4.079   1.705  1.00  0.00     0.202 C 
BRANCH   2   3
ATOM      3  C   UNL     1     -10.715   3.252   1.402  1.00  0.00     0.261 C 
BRANCH   3   4
ATOM      4  O   UNL     1      -9.288   3.639   2.016  1.00  0.00    -0.462 OA
BRANCH   4   5
ATOM      5  C   UNL     1      -8.012   4.082   1.732  1.00  0.00     0.325 C 
ATOM      6  O   UNL     1      -7.473   4.034   0.629  1.00  0.00    -0.250 OA
BRANCH   5   7
ATOM      7  C   UNL     1      -7.170   4.592   2.948  1.00  0.00     0.239 C 
BRANCH   7   8
ATOM      8  N   UNL     1      -6.361   3.530   3.480  1.00  0.00    -0.338 N 
ATOM      9  C   UNL     1      -5.196   3.087   2.915  1.00  0.00     0.292 C 
ATOM     10  O   UNL     1      -4.567   2.166   3.422  1.00  0.00    -0.265 OA
ATOM     11  H   UNL     1      -6.665   3.092   4.308  1.00  0.00     0.164 HD
BRANCH   9  12
ATOM     12  C   UNL     1      -4.727   3.741   1.598  1.00  0.00     0.252 C 
ATOM     13  O   UNL     1      -4.487   4.946   1.601  1.00  0.00    -0.283 OA
BRANCH  12  14
ATOM     14  C   UNL     1      -4.520   2.895   0.430  1.00  0.00     0.054 A 
ATOM     15  N   UNL     1      -4.032   1.061  -0.720  1.00  0.00    -0.240 N 
ATOM     16  C   UNL     1      -4.557   1.515   0.459  1.00  0.00     0.117 A 
ATOM     17  C   UNL     1      -3.811   2.100  -1.598  1.00  0.00     0.065 A 
ATOM     18  C   UNL     1      -4.169   3.271  -0.910  1.00  0.00     0.012 A 
ATOM     19  C   UNL     1      -3.268   2.143  -2.895  1.00  0.00     0.028 A 
ATOM     20  C   UNL     1      -4.046   4.510  -1.577  1.00  0.00     0.011 A 
ATOM     21  C   UNL     1      -3.131   3.386  -3.517  1.00  0.00     0.002 A 
ATOM     22  C   UNL     1      -3.532   4.553  -2.877  1.00  0.00     0.001 A 
BRANCH  15  23
ATOM     23  S   UNL     1      -3.332  -0.490  -0.806  1.00  0.00     0.268 S 
ATOM     24  O   UNL     1      -3.414  -0.876  -2.222  1.00  0.00    -0.201 OA
ATOM     25  O   UNL     1      -3.952  -1.265   0.223  1.00  0.00    -0.201 OA
BRANCH  23  26
ATOM     26  C   UNL     1      -1.614  -0.291  -0.400  1.00  0.00     0.088 A 
ATOM     27  C   UNL     1       2.639  -0.035   0.168  1.00  0.00     0.044 C 
ATOM     28  C   UNL     1       1.149  -0.122   0.025  1.00  0.00    -0.051 A 
ATOM     29  C   UNL     1       0.534  -1.368  -0.144  1.00  0.00     0.005 A 
ATOM     30  C   UNL     1       0.360   1.033   0.038  1.00  0.00     0.005 A 
ATOM     31  C   UNL     1      -0.843  -1.456  -0.357  1.00  0.00     0.022 A 
ATOM     32  C   UNL     1      -1.019   0.952  -0.166  1.00  0.00     0.022 A 
ENDBRANCH  23  26
ENDBRANCH  15  23
ENDBRANCH  12  14
ENDBRANCH   9  12
ENDBRANCH   7   8
ENDBRANCH   5   7
ENDBRANCH   4   5
ENDBRANCH   3   4
ENDBRANCH   2   3
ENDBRANCH   1   2
BRANCH   1  33
ATOM     33  C   UNL     1     -13.026   5.529   3.652  1.00  0.00     0.188 C 
BRANCH  33  34
ATOM     34  C   UNL     1     -13.410   4.396   4.608  1.00  0.00     0.188 C 
BRANCH  34  35
ATOM     35  O   UNL     1     -12.492   3.324   4.515  1.00  0.00    -0.376 OA
BRANCH  35  36
ATOM     36  C   UNL     1     -12.710   2.268   5.443  1.00  0.00     0.202 C 
BRANCH  36  37
ATOM     37  C   UNL     1     -12.223   2.577   6.878  1.00  0.00     0.261 C 
BRANCH  37  38
ATOM     38  O   UNL     1     -10.857   3.062   6.874  1.00  0.00    -0.460 OA
BRANCH  38  39
ATOM     39  C   UNL     1     -10.636   4.379   7.201  1.00  0.00     0.338 C 
ATOM     40  O   UNL     1     -11.136   4.956   8.150  1.00  0.00    -0.246 OA
BRANCH  39  41
ATOM     41  C   UNL     1      -9.908   5.068   6.074  1.00  0.00     0.060 A 
ATOM     42  C   UNL     1      -9.722   6.449   5.902  1.00  0.00     0.016 A 
ATOM     43  C   UNL     1      -9.788   4.339   4.945  1.00  0.00     0.016 A 
ATOM     44  C   UNL     1      -9.557   7.057   4.573  1.00  0.00     0.010 A 
ATOM     45  C   UNL     1      -9.991   5.046   3.757  1.00  0.00     0.010 A 
ATOM     46  C   UNL     1      -9.758   6.359   3.377  1.00  0.00    -0.014 A 
BRANCH  46  47
ATOM     47  C   UNL     1     -10.089   6.935   1.926  1.00  0.00     0.031 A 
ATOM     48  C   UNL     1      -9.575   6.664   0.433  1.00  0.00     0.074 A 
ATOM     49  C   UNL     1     -11.051   7.888   1.911  1.00  0.00     0.049 A 
ATOM     50  N   UNL     1      -9.212   7.600  -0.433  1.00  0.00    -0.248 NA
ATOM     51  C   UNL     1      -9.532   5.389  -0.285  1.00  0.00     0.031 C 
ATOM     52  C   UNL     1     -11.684   8.541   0.767  1.00  0.00     0.029 A 
ATOM     53  N   UNL     1     -11.536   8.593   3.012  1.00  0.00    -0.354 N 
ATOM     54  C   UNL     1      -8.985   7.007  -1.693  1.00  0.00     0.074 A 
ATOM     55  C   UNL     1      -9.058   5.616  -1.500  1.00  0.00     0.031 C 
ATOM     56  C   UNL     1     -12.181   9.718   1.181  1.00  0.00     0.029 A 
ATOM     57  C   UNL     1     -11.802   9.892   2.574  1.00  0.00     0.049 A 
ATOM     58  H   UNL     1     -11.667   8.243   3.923  1.00  0.00     0.167 HD
ATOM     59  C   UNL     1      -8.925   7.595  -2.922  1.00  0.00     0.031 A 
ATOM     60  C   UNL     1     -11.123  10.941   3.115  1.00  0.00     0.031 A 
ATOM     61  C   UNL     1      -9.401   8.938  -2.862  1.00  0.00     0.049 A 
ATOM     62  C   UNL     1     -10.324  11.711   2.090  1.00  0.00     0.074 A 
ATOM     63  C   UNL     1     -10.663   9.474  -3.035  1.00  0.00     0.029 A 
ATOM     64  N   UNL     1      -8.643   9.862  -2.181  1.00  0.00    -0.354 N 
ATOM     65  N   UNL     1     -10.098  11.299   0.873  1.00  0.00    -0.248 NA
ATOM     66  C   UNL     1      -9.684  12.995   2.367  1.00  0.00     0.031 C 
ATOM     67  C   UNL     1     -10.701  10.687  -2.301  1.00  0.00     0.029 A 
ATOM     68  C   UNL     1      -9.439  10.912  -1.783  1.00  0.00     0.049 A 
ATOM     69  H   UNL     1      -7.678   9.784  -2.005  1.00  0.00     0.167 HD
ATOM     70  C   UNL     1      -9.285  12.193   0.231  1.00  0.00     0.074 A 
ATOM     71  C   UNL     1      -9.069  13.249   1.199  1.00  0.00     0.031 C 
ATOM     72  C   UNL     1      -8.832  11.991  -1.036  1.00  0.00     0.031 A 
BRANCH  59  73
ATOM     73  C   UNL     1      -8.757   6.754  -4.178  1.00  0.00    -0.014 A 
ATOM     74  C   UNL     1      -9.702   6.777  -5.218  1.00  0.00     0.009 A 
ATOM     75  C   UNL     1      -7.701   5.823  -4.305  1.00  0.00     0.009 A 
ATOM     76  C   UNL     1      -9.662   5.840  -6.267  1.00  0.00     0.001 A 
ATOM     77  C   UNL     1      -7.675   4.868  -5.336  1.00  0.00     0.001 A 
ATOM     78  C   UNL     1      -8.670   4.863  -6.307  1.00  0.00     0.000 A 
ENDBRANCH  59  73
BRANCH  60  79
ATOM     79  C   UNL     1     -10.793  10.787   4.569  1.00  0.00    -0.014 A 
ATOM     80  C   UNL     1     -11.859  10.518   5.461  1.00  0.00     0.009 A 
ATOM     81  C   UNL     1      -9.486  10.618   5.049  1.00  0.00     0.009 A 
ATOM     82  C   UNL     1     -11.635  10.002   6.741  1.00  0.00     0.001 A 
ATOM     83  C   UNL     1      -9.263  10.119   6.347  1.00  0.00     0.001 A 
ATOM     84  C   UNL     1     -10.334   9.790   7.180  1.00  0.00     0.000 A 
ENDBRANCH  60  79
BRANCH  72  85
ATOM     85  C   UNL     1      -7.764  12.787  -1.731  1.00  0.00    -0.014 A 
ATOM     86  C   UNL     1      -6.707  13.412  -1.062  1.00  0.00     0.009 A 
ATOM     87  C   UNL     1      -7.707  12.757  -3.145  1.00  0.00     0.009 A 
ATOM     88  C   UNL     1      -5.664  14.017  -1.774  1.00  0.00     0.001 A 
ATOM     89  C   UNL     1      -6.644  13.313  -3.854  1.00  0.00     0.001 A 
ATOM     90  C   UNL     1      -5.627  13.957  -3.166  1.00  0.00     0.000 A 
ENDBRANCH  72  85
ENDBRANCH  46  47
ENDBRANCH  39  41
ENDBRANCH  38  39
ENDBRANCH  37  38
ENDBRANCH  36  37
ENDBRANCH  35  36
ENDBRANCH  34  35
ENDBRANCH  33  34
ENDBRANCH   1  33
TORSDOF 22
