REMARK SMILES CCc1cc(OC(F)(F)F)cc2c1O[C@H](C(F)(F)F)C(C(=O)OCCOCCOCCOC(=O)c1ccc(-c3c4nc(c(-c5ccccc5)c5ccc([nH]5)c(-c5ccccc5)c5nc(c(-c6ccccc6)c6ccc3[nH]6)C=C5)C=C4)cc1)=C2
REMARK SMILES IDX 27 1 26 2 25 3 24 4 23 5 21 6 22 7 20 8 3 9 4 10 13 11 5 12
REMARK SMILES IDX 12 13 14 14 11 15 83 16 15 17 2 18 1 19 6 20 7 21 8 22 9 23
REMARK SMILES IDX 10 24 16 25 17 26 18 27 19 28 28 29 29 30 30 31 31 32 32 33
REMARK SMILES IDX 33 34 34 35 35 36 36 37 82 38 37 39 81 40 38 41 39 42 40 43
REMARK SMILES IDX 75 44 41 45 80 46 74 47 76 48 42 49 79 50 73 51 72 52 43 54
REMARK SMILES IDX 65 55 50 56 64 57 51 58 54 59 63 60 77 61 52 62 53 63 62 65
REMARK SMILES IDX 78 66 55 67 44 68 45 69 49 70 46 71 48 72 47 73 66 74 67 75
REMARK SMILES IDX 71 76 68 77 70 78 69 79 56 80 57 81 61 82 58 83 60 84 59 85
REMARK H PARENT 76 53 54 64
REMARK Flexibility Score: inf
ROOT
ATOM      1  C   UNL     1       0.640   7.239   1.149  1.00  0.00     0.188 C 
ENDROOT
BRANCH   1   2
ATOM      2  O   UNL     1      -0.456   8.136   1.284  1.00  0.00    -0.376 OA
BRANCH   2   3
ATOM      3  C   UNL     1      -0.961   8.458   2.568  1.00  0.00     0.202 C 
BRANCH   3   4
ATOM      4  C   UNL     1      -1.681   7.351   3.342  1.00  0.00     0.261 C 
BRANCH   4   5
ATOM      5  O   UNL     1      -0.953   6.115   3.457  1.00  0.00    -0.460 OA
BRANCH   5   6
ATOM      6  C   UNL     1      -1.361   5.136   2.615  1.00  0.00     0.338 C 
ATOM      7  O   UNL     1      -2.253   5.226   1.787  1.00  0.00    -0.246 OA
BRANCH   6   8
ATOM      8  C   UNL     1      -0.526   3.921   2.716  1.00  0.00     0.087 C 
ATOM      9  C   UNL     1       0.826  -0.024   2.662  1.00  0.00    -0.002 A 
ATOM     10  C   UNL     1       1.639  -0.485   3.707  1.00  0.00     0.054 A 
ATOM     11  C   UNL     1       0.365   1.296   2.716  1.00  0.00     0.131 A 
ATOM     12  C   UNL     1       1.959   0.343   4.789  1.00  0.00     0.130 A 
ATOM     13  C   UNL     1       0.669   2.147   3.794  1.00  0.00     0.021 A 
ATOM     14  O   UNL     1      -0.454   1.708   1.696  1.00  0.00    -0.475 OA
ATOM     15  C   UNL     1       1.479   1.661   4.823  1.00  0.00     0.058 A 
ATOM     16  C   UNL     1       0.036   3.473   3.852  1.00  0.00     0.027 C 
ATOM     17  C   UNL     1      -0.396   3.128   1.434  1.00  0.00     0.316 C 
BRANCH   9  18
ATOM     18  C   UNL     1       0.429  -0.963   1.544  1.00  0.00     0.036 C 
ATOM     19  C   UNL     1       0.961  -0.568   0.173  1.00  0.00     0.009 C 
ENDBRANCH   9  18
BRANCH  12  20
ATOM     20  O   UNL     1       2.715  -0.020   5.871  1.00  0.00    -0.406 OA
BRANCH  20  21
ATOM     21  C   UNL     1       2.968  -1.405   6.055  1.00  0.00     0.573 C 
ATOM     22  F   UNL     1       1.821  -2.119   6.058  1.00  0.00    -0.132 F 
ATOM     23  F   UNL     1       3.791  -1.879   5.095  1.00  0.00    -0.132 F 
ATOM     24  F   UNL     1       3.573  -1.581   7.251  1.00  0.00    -0.132 F 
ENDBRANCH  20  21
ENDBRANCH  12  20
BRANCH  17  25
ATOM     25  C   UNL     1       0.857   3.518   0.616  1.00  0.00     0.430 C 
ATOM     26  F   UNL     1       1.478   2.456   0.054  1.00  0.00    -0.167 F 
ATOM     27  F   UNL     1       0.536   4.356  -0.400  1.00  0.00    -0.167 F 
ATOM     28  F   UNL     1       1.793   4.160   1.361  1.00  0.00    -0.167 F 
ENDBRANCH  17  25
ENDBRANCH   6   8
ENDBRANCH   5   6
ENDBRANCH   4   5
ENDBRANCH   3   4
ENDBRANCH   2   3
ENDBRANCH   1   2
BRANCH   1  29
ATOM     29  C   UNL     1       1.692   7.092   2.264  1.00  0.00     0.188 C 
BRANCH  29  30
ATOM     30  O   UNL     1       1.832   8.264   3.050  1.00  0.00    -0.376 OA
BRANCH  30  31
ATOM     31  C   UNL     1       3.097   8.901   3.000  1.00  0.00     0.202 C 
BRANCH  31  32
ATOM     32  C   UNL     1       3.351   9.706   1.721  1.00  0.00     0.261 C 
BRANCH  32  33
ATOM     33  O   UNL     1       3.152   8.994   0.488  1.00  0.00    -0.460 OA
BRANCH  33  34
ATOM     34  C   UNL     1       4.097   8.104   0.123  1.00  0.00     0.338 C 
ATOM     35  O   UNL     1       5.098   7.792   0.755  1.00  0.00    -0.246 OA
BRANCH  34  36
ATOM     36  C   UNL     1       3.658   7.456  -1.130  1.00  0.00     0.060 A 
ATOM     37  C   UNL     1       3.448   6.072  -1.154  1.00  0.00     0.016 A 
ATOM     38  C   UNL     1       3.460   8.218  -2.285  1.00  0.00     0.016 A 
ATOM     39  C   UNL     1       3.059   5.443  -2.342  1.00  0.00     0.010 A 
ATOM     40  C   UNL     1       3.089   7.585  -3.476  1.00  0.00     0.010 A 
ATOM     41  C   UNL     1       2.908   6.191  -3.518  1.00  0.00    -0.014 A 
BRANCH  41  42
ATOM     42  C   UNL     1       2.721   5.517  -4.830  1.00  0.00     0.031 A 
ATOM     43  C   UNL     1       3.928   5.277  -5.695  1.00  0.00     0.074 A 
ATOM     44  C   UNL     1       1.506   5.136  -5.263  1.00  0.00     0.049 A 
ATOM     45  N   UNL     1       3.998   4.812  -6.917  1.00  0.00    -0.248 NA
ATOM     46  C   UNL     1       5.233   5.606  -5.099  1.00  0.00     0.031 C 
ATOM     47  C   UNL     1       0.260   5.248  -4.507  1.00  0.00     0.029 A 
ATOM     48  N   UNL     1       1.124   4.587  -6.464  1.00  0.00    -0.354 N 
ATOM     49  C   UNL     1       5.349   4.802  -7.239  1.00  0.00     0.074 A 
ATOM     50  C   UNL     1       6.062   5.323  -6.092  1.00  0.00     0.031 C 
ATOM     51  C   UNL     1      -0.752   4.795  -5.269  1.00  0.00     0.029 A 
ATOM     52  C   UNL     1      -0.233   4.402  -6.578  1.00  0.00     0.049 A 
ATOM     53  H   UNL     1       1.762   4.348  -7.174  1.00  0.00     0.167 HD
ATOM     54  C   UNL     1       5.946   4.400  -8.385  1.00  0.00     0.031 A 
ATOM     55  C   UNL     1      -0.973   3.996  -7.629  1.00  0.00     0.031 A 
ATOM     56  C   UNL     1       5.244   3.904  -9.538  1.00  0.00     0.049 A 
ATOM     57  C   UNL     1      -0.296   3.656  -8.933  1.00  0.00     0.074 A 
ATOM     58  C   UNL     1       5.766   3.480 -10.748  1.00  0.00     0.029 A 
ATOM     59  N   UNL     1       3.868   3.776  -9.627  1.00  0.00    -0.354 N 
ATOM     60  N   UNL     1       0.982   3.647  -9.226  1.00  0.00    -0.248 NA
ATOM     61  C   UNL     1      -1.168   3.272 -10.055  1.00  0.00     0.031 C 
ATOM     62  C   UNL     1       4.699   3.145 -11.589  1.00  0.00     0.029 A 
ATOM     63  C   UNL     1       3.519   3.305 -10.881  1.00  0.00     0.049 A 
ATOM     64  H   UNL     1       3.232   3.989  -8.906  1.00  0.00     0.167 HD
ATOM     65  C   UNL     1       1.068   3.227 -10.549  1.00  0.00     0.074 A 
ATOM     66  C   UNL     1      -0.285   2.984 -11.001  1.00  0.00     0.031 C 
ATOM     67  C   UNL     1       2.170   3.056 -11.318  1.00  0.00     0.031 A 
BRANCH  54  68
ATOM     68  C   UNL     1       7.441   4.528  -8.462  1.00  0.00    -0.014 A 
ATOM     69  C   UNL     1       8.285   3.665  -7.746  1.00  0.00     0.009 A 
ATOM     70  C   UNL     1       8.012   5.513  -9.283  1.00  0.00     0.009 A 
ATOM     71  C   UNL     1       9.672   3.810  -7.824  1.00  0.00     0.001 A 
ATOM     72  C   UNL     1       9.398   5.638  -9.379  1.00  0.00     0.001 A 
ATOM     73  C   UNL     1      10.227   4.793  -8.643  1.00  0.00     0.000 A 
ENDBRANCH  54  68
BRANCH  55  74
ATOM     74  C   UNL     1      -2.455   3.922  -7.519  1.00  0.00    -0.014 A 
ATOM     75  C   UNL     1      -3.116   2.684  -7.550  1.00  0.00     0.009 A 
ATOM     76  C   UNL     1      -3.220   5.096  -7.422  1.00  0.00     0.009 A 
ATOM     77  C   UNL     1      -4.512   2.626  -7.512  1.00  0.00     0.001 A 
ATOM     78  C   UNL     1      -4.613   5.032  -7.355  1.00  0.00     0.001 A 
ATOM     79  C   UNL     1      -5.258   3.798  -7.410  1.00  0.00     0.000 A 
ENDBRANCH  55  74
BRANCH  67  80
ATOM     80  C   UNL     1       1.974   2.535 -12.715  1.00  0.00    -0.014 A 
ATOM     81  C   UNL     1       1.452   3.347 -13.733  1.00  0.00     0.009 A 
ATOM     82  C   UNL     1       2.380   1.228 -13.028  1.00  0.00     0.009 A 
ATOM     83  C   UNL     1       1.319   2.850 -15.032  1.00  0.00     0.001 A 
ATOM     84  C   UNL     1       2.270   0.744 -14.332  1.00  0.00     0.001 A 
ATOM     85  C   UNL     1       1.734   1.553 -15.332  1.00  0.00     0.000 A 
ENDBRANCH  67  80
ENDBRANCH  41  42
ENDBRANCH  34  36
ENDBRANCH  33  34
ENDBRANCH  32  33
ENDBRANCH  31  32
ENDBRANCH  30  31
ENDBRANCH  29  30
ENDBRANCH   1  29
TORSDOF 21
