REMARK SMILES Cc1nn(C)c2c1nc(SCC(=O)OCCOCCOCCOC(=O)c1ccc(-c3c4nc(c(-c5ccccc5)c5ccc([nH]5)c(-c5ccccc5)c5nc(c(-c6ccccc6)c6ccc3[nH]6)C=C5)C=C4)cc1)n2[C@H]1CC[N@@H+](C)C1
REMARK SMILES IDX 18 1 17 2 16 3 15 4 14 5 12 6 13 7 11 8 10 9 9 10 1 11 2 12
REMARK SMILES IDX 3 13 7 14 4 15 6 16 8 17 5 18 74 19 75 20 76 21 80 22 77 23
REMARK SMILES IDX 78 24 79 25 19 27 20 28 21 29 22 30 23 31 24 32 25 33 26 34
REMARK SMILES IDX 27 35 73 36 28 37 72 38 29 39 30 40 31 41 66 42 32 43 71 44
REMARK SMILES IDX 65 45 67 46 33 47 70 48 64 49 63 50 34 52 56 53 41 54 55 55
REMARK SMILES IDX 42 56 45 57 54 58 68 59 43 60 44 61 53 63 69 64 46 65 35 66
REMARK SMILES IDX 36 67 40 68 37 69 39 70 38 71 57 72 58 73 62 74 59 75 61 76
REMARK SMILES IDX 60 77 47 78 48 79 52 80 49 81 51 82 50 83
REMARK H PARENT 78 26 67 51 45 62
REMARK Flexibility Score: inf
ROOT
ATOM      1  C   UNL     1      -2.476  -0.499  -3.733  1.00  0.00     0.188 C 
ENDROOT
BRANCH   1   2
ATOM      2  O   UNL     1      -2.936   0.754  -3.244  1.00  0.00    -0.376 OA
BRANCH   2   3
ATOM      3  C   UNL     1      -2.513   1.168  -1.953  1.00  0.00     0.202 C 
BRANCH   3   4
ATOM      4  C   UNL     1      -2.977   0.299  -0.771  1.00  0.00     0.261 C 
BRANCH   4   5
ATOM      5  O   UNL     1      -2.610  -1.099  -0.884  1.00  0.00    -0.463 OA
BRANCH   5   6
ATOM      6  C   UNL     1      -3.595  -2.030  -1.004  1.00  0.00     0.316 C 
ATOM      7  O   UNL     1      -4.779  -1.780  -0.787  1.00  0.00    -0.251 OA
BRANCH   6   8
ATOM      8  C   UNL     1      -3.158  -3.383  -1.609  1.00  0.00     0.200 C 
BRANCH   8   9
ATOM      9  S   UNL     1      -1.480  -3.956  -1.208  1.00  0.00    -0.076 SA
BRANCH   9  10
ATOM     10  C   UNL     1      -0.798  -4.706  -2.662  1.00  0.00     0.171 A 
ATOM     11  C   UNL     1       1.475  -4.397  -6.647  1.00  0.00     0.071 C 
ATOM     12  C   UNL     1       0.579  -5.287  -5.864  1.00  0.00     0.087 A 
ATOM     13  N   UNL     1       0.858  -6.600  -5.982  1.00  0.00    -0.174 NA
ATOM     14  C   UNL     1      -0.087  -5.133  -4.624  1.00  0.00     0.132 A 
ATOM     15  N   UNL     1       1.212  -6.872  -4.705  1.00  0.00    -0.250 N 
ATOM     16  C   UNL     1       0.406  -6.144  -3.853  1.00  0.00     0.159 A 
ATOM     17  N   UNL     1      -0.780  -4.207  -3.893  1.00  0.00    -0.219 NA
ATOM     18  C   UNL     1       2.606  -7.249  -4.574  1.00  0.00     0.176 C 
ATOM     19  N   UNL     1       0.052  -5.822  -2.568  1.00  0.00    -0.295 N 
BRANCH  19  20
ATOM     20  C   UNL     1       0.455  -6.435  -1.312  1.00  0.00     0.152 C 
ATOM     21  C   UNL     1      -0.581  -7.434  -0.807  1.00  0.00     0.093 C 
ATOM     22  C   UNL     1       1.763  -7.228  -1.302  1.00  0.00     0.288 C 
ATOM     23  C   UNL     1      -0.027  -8.768  -1.265  1.00  0.00     0.264 C 
ATOM     24  N   UNL     1       1.413  -8.626  -1.037  1.00  0.00    -0.336 N 
ATOM     25  C   UNL     1       2.181  -9.587  -1.814  1.00  0.00     0.332 C 
ATOM     26  H   UNL     1       1.652  -8.845  -0.070  1.00  0.00     0.347 HD
ENDBRANCH  19  20
ENDBRANCH   9  10
ENDBRANCH   8   9
ENDBRANCH   6   8
ENDBRANCH   5   6
ENDBRANCH   4   5
ENDBRANCH   3   4
ENDBRANCH   2   3
ENDBRANCH   1   2
BRANCH   1  27
ATOM     27  C   UNL     1      -1.129  -1.063  -3.254  1.00  0.00     0.188 C 
BRANCH  27  28
ATOM     28  O   UNL     1      -0.166  -0.092  -2.877  1.00  0.00    -0.376 OA
BRANCH  28  29
ATOM     29  C   UNL     1       1.115  -0.295  -3.443  1.00  0.00     0.202 C 
BRANCH  29  30
ATOM     30  C   UNL     1       1.181   0.474  -4.765  1.00  0.00     0.261 C 
BRANCH  30  31
ATOM     31  O   UNL     1       0.074   0.209  -5.643  1.00  0.00    -0.460 OA
BRANCH  31  32
ATOM     32  C   UNL     1       0.030  -1.075  -6.028  1.00  0.00     0.338 C 
ATOM     33  O   UNL     1       0.828  -1.941  -5.671  1.00  0.00    -0.246 OA
BRANCH  32  34
ATOM     34  C   UNL     1      -1.003  -1.315  -7.048  1.00  0.00     0.060 A 
ATOM     35  C   UNL     1      -1.468  -2.636  -7.118  1.00  0.00     0.016 A 
ATOM     36  C   UNL     1      -0.696  -0.593  -8.199  1.00  0.00     0.016 A 
ATOM     37  C   UNL     1      -1.179  -3.354  -8.263  1.00  0.00     0.010 A 
ATOM     38  C   UNL     1      -0.348  -1.317  -9.314  1.00  0.00     0.010 A 
ATOM     39  C   UNL     1      -0.460  -2.710  -9.278  1.00  0.00    -0.014 A 
BRANCH  39  40
ATOM     40  C   UNL     1       0.114  -3.507 -10.359  1.00  0.00     0.031 A 
ATOM     41  C   UNL     1      -0.913  -4.152 -11.213  1.00  0.00     0.074 A 
ATOM     42  C   UNL     1       1.435  -3.468 -10.646  1.00  0.00     0.049 A 
ATOM     43  N   UNL     1      -0.907  -5.325 -11.754  1.00  0.00    -0.248 NA
ATOM     44  C   UNL     1      -2.167  -3.394 -11.413  1.00  0.00     0.031 C 
ATOM     45  C   UNL     1       2.467  -2.685  -9.949  1.00  0.00     0.029 A 
ATOM     46  N   UNL     1       2.115  -3.974 -11.722  1.00  0.00    -0.354 N 
ATOM     47  C   UNL     1      -2.081  -5.383 -12.497  1.00  0.00     0.074 A 
ATOM     48  C   UNL     1      -2.884  -4.248 -12.131  1.00  0.00     0.031 C 
ATOM     49  C   UNL     1       3.541  -2.550 -10.754  1.00  0.00     0.029 A 
ATOM     50  C   UNL     1       3.303  -3.290 -11.981  1.00  0.00     0.049 A 
ATOM     51  H   UNL     1       1.799  -4.739 -12.256  1.00  0.00     0.167 HD
ATOM     52  C   UNL     1      -2.206  -6.176 -13.589  1.00  0.00     0.031 A 
ATOM     53  C   UNL     1       3.983  -3.225 -13.154  1.00  0.00     0.031 A 
ATOM     54  C   UNL     1      -1.340  -7.315 -13.555  1.00  0.00     0.049 A 
ATOM     55  C   UNL     1       3.474  -4.290 -14.044  1.00  0.00     0.074 A 
ATOM     56  C   UNL     1      -1.181  -8.379 -12.691  1.00  0.00     0.029 A 
ATOM     57  N   UNL     1      -0.228  -7.299 -14.358  1.00  0.00    -0.354 N 
ATOM     58  N   UNL     1       3.724  -5.556 -13.891  1.00  0.00    -0.248 NA
ATOM     59  C   UNL     1       2.366  -3.975 -14.933  1.00  0.00     0.031 C 
ATOM     60  C   UNL     1       0.204  -8.697 -12.734  1.00  0.00     0.029 A 
ATOM     61  C   UNL     1       0.813  -7.826 -13.638  1.00  0.00     0.049 A 
ATOM     62  H   UNL     1      -0.185  -6.969 -15.284  1.00  0.00     0.167 HD
ATOM     63  C   UNL     1       2.563  -6.193 -14.300  1.00  0.00     0.074 A 
ATOM     64  C   UNL     1       1.821  -5.188 -15.053  1.00  0.00     0.031 C 
ATOM     65  C   UNL     1       2.184  -7.380 -13.745  1.00  0.00     0.031 A 
BRANCH  52  66
ATOM     66  C   UNL     1      -2.823  -5.635 -14.849  1.00  0.00    -0.014 A 
ATOM     67  C   UNL     1      -3.127  -6.508 -15.900  1.00  0.00     0.009 A 
ATOM     68  C   UNL     1      -2.872  -4.250 -15.129  1.00  0.00     0.009 A 
ATOM     69  C   UNL     1      -3.441  -6.014 -17.173  1.00  0.00     0.001 A 
ATOM     70  C   UNL     1      -3.231  -3.755 -16.381  1.00  0.00     0.001 A 
ATOM     71  C   UNL     1      -3.495  -4.642 -17.411  1.00  0.00     0.000 A 
ENDBRANCH  52  66
BRANCH  53  72
ATOM     72  C   UNL     1       4.864  -2.147 -13.667  1.00  0.00    -0.014 A 
ATOM     73  C   UNL     1       5.713  -2.375 -14.763  1.00  0.00     0.009 A 
ATOM     74  C   UNL     1       4.709  -0.816 -13.236  1.00  0.00     0.009 A 
ATOM     75  C   UNL     1       6.354  -1.313 -15.417  1.00  0.00     0.001 A 
ATOM     76  C   UNL     1       5.360   0.243 -13.878  1.00  0.00     0.001 A 
ATOM     77  C   UNL     1       6.171  -0.004 -14.979  1.00  0.00     0.000 A 
ENDBRANCH  53  72
BRANCH  65  78
ATOM     78  C   UNL     1       3.202  -8.127 -12.921  1.00  0.00    -0.014 A 
ATOM     79  C   UNL     1       3.788  -7.589 -11.762  1.00  0.00     0.009 A 
ATOM     80  C   UNL     1       3.464  -9.468 -13.240  1.00  0.00     0.009 A 
ATOM     81  C   UNL     1       4.640  -8.360 -10.967  1.00  0.00     0.001 A 
ATOM     82  C   UNL     1       4.295 -10.245 -12.432  1.00  0.00     0.001 A 
ATOM     83  C   UNL     1       4.888  -9.690 -11.300  1.00  0.00     0.000 A 
ENDBRANCH  65  78
ENDBRANCH  39  40
ENDBRANCH  32  34
ENDBRANCH  31  32
ENDBRANCH  30  31
ENDBRANCH  29  30
ENDBRANCH  28  29
ENDBRANCH  27  28
ENDBRANCH   1  27
TORSDOF 20
