REMARK SMILES C=CCN(CC(=O)OCCOCCOCCOC(=O)c1ccc(-c2c3nc(c(-c4ccccc4)c4ccc([nH]4)c(-c4ccccc4)c4nc(c(-c5ccccc5)c5ccc2[nH]5)C=C4)C=C3)cc1)C(=O)N1CC[C@@H]([NH+]2CCCCC2)C1
REMARK SMILES IDX 12 1 11 2 10 3 9 4 8 5 6 6 7 7 5 8 4 9 3 10 2 11 1 12 68 13
REMARK SMILES IDX 69 14 70 15 71 16 80 17 72 18 73 19 74 20 75 21 79 22 76 24
REMARK SMILES IDX 78 25 77 26 13 27 14 28 15 29 16 30 17 31 18 32 19 33 20 34
REMARK SMILES IDX 21 35 67 36 22 37 66 38 23 39 24 40 25 41 60 42 26 43 65 44
REMARK SMILES IDX 59 45 61 46 27 47 64 48 58 49 57 50 28 52 50 53 35 54 49 55
REMARK SMILES IDX 36 56 39 57 48 58 62 59 37 60 38 61 47 63 63 64 40 65 29 66
REMARK SMILES IDX 30 67 34 68 31 69 33 70 32 71 51 72 52 73 56 74 53 75 55 76
REMARK SMILES IDX 54 77 41 78 42 79 46 80 43 81 45 82 44 83
REMARK H PARENT 74 23 61 51 39 62
REMARK Flexibility Score: inf
ROOT
ATOM      1  C   UNL     1      -5.273  -3.629  -0.811  1.00  0.00     0.188 C 
ENDROOT
BRANCH   1   2
ATOM      2  O   UNL     1      -6.537  -3.045  -1.033  1.00  0.00    -0.376 OA
BRANCH   2   3
ATOM      3  C   UNL     1      -6.640  -1.688  -0.602  1.00  0.00     0.202 C 
BRANCH   3   4
ATOM      4  C   UNL     1      -6.177  -1.410   0.842  1.00  0.00     0.261 C 
BRANCH   4   5
ATOM      5  O   UNL     1      -4.726  -1.433   0.991  1.00  0.00    -0.462 OA
BRANCH   5   6
ATOM      6  C   UNL     1      -4.269  -1.938   2.171  1.00  0.00     0.325 C 
ATOM      7  O   UNL     1      -5.008  -2.265   3.099  1.00  0.00    -0.250 OA
BRANCH   6   8
ATOM      8  C   UNL     1      -2.738  -2.031   2.324  1.00  0.00     0.244 C 
BRANCH   8   9
ATOM      9  N   UNL     1      -1.816  -1.926   1.189  1.00  0.00    -0.310 N 
BRANCH   9  10
ATOM     10  C   UNL     1      -1.311  -0.575   0.906  1.00  0.00     0.149 C 
BRANCH  10  11
ATOM     11  C   UNL     1       0.174  -0.490   1.149  1.00  0.00    -0.013 C 
ATOM     12  C   UNL     1       1.028   0.114   0.307  1.00  0.00     0.006 C 
ENDBRANCH  10  11
ENDBRANCH   9  10
BRANCH   9  13
ATOM     13  C   UNL     1      -1.426  -2.922   0.313  1.00  0.00     0.321 C 
ATOM     14  O   UNL     1      -0.626  -2.670  -0.598  1.00  0.00    -0.248 OA
BRANCH  13  15
ATOM     15  N   UNL     1      -1.970  -4.188   0.362  1.00  0.00    -0.318 N 
ATOM     16  C   UNL     1      -2.702  -4.915   1.365  1.00  0.00     0.128 C 
ATOM     17  C   UNL     1      -1.638  -5.080  -0.726  1.00  0.00     0.186 C 
ATOM     18  C   UNL     1      -2.987  -6.304   0.805  1.00  0.00     0.088 C 
ATOM     19  C   UNL     1      -2.495  -6.355  -0.657  1.00  0.00     0.205 C 
BRANCH  19  20
ATOM     20  N   UNL     1      -3.616  -6.812  -1.484  1.00  0.00    -0.331 N 
ATOM     21  C   UNL     1      -3.914  -6.467  -2.854  1.00  0.00     0.262 C 
ATOM     22  C   UNL     1      -3.990  -8.221  -1.318  1.00  0.00     0.262 C 
ATOM     23  H   UNL     1      -4.152  -6.090  -1.004  1.00  0.00     0.348 HD
ATOM     24  C   UNL     1      -5.430  -6.356  -3.009  1.00  0.00     0.062 C 
ATOM     25  C   UNL     1      -5.492  -8.194  -1.130  1.00  0.00     0.062 C 
ATOM     26  C   UNL     1      -6.246  -7.352  -2.171  1.00  0.00     0.012 C 
ENDBRANCH  19  20
ENDBRANCH  13  15
ENDBRANCH   9  13
ENDBRANCH   8   9
ENDBRANCH   6   8
ENDBRANCH   5   6
ENDBRANCH   4   5
ENDBRANCH   3   4
ENDBRANCH   2   3
ENDBRANCH   1   2
BRANCH   1  27
ATOM     27  C   UNL     1      -4.066  -3.055  -1.574  1.00  0.00     0.188 C 
BRANCH  27  28
ATOM     28  O   UNL     1      -4.204  -2.106  -2.614  1.00  0.00    -0.376 OA
BRANCH  28  29
ATOM     29  C   UNL     1      -4.224  -2.643  -3.929  1.00  0.00     0.202 C 
BRANCH  29  30
ATOM     30  C   UNL     1      -2.917  -3.191  -4.606  1.00  0.00     0.261 C 
BRANCH  30  31
ATOM     31  O   UNL     1      -2.064  -4.085  -3.851  1.00  0.00    -0.460 OA
BRANCH  31  32
ATOM     32  C   UNL     1      -1.026  -4.676  -4.537  1.00  0.00     0.338 C 
ATOM     33  O   UNL     1      -0.661  -4.389  -5.653  1.00  0.00    -0.246 OA
BRANCH  32  34
ATOM     34  C   UNL     1      -0.529  -5.901  -3.809  1.00  0.00     0.060 A 
ATOM     35  C   UNL     1       0.467  -5.863  -2.829  1.00  0.00     0.016 A 
ATOM     36  C   UNL     1      -1.095  -7.143  -4.113  1.00  0.00     0.016 A 
ATOM     37  C   UNL     1       0.776  -7.025  -2.066  1.00  0.00     0.010 A 
ATOM     38  C   UNL     1      -0.817  -8.290  -3.330  1.00  0.00     0.010 A 
ATOM     39  C   UNL     1       0.101  -8.246  -2.263  1.00  0.00    -0.014 A 
BRANCH  39  40
ATOM     40  C   UNL     1       0.556  -9.509  -1.568  1.00  0.00     0.031 A 
ATOM     41  C   UNL     1       1.649 -10.268  -2.268  1.00  0.00     0.074 A 
ATOM     42  C   UNL     1       0.114 -10.005  -0.383  1.00  0.00     0.049 A 
ATOM     43  N   UNL     1       2.343 -11.296  -1.856  1.00  0.00    -0.248 NA
ATOM     44  C   UNL     1       2.018  -9.778  -3.606  1.00  0.00     0.031 C 
ATOM     45  C   UNL     1      -0.910  -9.421   0.461  1.00  0.00     0.029 A 
ATOM     46  N   UNL     1       0.479 -11.128   0.344  1.00  0.00    -0.354 N 
ATOM     47  C   UNL     1       3.268 -11.535  -2.859  1.00  0.00     0.074 A 
ATOM     48  C   UNL     1       3.000 -10.599  -3.928  1.00  0.00     0.031 C 
ATOM     49  C   UNL     1      -1.107 -10.152   1.569  1.00  0.00     0.029 A 
ATOM     50  C   UNL     1      -0.207 -11.288   1.538  1.00  0.00     0.049 A 
ATOM     51  H   UNL     1       1.169 -11.760   0.038  1.00  0.00     0.167 HD
ATOM     52  C   UNL     1       4.275 -12.436  -2.893  1.00  0.00     0.031 A 
ATOM     53  C   UNL     1      -0.127 -12.218   2.515  1.00  0.00     0.031 A 
ATOM     54  C   UNL     1       4.492 -13.445  -1.900  1.00  0.00     0.049 A 
ATOM     55  C   UNL     1       0.904 -13.305   2.383  1.00  0.00     0.074 A 
ATOM     56  C   UNL     1       5.438 -14.453  -1.891  1.00  0.00     0.029 A 
ATOM     57  N   UNL     1       3.725 -13.600  -0.756  1.00  0.00    -0.354 N 
ATOM     58  N   UNL     1       1.815 -13.463   1.456  1.00  0.00    -0.248 NA
ATOM     59  C   UNL     1       0.933 -14.331   3.438  1.00  0.00     0.031 C 
ATOM     60  C   UNL     1       5.200 -15.259  -0.774  1.00  0.00     0.029 A 
ATOM     61  C   UNL     1       4.153 -14.710  -0.050  1.00  0.00     0.049 A 
ATOM     62  H   UNL     1       2.986 -13.008  -0.486  1.00  0.00     0.167 HD
ATOM     63  C   UNL     1       2.545 -14.582   1.830  1.00  0.00     0.074 A 
ATOM     64  C   UNL     1       1.988 -15.050   3.081  1.00  0.00     0.031 C 
ATOM     65  C   UNL     1       3.586 -15.168   1.192  1.00  0.00     0.031 A 
BRANCH  52  66
ATOM     66  C   UNL     1       5.153 -12.374  -4.106  1.00  0.00    -0.014 A 
ATOM     67  C   UNL     1       6.029 -11.292  -4.304  1.00  0.00     0.009 A 
ATOM     68  C   UNL     1       5.021 -13.342  -5.110  1.00  0.00     0.009 A 
ATOM     69  C   UNL     1       6.707 -11.149  -5.514  1.00  0.00     0.001 A 
ATOM     70  C   UNL     1       5.724 -13.211  -6.307  1.00  0.00     0.001 A 
ATOM     71  C   UNL     1       6.551 -12.107  -6.515  1.00  0.00     0.000 A 
ENDBRANCH  52  66
BRANCH  53  72
ATOM     72  C   UNL     1      -1.022 -12.191   3.719  1.00  0.00    -0.014 A 
ATOM     73  C   UNL     1      -0.497 -12.001   5.011  1.00  0.00     0.009 A 
ATOM     74  C   UNL     1      -2.397 -12.455   3.598  1.00  0.00     0.009 A 
ATOM     75  C   UNL     1      -1.311 -12.123   6.145  1.00  0.00     0.001 A 
ATOM     76  C   UNL     1      -3.215 -12.546   4.732  1.00  0.00     0.001 A 
ATOM     77  C   UNL     1      -2.669 -12.396   6.005  1.00  0.00     0.000 A 
ENDBRANCH  53  72
BRANCH  65  78
ATOM     78  C   UNL     1       4.211 -16.366   1.847  1.00  0.00    -0.014 A 
ATOM     79  C   UNL     1       3.538 -17.595   1.919  1.00  0.00     0.009 A 
ATOM     80  C   UNL     1       5.520 -16.275   2.345  1.00  0.00     0.009 A 
ATOM     81  C   UNL     1       4.154 -18.702   2.506  1.00  0.00     0.001 A 
ATOM     82  C   UNL     1       6.146 -17.392   2.897  1.00  0.00     0.001 A 
ATOM     83  C   UNL     1       5.460 -18.601   2.985  1.00  0.00     0.000 A 
ENDBRANCH  65  78
ENDBRANCH  39  40
ENDBRANCH  32  34
ENDBRANCH  31  32
ENDBRANCH  30  31
ENDBRANCH  29  30
ENDBRANCH  28  29
ENDBRANCH  27  28
ENDBRANCH   1  27
TORSDOF 23
