REMARK SMILES CCn1ncc(NC(=O)[C@@H]2CCCC[C@@H]2C(=O)OCCOCCOCCOC(=O)c2ccc(-c3c4nc(c(-c5ccccc5)c5ccc([nH]5)c(-c5ccccc5)c5nc(c(-c6ccccc6)c6ccc3[nH]6)C=C5)C=C4)cc2)c1C(=O)Nc1cnn(C)c1C
REMARK SMILES IDX 22 1 21 2 20 3 19 4 18 5 16 6 17 7 15 8 10 9 11 10 12 11
REMARK SMILES IDX 14 12 13 13 8 14 7 15 9 17 6 18 3 19 4 20 78 21 5 22 2 23
REMARK SMILES IDX 1 24 79 25 80 26 81 27 82 29 83 30 87 31 84 32 85 33 88 34
REMARK SMILES IDX 86 35 23 36 24 37 25 38 26 39 27 40 28 41 29 42 30 43 31 44
REMARK SMILES IDX 77 45 32 46 76 47 33 48 34 49 35 50 70 51 36 52 75 53 69 54
REMARK SMILES IDX 71 55 37 56 74 57 68 58 67 59 38 61 60 62 45 63 59 64 46 65
REMARK SMILES IDX 49 66 58 67 72 68 47 69 48 70 57 72 73 73 50 74 39 75 40 76
REMARK SMILES IDX 44 77 41 78 43 79 42 80 61 81 62 82 66 83 63 84 65 85 64 86
REMARK SMILES IDX 51 87 52 88 56 89 53 90 55 91 54 92
REMARK H PARENT 7 16 81 28 71 60 49 71
REMARK Flexibility Score: inf
ROOT
ATOM      1  C   UNL     1       3.371  -5.258   8.893  1.00  0.00     0.188 C 
ENDROOT
BRANCH   1   2
ATOM      2  O   UNL     1       4.255  -4.611   9.801  1.00  0.00    -0.376 OA
BRANCH   2   3
ATOM      3  C   UNL     1       3.842  -3.397  10.406  1.00  0.00     0.202 C 
BRANCH   3   4
ATOM      4  C   UNL     1       4.186  -2.139   9.600  1.00  0.00     0.261 C 
BRANCH   4   5
ATOM      5  O   UNL     1       3.728  -2.149   8.231  1.00  0.00    -0.463 OA
BRANCH   5   6
ATOM      6  C   UNL     1       4.657  -2.495   7.307  1.00  0.00     0.309 C 
ATOM      7  O   UNL     1       5.779  -2.911   7.583  1.00  0.00    -0.252 OA
BRANCH   6   8
ATOM      8  C   UNL     1       4.202  -2.382   5.850  1.00  0.00     0.111 C 
ATOM      9  C   UNL     1       3.003  -1.535   5.422  1.00  0.00     0.093 C 
ATOM     10  C   UNL     1       1.655  -2.148   5.775  1.00  0.00     0.014 C 
ATOM     11  C   UNL     1       1.487  -3.566   5.242  1.00  0.00     0.001 C 
ATOM     12  C   UNL     1       4.122  -3.758   5.177  1.00  0.00     0.016 C 
ATOM     13  C   UNL     1       2.745  -4.421   5.082  1.00  0.00     0.001 C 
BRANCH   9  14
ATOM     14  C   UNL     1       3.111  -0.087   5.839  1.00  0.00     0.228 C 
ATOM     15  N   UNL     1       2.459   0.900   5.172  1.00  0.00    -0.322 N 
ATOM     16  H   UNL     1       2.543   1.769   5.628  1.00  0.00     0.170 HD
ATOM     17  O   UNL     1       3.728   0.247   6.854  1.00  0.00    -0.274 OA
BRANCH  15  18
ATOM     18  C   UNL     1       1.704   0.996   4.013  1.00  0.00     0.092 A 
ATOM     19  N   UNL     1       0.540   0.905   2.148  1.00  0.00    -0.258 N 
ATOM     20  N   UNL     1       0.137   2.053   2.721  1.00  0.00    -0.178 NA
ATOM     21  C   UNL     1       1.558   0.252   2.838  1.00  0.00     0.150 A 
ATOM     22  C   UNL     1       0.858   2.119   3.828  1.00  0.00     0.162 A 
BRANCH  19  23
ATOM     23  C   UNL     1      -0.115   0.565   0.898  1.00  0.00     0.142 C 
ATOM     24  C   UNL     1       0.625   1.077  -0.324  1.00  0.00     0.029 C 
ENDBRANCH  19  23
BRANCH  21  25
ATOM     25  C   UNL     1       2.365  -0.811   2.251  1.00  0.00     0.276 C 
ATOM     26  O   UNL     1       3.576  -0.714   2.074  1.00  0.00    -0.267 OA
ATOM     27  N   UNL     1       1.699  -1.989   1.987  1.00  0.00    -0.318 N 
ATOM     28  H   UNL     1       1.440  -2.556   2.749  1.00  0.00     0.170 HD
BRANCH  27  29
ATOM     29  C   UNL     1       1.375  -2.420   0.720  1.00  0.00     0.082 A 
ATOM     30  C   UNL     1       1.864  -1.998  -0.529  1.00  0.00     0.161 A 
ATOM     31  C   UNL     1       0.347  -3.301   0.431  1.00  0.00     0.059 A 
ATOM     32  N   UNL     1       1.109  -2.441  -1.534  1.00  0.00    -0.179 NA
ATOM     33  N   UNL     1       0.144  -3.155  -0.924  1.00  0.00    -0.271 N 
ATOM     34  C   UNL     1      -0.551  -4.107   1.299  1.00  0.00     0.068 C 
ATOM     35  C   UNL     1      -1.068  -3.437  -1.662  1.00  0.00     0.174 C 
ENDBRANCH  27  29
ENDBRANCH  21  25
ENDBRANCH  15  18
ENDBRANCH   9  14
ENDBRANCH   6   8
ENDBRANCH   5   6
ENDBRANCH   4   5
ENDBRANCH   3   4
ENDBRANCH   2   3
ENDBRANCH   1   2
BRANCH   1  36
ATOM     36  C   UNL     1       2.028  -4.621   8.533  1.00  0.00     0.188 C 
BRANCH  36  37
ATOM     37  O   UNL     1       1.157  -4.503   9.653  1.00  0.00    -0.376 OA
BRANCH  37  38
ATOM     38  C   UNL     1      -0.222  -4.415   9.285  1.00  0.00     0.202 C 
BRANCH  38  39
ATOM     39  C   UNL     1      -0.879  -5.740   9.647  1.00  0.00     0.261 C 
BRANCH  39  40
ATOM     40  O   UNL     1      -0.160  -6.850   9.107  1.00  0.00    -0.460 OA
BRANCH  40  41
ATOM     41  C   UNL     1      -0.064  -6.950   7.763  1.00  0.00     0.338 C 
ATOM     42  O   UNL     1      -0.606  -6.253   6.929  1.00  0.00    -0.246 OA
BRANCH  41  43
ATOM     43  C   UNL     1       0.798  -8.113   7.473  1.00  0.00     0.060 A 
ATOM     44  C   UNL     1       0.760  -8.635   6.178  1.00  0.00     0.016 A 
ATOM     45  C   UNL     1       1.421  -8.799   8.525  1.00  0.00     0.016 A 
ATOM     46  C   UNL     1       1.095  -9.963   5.995  1.00  0.00     0.010 A 
ATOM     47  C   UNL     1       1.730 -10.126   8.350  1.00  0.00     0.010 A 
ATOM     48  C   UNL     1       1.456 -10.715   7.114  1.00  0.00    -0.014 A 
BRANCH  48  49
ATOM     49  C   UNL     1       1.335 -12.162   7.057  1.00  0.00     0.031 A 
ATOM     50  C   UNL     1       2.545 -12.935   6.710  1.00  0.00     0.074 A 
ATOM     51  C   UNL     1       0.217 -12.738   7.552  1.00  0.00     0.049 A 
ATOM     52  N   UNL     1       2.643 -13.917   5.875  1.00  0.00    -0.248 NA
ATOM     53  C   UNL     1       3.812 -12.557   7.356  1.00  0.00     0.031 C 
ATOM     54  C   UNL     1      -0.896 -12.053   8.228  1.00  0.00     0.029 A 
ATOM     55  N   UNL     1      -0.090 -14.058   7.709  1.00  0.00    -0.354 N 
ATOM     56  C   UNL     1       3.942 -14.394   6.013  1.00  0.00     0.074 A 
ATOM     57  C   UNL     1       4.649 -13.459   6.848  1.00  0.00     0.031 C 
ATOM     58  C   UNL     1      -1.618 -12.958   8.919  1.00  0.00     0.029 A 
ATOM     59  C   UNL     1      -1.083 -14.283   8.655  1.00  0.00     0.049 A 
ATOM     60  H   UNL     1       0.349 -14.780   7.203  1.00  0.00     0.167 HD
ATOM     61  C   UNL     1       4.300 -15.646   5.628  1.00  0.00     0.031 A 
ATOM     62  C   UNL     1      -1.396 -15.455   9.257  1.00  0.00     0.031 A 
ATOM     63  C   UNL     1       3.390 -16.224   4.682  1.00  0.00     0.049 A 
ATOM     64  C   UNL     1      -0.788 -16.553   8.476  1.00  0.00     0.074 A 
ATOM     65  C   UNL     1       2.938 -15.867   3.428  1.00  0.00     0.029 A 
ATOM     66  N   UNL     1       2.543 -17.208   5.125  1.00  0.00    -0.354 N 
ATOM     67  N   UNL     1      -1.200 -16.929   7.301  1.00  0.00    -0.248 NA
ATOM     68  C   UNL     1       0.536 -17.026   8.851  1.00  0.00     0.031 C 
ATOM     69  C   UNL     1       1.594 -16.334   3.366  1.00  0.00     0.029 A 
ATOM     70  C   UNL     1       1.309 -16.960   4.581  1.00  0.00     0.049 A 
ATOM     71  H   UNL     1       2.777 -17.954   5.723  1.00  0.00     0.167 HD
ATOM     72  C   UNL     1      -0.050 -17.313   6.629  1.00  0.00     0.074 A 
ATOM     73  C   UNL     1       0.954 -17.492   7.671  1.00  0.00     0.031 C 
ATOM     74  C   UNL     1       0.057 -17.162   5.276  1.00  0.00     0.031 A 
BRANCH  61  75
ATOM     75  C   UNL     1       5.290 -16.461   6.410  1.00  0.00    -0.014 A 
ATOM     76  C   UNL     1       5.805 -17.642   5.856  1.00  0.00     0.009 A 
ATOM     77  C   UNL     1       5.531 -16.238   7.782  1.00  0.00     0.009 A 
ATOM     78  C   UNL     1       6.507 -18.562   6.643  1.00  0.00     0.001 A 
ATOM     79  C   UNL     1       6.270 -17.131   8.559  1.00  0.00     0.001 A 
ATOM     80  C   UNL     1       6.741 -18.305   7.992  1.00  0.00     0.000 A 
ENDBRANCH  61  75
BRANCH  62  81
ATOM     81  C   UNL     1      -2.019 -15.677  10.580  1.00  0.00    -0.014 A 
ATOM     82  C   UNL     1      -2.613 -16.907  10.899  1.00  0.00     0.009 A 
ATOM     83  C   UNL     1      -1.848 -14.746  11.623  1.00  0.00     0.009 A 
ATOM     84  C   UNL     1      -3.006 -17.199  12.212  1.00  0.00     0.001 A 
ATOM     85  C   UNL     1      -2.253 -15.031  12.931  1.00  0.00     0.001 A 
ATOM     86  C   UNL     1      -2.821 -16.264  13.228  1.00  0.00     0.000 A 
ENDBRANCH  62  81
BRANCH  74  87
ATOM     87  C   UNL     1      -1.202 -16.854   4.502  1.00  0.00    -0.014 A 
ATOM     88  C   UNL     1      -1.976 -15.705   4.744  1.00  0.00     0.009 A 
ATOM     89  C   UNL     1      -1.537 -17.663   3.405  1.00  0.00     0.009 A 
ATOM     90  C   UNL     1      -3.076 -15.398   3.939  1.00  0.00     0.001 A 
ATOM     91  C   UNL     1      -2.623 -17.342   2.586  1.00  0.00     0.001 A 
ATOM     92  C   UNL     1      -3.397 -16.215   2.858  1.00  0.00     0.000 A 
ENDBRANCH  74  87
ENDBRANCH  48  49
ENDBRANCH  41  43
ENDBRANCH  40  41
ENDBRANCH  39  40
ENDBRANCH  38  39
ENDBRANCH  37  38
ENDBRANCH  36  37
ENDBRANCH   1  36
TORSDOF 22
