REMARK SMILES Cc1cc(C(=O)Nc2cccc(C(=O)NCC(=O)OCCOCCOCCOC(=O)c3ccc(-c4c5nc(c(-c6ccccc6)c6ccc([nH]6)c(-c6ccccc6)c6nc(c(-c7ccccc7)c7ccc4[nH]7)C=C6)C=C5)cc3)c2)no1
REMARK SMILES IDX 23 1 22 2 21 3 20 4 19 5 17 6 18 7 16 8 15 9 13 10 14 11
REMARK SMILES IDX 12 13 8 14 9 15 79 16 10 17 11 18 7 19 5 20 6 21 4 23 1 24
REMARK SMILES IDX 2 25 3 26 81 27 80 28 24 29 25 30 26 31 27 32 28 33 29 34
REMARK SMILES IDX 30 35 31 36 32 37 78 38 33 39 77 40 34 41 35 42 36 43 71 44
REMARK SMILES IDX 37 45 76 46 70 47 72 48 38 49 75 50 69 51 68 52 39 54 61 55
REMARK SMILES IDX 46 56 60 57 47 58 50 59 59 60 73 61 48 62 49 63 58 65 74 66
REMARK SMILES IDX 51 67 40 68 41 69 45 70 42 71 44 72 43 73 62 74 63 75 67 76
REMARK SMILES IDX 64 77 66 78 65 79 52 80 53 81 57 82 54 83 56 84 55 85
REMARK H PARENT 15 12 7 22 72 53 50 64
REMARK Flexibility Score: inf
ROOT
ATOM      1  C   UNL     1       0.223  -0.283   6.084  1.00  0.00     0.188 C 
ENDROOT
BRANCH   1   2
ATOM      2  O   UNL     1      -0.829  -0.623   6.973  1.00  0.00    -0.376 OA
BRANCH   2   3
ATOM      3  C   UNL     1      -1.479  -1.886   6.848  1.00  0.00     0.202 C 
BRANCH   3   4
ATOM      4  C   UNL     1      -1.975  -2.358   5.469  1.00  0.00     0.261 C 
BRANCH   4   5
ATOM      5  O   UNL     1      -0.936  -2.479   4.476  1.00  0.00    -0.462 OA
BRANCH   5   6
ATOM      6  C   UNL     1      -1.026  -1.644   3.409  1.00  0.00     0.325 C 
ATOM      7  O   UNL     1      -1.978  -0.907   3.184  1.00  0.00    -0.250 OA
BRANCH   6   8
ATOM      8  C   UNL     1       0.270  -1.583   2.579  1.00  0.00     0.239 C 
BRANCH   8   9
ATOM      9  N   UNL     1       1.254  -2.664   2.652  1.00  0.00    -0.341 N 
ATOM     10  C   UNL     1       1.427  -3.818   1.936  1.00  0.00     0.251 C 
ATOM     11  O   UNL     1       2.457  -4.460   2.140  1.00  0.00    -0.269 OA
ATOM     12  H   UNL     1       1.928  -2.535   3.358  1.00  0.00     0.164 HD
BRANCH  10  13
ATOM     13  C   UNL     1       0.480  -4.279   0.886  1.00  0.00     0.041 A 
ATOM     14  C   UNL     1      -1.505  -3.974  -0.469  1.00  0.00     0.042 A 
ATOM     15  C   UNL     1      -1.146  -5.044  -1.277  1.00  0.00     0.026 A 
ATOM     16  C   UNL     1      -0.770  -3.709   0.679  1.00  0.00     0.040 A 
ATOM     17  C   UNL     1       0.056  -5.711  -1.029  1.00  0.00     0.003 A 
ATOM     18  C   UNL     1       0.888  -5.298   0.017  1.00  0.00     0.014 A 
BRANCH  14  19
ATOM     19  N   UNL     1      -2.580  -3.148  -0.821  1.00  0.00    -0.321 N 
ATOM     20  C   UNL     1      -2.703  -1.766  -0.671  1.00  0.00     0.277 C 
ATOM     21  O   UNL     1      -3.840  -1.293  -0.713  1.00  0.00    -0.267 OA
ATOM     22  H   UNL     1      -3.351  -3.603  -1.230  1.00  0.00     0.170 HD
BRANCH  20  23
ATOM     23  C   UNL     1      -1.496  -0.910  -0.575  1.00  0.00     0.171 A 
ATOM     24  C   UNL     1       2.015   0.225  -0.433  1.00  0.00     0.091 C 
ATOM     25  C   UNL     1       0.573  -0.080  -0.537  1.00  0.00     0.134 A 
ATOM     26  C   UNL     1      -0.157  -1.137  -1.028  1.00  0.00     0.082 A 
ATOM     27  O   UNL     1      -0.277   0.801   0.049  1.00  0.00    -0.361 OA
ATOM     28  N   UNL     1      -1.562   0.301   0.012  1.00  0.00    -0.074 NA
ENDBRANCH  20  23
ENDBRANCH  14  19
ENDBRANCH  10  13
ENDBRANCH   8   9
ENDBRANCH   6   8
ENDBRANCH   5   6
ENDBRANCH   4   5
ENDBRANCH   3   4
ENDBRANCH   2   3
ENDBRANCH   1   2
BRANCH   1  29
ATOM     29  C   UNL     1       1.317  -1.317   5.795  1.00  0.00     0.188 C 
BRANCH  29  30
ATOM     30  O   UNL     1       1.132  -2.579   6.370  1.00  0.00    -0.376 OA
BRANCH  30  31
ATOM     31  C   UNL     1       1.963  -2.977   7.442  1.00  0.00     0.202 C 
BRANCH  31  32
ATOM     32  C   UNL     1       2.534  -1.982   8.475  1.00  0.00     0.261 C 
BRANCH  32  33
ATOM     33  O   UNL     1       2.729  -0.614   8.080  1.00  0.00    -0.460 OA
BRANCH  33  34
ATOM     34  C   UNL     1       3.862  -0.311   7.403  1.00  0.00     0.338 C 
ATOM     35  O   UNL     1       4.758  -1.082   7.088  1.00  0.00    -0.246 OA
BRANCH  34  36
ATOM     36  C   UNL     1       3.714   1.062   6.862  1.00  0.00     0.060 A 
ATOM     37  C   UNL     1       3.722   1.264   5.471  1.00  0.00     0.016 A 
ATOM     38  C   UNL     1       3.546   2.144   7.725  1.00  0.00     0.016 A 
ATOM     39  C   UNL     1       3.591   2.551   4.941  1.00  0.00     0.010 A 
ATOM     40  C   UNL     1       3.448   3.434   7.196  1.00  0.00     0.010 A 
ATOM     41  C   UNL     1       3.504   3.649   5.805  1.00  0.00    -0.014 A 
BRANCH  41  42
ATOM     42  C   UNL     1       3.710   5.030   5.302  1.00  0.00     0.031 A 
ATOM     43  C   UNL     1       5.083   5.630   5.447  1.00  0.00     0.074 A 
ATOM     44  C   UNL     1       2.714   5.757   4.768  1.00  0.00     0.049 A 
ATOM     45  N   UNL     1       5.482   6.859   5.246  1.00  0.00    -0.248 NA
ATOM     46  C   UNL     1       6.148   4.714   5.891  1.00  0.00     0.031 C 
ATOM     47  C   UNL     1       1.357   5.283   4.507  1.00  0.00     0.029 A 
ATOM     48  N   UNL     1       2.696   7.073   4.371  1.00  0.00    -0.354 N 
ATOM     49  C   UNL     1       6.835   6.870   5.566  1.00  0.00     0.074 A 
ATOM     50  C   UNL     1       7.183   5.532   5.991  1.00  0.00     0.031 C 
ATOM     51  C   UNL     1       0.629   6.302   4.014  1.00  0.00     0.029 A 
ATOM     52  C   UNL     1       1.455   7.509   3.972  1.00  0.00     0.049 A 
ATOM     53  H   UNL     1       3.495   7.647   4.371  1.00  0.00     0.167 HD
ATOM     54  C   UNL     1       7.710   7.902   5.515  1.00  0.00     0.031 A 
ATOM     55  C   UNL     1       1.029   8.746   3.650  1.00  0.00     0.031 A 
ATOM     56  C   UNL     1       7.361   9.236   5.111  1.00  0.00     0.049 A 
ATOM     57  C   UNL     1       1.998   9.902   3.693  1.00  0.00     0.074 A 
ATOM     58  C   UNL     1       8.178  10.349   5.018  1.00  0.00     0.029 A 
ATOM     59  N   UNL     1       6.088   9.641   4.742  1.00  0.00    -0.354 N 
ATOM     60  N   UNL     1       3.276   9.904   3.989  1.00  0.00    -0.248 NA
ATOM     61  C   UNL     1       1.462  11.230   3.355  1.00  0.00     0.031 C 
ATOM     62  C   UNL     1       7.385  11.442   4.655  1.00  0.00     0.029 A 
ATOM     63  C   UNL     1       6.091  10.993   4.447  1.00  0.00     0.049 A 
ATOM     64  H   UNL     1       5.298   9.054   4.696  1.00  0.00     0.167 HD
ATOM     65  C   UNL     1       3.702  11.219   3.832  1.00  0.00     0.074 A 
ATOM     66  C   UNL     1       2.550  11.985   3.408  1.00  0.00     0.031 C 
ATOM     67  C   UNL     1       4.939  11.744   4.017  1.00  0.00     0.031 A 
BRANCH  54  68
ATOM     68  C   UNL     1       9.121   7.632   5.957  1.00  0.00    -0.014 A 
ATOM     69  C   UNL     1       9.986   6.824   5.201  1.00  0.00     0.009 A 
ATOM     70  C   UNL     1       9.600   8.217   7.140  1.00  0.00     0.009 A 
ATOM     71  C   UNL     1      11.289   6.579   5.642  1.00  0.00     0.001 A 
ATOM     72  C   UNL     1      10.912   7.997   7.560  1.00  0.00     0.001 A 
ATOM     73  C   UNL     1      11.752   7.170   6.816  1.00  0.00     0.000 A 
ENDBRANCH  54  68
BRANCH  55  74
ATOM     74  C   UNL     1      -0.396   8.979   3.286  1.00  0.00    -0.014 A 
ATOM     75  C   UNL     1      -0.747   9.363   1.982  1.00  0.00     0.009 A 
ATOM     76  C   UNL     1      -1.409   8.853   4.249  1.00  0.00     0.009 A 
ATOM     77  C   UNL     1      -2.077   9.644   1.659  1.00  0.00     0.001 A 
ATOM     78  C   UNL     1      -2.743   9.102   3.914  1.00  0.00     0.001 A 
ATOM     79  C   UNL     1      -3.074   9.508   2.623  1.00  0.00     0.000 A 
ENDBRANCH  55  74
BRANCH  67  80
ATOM     80  C   UNL     1       5.134  13.203   3.703  1.00  0.00    -0.014 A 
ATOM     81  C   UNL     1       4.592  14.213   4.513  1.00  0.00     0.009 A 
ATOM     82  C   UNL     1       5.925  13.570   2.601  1.00  0.00     0.009 A 
ATOM     83  C   UNL     1       4.810  15.558   4.206  1.00  0.00     0.001 A 
ATOM     84  C   UNL     1       6.170  14.914   2.317  1.00  0.00     0.001 A 
ATOM     85  C   UNL     1       5.604  15.907   3.113  1.00  0.00     0.000 A 
ENDBRANCH  67  80
ENDBRANCH  41  42
ENDBRANCH  34  36
ENDBRANCH  33  34
ENDBRANCH  32  33
ENDBRANCH  31  32
ENDBRANCH  30  31
ENDBRANCH  29  30
ENDBRANCH   1  29
TORSDOF 21
