REMARK SMILES O=C(OCCOCCOCCOC(=O)c1cccnc1Nc1cccc(C(F)(F)F)c1)c1ccc(-c2c3nc(c(-c4ccccc4)c4ccc([nH]4)c(-c4ccccc4)c4nc(c(-c5ccccc5)c5ccc2[nH]5)C=C4)C=C3)cc1
REMARK SMILES IDX 8 1 7 2 6 3 5 4 4 5 3 6 2 7 1 8 32 9 33 10 79 11 34 12 78 13
REMARK SMILES IDX 35 14 36 15 37 16 72 17 38 18 77 19 71 20 73 21 39 22 76 23
REMARK SMILES IDX 70 24 69 25 40 27 62 28 47 29 61 30 48 31 51 32 60 33 74 34
REMARK SMILES IDX 49 35 50 36 59 38 75 39 52 40 41 41 42 42 46 43 43 44 45 45
REMARK SMILES IDX 44 46 63 47 64 48 68 49 65 50 67 51 66 52 53 53 54 54 58 55
REMARK SMILES IDX 55 56 57 57 56 58 9 59 10 60 11 61 12 62 13 63 14 64 15 65
REMARK SMILES IDX 16 66 20 67 17 68 19 69 18 70 21 71 22 73 23 74 31 75 24 76
REMARK SMILES IDX 26 77 25 78 27 79 28 80 29 81 30 82
REMARK H PARENT 73 26 51 37 21 72
REMARK Flexibility Score: inf
ROOT
ATOM      1  C   UNL     1       2.184   3.030   0.988  1.00  0.00     0.188 C 
ENDROOT
BRANCH   1   2
ATOM      2  C   UNL     1       2.698   2.206  -0.191  1.00  0.00     0.188 C 
BRANCH   2   3
ATOM      3  O   UNL     1       3.935   1.569   0.146  1.00  0.00    -0.376 OA
BRANCH   3   4
ATOM      4  C   UNL     1       4.782   1.334  -0.979  1.00  0.00     0.202 C 
BRANCH   4   5
ATOM      5  C   UNL     1       4.476   0.042  -1.751  1.00  0.00     0.261 C 
BRANCH   5   6
ATOM      6  O   UNL     1       3.082  -0.313  -1.711  1.00  0.00    -0.460 OA
BRANCH   6   7
ATOM      7  C   UNL     1       2.507  -1.315  -1.000  1.00  0.00     0.338 C 
ATOM      8  O   UNL     1       1.359  -1.659  -1.274  1.00  0.00    -0.246 OA
BRANCH   7   9
ATOM      9  C   UNL     1       3.218  -2.050   0.092  1.00  0.00     0.060 A 
ATOM     10  C   UNL     1       4.260  -1.515   0.845  1.00  0.00     0.016 A 
ATOM     11  C   UNL     1       2.770  -3.342   0.419  1.00  0.00     0.016 A 
ATOM     12  C   UNL     1       4.959  -2.291   1.760  1.00  0.00     0.010 A 
ATOM     13  C   UNL     1       3.408  -4.097   1.413  1.00  0.00     0.010 A 
ATOM     14  C   UNL     1       4.551  -3.596   2.045  1.00  0.00    -0.014 A 
BRANCH  14  15
ATOM     15  C   UNL     1       5.422  -4.426   2.912  1.00  0.00     0.031 A 
ATOM     16  C   UNL     1       6.189  -5.566   2.302  1.00  0.00     0.074 A 
ATOM     17  C   UNL     1       5.663  -4.049   4.182  1.00  0.00     0.049 A 
ATOM     18  N   UNL     1       7.064  -6.363   2.859  1.00  0.00    -0.248 NA
ATOM     19  C   UNL     1       5.954  -5.836   0.874  1.00  0.00     0.031 C 
ATOM     20  C   UNL     1       5.046  -2.901   4.851  1.00  0.00     0.029 A 
ATOM     21  N   UNL     1       6.537  -4.546   5.115  1.00  0.00    -0.354 N 
ATOM     22  C   UNL     1       7.466  -7.237   1.857  1.00  0.00     0.074 A 
ATOM     23  C   UNL     1       6.729  -6.888   0.664  1.00  0.00     0.031 C 
ATOM     24  C   UNL     1       5.618  -2.738   6.053  1.00  0.00     0.029 A 
ATOM     25  C   UNL     1       6.580  -3.810   6.274  1.00  0.00     0.049 A 
ATOM     26  H   UNL     1       7.082  -5.353   4.968  1.00  0.00     0.167 HD
ATOM     27  C   UNL     1       8.375  -8.238   1.920  1.00  0.00     0.031 A 
ATOM     28  C   UNL     1       7.304  -3.981   7.396  1.00  0.00     0.031 A 
ATOM     29  C   UNL     1       9.107  -8.584   3.106  1.00  0.00     0.049 A 
ATOM     30  C   UNL     1       8.258  -5.137   7.463  1.00  0.00     0.074 A 
ATOM     31  C   UNL     1       9.984  -9.634   3.308  1.00  0.00     0.029 A 
ATOM     32  N   UNL     1       9.053  -7.868   4.292  1.00  0.00    -0.354 N 
ATOM     33  N   UNL     1       8.567  -6.004   6.528  1.00  0.00    -0.248 NA
ATOM     34  C   UNL     1       8.956  -5.346   8.738  1.00  0.00     0.031 C 
ATOM     35  C   UNL     1      10.443  -9.567   4.629  1.00  0.00     0.029 A 
ATOM     36  C   UNL     1       9.879  -8.454   5.234  1.00  0.00     0.049 A 
ATOM     37  H   UNL     1       8.507  -7.063   4.442  1.00  0.00     0.167 HD
ATOM     38  C   UNL     1       9.489  -6.865   7.103  1.00  0.00     0.074 A 
ATOM     39  C   UNL     1       9.720  -6.392   8.454  1.00  0.00     0.031 C 
ATOM     40  C   UNL     1      10.081  -7.961   6.570  1.00  0.00     0.031 A 
BRANCH  27  41
ATOM     41  C   UNL     1       8.572  -9.047   0.673  1.00  0.00    -0.014 A 
ATOM     42  C   UNL     1       9.305  -8.543  -0.413  1.00  0.00     0.009 A 
ATOM     43  C   UNL     1       7.984 -10.317   0.569  1.00  0.00     0.009 A 
ATOM     44  C   UNL     1       9.414  -9.281  -1.593  1.00  0.00     0.001 A 
ATOM     45  C   UNL     1       8.112 -11.061  -0.605  1.00  0.00     0.001 A 
ATOM     46  C   UNL     1       8.818 -10.539  -1.688  1.00  0.00     0.000 A 
ENDBRANCH  27  41
BRANCH  28  47
ATOM     47  C   UNL     1       7.121  -3.068   8.556  1.00  0.00    -0.014 A 
ATOM     48  C   UNL     1       8.147  -2.203   8.966  1.00  0.00     0.009 A 
ATOM     49  C   UNL     1       5.914  -3.074   9.276  1.00  0.00     0.009 A 
ATOM     50  C   UNL     1       7.975  -1.381  10.085  1.00  0.00     0.001 A 
ATOM     51  C   UNL     1       5.735  -2.231  10.375  1.00  0.00     0.001 A 
ATOM     52  C   UNL     1       6.769  -1.393  10.784  1.00  0.00     0.000 A 
ENDBRANCH  28  47
BRANCH  40  53
ATOM     53  C   UNL     1      11.029  -8.710   7.456  1.00  0.00    -0.014 A 
ATOM     54  C   UNL     1      10.549  -9.534   8.486  1.00  0.00     0.009 A 
ATOM     55  C   UNL     1      12.412  -8.610   7.243  1.00  0.00     0.009 A 
ATOM     56  C   UNL     1      11.442 -10.223   9.307  1.00  0.00     0.001 A 
ATOM     57  C   UNL     1      13.300  -9.317   8.053  1.00  0.00     0.001 A 
ATOM     58  C   UNL     1      12.815 -10.116   9.089  1.00  0.00     0.000 A 
ENDBRANCH  40  53
ENDBRANCH  14  15
ENDBRANCH   7   9
ENDBRANCH   6   7
ENDBRANCH   5   6
ENDBRANCH   4   5
ENDBRANCH   3   4
ENDBRANCH   2   3
ENDBRANCH   1   2
BRANCH   1  59
ATOM     59  O   UNL     1       2.962   4.191   1.276  1.00  0.00    -0.376 OA
BRANCH  59  60
ATOM     60  C   UNL     1       4.213   3.979   1.929  1.00  0.00     0.202 C 
BRANCH  60  61
ATOM     61  C   UNL     1       4.129   3.726   3.439  1.00  0.00     0.261 C 
BRANCH  61  62
ATOM     62  O   UNL     1       3.788   2.374   3.810  1.00  0.00    -0.460 OA
BRANCH  62  63
ATOM     63  C   UNL     1       2.534   2.199   4.293  1.00  0.00     0.341 C 
ATOM     64  O   UNL     1       1.608   2.991   4.257  1.00  0.00    -0.246 OA
BRANCH  63  65
ATOM     65  C   UNL     1       2.395   0.883   4.922  1.00  0.00     0.102 A 
ATOM     66  C   UNL     1       3.143   0.613   6.074  1.00  0.00     0.021 A 
ATOM     67  C   UNL     1       1.393  -0.004   4.514  1.00  0.00     0.144 A 
ATOM     68  C   UNL     1       2.872  -0.539   6.799  1.00  0.00     0.021 A 
ATOM     69  N   UNL     1       1.177  -1.155   5.201  1.00  0.00    -0.238 NA
ATOM     70  C   UNL     1       1.893  -1.390   6.322  1.00  0.00     0.113 A 
BRANCH  67  71
ATOM     71  N   UNL     1       0.634   0.235   3.347  1.00  0.00    -0.340 N 
ATOM     72  H   UNL     1       0.887   1.005   2.788  1.00  0.00     0.168 HD
BRANCH  71  73
ATOM     73  C   UNL     1      -0.457  -0.549   2.925  1.00  0.00     0.040 A 
ATOM     74  C   UNL     1      -0.366  -1.321   1.767  1.00  0.00     0.026 A 
ATOM     75  C   UNL     1      -1.677  -0.496   3.607  1.00  0.00     0.039 A 
ATOM     76  C   UNL     1      -1.459  -2.061   1.312  1.00  0.00     0.003 A 
ATOM     77  C   UNL     1      -2.790  -1.224   3.158  1.00  0.00     0.058 A 
ATOM     78  C   UNL     1      -2.667  -2.014   2.005  1.00  0.00     0.013 A 
BRANCH  77  79
ATOM     79  C   UNL     1      -4.104  -1.154   3.891  1.00  0.00     0.416 C 
ATOM     80  F   UNL     1      -5.115  -0.697   3.100  1.00  0.00    -0.166 F 
ATOM     81  F   UNL     1      -4.513  -2.368   4.354  1.00  0.00    -0.166 F 
ATOM     82  F   UNL     1      -4.085  -0.329   4.976  1.00  0.00    -0.166 F 
ENDBRANCH  77  79
ENDBRANCH  71  73
ENDBRANCH  67  71
ENDBRANCH  63  65
ENDBRANCH  62  63
ENDBRANCH  61  62
ENDBRANCH  60  61
ENDBRANCH  59  60
ENDBRANCH   1  59
TORSDOF 20
