REMARK SMILES COc1ccc2[nH]c(C(=O)c3cc(C)ccn3)c(CC(=O)OCCOCCOCCOC(=O)c3ccc(-c4c5nc(c(-c6ccccc6)c6ccc([nH]6)c(-c6ccccc6)c6nc(c(-c7ccccc7)c7ccc4[nH]7)C=C6)C=C5)cc3)c2c1
REMARK SMILES IDX 26 1 25 2 24 3 23 4 22 5 20 6 21 7 19 8 18 9 3 10 4 11 83 12
REMARK SMILES IDX 5 13 82 14 6 15 7 16 8 17 2 19 1 20 9 21 10 22 11 23 12 24
REMARK SMILES IDX 17 25 13 26 16 27 14 28 15 29 27 30 28 31 29 32 30 33 31 34
REMARK SMILES IDX 32 35 33 36 34 37 35 38 81 39 36 40 80 41 37 42 38 43 39 44
REMARK SMILES IDX 74 45 40 46 79 47 73 48 75 49 41 50 78 51 72 52 71 53 42 55
REMARK SMILES IDX 64 56 49 57 63 58 50 59 53 60 62 61 76 62 51 63 52 64 61 66
REMARK SMILES IDX 77 67 54 68 43 69 44 70 48 71 45 72 47 73 46 74 65 75 66 76
REMARK SMILES IDX 70 77 67 78 69 79 68 80 55 81 56 82 60 83 57 84 59 85 58 86
REMARK H PARENT 7 18 75 54 53 65
REMARK Flexibility Score: inf
ROOT
ATOM      1  C   UNL     1      -2.564  -6.972  -5.623  1.00  0.00     0.188 C 
ENDROOT
BRANCH   1   2
ATOM      2  O   UNL     1      -3.804  -6.423  -6.063  1.00  0.00    -0.376 OA
BRANCH   2   3
ATOM      3  C   UNL     1      -3.959  -5.009  -6.032  1.00  0.00     0.202 C 
BRANCH   3   4
ATOM      4  C   UNL     1      -3.889  -4.364  -4.641  1.00  0.00     0.261 C 
BRANCH   4   5
ATOM      5  O   UNL     1      -2.635  -4.639  -3.978  1.00  0.00    -0.463 OA
BRANCH   5   6
ATOM      6  C   UNL     1      -2.690  -4.965  -2.660  1.00  0.00     0.310 C 
ATOM      7  O   UNL     1      -3.694  -4.815  -1.969  1.00  0.00    -0.252 OA
BRANCH   6   8
ATOM      8  C   UNL     1      -1.464  -5.723  -2.158  1.00  0.00     0.161 C 
BRANCH   8   9
ATOM      9  C   UNL     1      -0.091  -5.208  -2.526  1.00  0.00     0.000 A 
ATOM     10  C   UNL     1       0.823  -1.827  -0.988  1.00  0.00     0.119 A 
ATOM     11  C   UNL     1       2.140  -1.808  -1.448  1.00  0.00     0.048 A 
ATOM     12  C   UNL     1      -0.035  -2.875  -1.345  1.00  0.00     0.057 A 
ATOM     13  C   UNL     1       2.628  -2.820  -2.281  1.00  0.00     0.030 A 
ATOM     14  C   UNL     1       0.448  -3.936  -2.135  1.00  0.00     0.008 A 
ATOM     15  C   UNL     1       1.763  -3.874  -2.585  1.00  0.00     0.046 A 
ATOM     16  N   UNL     1       1.993  -5.024  -3.297  1.00  0.00    -0.352 N 
ATOM     17  C   UNL     1       0.999  -5.939  -3.023  1.00  0.00     0.093 A 
ATOM     18  H   UNL     1       2.750  -5.172  -3.908  1.00  0.00     0.167 HD
BRANCH  10  19
ATOM     19  O   UNL     1       0.272  -0.917  -0.126  1.00  0.00    -0.497 OA
ATOM     20  C   UNL     1       0.918   0.345  -0.046  1.00  0.00     0.278 C 
ENDBRANCH  10  19
BRANCH  17  21
ATOM     21  C   UNL     1       1.181  -7.378  -3.146  1.00  0.00     0.227 C 
ATOM     22  O   UNL     1       0.455  -8.194  -2.586  1.00  0.00    -0.285 OA
BRANCH  21  23
ATOM     23  C   UNL     1       2.340  -7.902  -3.929  1.00  0.00     0.113 A 
ATOM     24  C   UNL     1       3.457  -8.419  -3.276  1.00  0.00     0.036 A 
ATOM     25  N   UNL     1       2.190  -7.888  -5.278  1.00  0.00    -0.253 NA
ATOM     26  C   UNL     1       4.475  -8.985  -4.053  1.00  0.00    -0.047 A 
ATOM     27  C   UNL     1       3.160  -8.497  -5.994  1.00  0.00     0.112 A 
ATOM     28  C   UNL     1       5.737  -9.521  -3.444  1.00  0.00     0.044 C 
ATOM     29  C   UNL     1       4.298  -9.056  -5.436  1.00  0.00     0.023 A 
ENDBRANCH  21  23
ENDBRANCH  17  21
ENDBRANCH   8   9
ENDBRANCH   6   8
ENDBRANCH   5   6
ENDBRANCH   4   5
ENDBRANCH   3   4
ENDBRANCH   2   3
ENDBRANCH   1   2
BRANCH   1  30
ATOM     30  C   UNL     1      -1.253  -6.221  -5.943  1.00  0.00     0.188 C 
BRANCH  30  31
ATOM     31  O   UNL     1      -1.296  -5.517  -7.177  1.00  0.00    -0.376 OA
BRANCH  31  32
ATOM     32  C   UNL     1      -0.366  -5.979  -8.145  1.00  0.00     0.202 C 
BRANCH  32  33
ATOM     33  C   UNL     1      -0.806  -7.311  -8.751  1.00  0.00     0.261 C 
BRANCH  33  34
ATOM     34  O   UNL     1      -0.835  -8.357  -7.755  1.00  0.00    -0.460 OA
BRANCH  34  35
ATOM     35  C   UNL     1       0.151  -9.268  -7.768  1.00  0.00     0.338 C 
ATOM     36  O   UNL     1       1.073  -9.331  -8.583  1.00  0.00    -0.246 OA
BRANCH  35  37
ATOM     37  C   UNL     1      -0.028 -10.258  -6.679  1.00  0.00     0.060 A 
ATOM     38  C   UNL     1      -0.290  -9.884  -5.358  1.00  0.00     0.016 A 
ATOM     39  C   UNL     1       0.179 -11.606  -6.969  1.00  0.00     0.016 A 
ATOM     40  C   UNL     1      -0.284 -10.834  -4.328  1.00  0.00     0.010 A 
ATOM     41  C   UNL     1       0.119 -12.563  -5.949  1.00  0.00     0.010 A 
ATOM     42  C   UNL     1      -0.086 -12.189  -4.609  1.00  0.00    -0.014 A 
BRANCH  42  43
ATOM     43  C   UNL     1      -0.054 -13.220  -3.532  1.00  0.00     0.031 A 
ATOM     44  C   UNL     1       1.178 -14.067  -3.335  1.00  0.00     0.074 A 
ATOM     45  C   UNL     1      -1.124 -13.444  -2.744  1.00  0.00     0.049 A 
ATOM     46  N   UNL     1       1.324 -15.176  -2.653  1.00  0.00    -0.248 NA
ATOM     47  C   UNL     1       2.406 -13.604  -4.001  1.00  0.00     0.031 C 
ATOM     48  C   UNL     1      -2.360 -12.662  -2.738  1.00  0.00     0.029 A 
ATOM     49  N   UNL     1      -1.345 -14.421  -1.800  1.00  0.00    -0.354 N 
ATOM     50  C   UNL     1       2.641 -15.573  -2.850  1.00  0.00     0.074 A 
ATOM     51  C   UNL     1       3.252 -14.585  -3.715  1.00  0.00     0.031 C 
ATOM     52  C   UNL     1      -3.205 -13.184  -1.835  1.00  0.00     0.029 A 
ATOM     53  C   UNL     1      -2.609 -14.387  -1.262  1.00  0.00     0.049 A 
ATOM     54  H   UNL     1      -0.663 -15.080  -1.536  1.00  0.00     0.167 HD
ATOM     55  C   UNL     1       3.280 -16.666  -2.365  1.00  0.00     0.031 A 
ATOM     56  C   UNL     1      -3.245 -15.251  -0.447  1.00  0.00     0.031 A 
ATOM     57  C   UNL     1       2.686 -17.641  -1.486  1.00  0.00     0.049 A 
ATOM     58  C   UNL     1      -2.550 -16.506   0.001  1.00  0.00     0.074 A 
ATOM     59  C   UNL     1       3.263 -18.779  -0.947  1.00  0.00     0.029 A 
ATOM     60  N   UNL     1       1.386 -17.590  -1.010  1.00  0.00    -0.354 N 
ATOM     61  N   UNL     1      -1.327 -16.908  -0.242  1.00  0.00    -0.248 NA
ATOM     62  C   UNL     1      -3.336 -17.438   0.825  1.00  0.00     0.031 C 
ATOM     63  C   UNL     1       2.295 -19.445  -0.186  1.00  0.00     0.029 A 
ATOM     64  C   UNL     1       1.135 -18.690  -0.204  1.00  0.00     0.049 A 
ATOM     65  H   UNL     1       0.737 -16.879  -1.213  1.00  0.00     0.167 HD
ATOM     66  C   UNL     1      -1.190 -18.125   0.414  1.00  0.00     0.074 A 
ATOM     67  C   UNL     1      -2.448 -18.388   1.081  1.00  0.00     0.031 C 
ATOM     68  C   UNL     1      -0.118 -18.952   0.455  1.00  0.00     0.031 A 
BRANCH  55  69
ATOM     69  C   UNL     1       4.694 -16.901  -2.819  1.00  0.00    -0.014 A 
ATOM     70  C   UNL     1       5.760 -16.124  -2.342  1.00  0.00     0.009 A 
ATOM     71  C   UNL     1       4.965 -17.959  -3.703  1.00  0.00     0.009 A 
ATOM     72  C   UNL     1       7.066 -16.383  -2.767  1.00  0.00     0.001 A 
ATOM     73  C   UNL     1       6.274 -18.233  -4.103  1.00  0.00     0.001 A 
ATOM     74  C   UNL     1       7.322 -17.439  -3.641  1.00  0.00     0.000 A 
ENDBRANCH  55  69
BRANCH  56  75
ATOM     75  C   UNL     1      -4.655 -14.994  -0.048  1.00  0.00    -0.014 A 
ATOM     76  C   UNL     1      -4.976 -14.692   1.284  1.00  0.00     0.009 A 
ATOM     77  C   UNL     1      -5.689 -15.069  -0.995  1.00  0.00     0.009 A 
ATOM     78  C   UNL     1      -6.306 -14.489   1.662  1.00  0.00     0.001 A 
ATOM     79  C   UNL     1      -7.013 -14.832  -0.621  1.00  0.00     0.001 A 
ATOM     80  C   UNL     1      -7.321 -14.552   0.708  1.00  0.00     0.000 A 
ENDBRANCH  56  75
BRANCH  68  81
ATOM     81  C   UNL     1      -0.243 -20.203   1.279  1.00  0.00    -0.014 A 
ATOM     82  C   UNL     1      -1.036 -21.281   0.854  1.00  0.00     0.009 A 
ATOM     83  C   UNL     1       0.460 -20.314   2.489  1.00  0.00     0.009 A 
ATOM     84  C   UNL     1      -1.149 -22.430   1.642  1.00  0.00     0.001 A 
ATOM     85  C   UNL     1       0.367 -21.473   3.261  1.00  0.00     0.001 A 
ATOM     86  C   UNL     1      -0.445 -22.526   2.842  1.00  0.00     0.000 A 
ENDBRANCH  68  81
ENDBRANCH  42  43
ENDBRANCH  35  37
ENDBRANCH  34  35
ENDBRANCH  33  34
ENDBRANCH  32  33
ENDBRANCH  31  32
ENDBRANCH  30  31
ENDBRANCH   1  30
TORSDOF 21
