REMARK SMILES COc1ccc([C@H]2CC(c3ccc(S(C)(=O)=O)cc3)=NN2c2ccc(C(=O)OCCOCCOCCOC(=O)c3ccc(-c4c5nc(c(-c6ccccc6)c6ccc([nH]6)c(-c6ccccc6)c6nc(c(-c7ccccc7)c7ccc4[nH]7)C=C6)C=C5)cc3)cc2)cc1OC
REMARK SMILES IDX 32 1 31 2 30 3 29 4 28 5 26 6 27 7 25 8 22 9 23 10 89 11
REMARK SMILES IDX 24 12 88 13 21 14 7 15 8 16 9 17 20 18 6 19 3 20 4 21 91 22
REMARK SMILES IDX 5 23 90 24 2 25 1 26 92 27 93 28 10 29 11 30 19 31 12 32
REMARK SMILES IDX 18 33 13 34 14 35 15 36 16 37 17 38 33 39 34 40 35 41 36 42
REMARK SMILES IDX 37 43 38 44 39 45 40 46 41 47 87 48 42 49 86 50 43 51 44 52
REMARK SMILES IDX 45 53 80 54 46 55 85 56 79 57 81 58 47 59 84 60 78 61 77 62
REMARK SMILES IDX 48 64 70 65 55 66 69 67 56 68 59 69 68 70 82 71 57 72 58 73
REMARK SMILES IDX 67 75 83 76 60 77 49 78 50 79 54 80 51 81 53 82 52 83 71 84
REMARK SMILES IDX 72 85 76 86 73 87 75 88 74 89 61 90 62 91 66 92 63 93 65 94
REMARK SMILES IDX 64 95
REMARK H PARENT 81 63 59 74
REMARK Flexibility Score: inf
ROOT
ATOM      1  C   UNL     1       3.809 -11.242   1.353  1.00  0.00     0.188 C 
ENDROOT
BRANCH   1   2
ATOM      2  O   UNL     1       3.447 -12.062   2.439  1.00  0.00    -0.376 OA
BRANCH   2   3
ATOM      3  C   UNL     1       2.256 -11.806   3.163  1.00  0.00     0.202 C 
BRANCH   3   4
ATOM      4  C   UNL     1       1.133 -10.814   2.779  1.00  0.00     0.261 C 
BRANCH   4   5
ATOM      5  O   UNL     1       1.237 -10.084   1.554  1.00  0.00    -0.460 OA
BRANCH   5   6
ATOM      6  C   UNL     1       1.693  -8.811   1.650  1.00  0.00     0.338 C 
ATOM      7  O   UNL     1       2.048  -8.242   2.668  1.00  0.00    -0.246 OA
BRANCH   6   8
ATOM      8  C   UNL     1       1.886  -8.255   0.289  1.00  0.00     0.060 A 
ATOM      9  C   UNL     1       2.301  -7.080  -2.239  1.00  0.00     0.060 A 
ATOM     10  C   UNL     1       3.311  -7.064  -1.268  1.00  0.00     0.029 A 
ATOM     11  C   UNL     1       1.111  -7.766  -1.946  1.00  0.00     0.029 A 
ATOM     12  C   UNL     1       3.096  -7.617  -0.001  1.00  0.00     0.018 A 
ATOM     13  C   UNL     1       0.906  -8.370  -0.700  1.00  0.00     0.018 A 
BRANCH   9  14
ATOM     14  N   UNL     1       2.444  -6.368  -3.427  1.00  0.00    -0.257 N 
ATOM     15  C   UNL     1       1.521  -5.297  -3.818  1.00  0.00     0.144 C 
ATOM     16  C   UNL     1       2.188  -4.720  -5.071  1.00  0.00     0.091 C 
ATOM     17  C   UNL     1       3.446  -5.543  -5.112  1.00  0.00     0.071 C 
ATOM     18  N   UNL     1       3.579  -6.436  -4.180  1.00  0.00    -0.176 NA
BRANCH  15  19
ATOM     19  C   UNL     1       1.329  -4.245  -2.730  1.00  0.00    -0.019 A 
ATOM     20  C   UNL     1       0.975  -2.303  -0.709  1.00  0.00     0.160 A 
ATOM     21  C   UNL     1      -0.121  -3.017  -1.213  1.00  0.00     0.051 A 
ATOM     22  C   UNL     1       2.261  -2.568  -1.189  1.00  0.00     0.161 A 
ATOM     23  C   UNL     1       0.053  -3.975  -2.219  1.00  0.00     0.010 A 
ATOM     24  C   UNL     1       2.419  -3.537  -2.192  1.00  0.00     0.056 A 
BRANCH  20  25
ATOM     25  O   UNL     1       0.752  -1.455   0.343  1.00  0.00    -0.493 OA
ATOM     26  C   UNL     1       0.196  -0.209  -0.079  1.00  0.00     0.278 C 
ENDBRANCH  20  25
BRANCH  22  27
ATOM     27  O   UNL     1       3.452  -2.021  -0.796  1.00  0.00    -0.493 OA
ATOM     28  C   UNL     1       3.432  -0.843  -0.006  1.00  0.00     0.278 C 
ENDBRANCH  22  27
ENDBRANCH  15  19
BRANCH  17  29
ATOM     29  C   UNL     1       4.413  -5.347  -6.203  1.00  0.00    -0.002 A 
ATOM     30  C   UNL     1       4.681  -6.411  -7.072  1.00  0.00     0.011 A 
ATOM     31  C   UNL     1       5.008  -4.098  -6.401  1.00  0.00     0.011 A 
ATOM     32  C   UNL     1       5.536  -6.220  -8.161  1.00  0.00     0.021 A 
ATOM     33  C   UNL     1       5.884  -3.912  -7.475  1.00  0.00     0.021 A 
ATOM     34  C   UNL     1       6.142  -4.972  -8.351  1.00  0.00     0.067 A 
BRANCH  34  35
ATOM     35  S   UNL     1       7.203  -4.722  -9.758  1.00  0.00     0.175 S 
ATOM     36  C   UNL     1       8.550  -5.848  -9.511  1.00  0.00     0.163 C 
ATOM     37  O   UNL     1       6.455  -5.150 -10.924  1.00  0.00    -0.224 OA
ATOM     38  O   UNL     1       7.738  -3.376  -9.669  1.00  0.00    -0.224 OA
ENDBRANCH  34  35
ENDBRANCH  17  29
ENDBRANCH   9  14
ENDBRANCH   6   8
ENDBRANCH   5   6
ENDBRANCH   4   5
ENDBRANCH   3   4
ENDBRANCH   2   3
ENDBRANCH   1   2
BRANCH   1  39
ATOM     39  C   UNL     1       3.156 -11.624   0.012  1.00  0.00     0.188 C 
BRANCH  39  40
ATOM     40  O   UNL     1       2.112 -12.573   0.041  1.00  0.00    -0.376 OA
BRANCH  40  41
ATOM     41  C   UNL     1       2.380 -13.929   0.363  1.00  0.00     0.202 C 
BRANCH  41  42
ATOM     42  C   UNL     1       3.771 -14.605   0.397  1.00  0.00     0.261 C 
BRANCH  42  43
ATOM     43  O   UNL     1       4.938 -13.782   0.459  1.00  0.00    -0.460 OA
BRANCH  43  44
ATOM     44  C   UNL     1       5.621 -13.623  -0.697  1.00  0.00     0.338 C 
ATOM     45  O   UNL     1       5.342 -14.078  -1.796  1.00  0.00    -0.246 OA
BRANCH  44  46
ATOM     46  C   UNL     1       6.708 -12.652  -0.468  1.00  0.00     0.060 A 
ATOM     47  C   UNL     1       6.634 -11.389  -1.071  1.00  0.00     0.016 A 
ATOM     48  C   UNL     1       7.805 -12.997   0.323  1.00  0.00     0.016 A 
ATOM     49  C   UNL     1       7.668 -10.470  -0.896  1.00  0.00     0.010 A 
ATOM     50  C   UNL     1       8.852 -12.082   0.477  1.00  0.00     0.010 A 
ATOM     51  C   UNL     1       8.802 -10.824  -0.152  1.00  0.00    -0.014 A 
BRANCH  51  52
ATOM     52  C   UNL     1      10.005  -9.956  -0.170  1.00  0.00     0.031 A 
ATOM     53  C   UNL     1      11.139 -10.316  -1.093  1.00  0.00     0.074 A 
ATOM     54  C   UNL     1      10.089  -8.856   0.601  1.00  0.00     0.049 A 
ATOM     55  N   UNL     1      12.310  -9.749  -1.231  1.00  0.00    -0.248 NA
ATOM     56  C   UNL     1      10.921 -11.472  -1.980  1.00  0.00     0.031 C 
ATOM     57  C   UNL     1       9.044  -8.361   1.495  1.00  0.00     0.029 A 
ATOM     58  N   UNL     1      11.118  -7.958   0.756  1.00  0.00    -0.354 N 
ATOM     59  C   UNL     1      12.966 -10.475  -2.217  1.00  0.00     0.074 A 
ATOM     60  C   UNL     1      12.079 -11.545  -2.618  1.00  0.00     0.031 C 
ATOM     61  C   UNL     1       9.489  -7.252   2.114  1.00  0.00     0.029 A 
ATOM     62  C   UNL     1      10.862  -6.983   1.690  1.00  0.00     0.049 A 
ATOM     63  H   UNL     1      11.958  -8.009   0.246  1.00  0.00     0.167 HD
ATOM     64  C   UNL     1      14.191 -10.264  -2.753  1.00  0.00     0.031 A 
ATOM     65  C   UNL     1      11.657  -6.004   2.167  1.00  0.00     0.031 A 
ATOM     66  C   UNL     1      15.086  -9.214  -2.345  1.00  0.00     0.049 A 
ATOM     67  C   UNL     1      13.063  -5.867   1.634  1.00  0.00     0.074 A 
ATOM     68  C   UNL     1      16.355  -8.932  -2.820  1.00  0.00     0.029 A 
ATOM     69  N   UNL     1      14.807  -8.278  -1.363  1.00  0.00    -0.354 N 
ATOM     70  N   UNL     1      13.665  -6.548   0.690  1.00  0.00    -0.248 NA
ATOM     71  C   UNL     1      13.898  -4.813   2.234  1.00  0.00     0.031 C 
ATOM     72  C   UNL     1      16.866  -7.856  -2.087  1.00  0.00     0.029 A 
ATOM     73  C   UNL     1      15.888  -7.428  -1.205  1.00  0.00     0.049 A 
ATOM     74  H   UNL     1      13.966  -8.225  -0.854  1.00  0.00     0.167 HD
ATOM     75  C   UNL     1      14.927  -5.978   0.555  1.00  0.00     0.074 A 
ATOM     76  C   UNL     1      14.998  -4.885   1.500  1.00  0.00     0.031 C 
ATOM     77  C   UNL     1      15.939  -6.329  -0.276  1.00  0.00     0.031 A 
BRANCH  64  78
ATOM     78  C   UNL     1      14.648 -11.199  -3.837  1.00  0.00    -0.014 A 
ATOM     79  C   UNL     1      14.085 -11.146  -5.122  1.00  0.00     0.009 A 
ATOM     80  C   UNL     1      15.697 -12.097  -3.591  1.00  0.00     0.009 A 
ATOM     81  C   UNL     1      14.550 -11.990  -6.132  1.00  0.00     0.001 A 
ATOM     82  C   UNL     1      16.180 -12.919  -4.611  1.00  0.00     0.001 A 
ATOM     83  C   UNL     1      15.603 -12.868  -5.878  1.00  0.00     0.000 A 
ENDBRANCH  64  78
BRANCH  65  84
ATOM     84  C   UNL     1      11.180  -5.086   3.238  1.00  0.00    -0.014 A 
ATOM     85  C   UNL     1      11.049  -3.708   2.997  1.00  0.00     0.009 A 
ATOM     86  C   UNL     1      10.934  -5.570   4.532  1.00  0.00     0.009 A 
ATOM     87  C   UNL     1      10.735  -2.832   4.040  1.00  0.00     0.001 A 
ATOM     88  C   UNL     1      10.583  -4.697   5.564  1.00  0.00     0.001 A 
ATOM     89  C   UNL     1      10.501  -3.327   5.321  1.00  0.00     0.000 A 
ENDBRANCH  65  84
BRANCH  77  90
ATOM     90  C   UNL     1      17.185  -5.485  -0.252  1.00  0.00    -0.014 A 
ATOM     91  C   UNL     1      18.065  -5.503   0.841  1.00  0.00     0.009 A 
ATOM     92  C   UNL     1      17.501  -4.689  -1.364  1.00  0.00     0.009 A 
ATOM     93  C   UNL     1      19.215  -4.710   0.835  1.00  0.00     0.001 A 
ATOM     94  C   UNL     1      18.668  -3.924  -1.383  1.00  0.00     0.001 A 
ATOM     95  C   UNL     1      19.518  -3.926  -0.279  1.00  0.00     0.000 A 
ENDBRANCH  77  90
ENDBRANCH  51  52
ENDBRANCH  44  46
ENDBRANCH  43  44
ENDBRANCH  42  43
ENDBRANCH  41  42
ENDBRANCH  40  41
ENDBRANCH  39  40
ENDBRANCH   1  39
TORSDOF 23
