REMARK SMILES Cc1cc(Br)cc2c1O[C@H](C(F)(F)F)C(C(=O)OCCOCCOCCOC(=O)c1ccc(-c3c4nc(c(-c5ccccc5)c5ccc([nH]5)c(-c5ccccc5)c5nc(c(-c6ccccc6)c6ccc3[nH]6)C=C5)C=C4)cc1)=C2
REMARK SMILES IDX 23 1 22 2 21 3 20 4 19 5 18 6 16 7 17 8 15 9 1 10 2 11 3 12
REMARK SMILES IDX 8 13 4 14 7 15 9 16 5 17 6 18 78 19 10 20 11 21 12 22 13 23
REMARK SMILES IDX 14 24 24 25 25 26 26 27 27 28 28 29 29 30 30 31 31 32 77 33
REMARK SMILES IDX 32 34 76 35 33 36 34 37 35 38 70 39 36 40 75 41 69 42 71 43
REMARK SMILES IDX 37 44 74 45 68 46 67 47 38 49 60 50 45 51 59 52 46 53 49 54
REMARK SMILES IDX 58 55 72 56 47 57 48 58 57 60 73 61 50 62 39 63 40 64 44 65
REMARK SMILES IDX 41 66 43 67 42 68 61 69 62 70 66 71 63 72 65 73 64 74 51 75
REMARK SMILES IDX 52 76 56 77 53 78 55 79 54 80
REMARK H PARENT 71 48 49 59
REMARK Flexibility Score: inf
ROOT
ATOM      1  C   UNL     1      -3.111   2.252   5.485  1.00  0.00     0.188 C 
ENDROOT
BRANCH   1   2
ATOM      2  C   UNL     1      -3.981   3.504   5.249  1.00  0.00     0.188 C 
BRANCH   2   3
ATOM      3  O   UNL     1      -5.305   3.560   5.740  1.00  0.00    -0.376 OA
BRANCH   3   4
ATOM      4  C   UNL     1      -6.252   2.567   5.386  1.00  0.00     0.202 C 
BRANCH   4   5
ATOM      5  C   UNL     1      -6.312   1.929   3.989  1.00  0.00     0.261 C 
BRANCH   5   6
ATOM      6  O   UNL     1      -5.048   1.628   3.385  1.00  0.00    -0.460 OA
BRANCH   6   7
ATOM      7  C   UNL     1      -4.735   2.369   2.295  1.00  0.00     0.338 C 
ATOM      8  O   UNL     1      -5.426   3.228   1.773  1.00  0.00    -0.246 OA
BRANCH   7   9
ATOM      9  C   UNL     1      -3.337   2.104   1.899  1.00  0.00     0.087 C 
ATOM     10  C   UNL     1       1.000   0.050   0.098  1.00  0.00     0.048 C 
ATOM     11  C   UNL     1       0.515   1.436   0.421  1.00  0.00    -0.007 A 
ATOM     12  C   UNL     1       1.297   2.541   0.047  1.00  0.00     0.023 A 
ATOM     13  C   UNL     1      -0.748   1.655   0.995  1.00  0.00     0.130 A 
ATOM     14  C   UNL     1       0.839   3.836   0.280  1.00  0.00     0.019 A 
ATOM     15  C   UNL     1      -1.218   2.959   1.187  1.00  0.00     0.019 A 
ATOM     16  O   UNL     1      -1.473   0.547   1.336  1.00  0.00    -0.475 OA
ATOM     17  Br  UNL     1       1.903   5.314  -0.230  1.00  0.00    -0.051 Br
ATOM     18  C   UNL     1      -0.411   4.052   0.853  1.00  0.00     0.027 A 
ATOM     19  C   UNL     1      -2.575   3.179   1.658  1.00  0.00     0.027 C 
ATOM     20  C   UNL     1      -2.845   0.688   1.791  1.00  0.00     0.316 C 
BRANCH  20  21
ATOM     21  C   UNL     1      -3.737  -0.172   0.887  1.00  0.00     0.430 C 
ATOM     22  F   UNL     1      -3.245  -1.429   0.762  1.00  0.00    -0.167 F 
ATOM     23  F   UNL     1      -4.990  -0.294   1.385  1.00  0.00    -0.167 F 
ATOM     24  F   UNL     1      -3.845   0.348  -0.356  1.00  0.00    -0.167 F 
ENDBRANCH  20  21
ENDBRANCH   7   9
ENDBRANCH   6   7
ENDBRANCH   5   6
ENDBRANCH   4   5
ENDBRANCH   3   4
ENDBRANCH   2   3
ENDBRANCH   1   2
BRANCH   1  25
ATOM     25  O   UNL     1      -3.694   1.134   6.107  1.00  0.00    -0.376 OA
BRANCH  25  26
ATOM     26  C   UNL     1      -3.941   1.143   7.504  1.00  0.00     0.202 C 
BRANCH  26  27
ATOM     27  C   UNL     1      -3.400   2.178   8.514  1.00  0.00     0.261 C 
BRANCH  27  28
ATOM     28  O   UNL     1      -2.964   3.445   8.015  1.00  0.00    -0.460 OA
BRANCH  28  29
ATOM     29  C   UNL     1      -1.621   3.645   8.014  1.00  0.00     0.338 C 
ATOM     30  O   UNL     1      -0.756   2.872   8.377  1.00  0.00    -0.246 OA
BRANCH  29  31
ATOM     31  C   UNL     1      -1.332   4.903   7.297  1.00  0.00     0.060 A 
ATOM     32  C   UNL     1      -0.694   4.835   6.049  1.00  0.00     0.016 A 
ATOM     33  C   UNL     1      -1.664   6.135   7.858  1.00  0.00     0.016 A 
ATOM     34  C   UNL     1      -0.372   6.004   5.363  1.00  0.00     0.010 A 
ATOM     35  C   UNL     1      -1.307   7.308   7.187  1.00  0.00     0.010 A 
ATOM     36  C   UNL     1      -0.633   7.247   5.952  1.00  0.00    -0.014 A 
BRANCH  36  37
ATOM     37  C   UNL     1       0.009   8.463   5.401  1.00  0.00     0.031 A 
ATOM     38  C   UNL     1       1.326   8.892   5.991  1.00  0.00     0.074 A 
ATOM     39  C   UNL     1      -0.533   9.157   4.386  1.00  0.00     0.049 A 
ATOM     40  N   UNL     1       2.050   9.947   5.726  1.00  0.00    -0.248 NA
ATOM     41  C   UNL     1       1.903   8.005   7.016  1.00  0.00     0.031 C 
ATOM     42  C   UNL     1      -1.761   8.807   3.676  1.00  0.00     0.029 A 
ATOM     43  N   UNL     1      -0.108  10.313   3.778  1.00  0.00    -0.354 N 
ATOM     44  C   UNL     1       3.163   9.853   6.553  1.00  0.00     0.074 A 
ATOM     45  C   UNL     1       3.006   8.657   7.349  1.00  0.00     0.031 C 
ATOM     46  C   UNL     1      -1.993   9.734   2.729  1.00  0.00     0.029 A 
ATOM     47  C   UNL     1      -0.954  10.761   2.794  1.00  0.00     0.049 A 
ATOM     48  H   UNL     1       0.726  10.776   4.024  1.00  0.00     0.167 HD
ATOM     49  C   UNL     1       4.226  10.685   6.638  1.00  0.00     0.031 A 
ATOM     50  C   UNL     1      -0.906  11.885   2.050  1.00  0.00     0.031 A 
ATOM     51  C   UNL     1       4.378  11.885   5.862  1.00  0.00     0.049 A 
ATOM     52  C   UNL     1       0.229  12.859   2.249  1.00  0.00     0.074 A 
ATOM     53  C   UNL     1       5.417  12.797   5.885  1.00  0.00     0.029 A 
ATOM     54  N   UNL     1       3.461  12.342   4.929  1.00  0.00    -0.354 N 
ATOM     55  N   UNL     1       1.276  12.763   3.033  1.00  0.00    -0.248 NA
ATOM     56  C   UNL     1       0.185  14.099   1.459  1.00  0.00     0.031 C 
ATOM     57  C   UNL     1       5.099  13.840   5.011  1.00  0.00     0.029 A 
ATOM     58  C   UNL     1       3.895  13.542   4.393  1.00  0.00     0.049 A 
ATOM     59  H   UNL     1       2.626  11.882   4.684  1.00  0.00     0.167 HD
ATOM     60  C   UNL     1       2.024  13.915   2.814  1.00  0.00     0.074 A 
ATOM     61  C   UNL     1       1.323  14.684   1.808  1.00  0.00     0.031 C 
ATOM     62  C   UNL     1       3.186  14.301   3.396  1.00  0.00     0.031 A 
BRANCH  49  63
ATOM     63  C   UNL     1       5.301  10.339   7.628  1.00  0.00    -0.014 A 
ATOM     64  C   UNL     1       6.170   9.258   7.410  1.00  0.00     0.009 A 
ATOM     65  C   UNL     1       5.479  11.137   8.769  1.00  0.00     0.009 A 
ATOM     66  C   UNL     1       7.184   8.972   8.327  1.00  0.00     0.001 A 
ATOM     67  C   UNL     1       6.512  10.866   9.668  1.00  0.00     0.001 A 
ATOM     68  C   UNL     1       7.360   9.781   9.449  1.00  0.00     0.000 A 
ENDBRANCH  49  63
BRANCH  50  69
ATOM     69  C   UNL     1      -1.976  12.170   1.056  1.00  0.00    -0.014 A 
ATOM     70  C   UNL     1      -1.693  12.170  -0.318  1.00  0.00     0.009 A 
ATOM     71  C   UNL     1      -3.284  12.464   1.476  1.00  0.00     0.009 A 
ATOM     72  C   UNL     1      -2.690  12.474  -1.248  1.00  0.00     0.001 A 
ATOM     73  C   UNL     1      -4.286  12.737   0.543  1.00  0.00     0.001 A 
ATOM     74  C   UNL     1      -3.987  12.749  -0.818  1.00  0.00     0.000 A 
ENDBRANCH  50  69
BRANCH  62  75
ATOM     75  C   UNL     1       3.789  15.608   2.957  1.00  0.00    -0.014 A 
ATOM     76  C   UNL     1       3.207  16.834   3.313  1.00  0.00     0.009 A 
ATOM     77  C   UNL     1       4.999  15.614   2.243  1.00  0.00     0.009 A 
ATOM     78  C   UNL     1       3.810  18.037   2.942  1.00  0.00     0.001 A 
ATOM     79  C   UNL     1       5.617  16.818   1.902  1.00  0.00     0.001 A 
ATOM     80  C   UNL     1       5.018  18.029   2.244  1.00  0.00     0.000 A 
ENDBRANCH  62  75
ENDBRANCH  36  37
ENDBRANCH  29  31
ENDBRANCH  28  29
ENDBRANCH  27  28
ENDBRANCH  26  27
ENDBRANCH  25  26
ENDBRANCH   1  25
TORSDOF 18
