REMARK SMILES COc1ccc2c(c1)c(CC(=O)OCCOCCOCCOC(=O)c1ccc(-c3c4nc(c(-c5ccccc5)c5ccc([nH]5)c(-c5ccccc5)c5nc(c(-c6ccccc6)c6ccc3[nH]6)C=C5)C=C4)cc1)c(C)n2Cc1ccn(C(F)F)c(=O)c1
REMARK SMILES IDX 17 1 16 2 15 3 14 4 13 5 11 6 12 7 10 8 9 9 3 10 4 11 8 12
REMARK SMILES IDX 5 13 7 14 6 15 75 16 73 17 74 18 2 19 1 20 76 21 77 22 78 23
REMARK SMILES IDX 86 24 79 25 84 26 80 27 85 28 81 29 82 30 83 31 18 32 19 33
REMARK SMILES IDX 20 34 21 35 22 36 23 37 24 38 25 39 26 40 72 41 27 42 71 43
REMARK SMILES IDX 28 44 29 45 30 46 65 47 31 48 70 49 64 50 66 51 32 52 69 53
REMARK SMILES IDX 63 54 62 55 33 57 55 58 40 59 54 60 41 61 44 62 53 63 67 64
REMARK SMILES IDX 42 65 43 66 52 68 68 69 45 70 34 71 35 72 39 73 36 74 38 75
REMARK SMILES IDX 37 76 56 77 57 78 61 79 58 80 60 81 59 82 46 83 47 84 51 85
REMARK SMILES IDX 48 86 50 87 49 88
REMARK H PARENT 66 56 44 67
REMARK Flexibility Score: inf
ROOT
ATOM      1  C   UNL     1      -2.174  -4.370  -3.539  1.00  0.00     0.188 C 
ENDROOT
BRANCH   1   2
ATOM      2  O   UNL     1      -2.519  -5.287  -4.569  1.00  0.00    -0.376 OA
BRANCH   2   3
ATOM      3  C   UNL     1      -1.479  -5.984  -5.242  1.00  0.00     0.202 C 
BRANCH   3   4
ATOM      4  C   UNL     1      -1.135  -5.305  -6.576  1.00  0.00     0.261 C 
BRANCH   4   5
ATOM      5  O   UNL     1      -0.415  -4.061  -6.385  1.00  0.00    -0.463 OA
BRANCH   5   6
ATOM      6  C   UNL     1      -0.976  -2.948  -6.925  1.00  0.00     0.310 C 
ATOM      7  O   UNL     1      -1.889  -2.991  -7.749  1.00  0.00    -0.252 OA
BRANCH   6   8
ATOM      8  C   UNL     1      -0.570  -1.639  -6.264  1.00  0.00     0.160 C 
BRANCH   8   9
ATOM      9  C   UNL     1       0.813  -1.086  -6.283  1.00  0.00    -0.008 A 
ATOM     10  C   UNL     1       2.576  -0.518  -2.916  1.00  0.00     0.119 A 
ATOM     11  C   UNL     1       3.637   0.222  -3.415  1.00  0.00     0.048 A 
ATOM     12  C   UNL     1       1.642  -1.093  -3.785  1.00  0.00     0.057 A 
ATOM     13  C   UNL     1       3.767   0.429  -4.793  1.00  0.00     0.031 A 
ATOM     14  C   UNL     1       1.694  -0.838  -5.171  1.00  0.00     0.007 A 
ATOM     15  C   UNL     1       2.772  -0.083  -5.644  1.00  0.00     0.049 A 
ATOM     16  N   UNL     1       2.613  -0.012  -7.011  1.00  0.00    -0.340 N 
ATOM     17  C   UNL     1       1.307  -0.309  -7.324  1.00  0.00     0.020 A 
ATOM     18  C   UNL     1       0.605   0.177  -8.546  1.00  0.00     0.065 C 
BRANCH  10  19
ATOM     19  O   UNL     1       2.400  -0.756  -1.578  1.00  0.00    -0.497 OA
ATOM     20  C   UNL     1       2.407   0.435  -0.786  1.00  0.00     0.278 C 
ENDBRANCH  10  19
BRANCH  16  21
ATOM     21  C   UNL     1       3.688   0.166  -7.984  1.00  0.00     0.158 C 
BRANCH  21  22
ATOM     22  C   UNL     1       3.908  -1.142  -8.711  1.00  0.00    -0.021 A 
ATOM     23  C   UNL     1       3.125  -1.413  -9.901  1.00  0.00     0.024 A 
ATOM     24  C   UNL     1       4.685  -2.113  -8.203  1.00  0.00     0.077 A 
ATOM     25  C   UNL     1       3.023  -2.661 -10.369  1.00  0.00     0.095 A 
ATOM     26  C   UNL     1       4.669  -3.484  -8.788  1.00  0.00     0.255 A 
ATOM     27  N   UNL     1       3.746  -3.692  -9.801  1.00  0.00    -0.258 N 
ATOM     28  O   UNL     1       5.430  -4.327  -8.325  1.00  0.00    -0.269 OA
BRANCH  27  29
ATOM     29  C   UNL     1       3.618  -5.032 -10.310  1.00  0.00     0.451 C 
ATOM     30  F   UNL     1       4.733  -5.397 -10.986  1.00  0.00    -0.185 F 
ATOM     31  F   UNL     1       3.416  -5.928  -9.313  1.00  0.00    -0.185 F 
ENDBRANCH  27  29
ENDBRANCH  21  22
ENDBRANCH  16  21
ENDBRANCH   8   9
ENDBRANCH   6   8
ENDBRANCH   5   6
ENDBRANCH   4   5
ENDBRANCH   3   4
ENDBRANCH   2   3
ENDBRANCH   1   2
BRANCH   1  32
ATOM     32  C   UNL     1      -0.770  -3.770  -3.477  1.00  0.00     0.188 C 
BRANCH  32  33
ATOM     33  O   UNL     1       0.332  -4.611  -3.187  1.00  0.00    -0.376 OA
BRANCH  33  34
ATOM     34  C   UNL     1       0.313  -5.264  -1.922  1.00  0.00     0.202 C 
BRANCH  34  35
ATOM     35  C   UNL     1       0.232  -4.325  -0.709  1.00  0.00     0.261 C 
BRANCH  35  36
ATOM     36  O   UNL     1      -1.065  -3.685  -0.661  1.00  0.00    -0.460 OA
BRANCH  36  37
ATOM     37  C   UNL     1      -1.052  -2.434  -0.128  1.00  0.00     0.338 C 
ATOM     38  O   UNL     1      -0.282  -2.022   0.725  1.00  0.00    -0.246 OA
BRANCH  37  39
ATOM     39  C   UNL     1      -1.830  -1.548  -1.036  1.00  0.00     0.060 A 
ATOM     40  C   UNL     1      -3.134  -1.807  -1.468  1.00  0.00     0.016 A 
ATOM     41  C   UNL     1      -1.099  -0.525  -1.644  1.00  0.00     0.016 A 
ATOM     42  C   UNL     1      -3.683  -1.055  -2.527  1.00  0.00     0.010 A 
ATOM     43  C   UNL     1      -1.616   0.171  -2.734  1.00  0.00     0.010 A 
ATOM     44  C   UNL     1      -2.914  -0.085  -3.187  1.00  0.00    -0.014 A 
BRANCH  44  45
ATOM     45  C   UNL     1      -3.461   0.857  -4.174  1.00  0.00     0.031 A 
ATOM     46  C   UNL     1      -4.110   2.043  -3.605  1.00  0.00     0.074 A 
ATOM     47  C   UNL     1      -3.522   0.789  -5.520  1.00  0.00     0.049 A 
ATOM     48  N   UNL     1      -5.394   2.152  -3.567  1.00  0.00    -0.248 NA
ATOM     49  C   UNL     1      -3.376   3.140  -2.988  1.00  0.00     0.031 C 
ATOM     50  C   UNL     1      -3.292  -0.362  -6.362  1.00  0.00     0.029 A 
ATOM     51  N   UNL     1      -3.812   1.783  -6.432  1.00  0.00    -0.354 N 
ATOM     52  C   UNL     1      -5.665   3.390  -3.037  1.00  0.00     0.074 A 
ATOM     53  C   UNL     1      -4.390   3.930  -2.615  1.00  0.00     0.031 C 
ATOM     54  C   UNL     1      -3.258   0.015  -7.662  1.00  0.00     0.029 A 
ATOM     55  C   UNL     1      -3.543   1.443  -7.752  1.00  0.00     0.049 A 
ATOM     56  H   UNL     1      -4.179   2.658  -6.170  1.00  0.00     0.167 HD
ATOM     57  C   UNL     1      -6.917   3.910  -3.117  1.00  0.00     0.031 A 
ATOM     58  C   UNL     1      -4.051   1.959  -8.896  1.00  0.00     0.031 A 
ATOM     59  C   UNL     1      -7.891   2.940  -3.565  1.00  0.00     0.049 A 
ATOM     60  C   UNL     1      -5.458   2.310  -8.630  1.00  0.00     0.074 A 
ATOM     61  C   UNL     1      -8.380   1.753  -3.057  1.00  0.00     0.029 A 
ATOM     62  N   UNL     1      -8.243   2.959  -4.894  1.00  0.00    -0.354 N 
ATOM     63  N   UNL     1      -6.398   1.423  -8.477  1.00  0.00    -0.248 NA
ATOM     64  C   UNL     1      -5.802   3.660  -8.215  1.00  0.00     0.031 C 
ATOM     65  C   UNL     1      -8.661   0.934  -4.189  1.00  0.00     0.029 A 
ATOM     66  C   UNL     1      -8.344   1.661  -5.338  1.00  0.00     0.049 A 
ATOM     67  H   UNL     1      -8.397   3.766  -5.437  1.00  0.00     0.167 HD
ATOM     68  C   UNL     1      -7.259   1.986  -7.551  1.00  0.00     0.074 A 
ATOM     69  C   UNL     1      -6.939   3.407  -7.562  1.00  0.00     0.031 C 
ATOM     70  C   UNL     1      -7.955   1.212  -6.666  1.00  0.00     0.031 A 
BRANCH  57  71
ATOM     71  C   UNL     1      -7.226   5.365  -3.001  1.00  0.00    -0.014 A 
ATOM     72  C   UNL     1      -6.282   6.370  -3.277  1.00  0.00     0.009 A 
ATOM     73  C   UNL     1      -8.553   5.766  -2.786  1.00  0.00     0.009 A 
ATOM     74  C   UNL     1      -6.634   7.721  -3.286  1.00  0.00     0.001 A 
ATOM     75  C   UNL     1      -8.917   7.115  -2.835  1.00  0.00     0.001 A 
ATOM     76  C   UNL     1      -7.955   8.092  -3.075  1.00  0.00     0.000 A 
ENDBRANCH  57  71
BRANCH  58  77
ATOM     77  C   UNL     1      -3.237   2.559  -9.979  1.00  0.00    -0.014 A 
ATOM     78  C   UNL     1      -1.895   2.929  -9.779  1.00  0.00     0.009 A 
ATOM     79  C   UNL     1      -3.813   2.857 -11.225  1.00  0.00     0.009 A 
ATOM     80  C   UNL     1      -1.158   3.576 -10.779  1.00  0.00     0.001 A 
ATOM     81  C   UNL     1      -3.078   3.508 -12.226  1.00  0.00     0.001 A 
ATOM     82  C   UNL     1      -1.752   3.870 -12.002  1.00  0.00     0.000 A 
ENDBRANCH  58  77
BRANCH  70  83
ATOM     83  C   UNL     1      -8.039  -0.281  -6.930  1.00  0.00    -0.014 A 
ATOM     84  C   UNL     1      -9.288  -0.919  -6.889  1.00  0.00     0.009 A 
ATOM     85  C   UNL     1      -6.900  -1.093  -7.056  1.00  0.00     0.009 A 
ATOM     86  C   UNL     1      -9.389  -2.315  -6.953  1.00  0.00     0.001 A 
ATOM     87  C   UNL     1      -6.996  -2.486  -7.146  1.00  0.00     0.001 A 
ATOM     88  C   UNL     1      -8.243  -3.098  -7.081  1.00  0.00     0.000 A 
ENDBRANCH  70  83
ENDBRANCH  44  45
ENDBRANCH  37  39
ENDBRANCH  36  37
ENDBRANCH  35  36
ENDBRANCH  34  35
ENDBRANCH  33  34
ENDBRANCH  32  33
ENDBRANCH   1  32
TORSDOF 22
