REMARK SMILES O=C(OCCOCCOCCOC(=O)c1ccc(-c2c3nc(c(-c4ccccc4)c4ccc([nH]4)c(-c4ccccc4)c4nc(c(-c5ccccc5)c5ccc2[nH]5)C=C4)C=C3)cc1)c1ccc(Cn2cc(Cl)c(=O)[nH]c2=O)cc1
REMARK SMILES IDX 7 1 6 2 5 3 4 4 3 5 2 6 1 7 63 8 64 9 78 10 65 11 77 12
REMARK SMILES IDX 66 13 67 14 68 15 69 16 75 17 70 18 74 19 76 20 71 21 72 22
REMARK SMILES IDX 73 24 8 25 9 26 10 27 11 28 12 29 13 30 14 31 15 32 16 33
REMARK SMILES IDX 62 34 17 35 61 36 18 37 19 38 20 39 55 40 21 41 60 42 54 43
REMARK SMILES IDX 56 44 22 45 59 46 53 47 52 48 23 50 45 51 30 52 44 53 31 54
REMARK SMILES IDX 34 55 43 56 57 57 32 58 33 59 42 61 58 62 35 63 24 64 25 65
REMARK SMILES IDX 29 66 26 67 28 68 27 69 46 70 47 71 51 72 48 73 50 74 49 75
REMARK SMILES IDX 36 76 37 77 41 78 38 79 40 80 39 81
REMARK H PARENT 74 23 56 49 34 60
REMARK Flexibility Score: inf
ROOT
ATOM      1  C   UNL     1       2.508   0.264  -2.206  1.00  0.00     0.188 C 
ENDROOT
BRANCH   1   2
ATOM      2  O   UNL     1       3.616   0.734  -1.424  1.00  0.00    -0.376 OA
BRANCH   2   3
ATOM      3  C   UNL     1       4.537  -0.290  -1.058  1.00  0.00     0.202 C 
BRANCH   3   4
ATOM      4  C   UNL     1       4.133  -1.131   0.158  1.00  0.00     0.261 C 
BRANCH   4   5
ATOM      5  O   UNL     1       2.722  -1.086   0.434  1.00  0.00    -0.460 OA
BRANCH   5   6
ATOM      6  C   UNL     1       2.145  -0.299   1.377  1.00  0.00     0.338 C 
ATOM      7  O   UNL     1       0.946  -0.361   1.619  1.00  0.00    -0.246 OA
BRANCH   6   8
ATOM      8  C   UNL     1       2.997   0.597   2.184  1.00  0.00     0.060 A 
ATOM      9  C   UNL     1       3.624   1.710   1.620  1.00  0.00     0.016 A 
ATOM     10  C   UNL     1       3.119   0.340   3.552  1.00  0.00     0.016 A 
ATOM     11  C   UNL     1       4.453   2.513   2.404  1.00  0.00     0.006 A 
ATOM     12  C   UNL     1       3.936   1.153   4.338  1.00  0.00     0.006 A 
ATOM     13  C   UNL     1       4.631   2.231   3.766  1.00  0.00    -0.028 A 
BRANCH  13  14
ATOM     14  C   UNL     1       5.631   3.015   4.590  1.00  0.00     0.162 C 
BRANCH  14  15
ATOM     15  N   UNL     1       6.913   2.306   4.650  1.00  0.00    -0.295 N 
ATOM     16  C   UNL     1       7.771   2.360   3.565  1.00  0.00     0.117 A 
ATOM     17  C   UNL     1       7.188   1.517   5.761  1.00  0.00     0.328 A 
ATOM     18  C   UNL     1       8.894   1.640   3.504  1.00  0.00     0.122 A 
ATOM     19  N   UNL     1       8.356   0.800   5.699  1.00  0.00    -0.273 N 
ATOM     20  O   UNL     1       6.456   1.421   6.742  1.00  0.00    -0.248 OA
ATOM     21  Cl  UNL     1       9.927   1.680   2.135  1.00  0.00    -0.077 Cl
ATOM     22  C   UNL     1       9.232   0.757   4.646  1.00  0.00     0.272 A 
ATOM     23  H   UNL     1       8.588   0.262   6.490  1.00  0.00     0.175 HD
ATOM     24  O   UNL     1      10.216   0.025   4.661  1.00  0.00    -0.268 OA
ENDBRANCH  14  15
ENDBRANCH  13  14
ENDBRANCH   6   8
ENDBRANCH   5   6
ENDBRANCH   4   5
ENDBRANCH   3   4
ENDBRANCH   2   3
ENDBRANCH   1   2
BRANCH   1  25
ATOM     25  C   UNL     1       2.002   1.390  -3.113  1.00  0.00     0.188 C 
BRANCH  25  26
ATOM     26  O   UNL     1       2.764   1.573  -4.310  1.00  0.00    -0.376 OA
BRANCH  26  27
ATOM     27  C   UNL     1       4.145   1.891  -4.150  1.00  0.00     0.202 C 
BRANCH  27  28
ATOM     28  C   UNL     1       4.446   3.353  -3.809  1.00  0.00     0.261 C 
BRANCH  28  29
ATOM     29  O   UNL     1       3.893   3.778  -2.549  1.00  0.00    -0.460 OA
BRANCH  29  30
ATOM     30  C   UNL     1       3.055   4.838  -2.635  1.00  0.00     0.338 C 
ATOM     31  O   UNL     1       2.716   5.444  -3.638  1.00  0.00    -0.246 OA
BRANCH  30  32
ATOM     32  C   UNL     1       2.573   5.244  -1.306  1.00  0.00     0.060 A 
ATOM     33  C   UNL     1       1.293   4.859  -0.900  1.00  0.00     0.016 A 
ATOM     34  C   UNL     1       3.285   6.212  -0.592  1.00  0.00     0.016 A 
ATOM     35  C   UNL     1       0.695   5.493   0.191  1.00  0.00     0.010 A 
ATOM     36  C   UNL     1       2.688   6.837   0.508  1.00  0.00     0.010 A 
ATOM     37  C   UNL     1       1.369   6.519   0.874  1.00  0.00    -0.014 A 
BRANCH  37  38
ATOM     38  C   UNL     1       0.642   7.344   1.874  1.00  0.00     0.031 A 
ATOM     39  C   UNL     1       0.139   8.714   1.495  1.00  0.00     0.074 A 
ATOM     40  C   UNL     1       0.397   6.867   3.108  1.00  0.00     0.049 A 
ATOM     41  N   UNL     1      -0.541   9.575   2.213  1.00  0.00    -0.248 NA
ATOM     42  C   UNL     1       0.441   9.177   0.132  1.00  0.00     0.031 C 
ATOM     43  C   UNL     1       0.809   5.557   3.608  1.00  0.00     0.029 A 
ATOM     44  N   UNL     1      -0.267   7.440   4.164  1.00  0.00    -0.354 N 
ATOM     45  C   UNL     1      -0.753  10.674   1.389  1.00  0.00     0.074 A 
ATOM     46  C   UNL     1      -0.095  10.390   0.131  1.00  0.00     0.031 C 
ATOM     47  C   UNL     1       0.385   5.424   4.877  1.00  0.00     0.029 A 
ATOM     48  C   UNL     1      -0.314   6.643   5.280  1.00  0.00     0.049 A 
ATOM     49  H   UNL     1      -0.671   8.337   4.124  1.00  0.00     0.167 HD
ATOM     50  C   UNL     1      -1.443  11.813   1.644  1.00  0.00     0.031 A 
ATOM     51  C   UNL     1      -0.856   6.869   6.492  1.00  0.00     0.031 A 
ATOM     52  C   UNL     1      -2.095  12.117   2.890  1.00  0.00     0.049 A 
ATOM     53  C   UNL     1      -1.583   8.156   6.764  1.00  0.00     0.074 A 
ATOM     54  C   UNL     1      -2.825  13.244   3.230  1.00  0.00     0.029 A 
ATOM     55  N   UNL     1      -2.098  11.291   4.001  1.00  0.00    -0.354 N 
ATOM     56  N   UNL     1      -1.795   9.172   5.965  1.00  0.00    -0.248 NA
ATOM     57  C   UNL     1      -2.159   8.318   8.109  1.00  0.00     0.031 C 
ATOM     58  C   UNL     1      -3.238  13.116   4.561  1.00  0.00     0.029 A 
ATOM     59  C   UNL     1      -2.801  11.890   5.034  1.00  0.00     0.049 A 
ATOM     60  H   UNL     1      -1.664  10.408   4.051  1.00  0.00     0.167 HD
ATOM     61  C   UNL     1      -2.543  10.083   6.701  1.00  0.00     0.074 A 
ATOM     62  C   UNL     1      -2.764   9.492   8.004  1.00  0.00     0.031 C 
ATOM     63  C   UNL     1      -3.006  11.301   6.330  1.00  0.00     0.031 A 
BRANCH  50  64
ATOM     64  C   UNL     1      -1.522  12.831   0.543  1.00  0.00    -0.014 A 
ATOM     65  C   UNL     1      -2.363  12.632  -0.564  1.00  0.00     0.009 A 
ATOM     66  C   UNL     1      -0.789  14.024   0.635  1.00  0.00     0.009 A 
ATOM     67  C   UNL     1      -2.446  13.597  -1.570  1.00  0.00     0.001 A 
ATOM     68  C   UNL     1      -0.891  14.996  -0.362  1.00  0.00     0.001 A 
ATOM     69  C   UNL     1      -1.714  14.779  -1.466  1.00  0.00     0.000 A 
ENDBRANCH  50  64
BRANCH  51  70
ATOM     70  C   UNL     1      -0.729   5.844   7.558  1.00  0.00    -0.014 A 
ATOM     71  C   UNL     1      -1.837   5.079   7.951  1.00  0.00     0.009 A 
ATOM     72  C   UNL     1       0.501   5.645   8.202  1.00  0.00     0.009 A 
ATOM     73  C   UNL     1      -1.721   4.151   8.988  1.00  0.00     0.001 A 
ATOM     74  C   UNL     1       0.620   4.699   9.221  1.00  0.00     0.001 A 
ATOM     75  C   UNL     1      -0.492   3.960   9.619  1.00  0.00     0.000 A 
ENDBRANCH  51  70
BRANCH  63  76
ATOM     76  C   UNL     1      -3.811  12.067   7.342  1.00  0.00    -0.014 A 
ATOM     77  C   UNL     1      -3.195  12.678   8.446  1.00  0.00     0.009 A 
ATOM     78  C   UNL     1      -5.199  12.194   7.180  1.00  0.00     0.009 A 
ATOM     79  C   UNL     1      -3.960  13.369   9.387  1.00  0.00     0.001 A 
ATOM     80  C   UNL     1      -5.958  12.906   8.111  1.00  0.00     0.001 A 
ATOM     81  C   UNL     1      -5.339  13.484   9.218  1.00  0.00     0.000 A 
ENDBRANCH  63  76
ENDBRANCH  37  38
ENDBRANCH  30  32
ENDBRANCH  29  30
ENDBRANCH  28  29
ENDBRANCH  27  28
ENDBRANCH  26  27
ENDBRANCH  25  26
ENDBRANCH   1  25
TORSDOF 19
