REMARK SMILES CC(C)(C)c1ccc(OCC(=O)N/N=C/c2ccc(C(=O)OCCOCCOCCOC(=O)c3ccc(-c4c5nc(c(-c6ccccc6)c6ccc([nH]6)c(-c6ccccc6)c6nc(c(-c7ccccc7)c7ccc4[nH]7)C=C6)C=C5)cc3)cc2)cc1
REMARK SMILES IDX 24 1 23 2 22 3 20 4 21 5 19 6 16 7 17 8 83 9 18 10 82 11
REMARK SMILES IDX 15 12 14 13 13 14 11 15 12 16 10 18 9 19 8 20 5 21 6 22
REMARK SMILES IDX 85 23 7 24 84 25 2 26 1 27 3 28 4 29 25 30 26 31 27 32 28 33
REMARK SMILES IDX 29 34 30 35 31 36 32 37 33 38 34 39 35 40 81 41 36 42 80 43
REMARK SMILES IDX 37 44 38 45 39 46 74 47 40 48 79 49 73 50 75 51 41 52 78 53
REMARK SMILES IDX 72 54 71 55 42 57 64 58 49 59 63 60 50 61 53 62 62 63 76 64
REMARK SMILES IDX 51 65 52 66 61 68 77 69 54 70 43 71 44 72 48 73 45 74 47 75
REMARK SMILES IDX 46 76 65 77 66 78 70 79 67 80 69 81 68 82 55 83 56 84 60 85
REMARK SMILES IDX 57 86 59 87 58 88
REMARK H PARENT 13 17 75 56 53 67
REMARK Flexibility Score: inf
ROOT
ATOM      1  C   UNL     1       2.268  -9.601 -12.107  1.00  0.00     0.202 C 
ENDROOT
BRANCH   1   2
ATOM      2  C   UNL     1       0.911  -8.962 -11.764  1.00  0.00     0.261 C 
BRANCH   2   3
ATOM      3  O   UNL     1       0.923  -7.605 -11.316  1.00  0.00    -0.460 OA
BRANCH   3   4
ATOM      4  C   UNL     1       0.608  -7.429 -10.008  1.00  0.00     0.338 C 
ATOM      5  O   UNL     1       0.327  -8.294  -9.196  1.00  0.00    -0.246 OA
BRANCH   4   6
ATOM      6  C   UNL     1       0.867  -6.026  -9.623  1.00  0.00     0.060 A 
ATOM      7  C   UNL     1       1.407  -3.431  -8.804  1.00  0.00    -0.005 A 
ATOM      8  C   UNL     1       1.898  -4.499  -8.051  1.00  0.00     0.010 A 
ATOM      9  C   UNL     1       0.677  -3.645  -9.977  1.00  0.00     0.010 A 
ATOM     10  C   UNL     1       1.605  -5.801  -8.450  1.00  0.00     0.016 A 
ATOM     11  C   UNL     1       0.424  -4.951 -10.402  1.00  0.00     0.016 A 
BRANCH   7  12
ATOM     12  C   UNL     1       1.651  -2.068  -8.307  1.00  0.00     0.141 C 
ATOM     13  N   UNL     1       0.690  -1.214  -8.274  1.00  0.00    -0.181 NA
BRANCH  13  14
ATOM     14  N   UNL     1       0.805   0.033  -7.746  1.00  0.00    -0.244 N 
ATOM     15  C   UNL     1       1.737   0.693  -6.992  1.00  0.00     0.277 C 
ATOM     16  O   UNL     1       1.502   1.873  -6.693  1.00  0.00    -0.269 OA
ATOM     17  H   UNL     1       0.028   0.600  -7.957  1.00  0.00     0.193 HD
BRANCH  15  18
ATOM     18  C   UNL     1       3.046   0.056  -6.537  1.00  0.00     0.331 C 
BRANCH  18  19
ATOM     19  O   UNL     1       2.950  -1.144  -5.785  1.00  0.00    -0.484 OA
BRANCH  19  20
ATOM     20  C   UNL     1       2.357  -1.071  -4.557  1.00  0.00     0.120 A 
ATOM     21  C   UNL     1       1.171  -1.192  -1.978  1.00  0.00    -0.042 A 
ATOM     22  C   UNL     1       1.423  -2.357  -2.721  1.00  0.00     0.008 A 
ATOM     23  C   UNL     1       1.487   0.033  -2.588  1.00  0.00     0.008 A 
ATOM     24  C   UNL     1       2.019  -2.296  -3.987  1.00  0.00     0.047 A 
ATOM     25  C   UNL     1       2.084   0.095  -3.852  1.00  0.00     0.047 A 
BRANCH  21  26
ATOM     26  C   UNL     1       0.559  -1.248  -0.568  1.00  0.00    -0.013 C 
ATOM     27  C   UNL     1       0.962  -0.026   0.292  1.00  0.00     0.016 C 
ATOM     28  C   UNL     1       1.019  -2.501   0.212  1.00  0.00     0.016 C 
ATOM     29  C   UNL     1      -0.975  -1.274  -0.693  1.00  0.00     0.016 C 
ENDBRANCH  21  26
ENDBRANCH  19  20
ENDBRANCH  18  19
ENDBRANCH  15  18
ENDBRANCH  13  14
ENDBRANCH   7  12
ENDBRANCH   4   6
ENDBRANCH   3   4
ENDBRANCH   2   3
ENDBRANCH   1   2
BRANCH   1  30
ATOM     30  O   UNL     1       3.498  -9.296 -11.471  1.00  0.00    -0.376 OA
BRANCH  30  31
ATOM     31  C   UNL     1       3.702  -8.053 -10.838  1.00  0.00     0.188 C 
BRANCH  31  32
ATOM     32  C   UNL     1       3.749  -6.763 -11.681  1.00  0.00     0.188 C 
BRANCH  32  33
ATOM     33  O   UNL     1       3.386  -6.809 -13.041  1.00  0.00    -0.376 OA
BRANCH  33  34
ATOM     34  C   UNL     1       4.199  -7.493 -13.979  1.00  0.00     0.202 C 
BRANCH  34  35
ATOM     35  C   UNL     1       5.694  -7.823 -13.796  1.00  0.00     0.261 C 
BRANCH  35  36
ATOM     36  O   UNL     1       6.196  -7.944 -12.462  1.00  0.00    -0.460 OA
BRANCH  36  37
ATOM     37  C   UNL     1       7.009  -6.944 -12.046  1.00  0.00     0.338 C 
ATOM     38  O   UNL     1       7.334  -5.939 -12.661  1.00  0.00    -0.246 OA
BRANCH  37  39
ATOM     39  C   UNL     1       7.333  -7.165 -10.627  1.00  0.00     0.060 A 
ATOM     40  C   UNL     1       6.757  -6.331  -9.658  1.00  0.00     0.016 A 
ATOM     41  C   UNL     1       8.209  -8.185 -10.258  1.00  0.00     0.016 A 
ATOM     42  C   UNL     1       7.041  -6.531  -8.307  1.00  0.00     0.010 A 
ATOM     43  C   UNL     1       8.514  -8.365  -8.907  1.00  0.00     0.010 A 
ATOM     44  C   UNL     1       7.938  -7.536  -7.926  1.00  0.00    -0.014 A 
BRANCH  44  45
ATOM     45  C   UNL     1       8.376  -7.662  -6.517  1.00  0.00     0.031 A 
ATOM     46  C   UNL     1       9.698  -7.080  -6.112  1.00  0.00     0.074 A 
ATOM     47  C   UNL     1       7.623  -8.319  -5.617  1.00  0.00     0.049 A 
ATOM     48  N   UNL     1      10.336  -7.182  -4.974  1.00  0.00    -0.248 NA
ATOM     49  C   UNL     1      10.398  -6.282  -7.131  1.00  0.00     0.031 C 
ATOM     50  C   UNL     1       6.303  -8.891  -5.873  1.00  0.00     0.029 A 
ATOM     51  N   UNL     1       7.883  -8.638  -4.307  1.00  0.00    -0.354 N 
ATOM     52  C   UNL     1      11.520  -6.476  -5.144  1.00  0.00     0.074 A 
ATOM     53  C   UNL     1      11.520  -5.971  -6.501  1.00  0.00     0.031 C 
ATOM     54  C   UNL     1       5.880  -9.518  -4.762  1.00  0.00     0.029 A 
ATOM     55  C   UNL     1       6.918  -9.430  -3.736  1.00  0.00     0.049 A 
ATOM     56  H   UNL     1       8.684  -8.329  -3.824  1.00  0.00     0.167 HD
ATOM     57  C   UNL     1      12.518  -6.272  -4.253  1.00  0.00     0.031 A 
ATOM     58  C   UNL     1       6.894 -10.051  -2.541  1.00  0.00     0.031 A 
ATOM     59  C   UNL     1      12.529  -6.804  -2.916  1.00  0.00     0.049 A 
ATOM     60  C   UNL     1       8.060  -9.893  -1.599  1.00  0.00     0.074 A 
ATOM     61  C   UNL     1      13.486  -6.636  -1.930  1.00  0.00     0.029 A 
ATOM     62  N   UNL     1      11.545  -7.623  -2.383  1.00  0.00    -0.354 N 
ATOM     63  N   UNL     1       9.159  -9.195  -1.753  1.00  0.00    -0.248 NA
ATOM     64  C   UNL     1       7.981 -10.611  -0.318  1.00  0.00     0.031 C 
ATOM     65  C   UNL     1      13.117  -7.414  -0.827  1.00  0.00     0.029 A 
ATOM     66  C   UNL     1      11.893  -8.005  -1.098  1.00  0.00     0.049 A 
ATOM     67  H   UNL     1      10.722  -7.893  -2.850  1.00  0.00     0.167 HD
ATOM     68  C   UNL     1       9.890  -9.370  -0.583  1.00  0.00     0.074 A 
ATOM     69  C   UNL     1       9.101 -10.226   0.278  1.00  0.00     0.031 C 
ATOM     70  C   UNL     1      11.104  -8.865  -0.253  1.00  0.00     0.031 A 
BRANCH  57  71
ATOM     71  C   UNL     1      13.710  -5.484  -4.723  1.00  0.00    -0.014 A 
ATOM     72  C   UNL     1      13.620  -4.110  -4.997  1.00  0.00     0.009 A 
ATOM     73  C   UNL     1      14.947  -6.127  -4.881  1.00  0.00     0.009 A 
ATOM     74  C   UNL     1      14.734  -3.408  -5.463  1.00  0.00     0.001 A 
ATOM     75  C   UNL     1      16.067  -5.416  -5.314  1.00  0.00     0.001 A 
ATOM     76  C   UNL     1      15.957  -4.060  -5.617  1.00  0.00     0.000 A 
ENDBRANCH  57  71
BRANCH  58  77
ATOM     77  C   UNL     1       5.744 -10.924  -2.183  1.00  0.00    -0.014 A 
ATOM     78  C   UNL     1       4.855 -10.562  -1.161  1.00  0.00     0.009 A 
ATOM     79  C   UNL     1       5.535 -12.135  -2.865  1.00  0.00     0.009 A 
ATOM     80  C   UNL     1       3.793 -11.401  -0.816  1.00  0.00     0.001 A 
ATOM     81  C   UNL     1       4.454 -12.957  -2.540  1.00  0.00     0.001 A 
ATOM     82  C   UNL     1       3.589 -12.594  -1.510  1.00  0.00     0.000 A 
ENDBRANCH  58  77
BRANCH  70  83
ATOM     83  C   UNL     1      11.651  -9.200   1.109  1.00  0.00    -0.014 A 
ATOM     84  C   UNL     1      12.118 -10.487   1.414  1.00  0.00     0.009 A 
ATOM     85  C   UNL     1      11.759  -8.191   2.081  1.00  0.00     0.009 A 
ATOM     86  C   UNL     1      12.659 -10.764   2.672  1.00  0.00     0.001 A 
ATOM     87  C   UNL     1      12.329  -8.463   3.326  1.00  0.00     0.001 A 
ATOM     88  C   UNL     1      12.771  -9.750   3.623  1.00  0.00     0.000 A 
ENDBRANCH  70  83
ENDBRANCH  44  45
ENDBRANCH  37  39
ENDBRANCH  36  37
ENDBRANCH  35  36
ENDBRANCH  34  35
ENDBRANCH  33  34
ENDBRANCH  32  33
ENDBRANCH  31  32
ENDBRANCH  30  31
ENDBRANCH   1  30
TORSDOF 23
