REMARK SMILES C[C@]12C(=O)N(c3ccc(C(=O)OCCOCCOCCOC(=O)c4ccc(-c5c6nc(c(-c7ccccc7)c7ccc([nH]7)c(-c7ccccc7)c7nc(c(-c8ccccc8)c8ccc5[nH]8)C=C7)C=C6)cc4)cc3)C(=O)[C@H]1[C@H]1c3ccccc3[C@@H]2c2ccccc21
REMARK SMILES IDX 17 1 16 2 15 3 14 4 13 5 12 6 10 7 11 8 9 9 6 10 7 11 73 12
REMARK SMILES IDX 8 13 72 14 5 15 1 16 2 17 3 18 76 19 84 20 4 21 74 22 77 23
REMARK SMILES IDX 83 24 85 25 75 26 78 27 90 28 82 29 86 30 79 31 89 32 81 33
REMARK SMILES IDX 87 34 80 35 88 36 18 37 19 38 20 39 21 40 22 41 23 42 24 43
REMARK SMILES IDX 25 44 71 45 26 46 70 47 27 48 28 49 29 50 64 51 30 52 69 53
REMARK SMILES IDX 63 54 65 55 31 56 68 57 62 58 61 59 32 61 54 62 39 63 53 64
REMARK SMILES IDX 40 65 43 66 52 67 66 68 41 69 42 70 51 72 67 73 44 74 33 75
REMARK SMILES IDX 34 76 38 77 35 78 37 79 36 80 55 81 56 82 60 83 57 84 59 85
REMARK SMILES IDX 58 86 45 87 46 88 50 89 47 90 49 91 48 92
REMARK H PARENT 65 60 43 71
REMARK Flexibility Score: inf
ROOT
ATOM      1  C   UNL     1       1.486   8.185  -5.262  1.00  0.00     0.188 C 
ENDROOT
BRANCH   1   2
ATOM      2  C   UNL     1       2.297   7.877  -6.539  1.00  0.00     0.188 C 
BRANCH   2   3
ATOM      3  O   UNL     1       2.135   8.697  -7.689  1.00  0.00    -0.376 OA
BRANCH   3   4
ATOM      4  C   UNL     1       0.822   8.963  -8.173  1.00  0.00     0.202 C 
BRANCH   4   5
ATOM      5  C   UNL     1      -0.136   7.787  -8.414  1.00  0.00     0.261 C 
BRANCH   5   6
ATOM      6  O   UNL     1      -0.422   7.014  -7.233  1.00  0.00    -0.460 OA
BRANCH   6   7
ATOM      7  C   UNL     1      -0.123   5.695  -7.316  1.00  0.00     0.338 C 
ATOM      8  O   UNL     1       0.283   5.091  -8.295  1.00  0.00    -0.246 OA
BRANCH   7   9
ATOM      9  C   UNL     1      -0.134   5.080  -5.973  1.00  0.00     0.060 A 
ATOM     10  C   UNL     1      -0.087   3.607  -3.564  1.00  0.00     0.052 A 
ATOM     11  C   UNL     1       1.080   3.793  -4.329  1.00  0.00     0.028 A 
ATOM     12  C   UNL     1      -1.244   4.290  -3.971  1.00  0.00     0.028 A 
ATOM     13  C   UNL     1       1.048   4.476  -5.543  1.00  0.00     0.018 A 
ATOM     14  C   UNL     1      -1.264   5.046  -5.158  1.00  0.00     0.018 A 
BRANCH  10  15
ATOM     15  N   UNL     1      -0.103   2.574  -2.576  1.00  0.00    -0.250 N 
ATOM     16  C   UNL     1       1.287   0.285  -0.290  1.00  0.00     0.024 C 
ATOM     17  C   UNL     1       0.777   0.587  -1.704  1.00  0.00     0.071 C 
ATOM     18  C   UNL     1       1.043   2.026  -2.048  1.00  0.00     0.241 C 
ATOM     19  C   UNL     1      -0.771   0.454  -1.770  1.00  0.00     0.107 C 
ATOM     20  C   UNL     1       1.444  -0.281  -2.834  1.00  0.00     0.066 C 
ATOM     21  O   UNL     1       2.137   2.557  -1.893  1.00  0.00    -0.273 OA
ATOM     22  C   UNL     1      -1.219   1.840  -2.218  1.00  0.00     0.238 C 
ATOM     23  C   UNL     1      -1.167  -0.658  -2.801  1.00  0.00     0.063 C 
ATOM     24  C   UNL     1       0.754   0.044  -4.174  1.00  0.00    -0.036 A 
ATOM     25  C   UNL     1       1.058  -1.714  -2.512  1.00  0.00    -0.036 A 
ATOM     26  O   UNL     1      -2.398   2.164  -2.267  1.00  0.00    -0.274 OA
ATOM     27  C   UNL     1      -0.651  -0.166  -4.153  1.00  0.00    -0.036 A 
ATOM     28  C   UNL     1      -0.349  -1.921  -2.472  1.00  0.00    -0.036 A 
ATOM     29  C   UNL     1       1.365   0.558  -5.308  1.00  0.00     0.005 A 
ATOM     30  C   UNL     1       1.958  -2.754  -2.324  1.00  0.00     0.005 A 
ATOM     31  C   UNL     1      -1.443   0.159  -5.246  1.00  0.00     0.004 A 
ATOM     32  C   UNL     1      -0.844  -3.200  -2.261  1.00  0.00     0.004 A 
ATOM     33  C   UNL     1       0.563   0.896  -6.404  1.00  0.00     0.000 A 
ATOM     34  C   UNL     1       1.451  -4.031  -2.103  1.00  0.00     0.000 A 
ATOM     35  C   UNL     1      -0.827   0.702  -6.372  1.00  0.00     0.000 A 
ATOM     36  C   UNL     1       0.065  -4.252  -2.075  1.00  0.00     0.000 A 
ENDBRANCH  10  15
ENDBRANCH   7   9
ENDBRANCH   6   7
ENDBRANCH   5   6
ENDBRANCH   4   5
ENDBRANCH   3   4
ENDBRANCH   2   3
ENDBRANCH   1   2
BRANCH   1  37
ATOM     37  O   UNL     1       0.605   9.273  -5.375  1.00  0.00    -0.376 OA
BRANCH  37  38
ATOM     38  C   UNL     1       0.982  10.559  -4.926  1.00  0.00     0.202 C 
BRANCH  38  39
ATOM     39  C   UNL     1       2.429  11.060  -4.753  1.00  0.00     0.261 C 
BRANCH  39  40
ATOM     40  O   UNL     1       3.500  10.128  -4.905  1.00  0.00    -0.460 OA
BRANCH  40  41
ATOM     41  C   UNL     1       3.999   9.582  -3.770  1.00  0.00     0.338 C 
ATOM     42  O   UNL     1       3.589   9.728  -2.632  1.00  0.00    -0.246 OA
BRANCH  41  43
ATOM     43  C   UNL     1       5.045   8.620  -4.170  1.00  0.00     0.060 A 
ATOM     44  C   UNL     1       6.182   9.070  -4.842  1.00  0.00     0.016 A 
ATOM     45  C   UNL     1       4.869   7.256  -3.900  1.00  0.00     0.016 A 
ATOM     46  C   UNL     1       7.156   8.150  -5.234  1.00  0.00     0.010 A 
ATOM     47  C   UNL     1       5.841   6.336  -4.304  1.00  0.00     0.010 A 
ATOM     48  C   UNL     1       7.000   6.779  -4.959  1.00  0.00    -0.014 A 
BRANCH  48  49
ATOM     49  C   UNL     1       8.133   5.854  -5.203  1.00  0.00     0.031 A 
ATOM     50  C   UNL     1       8.178   4.941  -6.391  1.00  0.00     0.074 A 
ATOM     51  C   UNL     1       9.150   5.861  -4.320  1.00  0.00     0.049 A 
ATOM     52  N   UNL     1       9.155   4.160  -6.780  1.00  0.00    -0.248 NA
ATOM     53  C   UNL     1       6.986   4.889  -7.250  1.00  0.00     0.031 C 
ATOM     54  C   UNL     1       9.201   6.691  -3.115  1.00  0.00     0.029 A 
ATOM     55  N   UNL     1      10.333   5.168  -4.301  1.00  0.00    -0.354 N 
ATOM     56  C   UNL     1       8.710   3.539  -7.939  1.00  0.00     0.074 A 
ATOM     57  C   UNL     1       7.356   4.001  -8.168  1.00  0.00     0.031 C 
ATOM     58  C   UNL     1      10.367   6.477  -2.487  1.00  0.00     0.029 A 
ATOM     59  C   UNL     1      11.132   5.478  -3.227  1.00  0.00     0.049 A 
ATOM     60  H   UNL     1      10.586   4.512  -4.990  1.00  0.00     0.167 HD
ATOM     61  C   UNL     1       9.382   2.679  -8.741  1.00  0.00     0.031 A 
ATOM     62  C   UNL     1      12.348   5.017  -2.872  1.00  0.00     0.031 A 
ATOM     63  C   UNL     1      10.726   2.216  -8.497  1.00  0.00     0.049 A 
ATOM     64  C   UNL     1      13.052   4.035  -3.765  1.00  0.00     0.074 A 
ATOM     65  C   UNL     1      11.498   1.383  -9.290  1.00  0.00     0.029 A 
ATOM     66  N   UNL     1      11.490   2.527  -7.384  1.00  0.00    -0.354 N 
ATOM     67  N   UNL     1      12.656   3.533  -4.909  1.00  0.00    -0.248 NA
ATOM     68  C   UNL     1      14.379   3.571  -3.333  1.00  0.00     0.031 C 
ATOM     69  C   UNL     1      12.696   1.128  -8.621  1.00  0.00     0.029 A 
ATOM     70  C   UNL     1      12.708   1.869  -7.451  1.00  0.00     0.049 A 
ATOM     71  H   UNL     1      11.209   3.125  -6.654  1.00  0.00     0.167 HD
ATOM     72  C   UNL     1      13.690   2.715  -5.344  1.00  0.00     0.074 A 
ATOM     73  C   UNL     1      14.741   2.804  -4.353  1.00  0.00     0.031 C 
ATOM     74  C   UNL     1      13.755   1.958  -6.465  1.00  0.00     0.031 A 
BRANCH  61  75
ATOM     75  C   UNL     1       8.707   2.172  -9.987  1.00  0.00    -0.014 A 
ATOM     76  C   UNL     1       8.400   0.807 -10.110  1.00  0.00     0.009 A 
ATOM     77  C   UNL     1       8.543   3.007 -11.102  1.00  0.00     0.009 A 
ATOM     78  C   UNL     1       7.976   0.282 -11.332  1.00  0.00     0.001 A 
ATOM     79  C   UNL     1       8.093   2.484 -12.317  1.00  0.00     0.001 A 
ATOM     80  C   UNL     1       7.824   1.120 -12.435  1.00  0.00     0.000 A 
ENDBRANCH  61  75
BRANCH  62  81
ATOM     81  C   UNL     1      12.976   5.512  -1.619  1.00  0.00    -0.014 A 
ATOM     82  C   UNL     1      12.412   5.201  -0.370  1.00  0.00     0.009 A 
ATOM     83  C   UNL     1      14.114   6.332  -1.661  1.00  0.00     0.009 A 
ATOM     84  C   UNL     1      12.958   5.717   0.806  1.00  0.00     0.001 A 
ATOM     85  C   UNL     1      14.680   6.817  -0.479  1.00  0.00     0.001 A 
ATOM     86  C   UNL     1      14.096   6.519   0.751  1.00  0.00     0.000 A 
ENDBRANCH  62  81
BRANCH  74  87
ATOM     87  C   UNL     1      15.006   1.158  -6.712  1.00  0.00    -0.014 A 
ATOM     88  C   UNL     1      15.829   1.470  -7.808  1.00  0.00     0.009 A 
ATOM     89  C   UNL     1      15.309   0.028  -5.938  1.00  0.00     0.009 A 
ATOM     90  C   UNL     1      16.913   0.654  -8.137  1.00  0.00     0.001 A 
ATOM     91  C   UNL     1      16.415  -0.767  -6.250  1.00  0.00     0.001 A 
ATOM     92  C   UNL     1      17.208  -0.461  -7.356  1.00  0.00     0.000 A 
ENDBRANCH  74  87
ENDBRANCH  48  49
ENDBRANCH  41  43
ENDBRANCH  40  41
ENDBRANCH  39  40
ENDBRANCH  38  39
ENDBRANCH  37  38
ENDBRANCH   1  37
TORSDOF 18
