REMARK SMILES O=C(COc1ccccc1[C@@H]1[NH2+]CCc2cc(O)c(O)cc21)OCCOCCOCCOC(=O)c1ccc(-c2c3nc(c(-c4ccccc4)c4ccc([nH]4)c(-c4ccccc4)c4nc(c(-c5ccccc5)c5ccc2[nH]5)C=C4)C=C3)cc1
REMARK SMILES IDX 27 1 26 2 25 3 24 4 23 5 2 6 1 7 3 8 4 9 5 10 6 11 10 12
REMARK SMILES IDX 7 13 9 14 8 15 11 16 12 17 22 18 13 19 15 22 21 23 14 24
REMARK SMILES IDX 16 25 19 26 17 27 20 28 18 30 28 32 29 33 30 34 31 35 32 36
REMARK SMILES IDX 33 37 34 38 35 39 36 40 82 41 37 42 81 43 38 44 39 45 40 46
REMARK SMILES IDX 75 47 41 48 80 49 74 50 76 51 42 52 79 53 73 54 72 55 43 57
REMARK SMILES IDX 65 58 50 59 64 60 51 61 54 62 63 63 77 64 52 65 53 66 62 68
REMARK SMILES IDX 78 69 55 70 44 71 45 72 49 73 46 74 48 75 47 76 66 77 67 78
REMARK SMILES IDX 71 79 68 80 70 81 69 82 56 83 57 84 61 85 58 86 60 87 59 88
REMARK H PARENT 12 20 12 21 20 29 18 31 76 56 54 67
REMARK Flexibility Score: inf
ROOT
ATOM      1  C   UNL     1       3.737  -1.981   0.883  1.00  0.00     0.188 C 
ENDROOT
BRANCH   1   2
ATOM      2  O   UNL     1       5.146  -2.019   0.909  1.00  0.00    -0.376 OA
BRANCH   2   3
ATOM      3  C   UNL     1       6.071  -0.969   1.135  1.00  0.00     0.202 C 
BRANCH   3   4
ATOM      4  C   UNL     1       5.818   0.534   1.013  1.00  0.00     0.261 C 
BRANCH   4   5
ATOM      5  O   UNL     1       4.503   0.928   1.347  1.00  0.00    -0.461 OA
BRANCH   5   6
ATOM      6  C   UNL     1       3.525   0.984   0.416  1.00  0.00     0.344 C 
ATOM      7  O   UNL     1       2.393   1.236   0.819  1.00  0.00    -0.248 OA
BRANCH   6   8
ATOM      8  C   UNL     1       3.881   0.638  -1.055  1.00  0.00     0.351 C 
BRANCH   8   9
ATOM      9  O   UNL     1       4.066   1.746  -1.884  1.00  0.00    -0.481 OA
BRANCH   9  10
ATOM     10  C   UNL     1       3.140   2.047  -2.849  1.00  0.00     0.129 A 
ATOM     11  C   UNL     1       3.801   2.528  -3.993  1.00  0.00     0.047 A 
ATOM     12  C   UNL     1       1.737   2.186  -2.715  1.00  0.00     0.056 A 
ATOM     13  C   UNL     1       3.140   3.320  -4.918  1.00  0.00     0.004 A 
ATOM     14  C   UNL     1       1.122   3.081  -3.615  1.00  0.00     0.014 A 
ATOM     15  C   UNL     1       1.816   3.657  -4.685  1.00  0.00     0.001 A 
BRANCH  12  16
ATOM     16  C   UNL     1       0.886   1.543  -1.619  1.00  0.00     0.249 C 
ATOM     17  N   UNL     1       1.096   0.079  -1.479  1.00  0.00    -0.336 N 
ATOM     18  C   UNL     1      -0.638   1.712  -1.586  1.00  0.00     0.021 A 
ATOM     19  C   UNL     1       0.479  -0.730  -2.545  1.00  0.00     0.266 C 
ATOM     20  H   UNL     1       0.701  -0.216  -0.586  1.00  0.00     0.347 HD
ATOM     21  H   UNL     1       2.102  -0.078  -1.541  1.00  0.00     0.347 HD
ATOM     22  C   UNL     1      -1.412   0.849  -2.400  1.00  0.00    -0.029 A 
ATOM     23  C   UNL     1      -1.254   2.444  -0.561  1.00  0.00     0.060 A 
ATOM     24  C   UNL     1      -0.655  -0.058  -3.334  1.00  0.00     0.097 C 
ATOM     25  C   UNL     1      -2.786   0.726  -2.199  1.00  0.00     0.054 A 
ATOM     26  C   UNL     1      -2.614   2.272  -0.338  1.00  0.00     0.157 A 
ATOM     27  C   UNL     1      -3.367   1.421  -1.149  1.00  0.00     0.157 A 
BRANCH  26  28
ATOM     28  O   UNL     1      -3.247   2.861   0.723  1.00  0.00    -0.504 OA
ATOM     29  H   UNL     1      -4.166   2.730   0.852  1.00  0.00     0.293 HD
ENDBRANCH  26  28
BRANCH  27  30
ATOM     30  O   UNL     1      -4.685   1.203  -0.861  1.00  0.00    -0.504 OA
ATOM     31  H   UNL     1      -5.194   0.633  -1.402  1.00  0.00     0.293 HD
ENDBRANCH  27  30
ENDBRANCH  12  16
ENDBRANCH   9  10
ENDBRANCH   8   9
ENDBRANCH   6   8
ENDBRANCH   5   6
ENDBRANCH   4   5
ENDBRANCH   3   4
ENDBRANCH   2   3
ENDBRANCH   1   2
BRANCH   1  32
ATOM     32  C   UNL     1       2.816  -1.931   2.123  1.00  0.00     0.188 C 
BRANCH  32  33
ATOM     33  O   UNL     1       3.318  -1.813   3.433  1.00  0.00    -0.376 OA
BRANCH  33  34
ATOM     34  C   UNL     1       4.478  -2.534   3.788  1.00  0.00     0.202 C 
BRANCH  34  35
ATOM     35  C   UNL     1       4.548  -4.052   3.562  1.00  0.00     0.261 C 
BRANCH  35  36
ATOM     36  O   UNL     1       4.255  -4.503   2.226  1.00  0.00    -0.460 OA
BRANCH  36  37
ATOM     37  C   UNL     1       3.107  -5.211   2.076  1.00  0.00     0.338 C 
ATOM     38  O   UNL     1       2.301  -5.499   2.941  1.00  0.00    -0.246 OA
BRANCH  37  39
ATOM     39  C   UNL     1       2.865  -5.502   0.643  1.00  0.00     0.060 A 
ATOM     40  C   UNL     1       1.688  -5.024   0.045  1.00  0.00     0.016 A 
ATOM     41  C   UNL     1       3.741  -6.309  -0.082  1.00  0.00     0.016 A 
ATOM     42  C   UNL     1       1.366  -5.378  -1.270  1.00  0.00     0.010 A 
ATOM     43  C   UNL     1       3.404  -6.685  -1.388  1.00  0.00     0.010 A 
ATOM     44  C   UNL     1       2.200  -6.251  -1.978  1.00  0.00    -0.014 A 
BRANCH  44  45
ATOM     45  C   UNL     1       1.750  -6.896  -3.240  1.00  0.00     0.031 A 
ATOM     46  C   UNL     1       1.171  -8.282  -3.163  1.00  0.00     0.074 A 
ATOM     47  C   UNL     1       1.911  -6.312  -4.440  1.00  0.00     0.049 A 
ATOM     48  N   UNL     1       0.907  -9.131  -4.124  1.00  0.00    -0.248 NA
ATOM     49  C   UNL     1       0.864  -8.779  -1.813  1.00  0.00     0.031 C 
ATOM     50  C   UNL     1       2.400  -4.956  -4.667  1.00  0.00     0.029 A 
ATOM     51  N   UNL     1       1.711  -6.819  -5.703  1.00  0.00    -0.354 N 
ATOM     52  C   UNL     1       0.438 -10.276  -3.492  1.00  0.00     0.074 A 
ATOM     53  C   UNL     1       0.461 -10.014  -2.069  1.00  0.00     0.031 C 
ATOM     54  C   UNL     1       2.506  -4.751  -5.992  1.00  0.00     0.029 A 
ATOM     55  C   UNL     1       2.139  -5.978  -6.701  1.00  0.00     0.049 A 
ATOM     56  H   UNL     1       1.302  -7.697  -5.875  1.00  0.00     0.167 HD
ATOM     57  C   UNL     1       0.037 -11.447  -4.043  1.00  0.00     0.031 A 
ATOM     58  C   UNL     1       2.272  -6.188  -8.027  1.00  0.00     0.031 A 
ATOM     59  C   UNL     1       0.035 -11.721  -5.455  1.00  0.00     0.049 A 
ATOM     60  C   UNL     1       1.902  -7.524  -8.620  1.00  0.00     0.074 A 
ATOM     61  C   UNL     1      -0.376 -12.869  -6.110  1.00  0.00     0.029 A 
ATOM     62  N   UNL     1       0.480 -10.842  -6.430  1.00  0.00    -0.354 N 
ATOM     63  N   UNL     1       1.444  -8.597  -8.020  1.00  0.00    -0.248 NA
ATOM     64  C   UNL     1       2.067  -7.678 -10.074  1.00  0.00     0.031 C 
ATOM     65  C   UNL     1      -0.113 -12.711  -7.474  1.00  0.00     0.029 A 
ATOM     66  C   UNL     1       0.390 -11.435  -7.677  1.00  0.00     0.049 A 
ATOM     67  H   UNL     1       0.812  -9.930  -6.260  1.00  0.00     0.167 HD
ATOM     68  C   UNL     1       1.238  -9.538  -9.024  1.00  0.00     0.074 A 
ATOM     69  C   UNL     1       1.618  -8.911 -10.272  1.00  0.00     0.031 C 
ATOM     70  C   UNL     1       0.767 -10.806  -8.918  1.00  0.00     0.031 A 
BRANCH  57  71
ATOM     71  C   UNL     1      -0.363 -12.547  -3.098  1.00  0.00    -0.014 A 
ATOM     72  C   UNL     1      -1.530 -12.466  -2.321  1.00  0.00     0.009 A 
ATOM     73  C   UNL     1       0.453 -13.683  -2.980  1.00  0.00     0.009 A 
ATOM     74  C   UNL     1      -1.841 -13.476  -1.408  1.00  0.00     0.001 A 
ATOM     75  C   UNL     1       0.121 -14.707  -2.092  1.00  0.00     0.001 A 
ATOM     76  C   UNL     1      -1.017 -14.596  -1.296  1.00  0.00     0.000 A 
ENDBRANCH  57  71
BRANCH  58  77
ATOM     77  C   UNL     1       2.834  -5.112  -8.886  1.00  0.00    -0.014 A 
ATOM     78  C   UNL     1       2.023  -4.424  -9.800  1.00  0.00     0.009 A 
ATOM     79  C   UNL     1       4.191  -4.761  -8.786  1.00  0.00     0.009 A 
ATOM     80  C   UNL     1       2.560  -3.414 -10.602  1.00  0.00     0.001 A 
ATOM     81  C   UNL     1       4.719  -3.732  -9.568  1.00  0.00     0.001 A 
ATOM     82  C   UNL     1       3.904  -3.063 -10.480  1.00  0.00     0.000 A 
ENDBRANCH  58  77
BRANCH  70  83
ATOM     83  C   UNL     1       0.580 -11.599 -10.184  1.00  0.00    -0.014 A 
ATOM     84  C   UNL     1       1.672 -12.118 -10.896  1.00  0.00     0.009 A 
ATOM     85  C   UNL     1      -0.720 -11.901 -10.621  1.00  0.00     0.009 A 
ATOM     86  C   UNL     1       1.463 -12.908 -12.031  1.00  0.00     0.001 A 
ATOM     87  C   UNL     1      -0.926 -12.713 -11.738  1.00  0.00     0.001 A 
ATOM     88  C   UNL     1       0.166 -13.211 -12.445  1.00  0.00     0.000 A 
ENDBRANCH  70  83
ENDBRANCH  44  45
ENDBRANCH  37  39
ENDBRANCH  36  37
ENDBRANCH  35  36
ENDBRANCH  34  35
ENDBRANCH  33  34
ENDBRANCH  32  33
ENDBRANCH   1  32
TORSDOF 22
