REMARK SMILES O=C(OCCOCCOCCOC(=O)c1cccn1CC(=O)N1CC[C@H]2CCCC[C@H]2C1)c1ccc(-c2c3nc(c(-c4ccccc4)c4ccc([nH]4)c(-c4ccccc4)c4nc(c(-c5ccccc5)c5ccc2[nH]5)C=C4)C=C3)cc1
REMARK SMILES IDX 8 1 7 2 6 3 5 4 4 5 3 6 2 7 1 8 33 9 34 10 80 11 35 12 79 13
REMARK SMILES IDX 36 14 37 15 38 16 73 17 39 18 78 19 72 20 74 21 40 22 77 23
REMARK SMILES IDX 71 24 70 25 41 27 63 28 48 29 62 30 49 31 52 32 61 33 75 34
REMARK SMILES IDX 50 35 51 36 60 38 76 39 53 40 42 41 43 42 47 43 44 44 46 45
REMARK SMILES IDX 45 46 64 47 65 48 69 49 66 50 68 51 67 52 54 53 55 54 59 55
REMARK SMILES IDX 56 56 58 57 57 58 9 59 10 60 11 61 12 62 13 63 14 64 15 65
REMARK SMILES IDX 16 66 19 67 17 68 18 69 20 70 21 71 22 72 23 73 24 74 32 75
REMARK SMILES IDX 25 76 31 77 26 78 30 79 27 80 29 81 28 82
REMARK H PARENT 74 26 52 37
REMARK Flexibility Score: inf
ROOT
ATOM      1  C   UNL     1       1.963  -0.258   3.458  1.00  0.00     0.188 C 
ENDROOT
BRANCH   1   2
ATOM      2  C   UNL     1       2.695  -0.069   2.139  1.00  0.00     0.188 C 
BRANCH   2   3
ATOM      3  O   UNL     1       4.088  -0.313   1.963  1.00  0.00    -0.376 OA
BRANCH   3   4
ATOM      4  C   UNL     1       4.979   0.669   1.421  1.00  0.00     0.202 C 
BRANCH   4   5
ATOM      5  C   UNL     1       4.569   1.780   0.425  1.00  0.00     0.261 C 
BRANCH   5   6
ATOM      6  O   UNL     1       3.188   1.965   0.126  1.00  0.00    -0.460 OA
BRANCH   6   7
ATOM      7  C   UNL     1       2.436   0.987  -0.434  1.00  0.00     0.338 C 
ATOM      8  O   UNL     1       1.241   1.163  -0.621  1.00  0.00    -0.246 OA
BRANCH   7   9
ATOM      9  C   UNL     1       3.178  -0.305  -0.585  1.00  0.00     0.060 A 
ATOM     10  C   UNL     1       3.755  -1.272  -1.300  1.00  0.00     0.016 A 
ATOM     11  C   UNL     1       2.649  -1.038  -1.535  1.00  0.00     0.016 A 
ATOM     12  C   UNL     1       4.048  -1.988  -3.040  1.00  0.00     0.010 A 
ATOM     13  C   UNL     1       2.854  -1.903  -3.266  1.00  0.00     0.010 A 
ATOM     14  C   UNL     1       3.649  -1.849  -4.310  1.00  0.00    -0.014 A 
BRANCH  14  15
ATOM     15  C   UNL     1       3.181  -1.675  -5.707  1.00  0.00     0.031 A 
ATOM     16  C   UNL     1       3.413  -3.102  -6.147  1.00  0.00     0.074 A 
ATOM     17  C   UNL     1       3.063  -0.479  -6.490  1.00  0.00     0.049 A 
ATOM     18  N   UNL     1       4.561  -3.612  -6.457  1.00  0.00    -0.248 NA
ATOM     19  C   UNL     1       2.462  -4.154  -5.653  1.00  0.00     0.031 C 
ATOM     20  C   UNL     1       2.408   0.819  -6.146  1.00  0.00     0.029 A 
ATOM     21  N   UNL     1       3.479  -0.077  -7.790  1.00  0.00    -0.354 N 
ATOM     22  C   UNL     1       4.352  -4.988  -6.494  1.00  0.00     0.074 A 
ATOM     23  C   UNL     1       3.252  -5.235  -5.618  1.00  0.00     0.031 C 
ATOM     24  C   UNL     1       2.678   1.836  -7.027  1.00  0.00     0.029 A 
ATOM     25  C   UNL     1       3.482   1.360  -8.140  1.00  0.00     0.049 A 
ATOM     26  H   UNL     1       3.762  -0.749  -8.451  1.00  0.00     0.167 HD
ATOM     27  C   UNL     1       4.758  -5.758  -7.542  1.00  0.00     0.031 A 
ATOM     28  C   UNL     1       4.092   2.050  -9.218  1.00  0.00     0.031 A 
ATOM     29  C   UNL     1       5.350  -4.925  -8.545  1.00  0.00     0.049 A 
ATOM     30  C   UNL     1       4.570   0.927 -10.028  1.00  0.00     0.074 A 
ATOM     31  C   UNL     1       6.476  -4.138  -8.495  1.00  0.00     0.029 A 
ATOM     32  N   UNL     1       4.465  -4.388  -9.467  1.00  0.00    -0.354 N 
ATOM     33  N   UNL     1       3.787   0.141 -10.698  1.00  0.00    -0.248 NA
ATOM     34  C   UNL     1       5.993   0.584 -10.010  1.00  0.00     0.031 C 
ATOM     35  C   UNL     1       5.954  -2.882  -8.869  1.00  0.00     0.029 A 
ATOM     36  C   UNL     1       4.796  -3.067  -9.628  1.00  0.00     0.049 A 
ATOM     37  H   UNL     1       3.734  -4.865  -9.921  1.00  0.00     0.167 HD
ATOM     38  C   UNL     1       4.517  -1.015 -10.733  1.00  0.00     0.074 A 
ATOM     39  C   UNL     1       5.913  -0.625 -10.568  1.00  0.00     0.031 C 
ATOM     40  C   UNL     1       3.923  -2.176 -10.339  1.00  0.00     0.031 A 
BRANCH  27  41
ATOM     41  C   UNL     1       4.314  -7.123  -7.927  1.00  0.00    -0.014 A 
ATOM     42  C   UNL     1       5.084  -7.790  -8.899  1.00  0.00     0.009 A 
ATOM     43  C   UNL     1       3.080  -7.678  -7.572  1.00  0.00     0.009 A 
ATOM     44  C   UNL     1       4.606  -8.930  -9.540  1.00  0.00     0.001 A 
ATOM     45  C   UNL     1       2.614  -8.837  -8.190  1.00  0.00     0.001 A 
ATOM     46  C   UNL     1       3.366  -9.450  -9.187  1.00  0.00     0.000 A 
ENDBRANCH  27  41
BRANCH  28  47
ATOM     47  C   UNL     1       4.509   3.421  -9.946  1.00  0.00    -0.014 A 
ATOM     48  C   UNL     1       4.190   4.750  -9.633  1.00  0.00     0.009 A 
ATOM     49  C   UNL     1       5.412   3.351 -11.080  1.00  0.00     0.009 A 
ATOM     50  C   UNL     1       4.820   5.869 -10.298  1.00  0.00     0.001 A 
ATOM     51  C   UNL     1       6.085   4.434 -11.691  1.00  0.00     0.001 A 
ATOM     52  C   UNL     1       5.806   5.713 -11.277  1.00  0.00     0.000 A 
ENDBRANCH  28  47
BRANCH  40  53
ATOM     53  C   UNL     1       2.392  -2.188 -10.353  1.00  0.00    -0.014 A 
ATOM     54  C   UNL     1       1.709  -1.854 -11.537  1.00  0.00     0.009 A 
ATOM     55  C   UNL     1       1.592  -2.372  -9.208  1.00  0.00     0.009 A 
ATOM     56  C   UNL     1       0.313  -1.712 -11.579  1.00  0.00     0.001 A 
ATOM     57  C   UNL     1       0.191  -2.215  -9.239  1.00  0.00     0.001 A 
ATOM     58  C   UNL     1      -0.449  -1.893 -10.431  1.00  0.00     0.000 A 
ENDBRANCH  40  53
ENDBRANCH  14  15
ENDBRANCH   7   9
ENDBRANCH   6   7
ENDBRANCH   5   6
ENDBRANCH   4   5
ENDBRANCH   3   4
ENDBRANCH   2   3
ENDBRANCH   1   2
BRANCH   1  59
ATOM     59  O   UNL     1       2.652   0.114   4.624  1.00  0.00    -0.376 OA
BRANCH  59  60
ATOM     60  C   UNL     1       4.002  -0.313   4.674  1.00  0.00     0.202 C 
BRANCH  60  61
ATOM     61  C   UNL     1       4.304  -1.827   4.468  1.00  0.00     0.261 C 
BRANCH  61  62
ATOM     62  O   UNL     1       3.804  -2.524   3.268  1.00  0.00    -0.459 OA
BRANCH  62  63
ATOM     63  C   UNL     1       2.653  -3.272   3.362  1.00  0.00     0.355 C 
ATOM     64  O   UNL     1       1.980  -3.334   4.384  1.00  0.00    -0.244 OA
BRANCH  63  65
ATOM     65  C   UNL     1       2.457  -4.174   2.213  1.00  0.00     0.128 A 
ATOM     66  C   UNL     1       3.044  -5.441   2.276  1.00  0.00     0.035 A 
ATOM     67  N   UNL     1       1.560  -4.212   1.098  1.00  0.00    -0.333 N 
ATOM     68  C   UNL     1       2.384  -6.298   1.382  1.00  0.00     0.020 A 
ATOM     69  C   UNL     1       1.458  -5.540   0.706  1.00  0.00     0.087 A 
BRANCH  67  70
ATOM     70  C   UNL     1       0.678  -3.159   0.471  1.00  0.00     0.222 C 
BRANCH  70  71
ATOM     71  C   UNL     1       0.418  -2.951  -1.159  1.00  0.00     0.242 C 
ATOM     72  O   UNL     1      -0.731  -3.045  -1.604  1.00  0.00    -0.273 OA
BRANCH  71  73
ATOM     73  N   UNL     1       1.477  -2.439  -2.017  1.00  0.00    -0.341 N 
ATOM     74  C   UNL     1       3.143  -3.372  -1.524  1.00  0.00     0.120 C 
ATOM     75  C   UNL     1       1.596  -0.597  -3.002  1.00  0.00     0.123 C 
ATOM     76  C   UNL     1       5.095  -2.698  -1.503  1.00  0.00     0.025 C 
ATOM     77  C   UNL     1       3.619   0.161  -3.042  1.00  0.00     0.012 C 
ATOM     78  C   UNL     1       5.332  -0.761  -2.249  1.00  0.00    -0.005 C 
ATOM     79  C   UNL     1       4.448   1.005  -4.116  1.00  0.00     0.006 C 
ATOM     80  C   UNL     1       6.672  -0.771  -2.986  1.00  0.00     0.004 C 
ATOM     81  C   UNL     1       5.656   0.451  -4.959  1.00  0.00     0.000 C 
ATOM     82  C   UNL     1       6.556  -0.682  -4.472  1.00  0.00     0.000 C 
ENDBRANCH  71  73
ENDBRANCH  70  71
ENDBRANCH  67  70
ENDBRANCH  63  65
ENDBRANCH  62  63
ENDBRANCH  61  62
ENDBRANCH  60  61
ENDBRANCH  59  60
ENDBRANCH   1  59
TORSDOF 20
