REMARK SMILES O=C(OCCOCCOCCOC(=O)c1cc(-c2cc(Cl)ccc2Cl)cc([N+](=O)[O-])c1)c1ccc(-c2c3nc(c(-c4ccccc4)c4ccc([nH]4)c(-c4ccccc4)c4nc(c(-c5ccccc5)c5ccc2[nH]5)C=C4)C=C3)cc1
REMARK SMILES IDX 7 1 6 2 5 3 4 4 3 5 2 6 1 7 32 8 33 9 79 10 34 11 78 12
REMARK SMILES IDX 35 13 36 14 37 15 72 16 38 17 77 18 71 19 73 20 39 21 76 22
REMARK SMILES IDX 70 23 69 24 40 26 62 27 47 28 61 29 48 30 51 31 60 32 74 33
REMARK SMILES IDX 49 34 50 35 59 37 75 38 52 39 41 40 42 41 46 42 43 43 45 44
REMARK SMILES IDX 44 45 63 46 64 47 68 48 65 49 67 50 66 51 53 52 54 53 58 54
REMARK SMILES IDX 55 55 57 56 56 57 8 58 9 59 10 60 11 61 12 62 13 63 14 64
REMARK SMILES IDX 15 65 16 66 31 67 17 68 27 69 26 70 18 71 19 72 24 73 20 74
REMARK SMILES IDX 23 75 25 76 21 77 22 78 28 79 29 80 30 81
REMARK H PARENT 73 25 51 36
REMARK Flexibility Score: inf
ROOT
ATOM      1  C   UNL     1       2.482   0.649   2.265  1.00  0.00     0.188 C 
ENDROOT
BRANCH   1   2
ATOM      2  O   UNL     1       3.710   0.208   1.664  1.00  0.00    -0.376 OA
BRANCH   2   3
ATOM      3  C   UNL     1       4.559   1.282   1.252  1.00  0.00     0.202 C 
BRANCH   3   4
ATOM      4  C   UNL     1       4.407   1.644  -0.229  1.00  0.00     0.261 C 
BRANCH   4   5
ATOM      5  O   UNL     1       3.038   1.543  -0.655  1.00  0.00    -0.460 OA
BRANCH   5   6
ATOM      6  C   UNL     1       2.443   0.491  -1.270  1.00  0.00     0.338 C 
ATOM      7  O   UNL     1       1.236   0.537  -1.500  1.00  0.00    -0.246 OA
BRANCH   6   8
ATOM      8  C   UNL     1       3.196  -0.700  -1.762  1.00  0.00     0.060 A 
ATOM      9  C   UNL     1       4.256  -1.310  -1.088  1.00  0.00     0.016 A 
ATOM     10  C   UNL     1       2.736  -1.297  -2.948  1.00  0.00     0.016 A 
ATOM     11  C   UNL     1       4.913  -2.415  -1.629  1.00  0.00     0.010 A 
ATOM     12  C   UNL     1       3.348  -2.446  -3.461  1.00  0.00     0.010 A 
ATOM     13  C   UNL     1       4.461  -2.998  -2.816  1.00  0.00    -0.014 A 
BRANCH  13  14
ATOM     14  C   UNL     1       5.174  -4.167  -3.380  1.00  0.00     0.031 A 
ATOM     15  C   UNL     1       5.979  -4.019  -4.638  1.00  0.00     0.074 A 
ATOM     16  C   UNL     1       5.142  -5.351  -2.740  1.00  0.00     0.049 A 
ATOM     17  N   UNL     1       6.627  -4.935  -5.313  1.00  0.00    -0.248 NA
ATOM     18  C   UNL     1       6.085  -2.664  -5.201  1.00  0.00     0.031 C 
ATOM     19  C   UNL     1       4.458  -5.616  -1.472  1.00  0.00     0.029 A 
ATOM     20  N   UNL     1       5.706  -6.556  -3.074  1.00  0.00    -0.354 N 
ATOM     21  C   UNL     1       7.216  -4.269  -6.378  1.00  0.00     0.074 A 
ATOM     22  C   UNL     1       6.831  -2.877  -6.275  1.00  0.00     0.031 C 
ATOM     23  C   UNL     1       4.638  -6.905  -1.145  1.00  0.00     0.029 A 
ATOM     24  C   UNL     1       5.393  -7.566  -2.200  1.00  0.00     0.049 A 
ATOM     25  H   UNL     1       6.279  -6.684  -3.864  1.00  0.00     0.167 HD
ATOM     26  C   UNL     1       8.012  -4.769  -7.352  1.00  0.00     0.031 A 
ATOM     27  C   UNL     1       5.642  -8.885  -2.258  1.00  0.00     0.031 A 
ATOM     28  C   UNL     1       8.390  -6.150  -7.468  1.00  0.00     0.049 A 
ATOM     29  C   UNL     1       6.412  -9.437  -3.416  1.00  0.00     0.074 A 
ATOM     30  C   UNL     1       9.201  -6.749  -8.417  1.00  0.00     0.029 A 
ATOM     31  N   UNL     1       7.971  -7.152  -6.609  1.00  0.00    -0.354 N 
ATOM     32  N   UNL     1       6.946  -8.798  -4.426  1.00  0.00    -0.248 NA
ATOM     33  C   UNL     1       6.606 -10.894  -3.444  1.00  0.00     0.031 C 
ATOM     34  C   UNL     1       9.235  -8.124  -8.157  1.00  0.00     0.029 A 
ATOM     35  C   UNL     1       8.475  -8.372  -7.026  1.00  0.00     0.049 A 
ATOM     36  H   UNL     1       7.398  -7.018  -5.820  1.00  0.00     0.167 HD
ATOM     37  C   UNL     1       7.540  -9.773  -5.212  1.00  0.00     0.074 A 
ATOM     38  C   UNL     1       7.315 -11.044  -4.553  1.00  0.00     0.031 C 
ATOM     39  C   UNL     1       8.213  -9.628  -6.377  1.00  0.00     0.031 A 
BRANCH  26  40
ATOM     40  C   UNL     1       8.498  -3.804  -8.392  1.00  0.00    -0.014 A 
ATOM     41  C   UNL     1       9.558  -2.925  -8.125  1.00  0.00     0.009 A 
ATOM     42  C   UNL     1       7.891  -3.782  -9.656  1.00  0.00     0.009 A 
ATOM     43  C   UNL     1       9.983  -2.020  -9.100  1.00  0.00     0.001 A 
ATOM     44  C   UNL     1       8.329  -2.888 -10.633  1.00  0.00     0.001 A 
ATOM     45  C   UNL     1       9.369  -2.003 -10.352  1.00  0.00     0.000 A 
ENDBRANCH  26  40
BRANCH  27  46
ATOM     46  C   UNL     1       5.061  -9.802  -1.249  1.00  0.00    -0.014 A 
ATOM     47  C   UNL     1       5.849 -10.356  -0.232  1.00  0.00     0.009 A 
ATOM     48  C   UNL     1       3.708 -10.165  -1.346  1.00  0.00     0.009 A 
ATOM     49  C   UNL     1       5.296 -11.277   0.660  1.00  0.00     0.001 A 
ATOM     50  C   UNL     1       3.158 -11.079  -0.448  1.00  0.00     0.001 A 
ATOM     51  C   UNL     1       3.953 -11.638   0.550  1.00  0.00     0.000 A 
ENDBRANCH  27  46
BRANCH  39  52
ATOM     52  C   UNL     1       8.741 -10.881  -7.003  1.00  0.00    -0.014 A 
ATOM     53  C   UNL     1       7.886 -11.747  -7.702  1.00  0.00     0.009 A 
ATOM     54  C   UNL     1      10.102 -11.200  -6.891  1.00  0.00     0.009 A 
ATOM     55  C   UNL     1       8.383 -12.927  -8.256  1.00  0.00     0.001 A 
ATOM     56  C   UNL     1      10.598 -12.371  -7.463  1.00  0.00     0.001 A 
ATOM     57  C   UNL     1       9.738 -13.236  -8.138  1.00  0.00     0.000 A 
ENDBRANCH  39  52
ENDBRANCH  13  14
ENDBRANCH   6   8
ENDBRANCH   5   6
ENDBRANCH   4   5
ENDBRANCH   3   4
ENDBRANCH   2   3
ENDBRANCH   1   2
BRANCH   1  58
ATOM     58  C   UNL     1       1.918  -0.457   3.161  1.00  0.00     0.188 C 
BRANCH  58  59
ATOM     59  O   UNL     1       2.569  -0.578   4.430  1.00  0.00    -0.376 OA
BRANCH  59  60
ATOM     60  C   UNL     1       3.956  -0.898   4.416  1.00  0.00     0.202 C 
BRANCH  60  61
ATOM     61  C   UNL     1       4.309  -2.378   4.245  1.00  0.00     0.261 C 
BRANCH  61  62
ATOM     62  O   UNL     1       3.708  -3.034   3.117  1.00  0.00    -0.460 OA
BRANCH  62  63
ATOM     63  C   UNL     1       2.616  -3.764   3.438  1.00  0.00     0.338 C 
ATOM     64  O   UNL     1       2.019  -3.796   4.504  1.00  0.00    -0.246 OA
BRANCH  63  65
ATOM     65  C   UNL     1       2.303  -4.719   2.370  1.00  0.00     0.067 A 
ATOM     66  C   UNL     1       1.378  -4.413   1.359  1.00  0.00     0.025 A 
ATOM     67  C   UNL     1       2.763  -6.021   2.559  1.00  0.00     0.101 A 
ATOM     68  C   UNL     1       0.888  -5.430   0.516  1.00  0.00    -0.009 A 
ATOM     69  C   UNL     1       2.275  -7.024   1.728  1.00  0.00     0.270 A 
ATOM     70  C   UNL     1       1.373  -6.740   0.696  1.00  0.00     0.094 A 
BRANCH  68  71
ATOM     71  C   UNL     1      -0.186  -5.170  -0.466  1.00  0.00     0.002 A 
ATOM     72  C   UNL     1       0.040  -4.288  -1.540  1.00  0.00     0.030 A 
ATOM     73  C   UNL     1      -1.456  -5.789  -0.383  1.00  0.00     0.048 A 
ATOM     74  C   UNL     1      -0.955  -4.053  -2.495  1.00  0.00     0.041 A 
ATOM     75  C   UNL     1      -2.442  -5.555  -1.347  1.00  0.00     0.023 A 
ATOM     76  Cl  UNL     1      -1.887  -6.842   0.925  1.00  0.00    -0.084 Cl
ATOM     77  Cl  UNL     1      -0.650  -2.977  -3.803  1.00  0.00    -0.084 Cl
ATOM     78  C   UNL     1      -2.192  -4.686  -2.406  1.00  0.00     0.022 A 
ENDBRANCH  68  71
BRANCH  69  79
ATOM     79  N   UNL     1       2.637  -8.408   2.013  1.00  0.00     0.062 N 
ATOM     80  O   UNL     1       1.780  -9.274   1.795  1.00  0.00    -0.258 OA
ATOM     81  O   UNL     1       3.765  -8.611   2.481  1.00  0.00    -0.258 OA
ENDBRANCH  69  79
ENDBRANCH  63  65
ENDBRANCH  62  63
ENDBRANCH  61  62
ENDBRANCH  60  61
ENDBRANCH  59  60
ENDBRANCH  58  59
ENDBRANCH   1  58
TORSDOF 19
