REMARK SMILES O=C(OCCOCCOCCOC(=O)[C@H]1Cc2[nH]cnc2CN1C(=O)NCc1nc[nH]n1)c1ccc(-c2c3nc(c(-c4ccccc4)c4ccc([nH]4)c(-c4ccccc4)c4nc(c(-c5ccccc5)c5ccc2[nH]5)C=C4)C=C3)cc1
REMARK SMILES IDX 8 1 7 2 6 3 5 4 4 5 3 6 2 7 1 8 33 9 34 10 80 11 35 12 79 13
REMARK SMILES IDX 36 14 37 15 38 16 73 17 39 18 78 19 72 20 74 21 40 22 77 23
REMARK SMILES IDX 71 24 70 25 41 27 63 28 48 29 62 30 49 31 52 32 61 33 75 34
REMARK SMILES IDX 50 35 51 36 60 38 76 39 53 40 42 41 43 42 47 43 44 44 46 45
REMARK SMILES IDX 45 46 64 47 65 48 69 49 66 50 68 51 67 52 54 53 55 54 59 55
REMARK SMILES IDX 56 56 58 57 57 58 9 59 10 60 11 61 12 62 13 63 14 64 15 65
REMARK SMILES IDX 16 66 23 67 17 68 22 69 18 70 21 71 19 72 20 74 24 75 25 76
REMARK SMILES IDX 26 77 27 79 28 80 29 81 32 82 30 83 31 84
REMARK H PARENT 74 26 52 37 18 73 26 78 31 85
REMARK Flexibility Score: inf
ROOT
ATOM      1  C   UNL     1       1.983   1.051  -1.494  1.00  0.00     0.188 C 
ENDROOT
BRANCH   1   2
ATOM      2  C   UNL     1       3.042   1.362  -0.341  1.00  0.00     0.188 C 
BRANCH   2   3
ATOM      3  O   UNL     1       4.458   1.403  -0.304  1.00  0.00    -0.376 OA
BRANCH   3   4
ATOM      4  C   UNL     1       5.268   0.240  -0.380  1.00  0.00     0.202 C 
BRANCH   4   5
ATOM      5  C   UNL     1       4.879  -1.126   0.226  1.00  0.00     0.261 C 
BRANCH   5   6
ATOM      6  O   UNL     1       3.540  -1.596  -0.003  1.00  0.00    -0.460 OA
BRANCH   6   7
ATOM      7  C   UNL     1       2.406  -1.395   0.695  1.00  0.00     0.338 C 
ATOM      8  O   UNL     1       1.338  -1.809   0.248  1.00  0.00    -0.246 OA
BRANCH   7   9
ATOM      9  C   UNL     1       2.366  -0.646   1.976  1.00  0.00     0.060 A 
ATOM     10  C   UNL     1       3.446  -0.374   2.801  1.00  0.00     0.016 A 
ATOM     11  C   UNL     1       1.133  -0.070   2.315  1.00  0.00     0.016 A 
ATOM     12  C   UNL     1       3.205  -0.179   4.129  1.00  0.00     0.010 A 
ATOM     13  C   UNL     1       0.915   0.319   3.606  1.00  0.00     0.010 A 
ATOM     14  C   UNL     1       1.884  -0.026   4.523  1.00  0.00    -0.014 A 
BRANCH  14  15
ATOM     15  C   UNL     1       1.562   0.036   5.921  1.00  0.00     0.031 A 
ATOM     16  C   UNL     1       2.213   1.248   6.476  1.00  0.00     0.074 A 
ATOM     17  C   UNL     1       0.795  -0.925   6.492  1.00  0.00     0.049 A 
ATOM     18  N   UNL     1       3.371   1.258   7.050  1.00  0.00    -0.248 NA
ATOM     19  C   UNL     1       1.796   2.587   6.008  1.00  0.00     0.031 C 
ATOM     20  C   UNL     1       0.099  -2.078   5.894  1.00  0.00     0.029 A 
ATOM     21  N   UNL     1       0.432  -1.046   7.801  1.00  0.00    -0.354 N 
ATOM     22  C   UNL     1       3.613   2.588   7.360  1.00  0.00     0.074 A 
ATOM     23  C   UNL     1       2.797   3.350   6.457  1.00  0.00     0.031 C 
ATOM     24  C   UNL     1      -0.814  -2.578   6.770  1.00  0.00     0.029 A 
ATOM     25  C   UNL     1      -0.659  -1.901   8.041  1.00  0.00     0.049 A 
ATOM     26  H   UNL     1       0.899  -0.569   8.525  1.00  0.00     0.167 HD
ATOM     27  C   UNL     1       4.065   2.875   8.612  1.00  0.00     0.031 A 
ATOM     28  C   UNL     1      -1.341  -1.991   9.224  1.00  0.00     0.031 A 
ATOM     29  C   UNL     1       4.642   1.685   9.206  1.00  0.00     0.049 A 
ATOM     30  C   UNL     1      -0.420  -1.457  10.269  1.00  0.00     0.074 A 
ATOM     31  C   UNL     1       5.686   0.838   8.892  1.00  0.00     0.029 A 
ATOM     32  N   UNL     1       3.775   0.965   9.993  1.00  0.00    -0.354 N 
ATOM     33  N   UNL     1       0.694  -2.067  10.574  1.00  0.00    -0.248 NA
ATOM     34  C   UNL     1      -0.428  -0.010  10.453  1.00  0.00     0.031 C 
ATOM     35  C   UNL     1       5.197  -0.475   9.169  1.00  0.00     0.029 A 
ATOM     36  C   UNL     1       3.946  -0.373   9.779  1.00  0.00     0.049 A 
ATOM     37  H   UNL     1       3.125   1.357  10.620  1.00  0.00     0.167 HD
ATOM     38  C   UNL     1       1.658  -1.070  10.510  1.00  0.00     0.074 A 
ATOM     39  C   UNL     1       0.897   0.188  10.443  1.00  0.00     0.031 C 
ATOM     40  C   UNL     1       2.947  -1.353  10.143  1.00  0.00     0.031 A 
BRANCH  27  41
ATOM     41  C   UNL     1       3.397   3.929   9.480  1.00  0.00    -0.014 A 
ATOM     42  C   UNL     1       3.794   3.998  10.828  1.00  0.00     0.009 A 
ATOM     43  C   UNL     1       2.201   4.594   9.145  1.00  0.00     0.009 A 
ATOM     44  C   UNL     1       2.981   4.588  11.800  1.00  0.00     0.001 A 
ATOM     45  C   UNL     1       1.400   5.212  10.109  1.00  0.00     0.001 A 
ATOM     46  C   UNL     1       1.776   5.182  11.443  1.00  0.00     0.000 A 
ENDBRANCH  27  41
BRANCH  28  47
ATOM     47  C   UNL     1      -2.815  -2.061   9.453  1.00  0.00    -0.014 A 
ATOM     48  C   UNL     1      -3.375  -2.317  10.724  1.00  0.00     0.009 A 
ATOM     49  C   UNL     1      -3.686  -1.567   8.466  1.00  0.00     0.009 A 
ATOM     50  C   UNL     1      -4.737  -2.064  10.990  1.00  0.00     0.001 A 
ATOM     51  C   UNL     1      -5.037  -1.304   8.734  1.00  0.00     0.001 A 
ATOM     52  C   UNL     1      -5.562  -1.542   9.998  1.00  0.00     0.000 A 
ENDBRANCH  28  47
BRANCH  40  53
ATOM     53  C   UNL     1       3.360  -2.800  10.012  1.00  0.00    -0.014 A 
ATOM     54  C   UNL     1       2.914  -3.691   9.016  1.00  0.00     0.009 A 
ATOM     55  C   UNL     1       4.389  -3.222  10.864  1.00  0.00     0.009 A 
ATOM     56  C   UNL     1       3.464  -4.980   8.916  1.00  0.00     0.001 A 
ATOM     57  C   UNL     1       4.949  -4.492  10.750  1.00  0.00     0.001 A 
ATOM     58  C   UNL     1       4.479  -5.377   9.786  1.00  0.00     0.000 A 
ENDBRANCH  40  53
ENDBRANCH  14  15
ENDBRANCH   7   9
ENDBRANCH   6   7
ENDBRANCH   5   6
ENDBRANCH   4   5
ENDBRANCH   3   4
ENDBRANCH   2   3
ENDBRANCH   1   2
BRANCH   1  59
ATOM     59  O   UNL     1       2.193   0.246  -2.946  1.00  0.00    -0.376 OA
BRANCH  59  60
ATOM     60  C   UNL     1       3.722   0.618  -4.383  1.00  0.00     0.202 C 
BRANCH  60  61
ATOM     61  C   UNL     1       4.786   2.108  -4.200  1.00  0.00     0.261 C 
BRANCH  61  62
ATOM     62  O   UNL     1       4.530   3.061  -3.081  1.00  0.00    -0.462 OA
BRANCH  62  63
ATOM     63  C   UNL     1       3.801   4.175  -3.312  1.00  0.00     0.329 C 
ATOM     64  O   UNL     1       3.789   4.700  -4.422  1.00  0.00    -0.250 OA
BRANCH  63  65
ATOM     65  C   UNL     1       2.964   4.694  -2.057  1.00  0.00     0.203 C 
ATOM     66  C   UNL     1       3.394   6.204  -2.182  1.00  0.00     0.093 C 
ATOM     67  N   UNL     1       1.407   4.683  -1.749  1.00  0.00    -0.305 N 
ATOM     68  C   UNL     1       2.731   7.073  -1.205  1.00  0.00     0.042 A 
ATOM     69  C   UNL     1       1.006   5.409  -0.493  1.00  0.00     0.180 C 
ATOM     70  N   UNL     1       2.929   8.405  -1.017  1.00  0.00    -0.348 N 
ATOM     71  C   UNL     1       1.645   6.739  -0.449  1.00  0.00     0.081 A 
ATOM     72  C   UNL     1       1.972   8.821  -0.133  1.00  0.00     0.197 A 
ATOM     73  H   UNL     1       3.626   8.961  -1.436  1.00  0.00     0.167 HD
ATOM     74  N   UNL     1       1.192   7.830   0.247  1.00  0.00    -0.240 NA
BRANCH  67  75
ATOM     75  C   UNL     1       0.375   3.875  -2.158  1.00  0.00     0.318 C 
ATOM     76  O   UNL     1      -0.687   3.775  -1.531  1.00  0.00    -0.249 OA
ATOM     77  N   UNL     1       0.420   3.105  -3.241  1.00  0.00    -0.331 N 
ATOM     78  H   UNL     1      -0.393   2.567  -3.377  1.00  0.00     0.165 HD
BRANCH  77  79
ATOM     79  C   UNL     1       1.409   2.905  -4.244  1.00  0.00     0.197 C 
BRANCH  79  80
ATOM     80  C   UNL     1       2.190   1.662  -3.990  1.00  0.00     0.169 A 
ATOM     81  N   UNL     1       3.606   1.129  -2.717  1.00  0.00    -0.218 NA
ATOM     82  N   UNL     1       1.672   0.274  -4.770  1.00  0.00    -0.157 NA
ATOM     83  C   UNL     1       3.772  -0.572  -2.800  1.00  0.00     0.216 A 
ATOM     84  N   UNL     1       2.603  -1.111  -4.088  1.00  0.00    -0.266 N 
ATOM     85  H   UNL     1       2.493  -2.045  -4.378  1.00  0.00     0.191 HD
ENDBRANCH  79  80
ENDBRANCH  77  79
ENDBRANCH  67  75
ENDBRANCH  63  65
ENDBRANCH  62  63
ENDBRANCH  61  62
ENDBRANCH  60  61
ENDBRANCH  59  60
ENDBRANCH   1  59
TORSDOF 20
