REMARK SMILES COc1cc2c(CC(=O)OCCOCCOCCOC(=O)c3ccc(-c4c5nc(c(-c6ccccc6)c6ccc([nH]6)c(-c6ccccc6)c6nc(c(-c7ccccc7)c7ccc4[nH]7)C=C6)C=C5)cc3)c(C)n(C(=O)c3ccc(Cl)cc3)c2cc1Cl
REMARK SMILES IDX 14 1 13 2 12 3 11 4 10 5 8 6 9 7 7 8 6 9 3 10 4 11 84 12
REMARK SMILES IDX 5 13 83 14 85 15 82 16 70 17 72 18 71 19 2 20 1 21 73 22
REMARK SMILES IDX 74 23 75 24 76 25 81 26 77 27 80 28 78 29 79 30 15 31 16 32
REMARK SMILES IDX 17 33 18 34 19 35 20 36 21 37 22 38 23 39 69 40 24 41 68 42
REMARK SMILES IDX 25 43 26 44 27 45 62 46 28 47 67 48 61 49 63 50 29 51 66 52
REMARK SMILES IDX 60 53 59 54 30 56 52 57 37 58 51 59 38 60 41 61 50 62 64 63
REMARK SMILES IDX 39 64 40 65 49 67 65 68 42 69 31 70 32 71 36 72 33 73 35 74
REMARK SMILES IDX 34 75 53 76 54 77 58 78 55 79 57 80 56 81 43 82 44 83 48 84
REMARK SMILES IDX 45 85 47 86 46 87
REMARK H PARENT 63 55 41 66
REMARK Flexibility Score: inf
ROOT
ATOM      1  C   UNL     1      -2.184  -0.251   5.474  1.00  0.00     0.188 C 
ENDROOT
BRANCH   1   2
ATOM      2  O   UNL     1      -2.551   0.353   6.698  1.00  0.00    -0.376 OA
BRANCH   2   3
ATOM      3  C   UNL     1      -1.902  -0.114   7.871  1.00  0.00     0.202 C 
BRANCH   3   4
ATOM      4  C   UNL     1      -1.917  -1.636   8.075  1.00  0.00     0.261 C 
BRANCH   4   5
ATOM      5  O   UNL     1      -1.029  -2.298   7.137  1.00  0.00    -0.463 OA
BRANCH   5   6
ATOM      6  C   UNL     1      -1.424  -3.517   6.685  1.00  0.00     0.310 C 
ATOM      7  O   UNL     1      -2.266  -4.198   7.265  1.00  0.00    -0.252 OA
BRANCH   6   8
ATOM      8  C   UNL     1      -0.955  -3.839   5.267  1.00  0.00     0.160 C 
BRANCH   8   9
ATOM      9  C   UNL     1       0.481  -4.102   4.905  1.00  0.00    -0.008 A 
ATOM     10  C   UNL     1       1.833  -2.244   1.756  1.00  0.00     0.138 A 
ATOM     11  C   UNL     1       1.061  -2.466   2.918  1.00  0.00     0.058 A 
ATOM     12  C   UNL     1       2.840  -3.144   1.482  1.00  0.00     0.085 A 
ATOM     13  C   UNL     1       1.232  -3.535   3.818  1.00  0.00     0.008 A 
ATOM     14  C   UNL     1       3.080  -4.202   2.379  1.00  0.00     0.051 A 
ATOM     15  Cl  UNL     1       3.885  -3.064   0.111  1.00  0.00    -0.080 Cl
ATOM     16  C   UNL     1       2.317  -4.361   3.568  1.00  0.00     0.058 A 
ATOM     17  C   UNL     1       1.191  -5.224   5.318  1.00  0.00     0.028 A 
ATOM     18  N   UNL     1       2.427  -5.222   4.671  1.00  0.00    -0.280 N 
ATOM     19  C   UNL     1       0.697  -6.281   6.251  1.00  0.00     0.065 C 
BRANCH  10  20
ATOM     20  O   UNL     1       1.416  -1.139   1.079  1.00  0.00    -0.495 OA
ATOM     21  C   UNL     1       1.900  -0.748  -0.194  1.00  0.00     0.278 C 
ENDBRANCH  10  20
BRANCH  18  22
ATOM     22  C   UNL     1       3.608  -5.912   5.036  1.00  0.00     0.262 C 
ATOM     23  O   UNL     1       3.566  -6.800   5.885  1.00  0.00    -0.268 OA
BRANCH  22  24
ATOM     24  C   UNL     1       4.912  -5.561   4.450  1.00  0.00     0.040 A 
ATOM     25  C   UNL     1       5.427  -4.275   4.670  1.00  0.00     0.015 A 
ATOM     26  C   UNL     1       5.466  -6.415   3.494  1.00  0.00     0.015 A 
ATOM     27  C   UNL     1       6.468  -3.814   3.867  1.00  0.00     0.021 A 
ATOM     28  C   UNL     1       6.500  -5.939   2.686  1.00  0.00     0.021 A 
ATOM     29  C   UNL     1       6.983  -4.639   2.865  1.00  0.00     0.041 A 
ATOM     30  Cl  UNL     1       8.183  -4.025   1.797  1.00  0.00    -0.084 Cl
ENDBRANCH  22  24
ENDBRANCH  18  22
ENDBRANCH   8   9
ENDBRANCH   6   8
ENDBRANCH   5   6
ENDBRANCH   4   5
ENDBRANCH   3   4
ENDBRANCH   2   3
ENDBRANCH   1   2
BRANCH   1  31
ATOM     31  C   UNL     1      -0.693  -0.384   5.120  1.00  0.00     0.188 C 
BRANCH  31  32
ATOM     32  O   UNL     1       0.249   0.445   5.748  1.00  0.00    -0.376 OA
BRANCH  32  33
ATOM     33  C   UNL     1       0.409   1.757   5.238  1.00  0.00     0.202 C 
BRANCH  33  34
ATOM     34  C   UNL     1       0.023   2.088   3.772  1.00  0.00     0.261 C 
BRANCH  34  35
ATOM     35  O   UNL     1      -1.312   1.656   3.385  1.00  0.00    -0.460 OA
BRANCH  35  36
ATOM     36  C   UNL     1      -1.440   1.195   2.102  1.00  0.00     0.338 C 
ATOM     37  O   UNL     1      -0.684   1.466   1.182  1.00  0.00    -0.246 OA
BRANCH  36  38
ATOM     38  C   UNL     1      -2.355   0.003   2.065  1.00  0.00     0.060 A 
ATOM     39  C   UNL     1      -3.701  -0.037   2.414  1.00  0.00     0.016 A 
ATOM     40  C   UNL     1      -1.740  -1.208   1.750  1.00  0.00     0.016 A 
ATOM     41  C   UNL     1      -4.353  -1.291   2.554  1.00  0.00     0.010 A 
ATOM     42  C   UNL     1      -2.336  -2.447   1.981  1.00  0.00     0.010 A 
ATOM     43  C   UNL     1      -3.652  -2.509   2.413  1.00  0.00    -0.014 A 
BRANCH  43  44
ATOM     44  C   UNL     1      -4.322  -3.821   2.298  1.00  0.00     0.031 A 
ATOM     45  C   UNL     1      -4.970  -3.978   0.990  1.00  0.00     0.074 A 
ATOM     46  C   UNL     1      -4.367  -4.907   3.104  1.00  0.00     0.049 A 
ATOM     47  N   UNL     1      -6.206  -3.684   0.785  1.00  0.00    -0.248 NA
ATOM     48  C   UNL     1      -4.206  -4.334  -0.207  1.00  0.00     0.031 C 
ATOM     49  C   UNL     1      -3.789  -5.077   4.421  1.00  0.00     0.029 A 
ATOM     50  N   UNL     1      -4.952  -6.135   2.889  1.00  0.00    -0.354 N 
ATOM     51  C   UNL     1      -6.450  -4.030  -0.523  1.00  0.00     0.074 A 
ATOM     52  C   UNL     1      -5.156  -4.218  -1.139  1.00  0.00     0.031 C 
ATOM     53  C   UNL     1      -3.829  -6.377   4.807  1.00  0.00     0.029 A 
ATOM     54  C   UNL     1      -4.642  -7.104   3.844  1.00  0.00     0.049 A 
ATOM     55  H   UNL     1      -5.541  -6.316   2.121  1.00  0.00     0.167 HD
ATOM     56  C   UNL     1      -7.702  -4.389  -0.907  1.00  0.00     0.031 A 
ATOM     57  C   UNL     1      -5.239  -8.305   4.056  1.00  0.00     0.031 A 
ATOM     58  C   UNL     1      -8.679  -4.135   0.131  1.00  0.00     0.049 A 
ATOM     59  C   UNL     1      -6.640  -8.161   3.624  1.00  0.00     0.074 A 
ATOM     60  C   UNL     1      -9.104  -3.009   0.810  1.00  0.00     0.029 A 
ATOM     61  N   UNL     1      -9.036  -5.212   0.909  1.00  0.00    -0.354 N 
ATOM     62  N   UNL     1      -7.513  -7.433   4.255  1.00  0.00    -0.248 NA
ATOM     63  C   UNL     1      -7.026  -8.588   2.291  1.00  0.00     0.031 C 
ATOM     64  C   UNL     1      -9.365  -3.437   2.147  1.00  0.00     0.029 A 
ATOM     65  C   UNL     1      -9.144  -4.813   2.222  1.00  0.00     0.049 A 
ATOM     66  H   UNL     1      -9.189  -6.127   0.578  1.00  0.00     0.167 HD
ATOM     67  C   UNL     1      -8.313  -6.919   3.252  1.00  0.00     0.074 A 
ATOM     68  C   UNL     1      -8.082  -7.793   2.108  1.00  0.00     0.031 C 
ATOM     69  C   UNL     1      -8.855  -5.671   3.361  1.00  0.00     0.031 A 
BRANCH  56  70
ATOM     70  C   UNL     1      -7.959  -5.301  -2.066  1.00  0.00    -0.014 A 
ATOM     71  C   UNL     1      -6.998  -6.206  -2.560  1.00  0.00     0.009 A 
ATOM     72  C   UNL     1      -9.258  -5.406  -2.580  1.00  0.00     0.009 A 
ATOM     73  C   UNL     1      -7.294  -7.124  -3.567  1.00  0.00     0.001 A 
ATOM     74  C   UNL     1      -9.572  -6.359  -3.556  1.00  0.00     0.001 A 
ATOM     75  C   UNL     1      -8.588  -7.207  -4.059  1.00  0.00     0.000 A 
ENDBRANCH  56  70
BRANCH  57  76
ATOM     76  C   UNL     1      -4.673  -9.633   4.389  1.00  0.00    -0.014 A 
ATOM     77  C   UNL     1      -3.366  -9.966   3.997  1.00  0.00     0.009 A 
ATOM     78  C   UNL     1      -5.516 -10.684   4.804  1.00  0.00     0.009 A 
ATOM     79  C   UNL     1      -2.944 -11.303   3.948  1.00  0.00     0.001 A 
ATOM     80  C   UNL     1      -5.093 -12.020   4.754  1.00  0.00     0.001 A 
ATOM     81  C   UNL     1      -3.814 -12.331   4.304  1.00  0.00     0.000 A 
ENDBRANCH  57  76
BRANCH  69  82
ATOM     82  C   UNL     1      -8.935  -5.055   4.746  1.00  0.00    -0.014 A 
ATOM     83  C   UNL     1     -10.177  -4.563   5.182  1.00  0.00     0.009 A 
ATOM     84  C   UNL     1      -7.827  -4.870   5.593  1.00  0.00     0.009 A 
ATOM     85  C   UNL     1     -10.308  -3.909   6.411  1.00  0.00     0.001 A 
ATOM     86  C   UNL     1      -7.962  -4.241   6.838  1.00  0.00     0.001 A 
ATOM     87  C   UNL     1      -9.202  -3.754   7.243  1.00  0.00     0.000 A 
ENDBRANCH  69  82
ENDBRANCH  43  44
ENDBRANCH  36  38
ENDBRANCH  35  36
ENDBRANCH  34  35
ENDBRANCH  33  34
ENDBRANCH  32  33
ENDBRANCH  31  32
ENDBRANCH   1  31
TORSDOF 21
