REMARK SMILES COc1ccc(-c2nc3ccc(C)cc3[nH]2)c(C(=O)OCCOCCOCCOC(=O)c2ccc(-c3c4nc(c(-c5ccccc5)c5ccc([nH]5)c(-c5ccccc5)c5nc(c(-c6ccccc6)c6ccc3[nH]6)C=C5)C=C4)cc2)c1OC
REMARK SMILES IDX 25 1 24 2 23 3 22 4 21 5 20 6 18 7 19 8 17 9 3 10 4 11 80 12
REMARK SMILES IDX 5 13 6 14 2 15 1 16 81 17 82 18 7 19 8 20 16 21 9 22 15 23
REMARK SMILES IDX 10 25 14 26 11 27 12 28 13 29 26 30 27 31 28 32 29 33 30 34
REMARK SMILES IDX 31 35 32 36 33 37 79 38 34 39 78 40 35 41 36 42 37 43 72 44
REMARK SMILES IDX 38 45 77 46 71 47 73 48 39 49 76 50 70 51 69 52 40 54 62 55
REMARK SMILES IDX 47 56 61 57 48 58 51 59 60 60 74 61 49 62 50 63 59 65 75 66
REMARK SMILES IDX 52 67 41 68 42 69 46 70 43 71 45 72 44 73 63 74 64 75 68 76
REMARK SMILES IDX 65 77 67 78 66 79 53 80 54 81 58 82 55 83 57 84 56 85
REMARK H PARENT 16 24 73 53 51 64
REMARK Flexibility Score: inf
ROOT
ATOM      1  C   UNL     1       4.820  -1.718  -4.269  1.00  0.00     0.188 C 
ENDROOT
BRANCH   1   2
ATOM      2  C   UNL     1       5.616  -0.719  -5.119  1.00  0.00     0.188 C 
BRANCH   2   3
ATOM      3  O   UNL     1       6.768  -0.182  -4.469  1.00  0.00    -0.376 OA
BRANCH   3   4
ATOM      4  C   UNL     1       6.769   1.246  -4.417  1.00  0.00     0.202 C 
BRANCH   4   5
ATOM      5  C   UNL     1       6.061   1.732  -3.154  1.00  0.00     0.261 C 
BRANCH   5   6
ATOM      6  O   UNL     1       4.705   1.258  -3.094  1.00  0.00    -0.460 OA
BRANCH   6   7
ATOM      7  C   UNL     1       3.734   2.051  -3.600  1.00  0.00     0.342 C 
ATOM      8  O   UNL     1       3.878   3.157  -4.096  1.00  0.00    -0.246 OA
BRANCH   7   9
ATOM      9  C   UNL     1       2.441   1.323  -3.538  1.00  0.00     0.116 A 
ATOM     10  C   UNL     1       0.794   0.040  -2.308  1.00  0.00     0.161 A 
ATOM     11  C   UNL     1       0.018  -0.069  -3.464  1.00  0.00     0.051 A 
ATOM     12  C   UNL     1       2.011   0.737  -2.330  1.00  0.00     0.176 A 
ATOM     13  C   UNL     1       0.446   0.508  -4.662  1.00  0.00     0.017 A 
ATOM     14  C   UNL     1       1.671   1.185  -4.718  1.00  0.00     0.036 A 
BRANCH  10  15
ATOM     15  O   UNL     1       0.363  -0.668  -1.219  1.00  0.00    -0.493 OA
ATOM     16  C   UNL     1      -0.156   0.167  -0.188  1.00  0.00     0.278 C 
ENDBRANCH  10  15
BRANCH  12  17
ATOM     17  O   UNL     1       2.762   0.939  -1.200  1.00  0.00    -0.492 OA
ATOM     18  C   UNL     1       3.161  -0.259  -0.529  1.00  0.00     0.278 C 
ENDBRANCH  12  17
BRANCH  14  19
ATOM     19  C   UNL     1       2.244   1.506  -6.022  1.00  0.00     0.139 A 
ATOM     20  N   UNL     1       3.243   0.831  -6.546  1.00  0.00    -0.228 NA
ATOM     21  N   UNL     1       1.887   2.547  -6.848  1.00  0.00    -0.338 N 
ATOM     22  C   UNL     1       3.664   1.549  -7.625  1.00  0.00     0.089 A 
ATOM     23  C   UNL     1       2.809   2.613  -7.872  1.00  0.00     0.066 A 
ATOM     24  H   UNL     1       1.111   3.141  -6.729  1.00  0.00     0.168 HD
ATOM     25  C   UNL     1       4.780   1.334  -8.442  1.00  0.00     0.031 A 
ATOM     26  C   UNL     1       2.982   3.479  -8.957  1.00  0.00     0.031 A 
ATOM     27  C   UNL     1       4.983   2.190  -9.526  1.00  0.00     0.006 A 
ATOM     28  C   UNL     1       4.089   3.236  -9.798  1.00  0.00    -0.049 A 
ATOM     29  C   UNL     1       4.306   4.056 -11.037  1.00  0.00     0.044 C 
ENDBRANCH  14  19
ENDBRANCH   7   9
ENDBRANCH   6   7
ENDBRANCH   5   6
ENDBRANCH   4   5
ENDBRANCH   3   4
ENDBRANCH   2   3
ENDBRANCH   1   2
BRANCH   1  30
ATOM     30  O   UNL     1       5.486  -2.765  -3.568  1.00  0.00    -0.376 OA
BRANCH  30  31
ATOM     31  C   UNL     1       6.787  -3.140  -3.986  1.00  0.00     0.202 C 
BRANCH  31  32
ATOM     32  C   UNL     1       6.860  -4.029  -5.231  1.00  0.00     0.261 C 
BRANCH  32  33
ATOM     33  O   UNL     1       6.184  -3.495  -6.384  1.00  0.00    -0.460 OA
BRANCH  33  34
ATOM     34  C   UNL     1       4.977  -4.050  -6.651  1.00  0.00     0.338 C 
ATOM     35  O   UNL     1       4.429  -4.954  -6.041  1.00  0.00    -0.246 OA
BRANCH  34  36
ATOM     36  C   UNL     1       4.322  -3.364  -7.785  1.00  0.00     0.060 A 
ATOM     37  C   UNL     1       3.000  -2.934  -7.619  1.00  0.00     0.016 A 
ATOM     38  C   UNL     1       4.936  -3.274  -9.037  1.00  0.00     0.016 A 
ATOM     39  C   UNL     1       2.269  -2.465  -8.714  1.00  0.00     0.010 A 
ATOM     40  C   UNL     1       4.197  -2.812 -10.136  1.00  0.00     0.010 A 
ATOM     41  C   UNL     1       2.846  -2.443  -9.991  1.00  0.00    -0.014 A 
BRANCH  41  42
ATOM     42  C   UNL     1       2.003  -2.182 -11.188  1.00  0.00     0.031 A 
ATOM     43  C   UNL     1       1.512  -3.337 -12.014  1.00  0.00     0.074 A 
ATOM     44  C   UNL     1       1.642  -0.935 -11.543  1.00  0.00     0.049 A 
ATOM     45  N   UNL     1       0.812  -3.323 -13.122  1.00  0.00    -0.248 NA
ATOM     46  C   UNL     1       1.842  -4.684 -11.524  1.00  0.00     0.031 C 
ATOM     47  C   UNL     1       1.974   0.273 -10.803  1.00  0.00     0.029 A 
ATOM     48  N   UNL     1       0.923  -0.480 -12.622  1.00  0.00    -0.354 N 
ATOM     49  C   UNL     1       0.618  -4.654 -13.461  1.00  0.00     0.074 A 
ATOM     50  C   UNL     1       1.297  -5.449 -12.459  1.00  0.00     0.031 C 
ATOM     51  C   UNL     1       1.486   1.337 -11.460  1.00  0.00     0.029 A 
ATOM     52  C   UNL     1       0.833   0.888 -12.681  1.00  0.00     0.049 A 
ATOM     53  H   UNL     1       0.512  -1.078 -13.288  1.00  0.00     0.167 HD
ATOM     54  C   UNL     1      -0.070  -5.171 -14.507  1.00  0.00     0.031 A 
ATOM     55  C   UNL     1       0.311   1.701 -13.620  1.00  0.00     0.031 A 
ATOM     56  C   UNL     1      -0.737  -4.393 -15.518  1.00  0.00     0.049 A 
ATOM     57  C   UNL     1      -0.339   1.109 -14.835  1.00  0.00     0.074 A 
ATOM     58  C   UNL     1      -1.473  -4.841 -16.602  1.00  0.00     0.029 A 
ATOM     59  N   UNL     1      -0.739  -3.009 -15.579  1.00  0.00    -0.354 N 
ATOM     60  N   UNL     1      -0.518  -0.151 -15.140  1.00  0.00    -0.248 NA
ATOM     61  C   UNL     1      -0.867   2.055 -15.829  1.00  0.00     0.031 C 
ATOM     62  C   UNL     1      -1.876  -3.729 -17.349  1.00  0.00     0.029 A 
ATOM     63  C   UNL     1      -1.437  -2.587 -16.700  1.00  0.00     0.049 A 
ATOM     64  H   UNL     1      -0.310  -2.414 -14.923  1.00  0.00     0.167 HD
ATOM     65  C   UNL     1      -1.203  -0.152 -16.347  1.00  0.00     0.074 A 
ATOM     66  C   UNL     1      -1.412   1.233 -16.715  1.00  0.00     0.031 C 
ATOM     67  C   UNL     1      -1.629  -1.211 -17.075  1.00  0.00     0.031 A 
BRANCH  54  68
ATOM     68  C   UNL     1      -0.103  -6.667 -14.628  1.00  0.00    -0.014 A 
ATOM     69  C   UNL     1      -0.885  -7.450 -13.766  1.00  0.00     0.009 A 
ATOM     70  C   UNL     1       0.641  -7.297 -15.638  1.00  0.00     0.009 A 
ATOM     71  C   UNL     1      -0.897  -8.840 -13.893  1.00  0.00     0.001 A 
ATOM     72  C   UNL     1       0.607  -8.684 -15.778  1.00  0.00     0.001 A 
ATOM     73  C   UNL     1      -0.154  -9.455 -14.901  1.00  0.00     0.000 A 
ENDBRANCH  54  68
BRANCH  55  74
ATOM     74  C   UNL     1       0.413   3.175 -13.474  1.00  0.00    -0.014 A 
ATOM     75  C   UNL     1      -0.710   3.943 -13.134  1.00  0.00     0.009 A 
ATOM     76  C   UNL     1       1.634   3.823 -13.716  1.00  0.00     0.009 A 
ATOM     77  C   UNL     1      -0.615   5.335 -13.057  1.00  0.00     0.001 A 
ATOM     78  C   UNL     1       1.730   5.212 -13.620  1.00  0.00     0.001 A 
ATOM     79  C   UNL     1       0.605   5.968 -13.296  1.00  0.00     0.000 A 
ENDBRANCH  55  74
BRANCH  67  80
ATOM     80  C   UNL     1      -2.396  -0.911 -18.330  1.00  0.00    -0.014 A 
ATOM     81  C   UNL     1      -1.753  -0.424 -19.479  1.00  0.00     0.009 A 
ATOM     82  C   UNL     1      -3.780  -1.136 -18.368  1.00  0.00     0.009 A 
ATOM     83  C   UNL     1      -2.489  -0.139 -20.631  1.00  0.00     0.001 A 
ATOM     84  C   UNL     1      -4.509  -0.874 -19.529  1.00  0.00     0.001 A 
ATOM     85  C   UNL     1      -3.864  -0.367 -20.656  1.00  0.00     0.000 A 
ENDBRANCH  67  80
ENDBRANCH  41  42
ENDBRANCH  34  36
ENDBRANCH  33  34
ENDBRANCH  32  33
ENDBRANCH  31  32
ENDBRANCH  30  31
ENDBRANCH   1  30
TORSDOF 20
