REMARK SMILES CC(C)N1C[C@H](C(=O)N[C@@H]2C=C[C@@H](C(=O)OCCOCCOCCOC(=O)c3ccc(-c4c5nc(c(-c6ccccc6)c6ccc([nH]6)c(-c6ccccc6)c6nc(c(-c7ccccc7)c7ccc4[nH]7)C=C6)C=C5)cc3)C2)CC1=O
REMARK SMILES IDX 20 1 19 2 18 3 17 4 16 5 14 6 15 7 13 8 10 9 11 10 76 11
REMARK SMILES IDX 12 12 9 13 7 14 8 15 6 17 4 18 5 19 78 20 77 21 79 22 2 23
REMARK SMILES IDX 1 24 3 25 21 26 22 27 23 28 24 29 25 30 26 31 27 32 28 33
REMARK SMILES IDX 29 34 75 35 30 36 74 37 31 38 32 39 33 40 68 41 34 42 73 43
REMARK SMILES IDX 67 44 69 45 35 46 72 47 66 48 65 49 36 51 58 52 43 53 57 54
REMARK SMILES IDX 44 55 47 56 56 57 70 58 45 59 46 60 55 62 71 63 48 64 37 65
REMARK SMILES IDX 38 66 42 67 39 68 41 69 40 70 59 71 60 72 64 73 61 74 63 75
REMARK SMILES IDX 62 76 49 77 50 78 54 79 51 80 53 81 52 82
REMARK H PARENT 9 16 69 50 47 61
REMARK Flexibility Score: inf
ROOT
ATOM      1  C   UNL     1       5.562  -2.028  -0.577  1.00  0.00     0.188 C 
ENDROOT
BRANCH   1   2
ATOM      2  O   UNL     1       6.545  -1.413   0.246  1.00  0.00    -0.376 OA
BRANCH   2   3
ATOM      3  C   UNL     1       6.174  -0.941   1.539  1.00  0.00     0.202 C 
BRANCH   3   4
ATOM      4  C   UNL     1       4.931  -0.046   1.684  1.00  0.00     0.261 C 
BRANCH   4   5
ATOM      5  O   UNL     1       3.728  -0.591   1.103  1.00  0.00    -0.463 OA
BRANCH   5   6
ATOM      6  C   UNL     1       3.063   0.206   0.230  1.00  0.00     0.312 C 
ATOM      7  O   UNL     1       3.394   1.359  -0.036  1.00  0.00    -0.252 OA
BRANCH   6   8
ATOM      8  C   UNL     1       1.889  -0.482  -0.477  1.00  0.00     0.124 C 
ATOM      9  C   UNL     1      -0.152  -1.734   0.194  1.00  0.00     0.106 C 
ATOM     10  C   UNL     1      -0.389  -0.271   0.075  1.00  0.00    -0.006 C 
ATOM     11  C   UNL     1       1.370  -1.839   0.039  1.00  0.00     0.048 C 
ATOM     12  C   UNL     1       0.693   0.401  -0.321  1.00  0.00    -0.014 C 
BRANCH   9  13
ATOM     13  N   UNL     1      -0.859  -2.422  -0.874  1.00  0.00    -0.350 N 
ATOM     14  C   UNL     1      -2.108  -2.981  -0.871  1.00  0.00     0.225 C 
ATOM     15  O   UNL     1      -2.476  -3.603  -1.865  1.00  0.00    -0.275 OA
ATOM     16  H   UNL     1      -0.367  -2.498  -1.723  1.00  0.00     0.164 HD
BRANCH  14  17
ATOM     17  C   UNL     1      -2.997  -2.760   0.339  1.00  0.00     0.107 C 
ATOM     18  N   UNL     1      -4.915  -1.506  -0.189  1.00  0.00    -0.339 N 
ATOM     19  C   UNL     1      -3.567  -1.358   0.277  1.00  0.00     0.133 C 
ATOM     20  C   UNL     1      -5.367  -2.808  -0.070  1.00  0.00     0.223 C 
ATOM     21  C   UNL     1      -4.220  -3.672   0.394  1.00  0.00     0.115 C 
ATOM     22  O   UNL     1      -6.507  -3.208  -0.242  1.00  0.00    -0.275 OA
BRANCH  18  23
ATOM     23  C   UNL     1      -5.708  -0.328  -0.538  1.00  0.00     0.078 C 
ATOM     24  C   UNL     1      -6.627  -0.560  -1.734  1.00  0.00     0.031 C 
ATOM     25  C   UNL     1      -6.472   0.199   0.671  1.00  0.00     0.031 C 
ENDBRANCH  18  23
ENDBRANCH  14  17
ENDBRANCH   9  13
ENDBRANCH   6   8
ENDBRANCH   5   6
ENDBRANCH   4   5
ENDBRANCH   3   4
ENDBRANCH   2   3
ENDBRANCH   1   2
BRANCH   1  26
ATOM     26  C   UNL     1       4.610  -3.066   0.039  1.00  0.00     0.188 C 
BRANCH  26  27
ATOM     27  O   UNL     1       4.744  -3.252   1.425  1.00  0.00    -0.376 OA
BRANCH  27  28
ATOM     28  C   UNL     1       5.278  -4.474   1.902  1.00  0.00     0.202 C 
BRANCH  28  29
ATOM     29  C   UNL     1       6.483  -5.156   1.221  1.00  0.00     0.261 C 
BRANCH  29  30
ATOM     30  O   UNL     1       6.614  -5.016  -0.203  1.00  0.00    -0.460 OA
BRANCH  30  31
ATOM     31  C   UNL     1       5.876  -5.850  -0.977  1.00  0.00     0.338 C 
ATOM     32  O   UNL     1       5.100  -6.704  -0.600  1.00  0.00    -0.246 OA
BRANCH  31  33
ATOM     33  C   UNL     1       5.989  -5.374  -2.377  1.00  0.00     0.060 A 
ATOM     34  C   UNL     1       4.838  -4.909  -3.033  1.00  0.00     0.016 A 
ATOM     35  C   UNL     1       7.220  -5.375  -3.033  1.00  0.00     0.016 A 
ATOM     36  C   UNL     1       4.912  -4.462  -4.353  1.00  0.00     0.010 A 
ATOM     37  C   UNL     1       7.288  -4.954  -4.365  1.00  0.00     0.010 A 
ATOM     38  C   UNL     1       6.131  -4.521  -5.040  1.00  0.00    -0.014 A 
BRANCH  38  39
ATOM     39  C   UNL     1       6.170  -4.316  -6.509  1.00  0.00     0.031 A 
ATOM     40  C   UNL     1       6.172  -5.529  -7.400  1.00  0.00     0.074 A 
ATOM     41  C   UNL     1       6.205  -3.086  -7.051  1.00  0.00     0.049 A 
ATOM     42  N   UNL     1       6.290  -5.606  -8.700  1.00  0.00    -0.248 NA
ATOM     43  C   UNL     1       6.028  -6.831  -6.728  1.00  0.00     0.031 C 
ATOM     44  C   UNL     1       6.153  -1.828  -6.309  1.00  0.00     0.029 A 
ATOM     45  N   UNL     1       6.308  -2.700  -8.366  1.00  0.00    -0.354 N 
ATOM     46  C   UNL     1       6.253  -6.962  -9.000  1.00  0.00     0.074 A 
ATOM     47  C   UNL     1       6.125  -7.671  -7.747  1.00  0.00     0.031 C 
ATOM     48  C   UNL     1       6.236  -0.807  -7.181  1.00  0.00     0.029 A 
ATOM     49  C   UNL     1       6.390  -1.339  -8.534  1.00  0.00     0.049 A 
ATOM     50  H   UNL     1       6.321  -3.337  -9.116  1.00  0.00     0.167 HD
ATOM     51  C   UNL     1       6.322  -7.564 -10.211  1.00  0.00     0.031 A 
ATOM     52  C   UNL     1       6.596  -0.609  -9.648  1.00  0.00     0.031 A 
ATOM     53  C   UNL     1       6.464  -6.861 -11.458  1.00  0.00     0.049 A 
ATOM     54  C   UNL     1       6.756  -1.306 -10.975  1.00  0.00     0.074 A 
ATOM     55  C   UNL     1       6.522  -7.384 -12.738  1.00  0.00     0.029 A 
ATOM     56  N   UNL     1       6.582  -5.486 -11.581  1.00  0.00    -0.354 N 
ATOM     57  N   UNL     1       6.700  -2.587 -11.251  1.00  0.00    -0.248 NA
ATOM     58  C   UNL     1       7.002  -0.451 -12.147  1.00  0.00     0.031 C 
ATOM     59  C   UNL     1       6.744  -6.331 -13.630  1.00  0.00     0.029 A 
ATOM     60  C   UNL     1       6.748  -5.145 -12.913  1.00  0.00     0.049 A 
ATOM     61  H   UNL     1       6.552  -4.847 -10.833  1.00  0.00     0.167 HD
ATOM     62  C   UNL     1       6.871  -2.688 -12.628  1.00  0.00     0.074 A 
ATOM     63  C   UNL     1       7.019  -1.339 -13.132  1.00  0.00     0.031 C 
ATOM     64  C   UNL     1       6.897  -3.799 -13.405  1.00  0.00     0.031 A 
BRANCH  51  65
ATOM     65  C   UNL     1       6.295  -9.067 -10.239  1.00  0.00    -0.014 A 
ATOM     66  C   UNL     1       5.130  -9.788  -9.933  1.00  0.00     0.009 A 
ATOM     67  C   UNL     1       7.450  -9.772 -10.613  1.00  0.00     0.009 A 
ATOM     68  C   UNL     1       5.133 -11.184  -9.968  1.00  0.00     0.001 A 
ATOM     69  C   UNL     1       7.442 -11.165 -10.679  1.00  0.00     0.001 A 
ATOM     70  C   UNL     1       6.286 -11.871 -10.347  1.00  0.00     0.000 A 
ENDBRANCH  51  65
BRANCH  52  71
ATOM     71  C   UNL     1       6.689   0.873  -9.562  1.00  0.00    -0.014 A 
ATOM     72  C   UNL     1       5.696   1.688 -10.127  1.00  0.00     0.009 A 
ATOM     73  C   UNL     1       7.785   1.483  -8.931  1.00  0.00     0.009 A 
ATOM     74  C   UNL     1       5.810   3.080 -10.083  1.00  0.00     0.001 A 
ATOM     75  C   UNL     1       7.881   2.875  -8.861  1.00  0.00     0.001 A 
ATOM     76  C   UNL     1       6.899   3.672  -9.445  1.00  0.00     0.000 A 
ENDBRANCH  52  71
BRANCH  64  77
ATOM     77  C   UNL     1       7.047  -3.608 -14.890  1.00  0.00    -0.014 A 
ATOM     78  C   UNL     1       8.257  -3.180 -15.458  1.00  0.00     0.009 A 
ATOM     79  C   UNL     1       5.971  -3.912 -15.739  1.00  0.00     0.009 A 
ATOM     80  C   UNL     1       8.373  -3.027 -16.842  1.00  0.00     0.001 A 
ATOM     81  C   UNL     1       6.099  -3.791 -17.123  1.00  0.00     0.001 A 
ATOM     82  C   UNL     1       7.297  -3.338 -17.673  1.00  0.00     0.000 A 
ENDBRANCH  64  77
ENDBRANCH  38  39
ENDBRANCH  31  33
ENDBRANCH  30  31
ENDBRANCH  29  30
ENDBRANCH  28  29
ENDBRANCH  27  28
ENDBRANCH  26  27
ENDBRANCH   1  26
TORSDOF 20
