REMARK SMILES C[C@H]([NH2+]CC1(O)CCCC1)[C@H](C)C(=O)OCCOCCOCCOC(=O)c1ccc(-c2c3nc(c(-c4ccccc4)c4ccc([nH]4)c(-c4ccccc4)c4nc(c(-c5ccccc5)c5ccc2[nH]5)C=C4)C=C3)cc1
REMARK SMILES IDX 18 1 17 2 16 3 15 4 13 5 14 6 11 7 12 8 2 9 1 10 3 11 4 14
REMARK SMILES IDX 5 15 7 16 10 17 8 18 9 19 6 20 19 22 20 23 21 24 22 25 23 26
REMARK SMILES IDX 24 27 25 28 26 29 27 30 28 31 74 32 29 33 73 34 30 35 31 36
REMARK SMILES IDX 32 37 67 38 33 39 72 40 66 41 68 42 34 43 71 44 65 45 64 46
REMARK SMILES IDX 35 48 57 49 42 50 56 51 43 52 46 53 55 54 69 55 44 56 45 57
REMARK SMILES IDX 54 59 70 60 47 61 36 62 37 63 41 64 38 65 40 66 39 67 58 68
REMARK SMILES IDX 59 69 63 70 60 71 62 72 61 73 48 74 49 75 53 76 50 77 52 78
REMARK SMILES IDX 51 79
REMARK H PARENT 3 12 3 13 6 21 68 47 46 58
REMARK Flexibility Score: inf
ROOT
ATOM      1  O   UNL     1      -2.165   0.346  -5.738  1.00  0.00    -0.376 OA
ENDROOT
BRANCH   1   2
ATOM      2  C   UNL     1      -2.157   1.762  -5.636  1.00  0.00     0.202 C 
BRANCH   2   3
ATOM      3  C   UNL     1      -2.477   2.405  -4.277  1.00  0.00     0.261 C 
BRANCH   3   4
ATOM      4  O   UNL     1      -1.705   1.966  -3.137  1.00  0.00    -0.463 OA
BRANCH   4   5
ATOM      5  C   UNL     1      -2.361   1.204  -2.219  1.00  0.00     0.314 C 
ATOM      6  O   UNL     1      -3.513   0.804  -2.354  1.00  0.00    -0.252 OA
BRANCH   5   7
ATOM      7  C   UNL     1      -1.573   0.949  -0.936  1.00  0.00     0.154 C 
ATOM      8  C   UNL     1      -0.113   0.498  -1.106  1.00  0.00     0.026 C 
BRANCH   7   9
ATOM      9  C   UNL     1      -1.775   2.065   0.130  1.00  0.00     0.193 C 
ATOM     10  C   UNL     1      -2.640   3.253  -0.297  1.00  0.00     0.076 C 
BRANCH   9  11
ATOM     11  N   UNL     1      -0.480   2.562   0.585  1.00  0.00    -0.341 N 
ATOM     12  H   UNL     1      -0.349   3.500   0.207  1.00  0.00     0.346 HD
ATOM     13  H   UNL     1       0.218   1.896   0.255  1.00  0.00     0.346 HD
BRANCH  11  14
ATOM     14  C   UNL     1      -0.332   2.631   2.041  1.00  0.00     0.296 C 
BRANCH  14  15
ATOM     15  C   UNL     1       1.081   3.159   2.336  1.00  0.00     0.113 C 
ATOM     16  C   UNL     1       2.189   2.254   1.781  1.00  0.00     0.041 C 
ATOM     17  C   UNL     1       1.420   3.211   3.822  1.00  0.00     0.041 C 
ATOM     18  C   UNL     1       3.441   2.678   2.544  1.00  0.00     0.003 C 
ATOM     19  C   UNL     1       2.947   3.308   3.848  1.00  0.00     0.003 C 
BRANCH  15  20
ATOM     20  O   UNL     1       1.176   4.479   1.774  1.00  0.00    -0.384 OA
ATOM     21  H   UNL     1       0.961   4.445   0.829  1.00  0.00     0.211 HD
ENDBRANCH  15  20
ENDBRANCH  14  15
ENDBRANCH  11  14
ENDBRANCH   9  11
ENDBRANCH   7   9
ENDBRANCH   5   7
ENDBRANCH   4   5
ENDBRANCH   3   4
ENDBRANCH   2   3
ENDBRANCH   1   2
BRANCH   1  22
ATOM     22  C   UNL     1      -1.291  -0.419  -4.915  1.00  0.00     0.188 C 
BRANCH  22  23
ATOM     23  C   UNL     1       0.079   0.161  -4.523  1.00  0.00     0.188 C 
BRANCH  23  24
ATOM     24  O   UNL     1       0.483   1.258  -5.308  1.00  0.00    -0.376 OA
BRANCH  24  25
ATOM     25  C   UNL     1       1.652   1.125  -6.083  1.00  0.00     0.202 C 
BRANCH  25  26
ATOM     26  C   UNL     1       1.672   0.008  -7.136  1.00  0.00     0.261 C 
BRANCH  26  27
ATOM     27  O   UNL     1       1.135  -1.266  -6.736  1.00  0.00    -0.460 OA
BRANCH  27  28
ATOM     28  C   UNL     1       1.914  -2.053  -5.955  1.00  0.00     0.338 C 
ATOM     29  O   UNL     1       3.031  -1.807  -5.555  1.00  0.00    -0.246 OA
BRANCH  28  30
ATOM     30  C   UNL     1       1.083  -3.193  -5.487  1.00  0.00     0.060 A 
ATOM     31  C   UNL     1       0.912  -3.391  -4.108  1.00  0.00     0.016 A 
ATOM     32  C   UNL     1       0.481  -4.062  -6.398  1.00  0.00     0.016 A 
ATOM     33  C   UNL     1       0.178  -4.486  -3.639  1.00  0.00     0.010 A 
ATOM     34  C   UNL     1      -0.236  -5.168  -5.927  1.00  0.00     0.010 A 
ATOM     35  C   UNL     1      -0.357  -5.410  -4.546  1.00  0.00    -0.014 A 
BRANCH  35  36
ATOM     36  C   UNL     1      -0.829  -6.737  -4.071  1.00  0.00     0.031 A 
ATOM     37  C   UNL     1       0.117  -7.905  -4.183  1.00  0.00     0.074 A 
ATOM     38  C   UNL     1      -2.056  -6.922  -3.551  1.00  0.00     0.049 A 
ATOM     39  N   UNL     1      -0.085  -9.172  -3.921  1.00  0.00    -0.248 NA
ATOM     40  C   UNL     1       1.475  -7.599  -4.662  1.00  0.00     0.031 C 
ATOM     41  C   UNL     1      -3.053  -5.879  -3.328  1.00  0.00     0.029 A 
ATOM     42  N   UNL     1      -2.671  -8.075  -3.123  1.00  0.00    -0.354 N 
ATOM     43  C   UNL     1       1.112  -9.812  -4.220  1.00  0.00     0.074 A 
ATOM     44  C   UNL     1       2.023  -8.802  -4.710  1.00  0.00     0.031 C 
ATOM     45  C   UNL     1      -4.163  -6.441  -2.815  1.00  0.00     0.029 A 
ATOM     46  C   UNL     1      -3.969  -7.887  -2.711  1.00  0.00     0.049 A 
ATOM     47  H   UNL     1      -2.225  -8.952  -3.112  1.00  0.00     0.167 HD
ATOM     48  C   UNL     1       1.431 -11.122  -4.095  1.00  0.00     0.031 A 
ATOM     49  C   UNL     1      -4.899  -8.782  -2.320  1.00  0.00     0.031 A 
ATOM     50  C   UNL     1       0.525 -12.136  -3.624  1.00  0.00     0.049 A 
ATOM     51  C   UNL     1      -4.550 -10.250  -2.277  1.00  0.00     0.074 A 
ATOM     52  C   UNL     1       0.759 -13.489  -3.457  1.00  0.00     0.029 A 
ATOM     53  N   UNL     1      -0.790 -11.907  -3.253  1.00  0.00    -0.354 N 
ATOM     54  N   UNL     1      -3.412 -10.842  -2.546  1.00  0.00    -0.248 NA
ATOM     55  C   UNL     1      -5.620 -11.172  -1.866  1.00  0.00     0.031 C 
ATOM     56  C   UNL     1      -0.434 -14.091  -3.046  1.00  0.00     0.029 A 
ATOM     57  C   UNL     1      -1.389 -13.100  -2.883  1.00  0.00     0.049 A 
ATOM     58  H   UNL     1      -1.234 -11.028  -3.254  1.00  0.00     0.167 HD
ATOM     59  C   UNL     1      -3.617 -12.195  -2.297  1.00  0.00     0.074 A 
ATOM     60  C   UNL     1      -4.985 -12.335  -1.845  1.00  0.00     0.031 C 
ATOM     61  C   UNL     1      -2.749 -13.229  -2.427  1.00  0.00     0.031 A 
BRANCH  48  62
ATOM     62  C   UNL     1       2.812 -11.539  -4.519  1.00  0.00    -0.014 A 
ATOM     63  C   UNL     1       3.949 -11.162  -3.786  1.00  0.00     0.009 A 
ATOM     64  C   UNL     1       2.976 -12.344  -5.657  1.00  0.00     0.009 A 
ATOM     65  C   UNL     1       5.223 -11.550  -4.207  1.00  0.00     0.001 A 
ATOM     66  C   UNL     1       4.247 -12.758  -6.057  1.00  0.00     0.001 A 
ATOM     67  C   UNL     1       5.370 -12.352  -5.339  1.00  0.00     0.000 A 
ENDBRANCH  48  62
BRANCH  49  68
ATOM     68  C   UNL     1      -6.270  -8.331  -1.954  1.00  0.00    -0.014 A 
ATOM     69  C   UNL     1      -6.736  -8.450  -0.635  1.00  0.00     0.009 A 
ATOM     70  C   UNL     1      -7.138  -7.821  -2.933  1.00  0.00     0.009 A 
ATOM     71  C   UNL     1      -8.049  -8.098  -0.311  1.00  0.00     0.001 A 
ATOM     72  C   UNL     1      -8.439  -7.439  -2.599  1.00  0.00     0.001 A 
ATOM     73  C   UNL     1      -8.898  -7.589  -1.292  1.00  0.00     0.000 A 
ENDBRANCH  49  68
BRANCH  61  74
ATOM     74  C   UNL     1      -3.226 -14.597  -2.016  1.00  0.00    -0.014 A 
ATOM     75  C   UNL     1      -4.190 -15.299  -2.756  1.00  0.00     0.009 A 
ATOM     76  C   UNL     1      -2.665 -15.211  -0.883  1.00  0.00     0.009 A 
ATOM     77  C   UNL     1      -4.611 -16.567  -2.348  1.00  0.00     0.001 A 
ATOM     78  C   UNL     1      -3.061 -16.492  -0.497  1.00  0.00     0.001 A 
ATOM     79  C   UNL     1      -4.043 -17.165  -1.223  1.00  0.00     0.000 A 
ENDBRANCH  61  74
ENDBRANCH  35  36
ENDBRANCH  28  30
ENDBRANCH  27  28
ENDBRANCH  26  27
ENDBRANCH  25  26
ENDBRANCH  24  25
ENDBRANCH  23  24
ENDBRANCH  22  23
ENDBRANCH   1  22
TORSDOF 22
