REMARK SMILES Cc1ccc(S(=O)(=O)Nc2cc(C(=O)OCCOCCOCCOC(=O)c3ccc(-c4c5nc(c(-c6ccccc6)c6ccc([nH]6)c(-c6ccccc6)c6nc(c(-c7ccccc7)c7ccc4[nH]7)C=C6)C=C5)cc3)cnc2N2CCCC2)c(C)c1
REMARK SMILES IDX 19 1 18 2 17 3 16 4 15 5 13 6 14 7 12 8 10 9 11 10 77 11
REMARK SMILES IDX 76 12 75 13 9 14 6 16 7 17 8 18 5 19 1 20 2 21 3 22 85 23
REMARK SMILES IDX 4 24 83 25 84 26 78 27 79 28 82 29 80 30 81 31 20 32 21 33
REMARK SMILES IDX 22 34 23 35 24 36 25 37 26 38 27 39 28 40 74 41 29 42 73 43
REMARK SMILES IDX 30 44 31 45 32 46 67 47 33 48 72 49 66 50 68 51 34 52 71 53
REMARK SMILES IDX 65 54 64 55 35 57 57 58 42 59 56 60 43 61 46 62 55 63 69 64
REMARK SMILES IDX 44 65 45 66 54 68 70 69 47 70 36 71 37 72 41 73 38 74 40 75
REMARK SMILES IDX 39 76 58 77 59 78 63 79 60 80 62 81 61 82 48 83 49 84 53 85
REMARK SMILES IDX 50 86 52 87 51 88
REMARK H PARENT 9 15 68 56 46 67
REMARK Flexibility Score: inf
ROOT
ATOM      1  C   UNL     1       3.426  -4.790   3.179  1.00  0.00     0.188 C 
ENDROOT
BRANCH   1   2
ATOM      2  O   UNL     1       4.322  -3.862   3.760  1.00  0.00    -0.376 OA
BRANCH   2   3
ATOM      3  C   UNL     1       4.008  -2.481   3.829  1.00  0.00     0.202 C 
BRANCH   3   4
ATOM      4  C   UNL     1       3.352  -1.733   2.662  1.00  0.00     0.261 C 
BRANCH   4   5
ATOM      5  O   UNL     1       2.235  -2.401   2.068  1.00  0.00    -0.460 OA
BRANCH   5   6
ATOM      6  C   UNL     1       2.449  -2.922   0.837  1.00  0.00     0.339 C 
ATOM      7  O   UNL     1       3.473  -2.857   0.178  1.00  0.00    -0.246 OA
BRANCH   6   8
ATOM      8  C   UNL     1       1.276  -3.700   0.401  1.00  0.00     0.080 A 
ATOM      9  C   UNL     1      -1.068  -3.936   0.091  1.00  0.00     0.092 A 
ATOM     10  C   UNL     1      -0.014  -3.367   0.792  1.00  0.00     0.048 A 
ATOM     11  C   UNL     1      -0.829  -4.992  -0.823  1.00  0.00     0.153 A 
ATOM     12  N   UNL     1       0.425  -5.419  -1.085  1.00  0.00    -0.236 NA
ATOM     13  C   UNL     1       1.448  -4.734  -0.510  1.00  0.00     0.129 A 
BRANCH   9  14
ATOM     14  N   UNL     1      -2.395  -3.434   0.281  1.00  0.00    -0.276 N 
ATOM     15  H   UNL     1      -3.070  -4.014   0.703  1.00  0.00     0.180 HD
BRANCH  14  16
ATOM     16  S   UNL     1      -2.841  -1.861  -0.202  1.00  0.00     0.262 S 
ATOM     17  O   UNL     1      -3.536  -1.349   0.964  1.00  0.00    -0.201 OA
ATOM     18  O   UNL     1      -3.537  -1.990  -1.464  1.00  0.00    -0.201 OA
BRANCH  16  19
ATOM     19  C   UNL     1      -1.430  -0.790  -0.513  1.00  0.00     0.090 A 
ATOM     20  C   UNL     1       2.332   1.286  -0.171  1.00  0.00     0.044 C 
ATOM     21  C   UNL     1       1.012   0.605  -0.381  1.00  0.00    -0.051 A 
ATOM     22  C   UNL     1       0.918  -0.583  -1.105  1.00  0.00     0.005 A 
ATOM     23  C   UNL     1      -0.169   1.193   0.077  1.00  0.00     0.008 A 
ATOM     24  C   UNL     1      -0.305  -1.260  -1.201  1.00  0.00     0.023 A 
ATOM     25  C   UNL     1      -1.406   0.525  -0.019  1.00  0.00    -0.030 A 
ATOM     26  C   UNL     1      -2.637   1.341   0.269  1.00  0.00     0.046 C 
ENDBRANCH  16  19
ENDBRANCH  14  16
ENDBRANCH   9  14
BRANCH  11  27
ATOM     27  N   UNL     1      -1.901  -5.572  -1.473  1.00  0.00    -0.355 N 
ATOM     28  C   UNL     1      -2.407  -4.949  -2.686  1.00  0.00     0.118 C 
ATOM     29  C   UNL     1      -1.970  -7.023  -1.636  1.00  0.00     0.118 C 
ATOM     30  C   UNL     1      -3.624  -5.817  -2.960  1.00  0.00     0.023 C 
ATOM     31  C   UNL     1      -3.114  -7.223  -2.649  1.00  0.00     0.023 C 
ENDBRANCH  11  27
ENDBRANCH   6   8
ENDBRANCH   5   6
ENDBRANCH   4   5
ENDBRANCH   3   4
ENDBRANCH   2   3
ENDBRANCH   1   2
BRANCH   1  32
ATOM     32  C   UNL     1       1.951  -4.860   3.628  1.00  0.00     0.188 C 
BRANCH  32  33
ATOM     33  O   UNL     1       1.500  -3.994   4.636  1.00  0.00    -0.376 OA
BRANCH  33  34
ATOM     34  C   UNL     1       1.900  -4.208   5.977  1.00  0.00     0.202 C 
BRANCH  34  35
ATOM     35  C   UNL     1       2.504  -5.517   6.531  1.00  0.00     0.261 C 
BRANCH  35  36
ATOM     36  O   UNL     1       3.119  -6.428   5.611  1.00  0.00    -0.460 OA
BRANCH  36  37
ATOM     37  C   UNL     1       2.427  -7.564   5.336  1.00  0.00     0.338 C 
ATOM     38  O   UNL     1       1.340  -7.895   5.783  1.00  0.00    -0.246 OA
BRANCH  37  39
ATOM     39  C   UNL     1       3.105  -8.275   4.232  1.00  0.00     0.060 A 
ATOM     40  C   UNL     1       2.502  -8.313   2.965  1.00  0.00     0.016 A 
ATOM     41  C   UNL     1       4.337  -8.891   4.444  1.00  0.00     0.016 A 
ATOM     42  C   UNL     1       3.143  -8.949   1.899  1.00  0.00     0.010 A 
ATOM     43  C   UNL     1       4.960  -9.557   3.384  1.00  0.00     0.010 A 
ATOM     44  C   UNL     1       4.366  -9.596   2.108  1.00  0.00    -0.014 A 
BRANCH  44  45
ATOM     45  C   UNL     1       4.992 -10.409   1.037  1.00  0.00     0.031 A 
ATOM     46  C   UNL     1       4.819 -11.900   1.057  1.00  0.00     0.074 A 
ATOM     47  C   UNL     1       5.753  -9.835   0.088  1.00  0.00     0.049 A 
ATOM     48  N   UNL     1       5.391 -12.812   0.314  1.00  0.00    -0.248 NA
ATOM     49  C   UNL     1       3.880 -12.432   2.056  1.00  0.00     0.031 C 
ATOM     50  C   UNL     1       5.968  -8.399  -0.071  1.00  0.00     0.029 A 
ATOM     51  N   UNL     1       6.513 -10.405  -0.905  1.00  0.00    -0.354 N 
ATOM     52  C   UNL     1       4.901 -14.029   0.770  1.00  0.00     0.074 A 
ATOM     53  C   UNL     1       3.996 -13.737   1.862  1.00  0.00     0.031 C 
ATOM     54  C   UNL     1       6.833  -8.200  -1.081  1.00  0.00     0.029 A 
ATOM     55  C   UNL     1       7.265  -9.494  -1.606  1.00  0.00     0.049 A 
ATOM     56  H   UNL     1       6.518 -11.370  -1.095  1.00  0.00     0.167 HD
ATOM     57  C   UNL     1       5.187 -15.277   0.327  1.00  0.00     0.031 A 
ATOM     58  C   UNL     1       8.228  -9.682  -2.531  1.00  0.00     0.031 A 
ATOM     59  C   UNL     1       6.106 -15.566  -0.742  1.00  0.00     0.049 A 
ATOM     60  C   UNL     1       8.598 -11.082  -2.948  1.00  0.00     0.074 A 
ATOM     61  C   UNL     1       6.431 -16.795  -1.289  1.00  0.00     0.029 A 
ATOM     62  N   UNL     1       6.866 -14.618  -1.410  1.00  0.00    -0.354 N 
ATOM     63  N   UNL     1       8.096 -12.225  -2.545  1.00  0.00    -0.248 NA
ATOM     64  C   UNL     1       9.669 -11.217  -3.946  1.00  0.00     0.031 C 
ATOM     65  C   UNL     1       7.446 -16.599  -2.232  1.00  0.00     0.029 A 
ATOM     66  C   UNL     1       7.699 -15.240  -2.326  1.00  0.00     0.049 A 
ATOM     67  H   UNL     1       6.821 -13.647  -1.256  1.00  0.00     0.167 HD
ATOM     68  C   UNL     1       8.777 -13.210  -3.249  1.00  0.00     0.074 A 
ATOM     69  C   UNL     1       9.713 -12.531  -4.122  1.00  0.00     0.031 C 
ATOM     70  C   UNL     1       8.640 -14.558  -3.178  1.00  0.00     0.031 A 
BRANCH  57  71
ATOM     71  C   UNL     1       4.543 -16.430   1.046  1.00  0.00    -0.014 A 
ATOM     72  C   UNL     1       3.164 -16.681   0.955  1.00  0.00     0.009 A 
ATOM     73  C   UNL     1       5.339 -17.293   1.816  1.00  0.00     0.009 A 
ATOM     74  C   UNL     1       2.593 -17.747   1.654  1.00  0.00     0.001 A 
ATOM     75  C   UNL     1       4.770 -18.377   2.486  1.00  0.00     0.001 A 
ATOM     76  C   UNL     1       3.396 -18.596   2.415  1.00  0.00     0.000 A 
ENDBRANCH  57  71
BRANCH  58  77
ATOM     77  C   UNL     1       8.954  -8.509  -3.087  1.00  0.00    -0.014 A 
ATOM     78  C   UNL     1       8.787  -8.127  -4.426  1.00  0.00     0.009 A 
ATOM     79  C   UNL     1       9.822  -7.762  -2.272  1.00  0.00     0.009 A 
ATOM     80  C   UNL     1       9.483  -7.029  -4.940  1.00  0.00     0.001 A 
ATOM     81  C   UNL     1      10.491  -6.647  -2.780  1.00  0.00     0.001 A 
ATOM     82  C   UNL     1      10.327  -6.286  -4.116  1.00  0.00     0.000 A 
ENDBRANCH  58  77
BRANCH  70  83
ATOM     83  C   UNL     1       9.513 -15.395  -4.075  1.00  0.00    -0.014 A 
ATOM     84  C   UNL     1      10.889 -15.527  -3.835  1.00  0.00     0.009 A 
ATOM     85  C   UNL     1       8.939 -16.110  -5.139  1.00  0.00     0.009 A 
ATOM     86  C   UNL     1      11.677 -16.337  -4.658  1.00  0.00     0.001 A 
ATOM     87  C   UNL     1       9.722 -16.943  -5.940  1.00  0.00     0.001 A 
ATOM     88  C   UNL     1      11.092 -17.049  -5.704  1.00  0.00     0.000 A 
ENDBRANCH  70  83
ENDBRANCH  44  45
ENDBRANCH  37  39
ENDBRANCH  36  37
ENDBRANCH  35  36
ENDBRANCH  34  35
ENDBRANCH  33  34
ENDBRANCH  32  33
ENDBRANCH   1  32
TORSDOF 21
