REMARK SMILES CCCCCCNC(=O)Oc1cccc(-c2ccc([C@@H](C)C(=O)OCCOCCOCCOC(=O)c3ccc(-c4c5nc(c(-c6ccccc6)c6ccc([nH]6)c(-c6ccccc6)c6nc(c(-c7ccccc7)c7ccc4[nH]7)C=C6)C=C5)cc3)cc2C(F)(F)F)c1
REMARK SMILES IDX 25 1 24 2 22 3 23 4 20 5 21 6 19 7 16 8 17 9 85 10 18 11
REMARK SMILES IDX 84 12 15 13 11 14 12 15 90 16 13 17 14 18 10 19 8 20 7 21
REMARK SMILES IDX 9 23 6 24 5 25 4 26 3 27 2 28 1 29 86 30 87 31 88 32 89 33
REMARK SMILES IDX 26 34 27 35 28 36 29 37 30 38 31 39 32 40 33 41 34 42 35 43
REMARK SMILES IDX 36 44 37 45 83 46 38 47 82 48 39 49 40 50 41 51 76 52 42 53
REMARK SMILES IDX 81 54 75 55 77 56 43 57 80 58 74 59 73 60 44 62 66 63 51 64
REMARK SMILES IDX 65 65 52 66 55 67 64 68 78 69 53 70 54 71 63 73 79 74 56 75
REMARK SMILES IDX 45 76 46 77 50 78 47 79 49 80 48 81 67 82 68 83 72 84 69 85
REMARK SMILES IDX 71 86 70 87 57 88 58 89 62 90 59 91 61 92 60 93
REMARK H PARENT 7 22 77 61 55 72
REMARK Flexibility Score: inf
ROOT
ATOM      1  C   UNL     1      -2.569   9.808 -12.827  1.00  0.00     0.261 C 
ENDROOT
BRANCH   1   2
ATOM      2  O   UNL     1      -3.566   9.076 -12.079  1.00  0.00    -0.463 OA
BRANCH   2   3
ATOM      3  C   UNL     1      -4.387   8.272 -12.798  1.00  0.00     0.313 C 
ATOM      4  O   UNL     1      -4.345   8.187 -14.024  1.00  0.00    -0.252 OA
BRANCH   3   5
ATOM      5  C   UNL     1      -5.407   7.458 -12.002  1.00  0.00     0.126 C 
ATOM      6  C   UNL     1      -6.811   7.913 -12.401  1.00  0.00     0.025 C 
BRANCH   5   7
ATOM      7  C   UNL     1      -5.305   7.307 -10.483  1.00  0.00    -0.033 A 
ATOM      8  C   UNL     1      -5.196   6.880  -7.641  1.00  0.00    -0.006 A 
ATOM      9  C   UNL     1      -5.200   8.173  -8.210  1.00  0.00     0.009 A 
ATOM     10  C   UNL     1      -5.283   5.782  -8.520  1.00  0.00     0.064 A 
ATOM     11  C   UNL     1      -5.274   8.386  -9.598  1.00  0.00     0.005 A 
ATOM     12  C   UNL     1      -5.315   6.014  -9.921  1.00  0.00     0.018 A 
BRANCH   8  13
ATOM     13  C   UNL     1      -5.179   6.736  -6.169  1.00  0.00    -0.014 A 
ATOM     14  C   UNL     1      -4.222   5.888  -4.101  1.00  0.00     0.133 A 
ATOM     15  C   UNL     1      -5.312   6.357  -3.370  1.00  0.00     0.047 A 
ATOM     16  C   UNL     1      -4.139   6.076  -5.487  1.00  0.00     0.056 A 
ATOM     17  C   UNL     1      -6.331   7.038  -4.027  1.00  0.00     0.004 A 
ATOM     18  C   UNL     1      -6.266   7.220  -5.412  1.00  0.00     0.009 A 
BRANCH  14  19
ATOM     19  O   UNL     1      -3.307   5.082  -3.399  1.00  0.00    -0.410 OA
BRANCH  19  20
ATOM     20  C   UNL     1      -1.962   5.418  -3.416  1.00  0.00     0.412 C 
ATOM     21  N   UNL     1      -1.185   4.561  -2.678  1.00  0.00    -0.321 N 
ATOM     22  H   UNL     1      -0.212   4.707  -2.718  1.00  0.00     0.167 HD
ATOM     23  O   UNL     1      -1.470   6.382  -3.987  1.00  0.00    -0.224 OA
BRANCH  21  24
ATOM     24  C   UNL     1      -1.639   3.464  -1.843  1.00  0.00     0.119 C 
BRANCH  24  25
ATOM     25  C   UNL     1      -1.028   2.121  -2.246  1.00  0.00     0.021 C 
BRANCH  25  26
ATOM     26  C   UNL     1       0.498   2.032  -2.123  1.00  0.00     0.002 C 
BRANCH  26  27
ATOM     27  C   UNL     1       1.069   2.255  -0.717  1.00  0.00    -0.000 C 
BRANCH  27  28
ATOM     28  C   UNL     1       0.594   1.270   0.355  1.00  0.00    -0.003 C 
ATOM     29  C   UNL     1       0.999  -0.170   0.077  1.00  0.00     0.004 C 
ENDBRANCH  27  28
ENDBRANCH  26  27
ENDBRANCH  25  26
ENDBRANCH  24  25
ENDBRANCH  21  24
ENDBRANCH  19  20
ENDBRANCH  14  19
ENDBRANCH   8  13
BRANCH  10  30
ATOM     30  C   UNL     1      -5.343   4.343  -8.043  1.00  0.00     0.417 C 
ATOM     31  F   UNL     1      -6.046   3.546  -8.902  1.00  0.00    -0.166 F 
ATOM     32  F   UNL     1      -4.106   3.777  -7.968  1.00  0.00    -0.166 F 
ATOM     33  F   UNL     1      -5.925   4.147  -6.831  1.00  0.00    -0.166 F 
ENDBRANCH  10  30
ENDBRANCH   5   7
ENDBRANCH   3   5
ENDBRANCH   2   3
ENDBRANCH   1   2
BRANCH   1  34
ATOM     34  C   UNL     1      -1.121   9.506 -12.428  1.00  0.00     0.202 C 
BRANCH  34  35
ATOM     35  O   UNL     1      -0.685   8.161 -12.567  1.00  0.00    -0.376 OA
BRANCH  35  36
ATOM     36  C   UNL     1      -1.276   7.146 -11.761  1.00  0.00     0.188 C 
BRANCH  36  37
ATOM     37  C   UNL     1      -1.802   7.491 -10.362  1.00  0.00     0.188 C 
BRANCH  37  38
ATOM     38  O   UNL     1      -1.144   8.590  -9.760  1.00  0.00    -0.376 OA
BRANCH  38  39
ATOM     39  C   UNL     1      -0.734   8.385  -8.419  1.00  0.00     0.202 C 
BRANCH  39  40
ATOM     40  C   UNL     1       0.624   7.679  -8.383  1.00  0.00     0.261 C 
BRANCH  40  41
ATOM     41  O   UNL     1       0.643   6.395  -9.038  1.00  0.00    -0.460 OA
BRANCH  41  42
ATOM     42  C   UNL     1      -0.088   5.413  -8.461  1.00  0.00     0.338 C 
ATOM     43  O   UNL     1      -0.730   5.479  -7.431  1.00  0.00    -0.246 OA
BRANCH  42  44
ATOM     44  C   UNL     1      -0.167   4.284  -9.412  1.00  0.00     0.060 A 
ATOM     45  C   UNL     1      -1.431   3.808  -9.784  1.00  0.00     0.016 A 
ATOM     46  C   UNL     1       0.988   3.696  -9.927  1.00  0.00     0.016 A 
ATOM     47  C   UNL     1      -1.546   2.717 -10.645  1.00  0.00     0.010 A 
ATOM     48  C   UNL     1       0.873   2.595 -10.779  1.00  0.00     0.010 A 
ATOM     49  C   UNL     1      -0.392   2.082 -11.118  1.00  0.00    -0.014 A 
BRANCH  49  50
ATOM     50  C   UNL     1      -0.489   0.785 -11.828  1.00  0.00     0.031 A 
ATOM     51  C   UNL     1      -0.267  -0.480 -11.047  1.00  0.00     0.074 A 
ATOM     52  C   UNL     1      -0.756   0.723 -13.144  1.00  0.00     0.049 A 
ATOM     53  N   UNL     1      -0.207  -1.718 -11.467  1.00  0.00    -0.248 NA
ATOM     54  C   UNL     1      -0.083  -0.323  -9.595  1.00  0.00     0.031 C 
ATOM     55  C   UNL     1      -1.052   1.865 -14.005  1.00  0.00     0.029 A 
ATOM     56  N   UNL     1      -0.811  -0.361 -13.985  1.00  0.00    -0.354 N 
ATOM     57  C   UNL     1       0.040  -2.485 -10.336  1.00  0.00     0.074 A 
ATOM     58  C   UNL     1       0.140  -1.572  -9.217  1.00  0.00     0.031 C 
ATOM     59  C   UNL     1      -1.251   1.421 -15.259  1.00  0.00     0.029 A 
ATOM     60  C   UNL     1      -1.053  -0.027 -15.294  1.00  0.00     0.049 A 
ATOM     61  H   UNL     1      -0.688  -1.288 -13.678  1.00  0.00     0.167 HD
ATOM     62  C   UNL     1       0.175  -3.829 -10.235  1.00  0.00     0.031 A 
ATOM     63  C   UNL     1      -1.081  -0.799 -16.398  1.00  0.00     0.031 A 
ATOM     64  C   UNL     1       0.097  -4.736 -11.348  1.00  0.00     0.049 A 
ATOM     65  C   UNL     1      -0.821  -2.277 -16.279  1.00  0.00     0.074 A 
ATOM     66  C   UNL     1       0.199  -6.116 -11.345  1.00  0.00     0.029 A 
ATOM     67  N   UNL     1      -0.086  -4.352 -12.667  1.00  0.00    -0.354 N 
ATOM     68  N   UNL     1      -0.606  -2.997 -15.204  1.00  0.00    -0.248 NA
ATOM     69  C   UNL     1      -0.801  -3.048 -17.531  1.00  0.00     0.031 C 
ATOM     70  C   UNL     1       0.142  -6.561 -12.670  1.00  0.00     0.029 A 
ATOM     71  C   UNL     1      -0.059  -5.464 -13.492  1.00  0.00     0.049 A 
ATOM     72  H   UNL     1      -0.217  -3.425 -12.972  1.00  0.00     0.167 HD
ATOM     73  C   UNL     1      -0.451  -4.306 -15.647  1.00  0.00     0.074 A 
ATOM     74  C   UNL     1      -0.609  -4.282 -17.087  1.00  0.00     0.031 C 
ATOM     75  C   UNL     1      -0.204  -5.427 -14.925  1.00  0.00     0.031 A 
BRANCH  62  76
ATOM     76  C   UNL     1       0.483  -4.383  -8.873  1.00  0.00    -0.014 A 
ATOM     77  C   UNL     1      -0.475  -4.383  -7.846  1.00  0.00     0.009 A 
ATOM     78  C   UNL     1       1.757  -4.912  -8.613  1.00  0.00     0.009 A 
ATOM     79  C   UNL     1      -0.146  -4.858  -6.574  1.00  0.00     0.001 A 
ATOM     80  C   UNL     1       2.072  -5.414  -7.350  1.00  0.00     0.001 A 
ATOM     81  C   UNL     1       1.125  -5.375  -6.328  1.00  0.00     0.000 A 
ENDBRANCH  62  76
BRANCH  63  82
ATOM     82  C   UNL     1      -1.347  -0.186 -17.725  1.00  0.00    -0.014 A 
ATOM     83  C   UNL     1      -2.554  -0.438 -18.395  1.00  0.00     0.009 A 
ATOM     84  C   UNL     1      -0.394   0.645 -18.334  1.00  0.00     0.009 A 
ATOM     85  C   UNL     1      -2.794   0.118 -19.654  1.00  0.00     0.001 A 
ATOM     86  C   UNL     1      -0.648   1.222 -19.580  1.00  0.00     0.001 A 
ATOM     87  C   UNL     1      -1.844   0.952 -20.242  1.00  0.00     0.000 A 
ENDBRANCH  63  82
BRANCH  75  88
ATOM     88  C   UNL     1      -0.114  -6.727 -15.676  1.00  0.00    -0.014 A 
ATOM     89  C   UNL     1       0.991  -7.027 -16.486  1.00  0.00     0.009 A 
ATOM     90  C   UNL     1      -1.131  -7.685 -15.533  1.00  0.00     0.009 A 
ATOM     91  C   UNL     1       1.061  -8.248 -17.163  1.00  0.00     0.001 A 
ATOM     92  C   UNL     1      -1.045  -8.915 -16.187  1.00  0.00     0.001 A 
ATOM     93  C   UNL     1       0.047  -9.192 -17.009  1.00  0.00     0.000 A 
ENDBRANCH  75  88
ENDBRANCH  49  50
ENDBRANCH  42  44
ENDBRANCH  41  42
ENDBRANCH  40  41
ENDBRANCH  39  40
ENDBRANCH  38  39
ENDBRANCH  37  38
ENDBRANCH  36  37
ENDBRANCH  35  36
ENDBRANCH  34  35
ENDBRANCH   1  34
TORSDOF 27
