REMARK SMILES COc1ccccc1[C@@H]1C[N@@H+](Cc2cn3cc(C)ccc3n2)C[C@H]1C(=O)OCCOCCOCCOC(=O)c1ccc(-c2c3nc(c(-c4ccccc4)c4ccc([nH]4)c(-c4ccccc4)c4nc(c(-c5ccccc5)c5ccc2[nH]5)C=C4)C=C3)cc1
REMARK SMILES IDX 31 1 30 2 29 3 28 4 27 5 25 6 26 7 24 8 9 9 10 10 11 11
REMARK SMILES IDX 23 12 8 14 3 15 4 16 5 17 7 18 6 19 2 20 1 21 12 22 13 23
REMARK SMILES IDX 14 24 22 25 15 26 21 27 16 28 20 29 17 30 19 31 18 32 32 33
REMARK SMILES IDX 33 34 34 35 35 36 36 37 37 38 38 39 39 40 40 41 86 42 41 43
REMARK SMILES IDX 85 44 42 45 43 46 44 47 79 48 45 49 84 50 78 51 80 52 46 53
REMARK SMILES IDX 83 54 77 55 76 56 47 58 69 59 54 60 68 61 55 62 58 63 67 64
REMARK SMILES IDX 81 65 56 66 57 67 66 69 82 70 59 71 48 72 49 73 53 74 50 75
REMARK SMILES IDX 52 76 51 77 70 78 71 79 75 80 72 81 74 82 73 83 60 84 61 85
REMARK SMILES IDX 65 86 62 87 64 88 63 89
REMARK H PARENT 11 13 80 57 58 68
REMARK Flexibility Score: inf
ROOT
ATOM      1  C   UNL     1       1.706  -4.863  -1.450  1.00  0.00     0.188 C 
ENDROOT
BRANCH   1   2
ATOM      2  O   UNL     1       2.167  -5.476  -2.647  1.00  0.00    -0.376 OA
BRANCH   2   3
ATOM      3  C   UNL     1       3.416  -5.041  -3.183  1.00  0.00     0.202 C 
BRANCH   3   4
ATOM      4  C   UNL     1       3.643  -3.529  -3.345  1.00  0.00     0.261 C 
BRANCH   4   5
ATOM      5  O   UNL     1       3.607  -2.757  -2.117  1.00  0.00    -0.463 OA
BRANCH   5   6
ATOM      6  C   UNL     1       2.874  -1.623  -2.165  1.00  0.00     0.315 C 
ATOM      7  O   UNL     1       2.287  -1.243  -3.180  1.00  0.00    -0.252 OA
BRANCH   6   8
ATOM      8  C   UNL     1       2.828  -0.751  -0.919  1.00  0.00     0.167 C 
ATOM      9  C   UNL     1       3.089  -1.157   0.537  1.00  0.00     0.098 C 
ATOM     10  C   UNL     1       3.712   0.107   1.157  1.00  0.00     0.272 C 
ATOM     11  N   UNL     1       4.443   0.775   0.087  1.00  0.00    -0.329 N 
ATOM     12  C   UNL     1       3.792   0.413  -1.176  1.00  0.00     0.278 C 
ATOM     13  H   UNL     1       4.389   1.784   0.232  1.00  0.00     0.348 HD
BRANCH   9  14
ATOM     14  C   UNL     1       2.044  -1.690   1.536  1.00  0.00     0.004 A 
ATOM     15  C   UNL     1       0.731  -1.280   1.836  1.00  0.00     0.122 A 
ATOM     16  C   UNL     1       0.034  -1.919   2.897  1.00  0.00     0.047 A 
ATOM     17  C   UNL     1       0.600  -2.897   3.705  1.00  0.00     0.004 A 
ATOM     18  C   UNL     1       2.600  -2.681   2.412  1.00  0.00     0.008 A 
ATOM     19  C   UNL     1       1.903  -3.271   3.468  1.00  0.00     0.001 A 
BRANCH  15  20
ATOM     20  O   UNL     1      -0.089  -0.294   1.387  1.00  0.00    -0.496 OA
ATOM     21  C   UNL     1       0.116   0.528   0.272  1.00  0.00     0.278 C 
ENDBRANCH  15  20
ENDBRANCH   9  14
BRANCH  11  22
ATOM     22  C   UNL     1       5.899   0.565   0.095  1.00  0.00     0.321 C 
BRANCH  22  23
ATOM     23  C   UNL     1       6.345  -0.866   0.165  1.00  0.00     0.114 A 
ATOM     24  C   UNL     1       6.693  -1.597   1.286  1.00  0.00     0.122 A 
ATOM     25  N   UNL     1       6.498  -1.636  -0.971  1.00  0.00    -0.228 NA
ATOM     26  N   UNL     1       7.063  -2.834   0.832  1.00  0.00    -0.306 N 
ATOM     27  C   UNL     1       6.947  -2.803  -0.552  1.00  0.00     0.137 A 
ATOM     28  C   UNL     1       7.474  -3.952   1.554  1.00  0.00     0.096 A 
ATOM     29  C   UNL     1       7.325  -3.982  -1.254  1.00  0.00     0.048 A 
ATOM     30  C   UNL     1       7.829  -5.074   0.896  1.00  0.00    -0.034 A 
ATOM     31  C   UNL     1       7.779  -5.054  -0.572  1.00  0.00     0.009 A 
ATOM     32  C   UNL     1       8.135  -6.371   1.583  1.00  0.00     0.046 C 
ENDBRANCH  22  23
ENDBRANCH  11  22
ENDBRANCH   6   8
ENDBRANCH   5   6
ENDBRANCH   4   5
ENDBRANCH   3   4
ENDBRANCH   2   3
ENDBRANCH   1   2
BRANCH   1  33
ATOM     33  C   UNL     1       2.704  -4.670  -0.301  1.00  0.00     0.188 C 
BRANCH  33  34
ATOM     34  O   UNL     1       4.005  -5.166  -0.555  1.00  0.00    -0.376 OA
BRANCH  34  35
ATOM     35  C   UNL     1       4.598  -5.993   0.422  1.00  0.00     0.202 C 
BRANCH  35  36
ATOM     36  C   UNL     1       4.119  -7.430   0.349  1.00  0.00     0.261 C 
BRANCH  36  37
ATOM     37  O   UNL     1       2.720  -7.503   0.515  1.00  0.00    -0.460 OA
BRANCH  37  38
ATOM     38  C   UNL     1       2.261  -7.017   1.676  1.00  0.00     0.338 C 
ATOM     39  O   UNL     1       2.912  -6.597   2.634  1.00  0.00    -0.246 OA
BRANCH  38  40
ATOM     40  C   UNL     1       0.809  -7.108   1.641  1.00  0.00     0.060 A 
ATOM     41  C   UNL     1       0.153  -6.595   2.758  1.00  0.00     0.016 A 
ATOM     42  C   UNL     1       0.267  -8.100   0.815  1.00  0.00     0.016 A 
ATOM     43  C   UNL     1      -0.872  -7.337   3.270  1.00  0.00     0.010 A 
ATOM     44  C   UNL     1      -0.702  -8.882   1.361  1.00  0.00     0.010 A 
ATOM     45  C   UNL     1      -1.168  -8.538   2.627  1.00  0.00    -0.014 A 
BRANCH  45  46
ATOM     46  C   UNL     1      -1.972  -9.485   3.342  1.00  0.00     0.031 A 
ATOM     47  C   UNL     1      -3.412  -9.251   3.187  1.00  0.00     0.074 A 
ATOM     48  C   UNL     1      -1.409 -10.540   3.954  1.00  0.00     0.049 A 
ATOM     49  N   UNL     1      -4.267  -8.970   4.108  1.00  0.00    -0.248 NA
ATOM     50  C   UNL     1      -3.930  -9.169   1.812  1.00  0.00     0.031 C 
ATOM     51  C   UNL     1      -0.022 -11.007   3.855  1.00  0.00     0.029 A 
ATOM     52  N   UNL     1      -2.023 -11.520   4.659  1.00  0.00    -0.354 N 
ATOM     53  C   UNL     1      -5.477  -8.852   3.442  1.00  0.00     0.074 A 
ATOM     54  C   UNL     1      -5.182  -8.783   2.035  1.00  0.00     0.031 C 
ATOM     55  C   UNL     1       0.023 -12.302   4.241  1.00  0.00     0.029 A 
ATOM     56  C   UNL     1      -1.300 -12.700   4.699  1.00  0.00     0.049 A 
ATOM     57  H   UNL     1      -2.896 -11.405   5.099  1.00  0.00     0.167 HD
ATOM     58  C   UNL     1      -6.655  -9.111   4.063  1.00  0.00     0.031 A 
ATOM     59  C   UNL     1      -1.812 -13.928   4.957  1.00  0.00     0.031 A 
ATOM     60  C   UNL     1      -6.537  -9.081   5.496  1.00  0.00     0.049 A 
ATOM     61  C   UNL     1      -3.153 -13.741   5.573  1.00  0.00     0.074 A 
ATOM     62  C   UNL     1      -6.104  -8.133   6.404  1.00  0.00     0.029 A 
ATOM     63  N   UNL     1      -6.514 -10.284   6.163  1.00  0.00    -0.354 N 
ATOM     64  N   UNL     1      -3.343 -13.251   6.765  1.00  0.00    -0.248 NA
ATOM     65  C   UNL     1      -4.314 -13.687   4.693  1.00  0.00     0.031 C 
ATOM     66  C   UNL     1      -5.405  -8.869   7.403  1.00  0.00     0.029 A 
ATOM     67  C   UNL     1      -5.487 -10.223   7.071  1.00  0.00     0.049 A 
ATOM     68  H   UNL     1      -7.120 -11.045   6.016  1.00  0.00     0.167 HD
ATOM     69  C   UNL     1      -4.478 -12.457   6.652  1.00  0.00     0.074 A 
ATOM     70  C   UNL     1      -5.095 -12.855   5.390  1.00  0.00     0.031 C 
ATOM     71  C   UNL     1      -4.653 -11.349   7.435  1.00  0.00     0.031 A 
BRANCH  58  72
ATOM     72  C   UNL     1      -7.785  -9.786   3.344  1.00  0.00    -0.014 A 
ATOM     73  C   UNL     1      -9.035  -9.867   3.969  1.00  0.00     0.009 A 
ATOM     74  C   UNL     1      -7.598 -10.566   2.182  1.00  0.00     0.009 A 
ATOM     75  C   UNL     1     -10.033 -10.713   3.474  1.00  0.00     0.001 A 
ATOM     76  C   UNL     1      -8.607 -11.371   1.656  1.00  0.00     0.001 A 
ATOM     77  C   UNL     1      -9.819 -11.463   2.320  1.00  0.00     0.000 A 
ENDBRANCH  58  72
BRANCH  59  78
ATOM     78  C   UNL     1      -1.344 -15.225   4.423  1.00  0.00    -0.014 A 
ATOM     79  C   UNL     1      -1.788 -16.429   4.987  1.00  0.00     0.009 A 
ATOM     80  C   UNL     1      -0.624 -15.299   3.214  1.00  0.00     0.009 A 
ATOM     81  C   UNL     1      -1.536 -17.655   4.356  1.00  0.00     0.001 A 
ATOM     82  C   UNL     1      -0.358 -16.521   2.592  1.00  0.00     0.001 A 
ATOM     83  C   UNL     1      -0.826 -17.700   3.157  1.00  0.00     0.000 A 
ENDBRANCH  59  78
BRANCH  71  84
ATOM     84  C   UNL     1      -3.701 -11.132   8.589  1.00  0.00    -0.014 A 
ATOM     85  C   UNL     1      -2.309 -11.036   8.419  1.00  0.00     0.009 A 
ATOM     86  C   UNL     1      -4.233 -10.849   9.857  1.00  0.00     0.009 A 
ATOM     87  C   UNL     1      -1.473 -10.707   9.490  1.00  0.00     0.001 A 
ATOM     88  C   UNL     1      -3.400 -10.496  10.922  1.00  0.00     0.001 A 
ATOM     89  C   UNL     1      -2.020 -10.432  10.741  1.00  0.00     0.000 A 
ENDBRANCH  71  84
ENDBRANCH  45  46
ENDBRANCH  38  40
ENDBRANCH  37  38
ENDBRANCH  36  37
ENDBRANCH  35  36
ENDBRANCH  34  35
ENDBRANCH  33  34
ENDBRANCH   1  33
TORSDOF 21
