REMARK SMILES Cc1ccc(S(=O)(=O)Nc2ccc(C(=O)CCC(=O)OCCOCCOCCOC(=O)c3ccc(-c4c5nc(c(-c6ccccc6)c6ccc([nH]6)c(-c6ccccc6)c6nc(c(-c7ccccc7)c7ccc4[nH]7)C=C6)C=C5)cc3)cc2)c(C)c1
REMARK SMILES IDX 22 1 21 2 20 3 18 4 19 5 17 6 16 7 14 8 15 9 13 10 10 11
REMARK SMILES IDX 11 12 81 13 12 14 80 15 9 16 6 18 7 19 8 20 5 21 1 22 2 23
REMARK SMILES IDX 3 24 84 25 4 26 82 27 83 28 23 29 24 30 25 31 26 32 27 33
REMARK SMILES IDX 28 34 29 35 30 36 31 37 32 38 33 39 79 40 34 41 78 42 35 43
REMARK SMILES IDX 36 44 37 45 72 46 38 47 77 48 71 49 73 50 39 51 76 52 70 53
REMARK SMILES IDX 69 54 40 56 62 57 47 58 61 59 48 60 51 61 60 62 74 63 49 64
REMARK SMILES IDX 50 65 59 67 75 68 52 69 41 70 42 71 46 72 43 73 45 74 44 75
REMARK SMILES IDX 63 76 64 77 68 78 65 79 67 80 66 81 53 82 54 83 58 84 55 85
REMARK SMILES IDX 57 86 56 87
REMARK H PARENT 9 17 73 55 51 66
REMARK Flexibility Score: inf
ROOT
ATOM      1  C   UNL     1       1.069  -1.622   1.639  1.00  0.00     0.202 C 
ENDROOT
BRANCH   1   2
ATOM      2  C   UNL     1       1.859  -1.821   0.349  1.00  0.00     0.261 C 
BRANCH   2   3
ATOM      3  O   UNL     1       2.607  -3.041   0.332  1.00  0.00    -0.463 OA
BRANCH   3   4
ATOM      4  C   UNL     1       3.872  -2.998  -0.139  1.00  0.00     0.306 C 
ATOM      5  O   UNL     1       4.463  -1.983  -0.480  1.00  0.00    -0.252 OA
BRANCH   4   6
ATOM      6  C   UNL     1       4.490  -4.376  -0.184  1.00  0.00     0.131 C 
BRANCH   6   7
ATOM      7  C   UNL     1       3.599  -5.532   0.286  1.00  0.00     0.093 C 
BRANCH   7   8
ATOM      8  C   UNL     1       2.655  -6.043  -0.808  1.00  0.00     0.163 C 
ATOM      9  O   UNL     1       3.090  -6.754  -1.714  1.00  0.00    -0.294 OA
BRANCH   8  10
ATOM     10  C   UNL     1       1.216  -5.611  -0.864  1.00  0.00     0.018 A 
ATOM     11  C   UNL     1      -1.252  -4.261  -1.187  1.00  0.00     0.049 A 
ATOM     12  C   UNL     1      -0.747  -5.087  -2.197  1.00  0.00     0.027 A 
ATOM     13  C   UNL     1      -0.632  -4.306   0.048  1.00  0.00     0.027 A 
ATOM     14  C   UNL     1       0.485  -5.750  -2.044  1.00  0.00     0.014 A 
ATOM     15  C   UNL     1       0.586  -4.986   0.202  1.00  0.00     0.014 A 
BRANCH  11  16
ATOM     16  N   UNL     1      -2.384  -3.450  -1.486  1.00  0.00    -0.280 N 
ATOM     17  H   UNL     1      -2.954  -3.753  -2.229  1.00  0.00     0.180 HD
BRANCH  16  18
ATOM     18  S   UNL     1      -2.859  -2.031  -0.714  1.00  0.00     0.262 S 
ATOM     19  O   UNL     1      -2.831  -2.266   0.716  1.00  0.00    -0.201 OA
ATOM     20  O   UNL     1      -4.087  -1.644  -1.377  1.00  0.00    -0.201 OA
BRANCH  18  21
ATOM     21  C   UNL     1      -1.681  -0.715  -1.047  1.00  0.00     0.090 A 
ATOM     22  C   UNL     1       1.803   1.789  -0.683  1.00  0.00     0.044 C 
ATOM     23  C   UNL     1       0.536   1.020  -0.946  1.00  0.00    -0.051 A 
ATOM     24  C   UNL     1       0.494  -0.025  -1.876  1.00  0.00     0.005 A 
ATOM     25  C   UNL     1      -0.623   1.316  -0.228  1.00  0.00     0.008 A 
ATOM     26  C   UNL     1      -0.600  -0.912  -1.909  1.00  0.00     0.023 A 
ATOM     27  C   UNL     1      -1.751   0.475  -0.288  1.00  0.00    -0.030 A 
ATOM     28  C   UNL     1      -3.006   0.974   0.377  1.00  0.00     0.046 C 
ENDBRANCH  18  21
ENDBRANCH  16  18
ENDBRANCH  11  16
ENDBRANCH   8  10
ENDBRANCH   7   8
ENDBRANCH   6   7
ENDBRANCH   4   6
ENDBRANCH   3   4
ENDBRANCH   2   3
ENDBRANCH   1   2
BRANCH   1  29
ATOM     29  O   UNL     1       1.912  -1.354   2.751  1.00  0.00    -0.376 OA
BRANCH  29  30
ATOM     30  C   UNL     1       2.604  -2.497   3.230  1.00  0.00     0.188 C 
BRANCH  30  31
ATOM     31  C   UNL     1       1.707  -3.483   3.964  1.00  0.00     0.188 C 
BRANCH  31  32
ATOM     32  O   UNL     1       0.850  -4.329   3.211  1.00  0.00    -0.376 OA
BRANCH  32  33
ATOM     33  C   UNL     1      -0.444  -4.551   3.788  1.00  0.00     0.202 C 
BRANCH  33  34
ATOM     34  C   UNL     1      -0.536  -5.258   5.156  1.00  0.00     0.261 C 
BRANCH  34  35
ATOM     35  O   UNL     1       0.344  -4.694   6.139  1.00  0.00    -0.460 OA
BRANCH  35  36
ATOM     36  C   UNL     1       1.513  -5.369   6.327  1.00  0.00     0.338 C 
ATOM     37  O   UNL     1       1.782  -6.485   5.943  1.00  0.00    -0.246 OA
BRANCH  36  38
ATOM     38  C   UNL     1       2.537  -4.390   6.796  1.00  0.00     0.060 A 
ATOM     39  C   UNL     1       3.840  -4.522   6.275  1.00  0.00     0.016 A 
ATOM     40  C   UNL     1       2.199  -3.275   7.568  1.00  0.00     0.016 A 
ATOM     41  C   UNL     1       4.808  -3.562   6.549  1.00  0.00     0.010 A 
ATOM     42  C   UNL     1       3.181  -2.336   7.885  1.00  0.00     0.010 A 
ATOM     43  C   UNL     1       4.497  -2.514   7.420  1.00  0.00    -0.014 A 
BRANCH  43  44
ATOM     44  C   UNL     1       5.607  -1.888   8.167  1.00  0.00     0.031 A 
ATOM     45  C   UNL     1       6.004  -2.570   9.448  1.00  0.00     0.074 A 
ATOM     46  C   UNL     1       6.253  -0.797   7.730  1.00  0.00     0.049 A 
ATOM     47  N   UNL     1       6.909  -2.237  10.328  1.00  0.00    -0.248 NA
ATOM     48  C   UNL     1       5.265  -3.802   9.783  1.00  0.00     0.031 C 
ATOM     49  C   UNL     1       5.986  -0.088   6.481  1.00  0.00     0.029 A 
ATOM     50  N   UNL     1       7.273  -0.092   8.313  1.00  0.00    -0.354 N 
ATOM     51  C   UNL     1       6.840  -3.213  11.314  1.00  0.00     0.074 A 
ATOM     52  C   UNL     1       5.781  -4.123  10.954  1.00  0.00     0.031 C 
ATOM     53  C   UNL     1       6.814   0.971   6.402  1.00  0.00     0.029 A 
ATOM     54  C   UNL     1       7.642   1.024   7.606  1.00  0.00     0.049 A 
ATOM     55  H   UNL     1       7.701  -0.362   9.158  1.00  0.00     0.167 HD
ATOM     56  C   UNL     1       7.598  -3.349  12.424  1.00  0.00     0.031 A 
ATOM     57  C   UNL     1       8.530   1.987   7.920  1.00  0.00     0.031 A 
ATOM     58  C   UNL     1       8.618  -2.414  12.800  1.00  0.00     0.049 A 
ATOM     59  C   UNL     1       9.307   1.871   9.207  1.00  0.00     0.074 A 
ATOM     60  C   UNL     1       9.441  -2.432  13.909  1.00  0.00     0.029 A 
ATOM     61  N   UNL     1       8.941  -1.278  12.072  1.00  0.00    -0.354 N 
ATOM     62  N   UNL     1       9.250   0.938  10.129  1.00  0.00    -0.248 NA
ATOM     63  C   UNL     1      10.281   2.934   9.489  1.00  0.00     0.031 C 
ATOM     64  C   UNL     1      10.220  -1.271  13.884  1.00  0.00     0.029 A 
ATOM     65  C   UNL     1       9.935  -0.571  12.720  1.00  0.00     0.049 A 
ATOM     66  H   UNL     1       8.523  -1.014  11.220  1.00  0.00     0.167 HD
ATOM     67  C   UNL     1      10.199   1.284  11.084  1.00  0.00     0.074 A 
ATOM     68  C   UNL     1      10.825   2.507  10.620  1.00  0.00     0.031 C 
ATOM     69  C   UNL     1      10.531   0.650  12.237  1.00  0.00     0.031 A 
BRANCH  56  70
ATOM     70  C   UNL     1       7.287  -4.518  13.317  1.00  0.00    -0.014 A 
ATOM     71  C   UNL     1       7.515  -5.842  12.901  1.00  0.00     0.009 A 
ATOM     72  C   UNL     1       6.710  -4.295  14.576  1.00  0.00     0.009 A 
ATOM     73  C   UNL     1       7.122  -6.915  13.704  1.00  0.00     0.001 A 
ATOM     74  C   UNL     1       6.354  -5.369  15.393  1.00  0.00     0.001 A 
ATOM     75  C   UNL     1       6.545  -6.677  14.950  1.00  0.00     0.000 A 
ENDBRANCH  56  70
BRANCH  57  76
ATOM     76  C   UNL     1       8.710   3.150   7.011  1.00  0.00    -0.014 A 
ATOM     77  C   UNL     1       9.896   3.321   6.281  1.00  0.00     0.009 A 
ATOM     78  C   UNL     1       7.682   4.095   6.862  1.00  0.00     0.009 A 
ATOM     79  C   UNL     1      10.052   4.420   5.432  1.00  0.00     0.001 A 
ATOM     80  C   UNL     1       7.830   5.176   5.990  1.00  0.00     0.001 A 
ATOM     81  C   UNL     1       9.018   5.342   5.281  1.00  0.00     0.000 A 
ENDBRANCH  57  76
BRANCH  69  82
ATOM     82  C   UNL     1      11.646   1.243  13.054  1.00  0.00    -0.014 A 
ATOM     83  C   UNL     1      11.485   2.448  13.754  1.00  0.00     0.009 A 
ATOM     84  C   UNL     1      12.864   0.551  13.162  1.00  0.00     0.009 A 
ATOM     85  C   UNL     1      12.536   2.969  14.512  1.00  0.00     0.001 A 
ATOM     86  C   UNL     1      13.899   1.055  13.949  1.00  0.00     0.001 A 
ATOM     87  C   UNL     1      13.739   2.269  14.613  1.00  0.00     0.000 A 
ENDBRANCH  69  82
ENDBRANCH  43  44
ENDBRANCH  36  38
ENDBRANCH  35  36
ENDBRANCH  34  35
ENDBRANCH  33  34
ENDBRANCH  32  33
ENDBRANCH  31  32
ENDBRANCH  30  31
ENDBRANCH  29  30
ENDBRANCH   1  29
TORSDOF 23
