REMARK SMILES C=CCN(CC(=O)OCCOCCOCCOC(=O)c1ccc(-c2c3nc(c(-c4ccccc4)c4ccc([nH]4)c(-c4ccccc4)c4nc(c(-c5ccccc5)c5ccc2[nH]5)C=C4)C=C3)cc1)C(=O)c1ccc(C[NH3+])cc1
REMARK SMILES IDX 11 1 10 2 9 3 8 4 6 5 7 6 5 7 4 8 3 9 2 10 1 11 68 12 69 13
REMARK SMILES IDX 70 14 71 15 77 16 72 17 76 18 73 19 74 20 75 21 12 25 13 26
REMARK SMILES IDX 14 27 15 28 16 29 17 30 18 31 19 32 20 33 21 34 67 35 22 36
REMARK SMILES IDX 66 37 23 38 24 39 25 40 60 41 26 42 65 43 59 44 61 45 27 46
REMARK SMILES IDX 64 47 58 48 57 49 28 51 50 52 35 53 49 54 36 55 39 56 48 57
REMARK SMILES IDX 62 58 37 59 38 60 47 62 63 63 40 64 29 65 30 66 34 67 31 68
REMARK SMILES IDX 33 69 32 70 51 71 52 72 56 73 53 74 55 75 54 76 41 77 42 78
REMARK SMILES IDX 46 79 43 80 45 81 44 82
REMARK H PARENT 75 22 75 23 75 24 61 50 39 61
REMARK Flexibility Score: inf
ROOT
ATOM      1  O   UNL     1      -6.879  -2.416   2.411  1.00  0.00    -0.376 OA
ENDROOT
BRANCH   1   2
ATOM      2  C   UNL     1      -7.053  -1.250   1.615  1.00  0.00     0.202 C 
BRANCH   2   3
ATOM      3  C   UNL     1      -6.290   0.028   2.063  1.00  0.00     0.261 C 
BRANCH   3   4
ATOM      4  O   UNL     1      -4.822   0.000   1.921  1.00  0.00    -0.462 OA
BRANCH   4   5
ATOM      5  C   UNL     1      -4.055   0.334   2.994  1.00  0.00     0.325 C 
ATOM      6  O   UNL     1      -4.540   0.768   4.038  1.00  0.00    -0.250 OA
BRANCH   5   7
ATOM      7  C   UNL     1      -2.486   0.140   2.873  1.00  0.00     0.242 C 
BRANCH   7   8
ATOM      8  N   UNL     1      -1.662  -0.505   1.796  1.00  0.00    -0.324 N 
BRANCH   8   9
ATOM      9  C   UNL     1      -1.227   0.404   0.730  1.00  0.00     0.147 C 
BRANCH   9  10
ATOM     10  C   UNL     1       0.234   0.753   0.904  1.00  0.00    -0.014 C 
ATOM     11  C   UNL     1       1.165   0.508  -0.032  1.00  0.00     0.006 C 
ENDBRANCH   9  10
ENDBRANCH   8   9
BRANCH   8  12
ATOM     12  C   UNL     1      -1.035  -1.788   1.743  1.00  0.00     0.254 C 
ATOM     13  O   UNL     1      -0.242  -2.095   0.850  1.00  0.00    -0.269 OA
BRANCH  12  14
ATOM     14  C   UNL     1      -1.252  -2.893   2.708  1.00  0.00     0.040 A 
ATOM     15  C   UNL     1      -0.029  -4.178   2.892  1.00  0.00     0.014 A 
ATOM     16  C   UNL     1      -2.750  -2.907   3.618  1.00  0.00     0.014 A 
ATOM     17  C   UNL     1      -0.360  -5.529   4.070  1.00  0.00     0.010 A 
ATOM     18  C   UNL     1      -3.240  -4.131   4.742  1.00  0.00     0.010 A 
ATOM     19  C   UNL     1      -2.133  -5.504   5.064  1.00  0.00     0.006 A 
BRANCH  19  20
ATOM     20  C   UNL     1      -3.058  -6.454   5.982  1.00  0.00     0.295 C 
BRANCH  20  21
ATOM     21  N   UNL     1      -4.094  -7.189   5.241  1.00  0.00    -0.354 N 
ATOM     22  H   UNL     1      -4.739  -6.526   4.811  1.00  0.00     0.344 HD
ATOM     23  H   UNL     1      -4.606  -7.794   5.883  1.00  0.00     0.344 HD
ATOM     24  H   UNL     1      -3.656  -7.756   4.516  1.00  0.00     0.344 HD
ENDBRANCH  20  21
ENDBRANCH  19  20
ENDBRANCH  12  14
ENDBRANCH   8  12
ENDBRANCH   7   8
ENDBRANCH   5   7
ENDBRANCH   4   5
ENDBRANCH   3   4
ENDBRANCH   2   3
ENDBRANCH   1   2
BRANCH   1  25
ATOM     25  C   UNL     1      -5.534  -2.837   2.550  1.00  0.00     0.188 C 
BRANCH  25  26
ATOM     26  C   UNL     1      -4.671  -2.742   1.278  1.00  0.00     0.188 C 
BRANCH  26  27
ATOM     27  O   UNL     1      -5.388  -3.301   0.201  1.00  0.00    -0.376 OA
BRANCH  27  28
ATOM     28  C   UNL     1      -4.742  -4.385  -0.431  1.00  0.00     0.202 C 
BRANCH  28  29
ATOM     29  C   UNL     1      -4.435  -5.604   0.461  1.00  0.00     0.261 C 
BRANCH  29  30
ATOM     30  O   UNL     1      -3.811  -5.375   1.751  1.00  0.00    -0.460 OA
BRANCH  30  31
ATOM     31  C   UNL     1      -2.491  -5.043   1.753  1.00  0.00     0.338 C 
ATOM     32  O   UNL     1      -1.810  -4.923   0.751  1.00  0.00    -0.246 OA
BRANCH  31  33
ATOM     33  C   UNL     1      -1.975  -5.088   3.205  1.00  0.00     0.060 A 
ATOM     34  C   UNL     1      -1.139  -3.929   4.645  1.00  0.00     0.016 A 
ATOM     35  C   UNL     1      -1.829  -6.885   3.441  1.00  0.00     0.016 A 
ATOM     36  C   UNL     1      -0.340  -4.662   6.022  1.00  0.00     0.010 A 
ATOM     37  C   UNL     1      -1.018  -7.480   4.903  1.00  0.00     0.010 A 
ATOM     38  C   UNL     1      -0.337  -6.393   6.148  1.00  0.00    -0.014 A 
BRANCH  38  39
ATOM     39  C   UNL     1       0.236  -6.822   7.444  1.00  0.00     0.031 A 
ATOM     40  C   UNL     1       1.435  -7.697   7.420  1.00  0.00     0.074 A 
ATOM     41  C   UNL     1      -0.176  -6.184   8.568  1.00  0.00     0.049 A 
ATOM     42  N   UNL     1       2.236  -8.005   8.400  1.00  0.00    -0.248 NA
ATOM     43  C   UNL     1       1.805  -8.285   6.124  1.00  0.00     0.031 C 
ATOM     44  C   UNL     1      -1.299  -5.235   8.658  1.00  0.00     0.029 A 
ATOM     45  N   UNL     1       0.366  -6.120   9.828  1.00  0.00    -0.354 N 
ATOM     46  C   UNL     1       3.198  -8.828   7.839  1.00  0.00     0.074 A 
ATOM     47  C   UNL     1       2.869  -8.999   6.445  1.00  0.00     0.031 C 
ATOM     48  C   UNL     1      -1.264  -4.583   9.825  1.00  0.00     0.029 A 
ATOM     49  C   UNL     1      -0.203  -5.149  10.632  1.00  0.00     0.049 A 
ATOM     50  H   UNL     1       1.093  -6.712  10.132  1.00  0.00     0.167 HD
ATOM     51  C   UNL     1       4.266  -9.387   8.444  1.00  0.00     0.031 A 
ATOM     52  C   UNL     1       0.093  -4.760  11.886  1.00  0.00     0.031 A 
ATOM     53  C   UNL     1       4.546  -9.214   9.839  1.00  0.00     0.049 A 
ATOM     54  C   UNL     1       1.211  -5.499  12.559  1.00  0.00     0.074 A 
ATOM     55  C   UNL     1       5.514  -9.826  10.609  1.00  0.00     0.029 A 
ATOM     56  N   UNL     1       3.842  -8.354  10.674  1.00  0.00    -0.354 N 
ATOM     57  N   UNL     1       2.062  -6.352  12.039  1.00  0.00    -0.248 NA
ATOM     58  C   UNL     1       1.391  -5.256  13.993  1.00  0.00     0.031 C 
ATOM     59  C   UNL     1       5.358  -9.378  11.924  1.00  0.00     0.029 A 
ATOM     60  C   UNL     1       4.345  -8.430  11.958  1.00  0.00     0.049 A 
ATOM     61  H   UNL     1       3.097  -7.776  10.391  1.00  0.00     0.167 HD
ATOM     62  C   UNL     1       2.882  -6.748  13.081  1.00  0.00     0.074 A 
ATOM     63  C   UNL     1       2.454  -6.003  14.251  1.00  0.00     0.031 C 
ATOM     64  C   UNL     1       3.885  -7.659  13.084  1.00  0.00     0.031 A 
BRANCH  51  65
ATOM     65  C   UNL     1       5.106 -10.299   7.604  1.00  0.00    -0.014 A 
ATOM     66  C   UNL     1       5.927  -9.808   6.575  1.00  0.00     0.009 A 
ATOM     67  C   UNL     1       5.008 -11.685   7.794  1.00  0.00     0.009 A 
ATOM     68  C   UNL     1       6.600 -10.691   5.729  1.00  0.00     0.001 A 
ATOM     69  C   UNL     1       5.706 -12.564   6.967  1.00  0.00     0.001 A 
ATOM     70  C   UNL     1       6.492 -12.067   5.928  1.00  0.00     0.000 A 
ENDBRANCH  51  65
BRANCH  52  71
ATOM     71  C   UNL     1      -0.707  -3.725  12.613  1.00  0.00    -0.014 A 
ATOM     72  C   UNL     1      -0.102  -2.589  13.178  1.00  0.00     0.009 A 
ATOM     73  C   UNL     1      -2.086  -3.907  12.817  1.00  0.00     0.009 A 
ATOM     74  C   UNL     1      -0.844  -1.698  13.964  1.00  0.00     0.001 A 
ATOM     75  C   UNL     1      -2.835  -2.994  13.565  1.00  0.00     0.001 A 
ATOM     76  C   UNL     1      -2.210  -1.900  14.156  1.00  0.00     0.000 A 
ENDBRANCH  52  71
BRANCH  64  77
ATOM     77  C   UNL     1       4.605  -7.849  14.384  1.00  0.00    -0.014 A 
ATOM     78  C   UNL     1       3.992  -8.485  15.473  1.00  0.00     0.009 A 
ATOM     79  C   UNL     1       5.934  -7.415  14.497  1.00  0.00     0.009 A 
ATOM     80  C   UNL     1       4.688  -8.646  16.670  1.00  0.00     0.001 A 
ATOM     81  C   UNL     1       6.640  -7.615  15.681  1.00  0.00     0.001 A 
ATOM     82  C   UNL     1       6.012  -8.219  16.769  1.00  0.00     0.000 A 
ENDBRANCH  64  77
ENDBRANCH  38  39
ENDBRANCH  31  33
ENDBRANCH  30  31
ENDBRANCH  29  30
ENDBRANCH  28  29
ENDBRANCH  27  28
ENDBRANCH  26  27
ENDBRANCH  25  26
ENDBRANCH   1  25
TORSDOF 24
