REMARK SMILES O=C(Cc1c(F)cc(Cl)cc1F)OCCOCCOCCOC(=O)c1ccc(-c2c3nc(c(-c4ccccc4)c4ccc([nH]4)c(-c4ccccc4)c4nc(c(-c5ccccc5)c5ccc2[nH]5)C=C4)C=C3)cc1
REMARK SMILES IDX 18 1 17 2 16 3 15 4 14 5 13 6 2 7 1 8 3 9 4 10 5 11 11 12
REMARK SMILES IDX 6 13 7 14 10 15 12 16 8 17 9 18 19 19 20 20 21 21 22 22
REMARK SMILES IDX 23 23 24 24 25 25 26 26 72 27 27 28 71 29 28 30 29 31 30 32
REMARK SMILES IDX 65 33 31 34 70 35 64 36 66 37 32 38 69 39 63 40 62 41 33 43
REMARK SMILES IDX 55 44 40 45 54 46 41 47 44 48 53 49 67 50 42 51 43 52 52 54
REMARK SMILES IDX 68 55 45 56 34 57 35 58 39 59 36 60 38 61 37 62 56 63 57 64
REMARK SMILES IDX 61 65 58 66 60 67 59 68 46 69 47 70 51 71 48 72 50 73 49 74
REMARK H PARENT 66 42 44 53
REMARK Flexibility Score: inf
ROOT
ATOM      1  C   UNL     1       2.155   2.963   1.102  1.00  0.00     0.188 C 
ENDROOT
BRANCH   1   2
ATOM      2  C   UNL     1       2.715   1.537   1.046  1.00  0.00     0.188 C 
BRANCH   2   3
ATOM      3  O   UNL     1       4.116   1.415   1.194  1.00  0.00    -0.376 OA
BRANCH   3   4
ATOM      4  C   UNL     1       4.924   0.968   0.109  1.00  0.00     0.202 C 
BRANCH   4   5
ATOM      5  C   UNL     1       4.333   0.767  -1.286  1.00  0.00     0.261 C 
BRANCH   5   6
ATOM      6  O   UNL     1       3.212  -0.130  -1.520  1.00  0.00    -0.463 OA
BRANCH   6   7
ATOM      7  C   UNL     1       2.670  -1.163  -0.855  1.00  0.00     0.310 C 
ATOM      8  O   UNL     1       1.565  -1.581  -1.201  1.00  0.00    -0.252 OA
BRANCH   7   9
ATOM      9  C   UNL     1       3.416  -1.841   0.258  1.00  0.00     0.164 C 
BRANCH   9  10
ATOM     10  C   UNL     1       4.229  -2.994  -0.241  1.00  0.00     0.035 A 
ATOM     11  C   UNL     1       5.472  -2.808  -0.845  1.00  0.00     0.131 A 
ATOM     12  C   UNL     1       3.721  -4.292  -0.185  1.00  0.00     0.131 A 
ATOM     13  F   UNL     1       6.003  -1.583  -0.931  1.00  0.00    -0.207 F 
ATOM     14  C   UNL     1       6.189  -3.867  -1.384  1.00  0.00     0.060 A 
ATOM     15  C   UNL     1       4.418  -5.369  -0.720  1.00  0.00     0.060 A 
ATOM     16  F   UNL     1       2.532  -4.516   0.391  1.00  0.00    -0.207 F 
ATOM     17  C   UNL     1       5.651  -5.148  -1.325  1.00  0.00     0.046 A 
ATOM     18  Cl  UNL     1       6.516  -6.463  -2.013  1.00  0.00    -0.084 Cl
ENDBRANCH   9  10
ENDBRANCH   7   9
ENDBRANCH   6   7
ENDBRANCH   5   6
ENDBRANCH   4   5
ENDBRANCH   3   4
ENDBRANCH   2   3
ENDBRANCH   1   2
BRANCH   1  19
ATOM     19  O   UNL     1       2.933   3.996   0.522  1.00  0.00    -0.376 OA
BRANCH  19  20
ATOM     20  C   UNL     1       4.202   4.283   1.109  1.00  0.00     0.202 C 
BRANCH  20  21
ATOM     21  C   UNL     1       4.319   4.425   2.637  1.00  0.00     0.261 C 
BRANCH  21  22
ATOM     22  O   UNL     1       4.026   3.216   3.377  1.00  0.00    -0.460 OA
BRANCH  22  23
ATOM     23  C   UNL     1       3.049   3.308   4.301  1.00  0.00     0.338 C 
ATOM     24  O   UNL     1       2.389   4.301   4.592  1.00  0.00    -0.246 OA
BRANCH  23  25
ATOM     25  C   UNL     1       2.746   1.985   4.875  1.00  0.00     0.060 A 
ATOM     26  C   UNL     1       1.537   1.359   4.536  1.00  0.00     0.016 A 
ATOM     27  C   UNL     1       3.570   1.432   5.860  1.00  0.00     0.016 A 
ATOM     28  C   UNL     1       1.148   0.186   5.184  1.00  0.00     0.010 A 
ATOM     29  C   UNL     1       3.163   0.269   6.526  1.00  0.00     0.010 A 
ATOM     30  C   UNL     1       1.936  -0.344   6.213  1.00  0.00    -0.014 A 
BRANCH  30  31
ATOM     31  C   UNL     1       1.378  -1.418   7.076  1.00  0.00     0.031 A 
ATOM     32  C   UNL     1       0.658  -1.028   8.341  1.00  0.00     0.074 A 
ATOM     33  C   UNL     1       1.457  -2.716   6.728  1.00  0.00     0.049 A 
ATOM     34  N   UNL     1       0.051  -1.789   9.216  1.00  0.00    -0.248 NA
ATOM     35  C   UNL     1       0.611   0.410   8.659  1.00  0.00     0.031 C 
ATOM     36  C   UNL     1       2.089  -3.232   5.516  1.00  0.00     0.029 A 
ATOM     37  N   UNL     1       0.990  -3.840   7.369  1.00  0.00    -0.354 N 
ATOM     38  C   UNL     1      -0.457  -0.925  10.178  1.00  0.00     0.074 A 
ATOM     39  C   UNL     1      -0.060   0.414   9.802  1.00  0.00     0.031 C 
ATOM     40  C   UNL     1       1.974  -4.573   5.502  1.00  0.00     0.029 A 
ATOM     41  C   UNL     1       1.278  -5.012   6.712  1.00  0.00     0.049 A 
ATOM     42  H   UNL     1       0.496  -3.807   8.219  1.00  0.00     0.167 HD
ATOM     43  C   UNL     1      -1.201  -1.216  11.270  1.00  0.00     0.031 A 
ATOM     44  C   UNL     1       1.019  -6.292   7.051  1.00  0.00     0.031 A 
ATOM     45  C   UNL     1      -1.599  -2.541  11.655  1.00  0.00     0.049 A 
ATOM     46  C   UNL     1       0.268  -6.592   8.325  1.00  0.00     0.074 A 
ATOM     47  C   UNL     1      -2.387  -2.919  12.729  1.00  0.00     0.029 A 
ATOM     48  N   UNL     1      -1.234  -3.700  10.994  1.00  0.00    -0.354 N 
ATOM     49  N   UNL     1      -0.266  -5.760   9.185  1.00  0.00    -0.248 NA
ATOM     50  C   UNL     1       0.083  -8.011   8.675  1.00  0.00     0.031 C 
ATOM     51  C   UNL     1      -2.446  -4.313  12.755  1.00  0.00     0.029 A 
ATOM     52  C   UNL     1      -1.742  -4.798  11.666  1.00  0.00     0.049 A 
ATOM     53  H   UNL     1      -0.696  -3.738  10.171  1.00  0.00     0.167 HD
ATOM     54  C   UNL     1      -0.863  -6.551  10.161  1.00  0.00     0.074 A 
ATOM     55  C   UNL     1      -0.646  -7.929   9.780  1.00  0.00     0.031 C 
ATOM     56  C   UNL     1      -1.526  -6.167  11.278  1.00  0.00     0.031 A 
BRANCH  43  57
ATOM     57  C   UNL     1      -1.641  -0.081  12.148  1.00  0.00    -0.014 A 
ATOM     58  C   UNL     1      -2.690   0.764  11.758  1.00  0.00     0.009 A 
ATOM     59  C   UNL     1      -1.076   0.071  13.424  1.00  0.00     0.009 A 
ATOM     60  C   UNL     1      -3.162   1.747  12.630  1.00  0.00     0.001 A 
ATOM     61  C   UNL     1      -1.564   1.040  14.301  1.00  0.00     0.001 A 
ATOM     62  C   UNL     1      -2.606   1.878  13.903  1.00  0.00     0.000 A 
ENDBRANCH  43  57
BRANCH  44  63
ATOM     63  C   UNL     1       1.497  -7.409   6.191  1.00  0.00    -0.014 A 
ATOM     64  C   UNL     1       0.588  -8.233   5.510  1.00  0.00     0.009 A 
ATOM     65  C   UNL     1       2.869  -7.690   6.091  1.00  0.00     0.009 A 
ATOM     66  C   UNL     1       1.040  -9.331   4.773  1.00  0.00     0.001 A 
ATOM     67  C   UNL     1       3.321  -8.770   5.329  1.00  0.00     0.001 A 
ATOM     68  C   UNL     1       2.406  -9.597   4.681  1.00  0.00     0.000 A 
ENDBRANCH  44  63
BRANCH  56  69
ATOM     69  C   UNL     1      -2.073  -7.233  12.185  1.00  0.00    -0.014 A 
ATOM     70  C   UNL     1      -1.221  -7.967  13.023  1.00  0.00     0.009 A 
ATOM     71  C   UNL     1      -3.461  -7.417  12.293  1.00  0.00     0.009 A 
ATOM     72  C   UNL     1      -1.748  -8.869  13.950  1.00  0.00     0.001 A 
ATOM     73  C   UNL     1      -3.986  -8.299  13.239  1.00  0.00     0.001 A 
ATOM     74  C   UNL     1      -3.130  -9.025  14.065  1.00  0.00     0.000 A 
ENDBRANCH  56  69
ENDBRANCH  30  31
ENDBRANCH  23  25
ENDBRANCH  22  23
ENDBRANCH  21  22
ENDBRANCH  20  21
ENDBRANCH  19  20
ENDBRANCH   1  19
TORSDOF 18
