REMARK SMILES CC(C)C[C@H](NC(=O)[C@H]1CCCCC[C@H]1[NH3+])C(=O)OCCOCCOCCOC(=O)c1ccc(-c2c3nc(c(-c4ccccc4)c4ccc([nH]4)c(-c4ccccc4)c4nc(c(-c5ccccc5)c5ccc2[nH]5)C=C4)C=C3)cc1
REMARK SMILES IDX 22 1 21 2 20 3 19 4 17 5 18 6 5 7 4 8 2 9 1 10 3 11 6 12
REMARK SMILES IDX 7 13 8 15 9 16 10 17 11 18 12 19 15 21 14 22 13 23 16 25
REMARK SMILES IDX 23 29 24 30 25 31 26 32 27 33 28 34 29 35 30 36 31 37 32 38
REMARK SMILES IDX 78 39 33 40 77 41 34 42 35 43 36 44 71 45 37 46 76 47 70 48
REMARK SMILES IDX 72 49 38 50 75 51 69 52 68 53 39 55 61 56 46 57 60 58 47 59
REMARK SMILES IDX 50 60 59 61 73 62 48 63 49 64 58 66 74 67 51 68 40 69 41 70
REMARK SMILES IDX 45 71 42 72 44 73 43 74 62 75 63 76 67 77 64 78 66 79 65 80
REMARK SMILES IDX 52 81 53 82 57 83 54 84 56 85 55 86
REMARK H PARENT 6 14 16 26 16 27 16 28 72 54 50 65
REMARK Flexibility Score: 90.00
ROOT
ATOM      1  O   UNL     1      -4.978   1.454  -0.989  1.00  0.00    -0.376 OA
ENDROOT
BRANCH   1   2
ATOM      2  C   UNL     1      -3.853   1.001  -0.238  1.00  0.00     0.202 C 
BRANCH   2   3
ATOM      3  C   UNL     1      -3.781   1.497   1.205  1.00  0.00     0.261 C 
BRANCH   3   4
ATOM      4  O   UNL     1      -4.801   0.829   1.972  1.00  0.00    -0.462 OA
BRANCH   4   5
ATOM      5  C   UNL     1      -4.970   1.217   3.250  1.00  0.00     0.328 C 
ATOM      6  O   UNL     1      -4.332   2.139   3.748  1.00  0.00    -0.250 OA
BRANCH   5   7
ATOM      7  C   UNL     1      -6.171   0.499   3.957  1.00  0.00     0.192 C 
BRANCH   7   8
ATOM      8  C   UNL     1      -6.016   0.731   5.474  1.00  0.00     0.040 C 
BRANCH   8   9
ATOM      9  C   UNL     1      -7.090   0.345   6.507  1.00  0.00    -0.015 C 
ATOM     10  C   UNL     1      -7.968  -0.857   6.206  1.00  0.00     0.007 C 
ATOM     11  C   UNL     1      -6.374   0.133   7.849  1.00  0.00     0.007 C 
ENDBRANCH   8   9
ENDBRANCH   7   8
BRANCH   7  12
ATOM     12  N   UNL     1      -6.817  -0.775   3.487  1.00  0.00    -0.342 N 
ATOM     13  C   UNL     1      -6.799  -2.113   3.349  1.00  0.00     0.229 C 
ATOM     14  H   UNL     1      -7.669  -0.491   3.083  1.00  0.00     0.164 HD
ATOM     15  O   UNL     1      -7.924  -2.522   2.988  1.00  0.00    -0.275 OA
BRANCH  13  16
ATOM     16  C   UNL     1      -5.716  -3.208   3.510  1.00  0.00     0.136 C 
BRANCH  16  17
ATOM     17  C   UNL     1      -4.712  -3.318   2.358  1.00  0.00     0.020 C 
BRANCH  17  18
ATOM     18  C   UNL     1      -3.855  -2.101   2.145  1.00  0.00     0.001 C 
BRANCH  18  19
ATOM     19  C   UNL     1      -2.803  -1.716   3.177  1.00  0.00     0.000 CG0
ATOM     20  G   UNL     1      -2.832  -2.270   4.598  1.00  0.00     0.000 G0
ENDBRANCH  18  19
ENDBRANCH  17  18
ENDBRANCH  16  17
BRANCH  16  21
ATOM     21  C   UNL     1      -5.058  -3.473   4.867  1.00  0.00     0.193 C 
BRANCH  21  22
ATOM     22  C   UNL     1      -4.168  -2.332   5.323  1.00  0.00     0.066 C 
BRANCH  22  23
ATOM     23  C   UNL     1      -2.832  -2.270   4.598  1.00  0.00     0.006 CG0
ATOM     24  G   UNL     1      -2.803  -1.716   3.177  1.00  0.00     0.000 G0
ENDBRANCH  22  23
ENDBRANCH  21  22
BRANCH  21  25
ATOM     25  N   UNL     1      -6.013  -3.885   5.901  1.00  0.00    -0.354 N 
ATOM     26  H   UNL     1      -6.658  -3.119   6.092  1.00  0.00     0.344 HD
ATOM     27  H   UNL     1      -5.508  -4.126   6.754  1.00  0.00     0.344 HD
ATOM     28  H   UNL     1      -6.537  -4.698   5.575  1.00  0.00     0.344 HD
ENDBRANCH  21  25
ENDBRANCH  16  21
ENDBRANCH  13  16
ENDBRANCH   7  12
ENDBRANCH   5   7
ENDBRANCH   4   5
ENDBRANCH   3   4
ENDBRANCH   2   3
ENDBRANCH   1   2
BRANCH   1  29
ATOM     29  C   UNL     1      -6.268   1.325  -0.407  1.00  0.00     0.188 C 
BRANCH  29  30
ATOM     30  C   UNL     1      -6.738  -0.057   0.093  1.00  0.00     0.188 C 
BRANCH  30  31
ATOM     31  O   UNL     1      -6.071  -1.236  -0.313  1.00  0.00    -0.376 OA
BRANCH  31  32
ATOM     32  C   UNL     1      -5.912  -1.465  -1.706  1.00  0.00     0.202 C 
BRANCH  32  33
ATOM     33  C   UNL     1      -7.182  -1.531  -2.563  1.00  0.00     0.261 C 
BRANCH  33  34
ATOM     34  O   UNL     1      -7.928  -0.301  -2.530  1.00  0.00    -0.460 OA
BRANCH  34  35
ATOM     35  C   UNL     1      -9.204  -0.399  -2.058  1.00  0.00     0.338 C 
ATOM     36  O   UNL     1      -9.820  -1.399  -1.793  1.00  0.00    -0.246 OA
BRANCH  35  37
ATOM     37  C   UNL     1      -9.653   0.963  -1.673  1.00  0.00     0.060 A 
ATOM     38  C   UNL     1     -10.080   1.171  -0.352  1.00  0.00     0.016 A 
ATOM     39  C   UNL     1      -9.613   2.022  -2.579  1.00  0.00     0.016 A 
ATOM     40  C   UNL     1     -10.474   2.442   0.067  1.00  0.00     0.010 A 
ATOM     41  C   UNL     1     -10.037   3.288  -2.168  1.00  0.00     0.010 A 
ATOM     42  C   UNL     1     -10.487   3.499  -0.851  1.00  0.00    -0.014 A 
BRANCH  42  43
ATOM     43  C   UNL     1     -11.153   4.777  -0.509  1.00  0.00     0.031 A 
ATOM     44  C   UNL     1     -12.596   4.946  -0.895  1.00  0.00     0.074 A 
ATOM     45  C   UNL     1     -10.492   5.777   0.102  1.00  0.00     0.049 A 
ATOM     46  N   UNL     1     -13.358   6.005  -0.813  1.00  0.00    -0.248 NA
ATOM     47  C   UNL     1     -13.265   3.759  -1.454  1.00  0.00     0.031 C 
ATOM     48  C   UNL     1      -9.109   5.721   0.572  1.00  0.00     0.029 A 
ATOM     49  N   UNL     1     -10.903   7.050   0.412  1.00  0.00    -0.354 N 
ATOM     50  C   UNL     1     -14.591   5.616  -1.323  1.00  0.00     0.074 A 
ATOM     51  C   UNL     1     -14.472   4.233  -1.725  1.00  0.00     0.031 C 
ATOM     52  C   UNL     1      -8.777   6.918   1.090  1.00  0.00     0.029 A 
ATOM     53  C   UNL     1      -9.910   7.832   0.951  1.00  0.00     0.049 A 
ATOM     54  H   UNL     1     -11.821   7.371   0.263  1.00  0.00     0.167 HD
ATOM     55  C   UNL     1     -15.720   6.349  -1.450  1.00  0.00     0.031 A 
ATOM     56  C   UNL     1      -9.909   9.144   1.259  1.00  0.00     0.031 A 
ATOM     57  C   UNL     1     -15.835   7.730  -1.071  1.00  0.00     0.049 A 
ATOM     58  C   UNL     1     -11.155   9.961   1.019  1.00  0.00     0.074 A 
ATOM     59  C   UNL     1     -16.944   8.554  -1.146  1.00  0.00     0.029 A 
ATOM     60  N   UNL     1     -14.799   8.493  -0.557  1.00  0.00    -0.354 N 
ATOM     61  N   UNL     1     -12.325   9.578   0.567  1.00  0.00    -0.248 NA
ATOM     62  C   UNL     1     -11.076  11.397   1.333  1.00  0.00     0.031 C 
ATOM     63  C   UNL     1     -16.562   9.834  -0.734  1.00  0.00     0.029 A 
ATOM     64  C   UNL     1     -15.234   9.790  -0.343  1.00  0.00     0.049 A 
ATOM     65  H   UNL     1     -13.891   8.163  -0.372  1.00  0.00     0.167 HD
ATOM     66  C   UNL     1     -13.125  10.715   0.569  1.00  0.00     0.074 A 
ATOM     67  C   UNL     1     -12.315  11.798   1.085  1.00  0.00     0.031 C 
ATOM     68  C   UNL     1     -14.415  10.854   0.176  1.00  0.00     0.031 A 
BRANCH  55  69
ATOM     69  C   UNL     1     -16.915   5.681  -2.066  1.00  0.00    -0.014 A 
ATOM     70  C   UNL     1     -17.654   4.717  -1.363  1.00  0.00     0.009 A 
ATOM     71  C   UNL     1     -17.334   6.058  -3.352  1.00  0.00     0.009 A 
ATOM     72  C   UNL     1     -18.778   4.128  -1.947  1.00  0.00     0.001 A 
ATOM     73  C   UNL     1     -18.472   5.487  -3.921  1.00  0.00     0.001 A 
ATOM     74  C   UNL     1     -19.190   4.518  -3.221  1.00  0.00     0.000 A 
ENDBRANCH  55  69
BRANCH  56  75
ATOM     75  C   UNL     1      -8.679   9.800   1.782  1.00  0.00    -0.014 A 
ATOM     76  C   UNL     1      -8.639  10.314   3.087  1.00  0.00     0.009 A 
ATOM     77  C   UNL     1      -7.558   9.970   0.954  1.00  0.00     0.009 A 
ATOM     78  C   UNL     1      -7.518  11.016   3.539  1.00  0.00     0.001 A 
ATOM     79  C   UNL     1      -6.426  10.644   1.419  1.00  0.00     0.001 A 
ATOM     80  C   UNL     1      -6.413  11.178   2.706  1.00  0.00     0.000 A 
ENDBRANCH  56  75
BRANCH  68  81
ATOM     81  C   UNL     1     -15.043  12.212   0.323  1.00  0.00    -0.014 A 
ATOM     82  C   UNL     1     -14.686  13.276  -0.520  1.00  0.00     0.009 A 
ATOM     83  C   UNL     1     -16.043  12.414   1.288  1.00  0.00     0.009 A 
ATOM     84  C   UNL     1     -15.295  14.524  -0.376  1.00  0.00     0.001 A 
ATOM     85  C   UNL     1     -16.672  13.654   1.408  1.00  0.00     0.001 A 
ATOM     86  C   UNL     1     -16.291  14.710   0.583  1.00  0.00     0.000 A 
ENDBRANCH  68  81
ENDBRANCH  42  43
ENDBRANCH  35  37
ENDBRANCH  34  35
ENDBRANCH  33  34
ENDBRANCH  32  33
ENDBRANCH  31  32
ENDBRANCH  30  31
ENDBRANCH  29  30
ENDBRANCH   1  29
TORSDOF 22
