REMARK SMILES COc1ccc2c(C[NH2+]Cc3cccs3)c(C(=O)OCCOCCOCCOC(=O)c3ccc(-c4c5nc(c(-c6ccccc6)c6ccc([nH]6)c(-c6ccccc6)c6nc(c(-c7ccccc7)c7ccc4[nH]7)C=C6)C=C5)cc3)[nH]c2c1
REMARK SMILES IDX 23 1 22 2 21 3 20 4 19 5 17 6 18 7 16 8 3 9 4 10 81 11 5 12
REMARK SMILES IDX 80 13 6 14 79 15 7 16 2 18 1 19 8 20 9 21 10 24 11 25 12 26
REMARK SMILES IDX 15 27 13 28 14 29 24 30 25 31 26 32 27 33 28 34 29 35 30 36
REMARK SMILES IDX 31 37 32 38 78 39 33 40 77 41 34 42 35 43 36 44 71 45 37 46
REMARK SMILES IDX 76 47 70 48 72 49 38 50 75 51 69 52 68 53 39 55 61 56 46 57
REMARK SMILES IDX 60 58 47 59 50 60 59 61 73 62 48 63 49 64 58 66 74 67 51 68
REMARK SMILES IDX 40 69 41 70 45 71 42 72 44 73 43 74 62 75 63 76 67 77 64 78
REMARK SMILES IDX 66 79 65 80 52 81 53 82 57 83 54 84 56 85 55 86
REMARK H PARENT 79 17 9 22 9 23 72 54 50 65
REMARK Flexibility Score: inf
ROOT
ATOM      1  C   UNL     1       0.264   3.280   9.131  1.00  0.00     0.188 C 
ENDROOT
BRANCH   1   2
ATOM      2  O   UNL     1      -0.526   4.240   9.822  1.00  0.00    -0.376 OA
BRANCH   2   3
ATOM      3  C   UNL     1      -0.373   5.588   9.398  1.00  0.00     0.202 C 
BRANCH   3   4
ATOM      4  C   UNL     1      -1.209   5.917   8.157  1.00  0.00     0.261 C 
BRANCH   4   5
ATOM      5  O   UNL     1      -0.820   5.197   6.975  1.00  0.00    -0.459 OA
BRANCH   5   6
ATOM      6  C   UNL     1       0.419   5.484   6.481  1.00  0.00     0.355 C 
ATOM      7  O   UNL     1       1.140   6.364   6.903  1.00  0.00    -0.244 OA
BRANCH   6   8
ATOM      8  C   UNL     1       0.723   4.520   5.444  1.00  0.00     0.134 A 
ATOM      9  C   UNL     1       0.659   1.692   1.775  1.00  0.00     0.120 A 
ATOM     10  C   UNL     1       1.957   1.432   2.209  1.00  0.00     0.047 A 
ATOM     11  C   UNL     1      -0.144   2.613   2.464  1.00  0.00     0.073 A 
ATOM     12  C   UNL     1       2.469   2.062   3.350  1.00  0.00     0.015 A 
ATOM     13  C   UNL     1       0.388   3.243   3.598  1.00  0.00     0.050 A 
ATOM     14  C   UNL     1       1.672   2.982   4.061  1.00  0.00     0.009 A 
ATOM     15  N   UNL     1      -0.170   4.157   4.458  1.00  0.00    -0.349 N 
ATOM     16  C   UNL     1       1.862   3.739   5.264  1.00  0.00     0.046 A 
ATOM     17  H   UNL     1      -1.087   4.507   4.380  1.00  0.00     0.167 HD
BRANCH   9  18
ATOM     18  O   UNL     1       0.060   1.118   0.684  1.00  0.00    -0.497 OA
ATOM     19  C   UNL     1       0.768   0.057   0.052  1.00  0.00     0.278 C 
ENDBRANCH   9  18
BRANCH  16  20
ATOM     20  C   UNL     1       3.033   3.579   6.179  1.00  0.00     0.300 C 
BRANCH  20  21
ATOM     21  N   UNL     1       3.751   4.831   6.309  1.00  0.00    -0.338 N 
ATOM     22  H   UNL     1       3.140   5.517   6.753  1.00  0.00     0.346 HD
ATOM     23  H   UNL     1       4.026   5.136   5.375  1.00  0.00     0.346 HD
BRANCH  21  24
ATOM     24  C   UNL     1       4.960   4.682   7.114  1.00  0.00     0.308 C 
BRANCH  24  25
ATOM     25  C   UNL     1       6.150   4.252   6.302  1.00  0.00     0.059 A 
ATOM     26  C   UNL     1       7.149   5.056   5.785  1.00  0.00     0.021 A 
ATOM     27  S   UNL     1       6.438   2.600   5.936  1.00  0.00    -0.143 S 
ATOM     28  C   UNL     1       8.144   4.311   5.090  1.00  0.00     0.012 A 
ATOM     29  C   UNL     1       7.880   2.961   5.101  1.00  0.00     0.065 A 
ENDBRANCH  24  25
ENDBRANCH  21  24
ENDBRANCH  20  21
ENDBRANCH  16  20
ENDBRANCH   6   8
ENDBRANCH   5   6
ENDBRANCH   4   5
ENDBRANCH   3   4
ENDBRANCH   2   3
ENDBRANCH   1   2
BRANCH   1  30
ATOM     30  C   UNL     1      -0.545   2.327   8.232  1.00  0.00     0.188 C 
BRANCH  30  31
ATOM     31  O   UNL     1      -1.904   2.041   8.548  1.00  0.00    -0.376 OA
BRANCH  31  32
ATOM     32  C   UNL     1      -2.286   1.906   9.909  1.00  0.00     0.202 C 
BRANCH  32  33
ATOM     33  C   UNL     1      -1.751   0.686  10.661  1.00  0.00     0.261 C 
BRANCH  33  34
ATOM     34  O   UNL     1      -0.316   0.625  10.698  1.00  0.00    -0.460 OA
BRANCH  34  35
ATOM     35  C   UNL     1       0.232  -0.418  10.032  1.00  0.00     0.338 C 
ATOM     36  O   UNL     1      -0.349  -1.316   9.447  1.00  0.00    -0.246 OA
BRANCH  35  37
ATOM     37  C   UNL     1       1.699  -0.272   9.986  1.00  0.00     0.060 A 
ATOM     38  C   UNL     1       2.322  -0.316   8.732  1.00  0.00     0.016 A 
ATOM     39  C   UNL     1       2.459  -0.203  11.155  1.00  0.00     0.016 A 
ATOM     40  C   UNL     1       3.713  -0.333   8.646  1.00  0.00     0.010 A 
ATOM     41  C   UNL     1       3.855  -0.243  11.068  1.00  0.00     0.010 A 
ATOM     42  C   UNL     1       4.485  -0.344   9.816  1.00  0.00    -0.014 A 
BRANCH  42  43
ATOM     43  C   UNL     1       5.938  -0.621   9.724  1.00  0.00     0.031 A 
ATOM     44  C   UNL     1       6.410  -2.047   9.765  1.00  0.00     0.074 A 
ATOM     45  C   UNL     1       6.824   0.378   9.582  1.00  0.00     0.049 A 
ATOM     46  N   UNL     1       7.627  -2.519   9.669  1.00  0.00    -0.248 NA
ATOM     47  C   UNL     1       5.374  -3.076   9.950  1.00  0.00     0.031 C 
ATOM     48  C   UNL     1       6.489   1.798   9.520  1.00  0.00     0.029 A 
ATOM     49  N   UNL     1       8.188   0.345   9.441  1.00  0.00    -0.354 N 
ATOM     50  C   UNL     1       7.506  -3.896   9.806  1.00  0.00     0.074 A 
ATOM     51  C   UNL     1       6.100  -4.184   9.988  1.00  0.00     0.031 C 
ATOM     52  C   UNL     1       7.615   2.500   9.309  1.00  0.00     0.029 A 
ATOM     53  C   UNL     1       8.750   1.582   9.244  1.00  0.00     0.049 A 
ATOM     54  H   UNL     1       8.714  -0.487   9.476  1.00  0.00     0.167 HD
ATOM     55  C   UNL     1       8.481  -4.836   9.800  1.00  0.00     0.031 A 
ATOM     56  C   UNL     1      10.033   1.931   9.029  1.00  0.00     0.031 A 
ATOM     57  C   UNL     1       9.882  -4.554   9.644  1.00  0.00     0.049 A 
ATOM     58  C   UNL     1      11.097   0.867   9.023  1.00  0.00     0.074 A 
ATOM     59  C   UNL     1      10.945  -5.440   9.639  1.00  0.00     0.029 A 
ATOM     60  N   UNL     1      10.414  -3.287   9.471  1.00  0.00    -0.354 N 
ATOM     61  N   UNL     1      10.968  -0.433   9.136  1.00  0.00    -0.248 NA
ATOM     62  C   UNL     1      12.488   1.323   8.877  1.00  0.00     0.031 C 
ATOM     63  C   UNL     1      12.127  -4.702   9.505  1.00  0.00     0.029 A 
ATOM     64  C   UNL     1      11.793  -3.363   9.380  1.00  0.00     0.049 A 
ATOM     65  H   UNL     1       9.889  -2.455   9.420  1.00  0.00     0.167 HD
ATOM     66  C   UNL     1      12.257  -0.948   9.078  1.00  0.00     0.074 A 
ATOM     67  C   UNL     1      13.151   0.174   8.883  1.00  0.00     0.031 C 
ATOM     68  C   UNL     1      12.666  -2.235   9.193  1.00  0.00     0.031 A 
BRANCH  55  69
ATOM     69  C   UNL     1       8.059  -6.257  10.031  1.00  0.00    -0.014 A 
ATOM     70  C   UNL     1       7.424  -7.003   9.026  1.00  0.00     0.009 A 
ATOM     71  C   UNL     1       8.312  -6.861  11.272  1.00  0.00     0.009 A 
ATOM     72  C   UNL     1       7.023  -8.318   9.272  1.00  0.00     0.001 A 
ATOM     73  C   UNL     1       7.929  -8.182  11.508  1.00  0.00     0.001 A 
ATOM     74  C   UNL     1       7.278  -8.906  10.511  1.00  0.00     0.000 A 
ENDBRANCH  55  69
BRANCH  56  75
ATOM     75  C   UNL     1      10.395   3.355   8.800  1.00  0.00    -0.014 A 
ATOM     76  C   UNL     1      10.843   3.777   7.538  1.00  0.00     0.009 A 
ATOM     77  C   UNL     1      10.319   4.293   9.840  1.00  0.00     0.009 A 
ATOM     78  C   UNL     1      11.223   5.105   7.328  1.00  0.00     0.001 A 
ATOM     79  C   UNL     1      10.675   5.625   9.620  1.00  0.00     0.001 A 
ATOM     80  C   UNL     1      11.133   6.028   8.367  1.00  0.00     0.000 A 
ENDBRANCH  56  75
BRANCH  68  81
ATOM     81  C   UNL     1      14.143  -2.497   9.110  1.00  0.00    -0.014 A 
ATOM     82  C   UNL     1      14.992  -2.181  10.183  1.00  0.00     0.009 A 
ATOM     83  C   UNL     1      14.683  -3.109   7.970  1.00  0.00     0.009 A 
ATOM     84  C   UNL     1      16.359  -2.450  10.102  1.00  0.00     0.001 A 
ATOM     85  C   UNL     1      16.047  -3.397   7.901  1.00  0.00     0.001 A 
ATOM     86  C   UNL     1      16.885  -3.062   8.964  1.00  0.00     0.000 A 
ENDBRANCH  68  81
ENDBRANCH  42  43
ENDBRANCH  35  37
ENDBRANCH  34  35
ENDBRANCH  33  34
ENDBRANCH  32  33
ENDBRANCH  31  32
ENDBRANCH  30  31
ENDBRANCH   1  30
TORSDOF 22
