REMARK SMILES Cc1cccc(C(=O)N2CCC[C@H]2c2nnc(SCC(=O)Nc3ccc(C(=O)OCCOCCOCCOC(=O)c4ccc(-c5c6nc(c(-c7ccccc7)c7ccc([nH]7)c(-c7ccccc7)c7nc(c(-c8ccccc8)c8ccc5[nH]8)C=C7)C=C6)cc4)cc3)n2C)c1
REMARK SMILES IDX 31 1 30 2 29 3 27 4 28 5 26 6 23 7 24 8 90 9 25 10 89 11
REMARK SMILES IDX 22 12 20 13 21 14 19 16 18 17 17 18 14 19 15 20 91 21 16 22
REMARK SMILES IDX 92 23 13 24 9 25 10 26 11 27 12 28 7 29 8 30 6 31 1 32 2 33
REMARK SMILES IDX 3 34 93 35 4 36 5 37 32 38 33 39 34 40 35 41 36 42 37 43
REMARK SMILES IDX 38 44 39 45 40 46 41 47 42 48 88 49 43 50 87 51 44 52 45 53
REMARK SMILES IDX 46 54 81 55 47 56 86 57 80 58 82 59 48 60 85 61 79 62 78 63
REMARK SMILES IDX 49 65 71 66 56 67 70 68 57 69 60 70 69 71 83 72 58 73 59 74
REMARK SMILES IDX 68 76 84 77 61 78 50 79 51 80 55 81 52 82 54 83 53 84 72 85
REMARK SMILES IDX 73 86 77 87 74 88 76 89 75 90 62 91 63 92 67 93 64 94 66 95
REMARK SMILES IDX 65 96
REMARK H PARENT 22 15 82 64 60 75
REMARK Flexibility Score: inf
ROOT
ATOM      1  C   UNL     1     -12.573   7.010  -0.968  1.00  0.00     0.202 C 
ENDROOT
BRANCH   1   2
ATOM      2  C   UNL     1     -10.870   7.315  -0.928  1.00  0.00     0.261 C 
BRANCH   2   3
ATOM      3  O   UNL     1      -9.674   6.450  -0.201  1.00  0.00    -0.460 OA
BRANCH   3   4
ATOM      4  C   UNL     1      -8.947   6.279   0.972  1.00  0.00     0.338 C 
ATOM      5  O   UNL     1      -8.774   7.080   1.881  1.00  0.00    -0.246 OA
BRANCH   4   6
ATOM      6  C   UNL     1      -8.227   4.980   1.240  1.00  0.00     0.060 A 
ATOM      7  C   UNL     1      -6.281   3.349   2.448  1.00  0.00     0.041 A 
ATOM      8  C   UNL     1      -6.007   4.015   1.254  1.00  0.00     0.027 A 
ATOM      9  C   UNL     1      -7.574   3.326   2.953  1.00  0.00     0.027 A 
ATOM     10  C   UNL     1      -6.968   4.851   0.669  1.00  0.00     0.018 A 
ATOM     11  C   UNL     1      -8.533   4.169   2.371  1.00  0.00     0.018 A 
BRANCH   7  12
ATOM     12  N   UNL     1      -5.202   2.945   3.246  1.00  0.00    -0.325 N 
ATOM     13  C   UNL     1      -4.661   3.725   4.249  1.00  0.00     0.234 C 
ATOM     14  O   UNL     1      -3.606   3.367   4.785  1.00  0.00    -0.274 OA
ATOM     15  H   UNL     1      -4.809   2.057   3.083  1.00  0.00     0.169 HD
BRANCH  13  16
ATOM     16  C   UNL     1      -5.350   5.011   4.693  1.00  0.00     0.178 C 
BRANCH  16  17
ATOM     17  S   UNL     1      -4.739   6.570   3.990  1.00  0.00    -0.076 SA
BRANCH  17  18
ATOM     18  C   UNL     1      -3.811   6.178   2.594  1.00  0.00     0.191 A 
ATOM     19  C   UNL     1      -2.171   5.513   1.303  1.00  0.00     0.156 A 
ATOM     20  N   UNL     1      -3.101   6.049   0.536  1.00  0.00    -0.132 NA
ATOM     21  N   UNL     1      -2.553   5.652   2.620  1.00  0.00    -0.307 N 
ATOM     22  N   UNL     1      -4.117   6.497   1.355  1.00  0.00    -0.123 NA
ATOM     23  C   UNL     1      -1.721   5.364   3.760  1.00  0.00     0.154 C 
BRANCH  19  24
ATOM     24  C   UNL     1      -0.880   4.895   0.894  1.00  0.00     0.154 C 
ATOM     25  N   UNL     1      -1.016   3.785  -0.043  1.00  0.00    -0.328 N 
ATOM     26  C   UNL     1      -0.206   4.023  -1.233  1.00  0.00     0.120 C 
ATOM     27  C   UNL     1       0.855   5.000  -0.747  1.00  0.00     0.024 C 
ATOM     28  C   UNL     1       0.059   5.888   0.203  1.00  0.00     0.035 C 
BRANCH  25  29
ATOM     29  C   UNL     1      -1.590   2.600   0.389  1.00  0.00     0.254 C 
ATOM     30  O   UNL     1      -2.512   2.556   1.203  1.00  0.00    -0.269 OA
BRANCH  29  31
ATOM     31  C   UNL     1      -0.956   1.310   0.014  1.00  0.00     0.040 A 
ATOM     32  C   UNL     1       2.539  -0.212   0.013  1.00  0.00     0.044 C 
ATOM     33  C   UNL     1       1.048  -0.074  -0.079  1.00  0.00    -0.050 A 
ATOM     34  C   UNL     1       0.240  -1.202  -0.259  1.00  0.00     0.003 A 
ATOM     35  C   UNL     1       0.439   1.176   0.079  1.00  0.00     0.017 A 
ATOM     36  C   UNL     1      -1.152  -1.078  -0.303  1.00  0.00     0.001 A 
ATOM     37  C   UNL     1      -1.752   0.176  -0.166  1.00  0.00     0.014 A 
ENDBRANCH  29  31
ENDBRANCH  25  29
ENDBRANCH  19  24
ENDBRANCH  17  18
ENDBRANCH  16  17
ENDBRANCH  13  16
ENDBRANCH   7  12
ENDBRANCH   4   6
ENDBRANCH   3   4
ENDBRANCH   2   3
ENDBRANCH   1   2
BRANCH   1  38
ATOM     38  O   UNL     1     -13.260   5.926  -0.341  1.00  0.00    -0.376 OA
BRANCH  38  39
ATOM     39  C   UNL     1     -13.939   4.821  -0.961  1.00  0.00     0.188 C 
BRANCH  39  40
ATOM     40  C   UNL     1     -13.674   4.380  -2.392  1.00  0.00     0.188 C 
BRANCH  40  41
ATOM     41  O   UNL     1     -12.383   4.787  -2.795  1.00  0.00    -0.376 OA
BRANCH  41  42
ATOM     42  C   UNL     1     -12.008   4.338  -4.089  1.00  0.00     0.202 C 
BRANCH  42  43
ATOM     43  C   UNL     1     -11.673   2.832  -4.150  1.00  0.00     0.261 C 
BRANCH  43  44
ATOM     44  O   UNL     1     -10.740   2.472  -3.102  1.00  0.00    -0.460 OA
BRANCH  44  45
ATOM     45  C   UNL     1     -11.175   1.668  -2.077  1.00  0.00     0.338 C 
ATOM     46  O   UNL     1     -11.887   0.680  -2.220  1.00  0.00    -0.246 OA
BRANCH  45  47
ATOM     47  C   UNL     1     -10.894   2.325  -0.748  1.00  0.00     0.060 A 
ATOM     48  C   UNL     1     -11.487   2.000   0.483  1.00  0.00     0.016 A 
ATOM     49  C   UNL     1     -10.390   3.575  -0.820  1.00  0.00     0.016 A 
ATOM     50  C   UNL     1     -11.713   3.004   1.530  1.00  0.00     0.010 A 
ATOM     51  C   UNL     1     -10.975   4.483   0.065  1.00  0.00     0.010 A 
ATOM     52  C   UNL     1     -11.527   4.373   1.330  1.00  0.00    -0.014 A 
BRANCH  52  53
ATOM     53  C   UNL     1     -12.137   5.601   2.144  1.00  0.00     0.031 A 
ATOM     54  C   UNL     1     -11.549   6.958   2.722  1.00  0.00     0.074 A 
ATOM     55  C   UNL     1     -13.454   5.521   2.446  1.00  0.00     0.049 A 
ATOM     56  N   UNL     1     -11.571   7.328   3.994  1.00  0.00    -0.248 NA
ATOM     57  C   UNL     1     -11.030   8.086   1.935  1.00  0.00     0.031 C 
ATOM     58  C   UNL     1     -14.310   6.508   3.105  1.00  0.00     0.029 A 
ATOM     59  N   UNL     1     -14.271   4.400   2.317  1.00  0.00    -0.354 N 
ATOM     60  C   UNL     1     -11.071   8.644   4.087  1.00  0.00     0.074 A 
ATOM     61  C   UNL     1     -10.589   8.983   2.807  1.00  0.00     0.031 C 
ATOM     62  C   UNL     1     -15.375   5.863   3.612  1.00  0.00     0.029 A 
ATOM     63  C   UNL     1     -15.184   4.441   3.371  1.00  0.00     0.049 A 
ATOM     64  H   UNL     1     -14.216   3.710   1.617  1.00  0.00     0.167 HD
ATOM     65  C   UNL     1     -11.241   9.561   5.084  1.00  0.00     0.031 A 
ATOM     66  C   UNL     1     -15.178   3.443   4.297  1.00  0.00     0.031 A 
ATOM     67  C   UNL     1     -12.343   9.174   5.911  1.00  0.00     0.049 A 
ATOM     68  C   UNL     1     -14.850   3.955   5.678  1.00  0.00     0.074 A 
ATOM     69  C   UNL     1     -13.693   9.455   5.803  1.00  0.00     0.029 A 
ATOM     70  N   UNL     1     -12.210   8.060   6.709  1.00  0.00    -0.354 N 
ATOM     71  N   UNL     1     -14.344   5.133   5.926  1.00  0.00    -0.248 NA
ATOM     72  C   UNL     1     -15.048   3.168   6.891  1.00  0.00     0.031 C 
ATOM     73  C   UNL     1     -14.390   8.394   6.431  1.00  0.00     0.029 A 
ATOM     74  C   UNL     1     -13.456   7.543   6.994  1.00  0.00     0.049 A 
ATOM     75  H   UNL     1     -11.356   7.690   7.029  1.00  0.00     0.167 HD
ATOM     76  C   UNL     1     -14.121   5.257   7.269  1.00  0.00     0.074 A 
ATOM     77  C   UNL     1     -14.595   4.010   7.834  1.00  0.00     0.031 C 
ATOM     78  C   UNL     1     -13.550   6.362   7.823  1.00  0.00     0.031 A 
BRANCH  65  79
ATOM     79  C   UNL     1     -10.667  10.969   4.956  1.00  0.00    -0.014 A 
ATOM     80  C   UNL     1     -11.457  12.114   5.145  1.00  0.00     0.009 A 
ATOM     81  C   UNL     1      -9.331  11.194   4.547  1.00  0.00     0.009 A 
ATOM     82  C   UNL     1     -10.990  13.397   4.803  1.00  0.00     0.001 A 
ATOM     83  C   UNL     1      -8.875  12.468   4.165  1.00  0.00     0.001 A 
ATOM     84  C   UNL     1      -9.716  13.569   4.271  1.00  0.00     0.000 A 
ENDBRANCH  65  79
BRANCH  66  85
ATOM     85  C   UNL     1     -14.841   2.088   3.747  1.00  0.00    -0.014 A 
ATOM     86  C   UNL     1     -15.613   1.606   2.662  1.00  0.00     0.009 A 
ATOM     87  C   UNL     1     -13.650   1.413   4.046  1.00  0.00     0.009 A 
ATOM     88  C   UNL     1     -15.160   0.570   1.839  1.00  0.00     0.001 A 
ATOM     89  C   UNL     1     -13.207   0.353   3.230  1.00  0.00     0.001 A 
ATOM     90  C   UNL     1     -13.948  -0.048   2.116  1.00  0.00     0.000 A 
ENDBRANCH  66  85
BRANCH  78  91
ATOM     91  C   UNL     1     -13.035   6.460   9.230  1.00  0.00    -0.014 A 
ATOM     92  C   UNL     1     -12.536   5.364   9.940  1.00  0.00     0.009 A 
ATOM     93  C   UNL     1     -12.874   7.737   9.812  1.00  0.00     0.009 A 
ATOM     94  C   UNL     1     -11.952   5.529  11.200  1.00  0.00     0.001 A 
ATOM     95  C   UNL     1     -12.244   7.911  11.043  1.00  0.00     0.001 A 
ATOM     96  C   UNL     1     -11.797   6.801  11.745  1.00  0.00     0.000 A 
ENDBRANCH  78  91
ENDBRANCH  52  53
ENDBRANCH  45  47
ENDBRANCH  44  45
ENDBRANCH  43  44
ENDBRANCH  42  43
ENDBRANCH  41  42
ENDBRANCH  40  41
ENDBRANCH  39  40
ENDBRANCH  38  39
ENDBRANCH   1  38
TORSDOF 24
