REMARK SMILES COc1ccc(-c2ccc(S(=O)(=O)NC(C)(C)C)cc2)c(C(=O)OCCOCCOCCOC(=O)c2ccc(-c3c4nc(c(-c5ccccc5)c5ccc([nH]5)c(-c5ccccc5)c5nc(c(-c6ccccc6)c6ccc3[nH]6)C=C5)C=C4)cc2)c1
REMARK SMILES IDX 28 1 27 2 26 3 25 4 24 5 22 6 23 7 21 8 3 9 4 10 84 11 5 12
REMARK SMILES IDX 6 13 2 14 1 15 7 16 8 17 20 18 9 19 19 20 10 21 11 22 12 23
REMARK SMILES IDX 13 24 14 25 15 27 16 28 17 29 18 30 29 31 30 32 31 33 32 34
REMARK SMILES IDX 33 35 34 36 35 37 36 38 37 39 83 40 38 41 82 42 39 43 40 44
REMARK SMILES IDX 41 45 76 46 42 47 81 48 75 49 77 50 43 51 80 52 74 53 73 54
REMARK SMILES IDX 44 56 66 57 51 58 65 59 52 60 55 61 64 62 78 63 53 64 54 65
REMARK SMILES IDX 63 67 79 68 56 69 45 70 46 71 50 72 47 73 49 74 48 75 67 76
REMARK SMILES IDX 68 77 72 78 69 79 71 80 70 81 57 82 58 83 62 84 59 85 61 86
REMARK SMILES IDX 60 87
REMARK H PARENT 14 26 77 55 55 66
REMARK Flexibility Score: inf
ROOT
ATOM      1  C   UNL     1       6.103   3.847   3.126  1.00  0.00     0.188 C 
ENDROOT
BRANCH   1   2
ATOM      2  O   UNL     1       7.049   2.789   2.999  1.00  0.00    -0.376 OA
BRANCH   2   3
ATOM      3  C   UNL     1       6.957   1.817   4.043  1.00  0.00     0.202 C 
BRANCH   3   4
ATOM      4  C   UNL     1       5.990   0.690   3.682  1.00  0.00     0.261 C 
BRANCH   4   5
ATOM      5  O   UNL     1       4.667   1.152   3.353  1.00  0.00    -0.460 OA
BRANCH   5   6
ATOM      6  C   UNL     1       3.782   1.352   4.360  1.00  0.00     0.338 C 
ATOM      7  O   UNL     1       4.014   1.210   5.545  1.00  0.00    -0.246 OA
BRANCH   6   8
ATOM      8  C   UNL     1       2.491   1.823   3.762  1.00  0.00     0.071 A 
ATOM      9  C   UNL     1       0.898   1.647   1.925  1.00  0.00     0.119 A 
ATOM     10  C   UNL     1       0.119   2.630   2.534  1.00  0.00     0.047 A 
ATOM     11  C   UNL     1       2.074   1.236   2.546  1.00  0.00     0.062 A 
ATOM     12  C   UNL     1       0.514   3.214   3.743  1.00  0.00     0.013 A 
ATOM     13  C   UNL     1       1.715   2.840   4.372  1.00  0.00    -0.004 A 
BRANCH   9  14
ATOM     14  O   UNL     1       0.414   1.191   0.731  1.00  0.00    -0.497 OA
ATOM     15  C   UNL     1       1.100   0.103   0.121  1.00  0.00     0.278 C 
ENDBRANCH   9  14
BRANCH  13  16
ATOM     16  C   UNL     1       2.178   3.611   5.539  1.00  0.00    -0.017 A 
ATOM     17  C   UNL     1       1.553   3.565   6.791  1.00  0.00     0.010 A 
ATOM     18  C   UNL     1       3.301   4.436   5.400  1.00  0.00     0.010 A 
ATOM     19  C   UNL     1       2.074   4.295   7.874  1.00  0.00     0.022 A 
ATOM     20  C   UNL     1       3.884   5.078   6.490  1.00  0.00     0.022 A 
ATOM     21  C   UNL     1       3.250   5.043   7.721  1.00  0.00     0.082 A 
BRANCH  21  22
ATOM     22  S   UNL     1       3.894   5.936   9.112  1.00  0.00     0.241 S 
ATOM     23  O   UNL     1       2.811   6.712   9.678  1.00  0.00    -0.207 OA
ATOM     24  O   UNL     1       4.605   4.970   9.909  1.00  0.00    -0.207 OA
BRANCH  22  25
ATOM     25  N   UNL     1       5.084   6.988   8.566  1.00  0.00    -0.206 NA
ATOM     26  H   UNL     1       5.594   6.454   7.863  1.00  0.00     0.141 HD
BRANCH  25  27
ATOM     27  C   UNL     1       4.927   8.334   7.966  1.00  0.00     0.025 C 
ATOM     28  C   UNL     1       3.852   9.205   8.613  1.00  0.00     0.028 C 
ATOM     29  C   UNL     1       6.281   9.057   8.112  1.00  0.00     0.028 C 
ATOM     30  C   UNL     1       4.665   8.217   6.475  1.00  0.00     0.028 C 
ENDBRANCH  25  27
ENDBRANCH  22  25
ENDBRANCH  21  22
ENDBRANCH  13  16
ENDBRANCH   6   8
ENDBRANCH   5   6
ENDBRANCH   4   5
ENDBRANCH   3   4
ENDBRANCH   2   3
ENDBRANCH   1   2
BRANCH   1  31
ATOM     31  C   UNL     1       5.117   3.917   1.949  1.00  0.00     0.188 C 
BRANCH  31  32
ATOM     32  O   UNL     1       5.608   4.028   0.618  1.00  0.00    -0.376 OA
BRANCH  32  33
ATOM     33  C   UNL     1       6.938   4.477   0.430  1.00  0.00     0.202 C 
BRANCH  33  34
ATOM     34  C   UNL     1       7.202   5.967   0.686  1.00  0.00     0.261 C 
BRANCH  34  35
ATOM     35  O   UNL     1       6.257   6.617   1.550  1.00  0.00    -0.460 OA
BRANCH  35  36
ATOM     36  C   UNL     1       5.154   7.105   0.927  1.00  0.00     0.338 C 
ATOM     37  O   UNL     1       4.885   7.054  -0.259  1.00  0.00    -0.246 OA
BRANCH  36  38
ATOM     38  C   UNL     1       4.261   7.705   1.941  1.00  0.00     0.060 A 
ATOM     39  C   UNL     1       2.940   7.258   2.066  1.00  0.00     0.016 A 
ATOM     40  C   UNL     1       4.713   8.764   2.721  1.00  0.00     0.016 A 
ATOM     41  C   UNL     1       2.065   7.871   2.980  1.00  0.00     0.010 A 
ATOM     42  C   UNL     1       3.830   9.380   3.613  1.00  0.00     0.010 A 
ATOM     43  C   UNL     1       2.493   8.949   3.766  1.00  0.00    -0.014 A 
BRANCH  43  44
ATOM     44  C   UNL     1       1.573   9.703   4.685  1.00  0.00     0.031 A 
ATOM     45  C   UNL     1       1.367  11.186   4.466  1.00  0.00     0.074 A 
ATOM     46  C   UNL     1       0.971   9.139   5.757  1.00  0.00     0.049 A 
ATOM     47  N   UNL     1       0.727  12.056   5.210  1.00  0.00    -0.248 NA
ATOM     48  C   UNL     1       1.971  11.768   3.256  1.00  0.00     0.031 C 
ATOM     49  C   UNL     1       1.026   7.730   6.143  1.00  0.00     0.029 A 
ATOM     50  N   UNL     1       0.235   9.722   6.771  1.00  0.00    -0.354 N 
ATOM     51  C   UNL     1       0.830  13.270   4.545  1.00  0.00     0.074 A 
ATOM     52  C   UNL     1       1.695  13.053   3.406  1.00  0.00     0.031 C 
ATOM     53  C   UNL     1       0.442   7.576   7.345  1.00  0.00     0.029 A 
ATOM     54  C   UNL     1      -0.040   8.868   7.818  1.00  0.00     0.049 A 
ATOM     55  H   UNL     1      -0.064  10.659   6.749  1.00  0.00     0.167 HD
ATOM     56  C   UNL     1       0.208  14.446   4.799  1.00  0.00     0.031 A 
ATOM     57  C   UNL     1      -0.581   9.095   9.032  1.00  0.00     0.031 A 
ATOM     58  C   UNL     1      -0.685  14.688   5.897  1.00  0.00     0.049 A 
ATOM     59  C   UNL     1      -1.117  10.452   9.386  1.00  0.00     0.074 A 
ATOM     60  C   UNL     1      -1.474  15.801   6.139  1.00  0.00     0.029 A 
ATOM     61  N   UNL     1      -0.899  13.812   6.946  1.00  0.00    -0.354 N 
ATOM     62  N   UNL     1      -1.100  11.557   8.686  1.00  0.00    -0.248 NA
ATOM     63  C   UNL     1      -1.802  10.570  10.685  1.00  0.00     0.031 C 
ATOM     64  C   UNL     1      -2.128  15.619   7.363  1.00  0.00     0.029 A 
ATOM     65  C   UNL     1      -1.780  14.374   7.856  1.00  0.00     0.049 A 
ATOM     66  H   UNL     1      -0.486  12.923   7.033  1.00  0.00     0.167 HD
ATOM     67  C   UNL     1      -1.847  12.472   9.418  1.00  0.00     0.074 A 
ATOM     68  C   UNL     1      -2.258  11.812  10.637  1.00  0.00     0.031 C 
ATOM     69  C   UNL     1      -2.200  13.733   9.073  1.00  0.00     0.031 A 
BRANCH  56  70
ATOM     70  C   UNL     1       0.430  15.557   3.812  1.00  0.00    -0.014 A 
ATOM     71  C   UNL     1      -0.108  15.478   2.516  1.00  0.00     0.009 A 
ATOM     72  C   UNL     1       1.154  16.698   4.182  1.00  0.00     0.009 A 
ATOM     73  C   UNL     1       0.116  16.499   1.593  1.00  0.00     0.001 A 
ATOM     74  C   UNL     1       1.352  17.732   3.265  1.00  0.00     0.001 A 
ATOM     75  C   UNL     1       0.843  17.626   1.970  1.00  0.00     0.000 A 
ENDBRANCH  56  70
BRANCH  57  76
ATOM     76  C   UNL     1      -0.662   8.024  10.060  1.00  0.00    -0.014 A 
ATOM     77  C   UNL     1      -1.822   7.254  10.220  1.00  0.00     0.009 A 
ATOM     78  C   UNL     1       0.389   7.864  10.973  1.00  0.00     0.009 A 
ATOM     79  C   UNL     1      -1.926   6.348  11.281  1.00  0.00     0.001 A 
ATOM     80  C   UNL     1       0.293   6.941  12.018  1.00  0.00     0.001 A 
ATOM     81  C   UNL     1      -0.868   6.190  12.176  1.00  0.00     0.000 A 
ENDBRANCH  57  76
BRANCH  69  82
ATOM     82  C   UNL     1      -3.164  14.449   9.973  1.00  0.00    -0.014 A 
ATOM     83  C   UNL     1      -2.780  14.948  11.226  1.00  0.00     0.009 A 
ATOM     84  C   UNL     1      -4.492  14.620   9.550  1.00  0.00     0.009 A 
ATOM     85  C   UNL     1      -3.719  15.574  12.052  1.00  0.00     0.001 A 
ATOM     86  C   UNL     1      -5.420  15.270  10.364  1.00  0.00     0.001 A 
ATOM     87  C   UNL     1      -5.035  15.738  11.619  1.00  0.00     0.000 A 
ENDBRANCH  69  82
ENDBRANCH  43  44
ENDBRANCH  36  38
ENDBRANCH  35  36
ENDBRANCH  34  35
ENDBRANCH  33  34
ENDBRANCH  32  33
ENDBRANCH  31  32
ENDBRANCH   1  31
TORSDOF 22
