REMARK SMILES CC[C@H](NC(=O)N1CC[C@H]2CC[C@@H](C1)[N@@H+]2C)C(=O)OCCOCCOCCOC(=O)c1ccc(-c2c3nc(c(-c4ccccc4)c4ccc([nH]4)c(-c4ccccc4)c4nc(c(-c5ccccc5)c5ccc2[nH]5)C=C4)C=C3)cc1
REMARK SMILES IDX 23 1 22 2 21 3 20 4 19 5 17 6 18 7 3 8 2 9 1 10 4 11 5 12
REMARK SMILES IDX 6 14 7 15 8 16 9 17 14 19 13 20 12 21 15 22 11 23 10 24
REMARK SMILES IDX 16 25 24 28 25 29 26 30 27 31 28 32 29 33 30 34 31 35 32 36
REMARK SMILES IDX 78 37 33 38 77 39 34 40 35 41 36 42 71 43 37 44 76 45 70 46
REMARK SMILES IDX 72 47 38 48 75 49 69 50 68 51 39 53 61 54 46 55 60 56 47 57
REMARK SMILES IDX 50 58 59 59 73 60 48 61 49 62 58 64 74 65 51 66 40 67 41 68
REMARK SMILES IDX 45 69 42 70 44 71 43 72 62 73 63 74 67 75 64 76 66 77 65 78
REMARK SMILES IDX 52 79 53 80 57 81 54 82 56 83 55 84
REMARK H PARENT 4 13 15 26 72 52 50 63
REMARK Flexibility Score: 90.00
ROOT
ATOM      1  C   UNL     1       2.226  -2.747   3.084  1.00  0.00     0.188 C 
ENDROOT
BRANCH   1   2
ATOM      2  O   UNL     1       2.284  -2.769   4.505  1.00  0.00    -0.376 OA
BRANCH   2   3
ATOM      3  C   UNL     1       1.037  -2.491   5.134  1.00  0.00     0.202 C 
BRANCH   3   4
ATOM      4  C   UNL     1       1.007  -1.058   5.643  1.00  0.00     0.261 C 
BRANCH   4   5
ATOM      5  O   UNL     1       0.418  -0.247   4.619  1.00  0.00    -0.462 OA
BRANCH   5   6
ATOM      6  C   UNL     1       1.227   0.237   3.661  1.00  0.00     0.328 C 
ATOM      7  O   UNL     1       2.401   0.549   3.819  1.00  0.00    -0.250 OA
BRANCH   6   8
ATOM      8  C   UNL     1       0.459   0.400   2.345  1.00  0.00     0.193 C 
BRANCH   8   9
ATOM      9  C   UNL     1      -0.016   1.840   2.173  1.00  0.00     0.033 C 
ATOM     10  C   UNL     1      -1.131   2.019   1.157  1.00  0.00     0.007 C 
ENDBRANCH   8   9
BRANCH   8  11
ATOM     11  N   UNL     1      -0.514  -0.639   1.944  1.00  0.00    -0.324 N 
ATOM     12  C   UNL     1      -1.602  -1.312   2.331  1.00  0.00     0.318 C 
ATOM     13  H   UNL     1      -0.263  -0.958   1.047  1.00  0.00     0.166 HD
ATOM     14  O   UNL     1      -2.085  -2.027   1.441  1.00  0.00    -0.249 OA
BRANCH  12  15
ATOM     15  N   UNL     1      -2.101  -1.337   3.608  1.00  0.00    -0.319 N 
BRANCH  15  16
ATOM     16  C   UNL     1      -2.549  -0.141   4.306  1.00  0.00     0.128 C 
BRANCH  16  17
ATOM     17  C   UNL     1      -2.325  -0.029   5.828  1.00  0.00     0.086 CG0
ATOM     18  G   UNL     1      -2.442  -1.248   6.775  1.00  0.00     0.000 G0
ENDBRANCH  16  17
ENDBRANCH  15  16
BRANCH  15  19
ATOM     19  C   UNL     1      -2.853  -2.570   3.898  1.00  0.00     0.186 C 
BRANCH  19  20
ATOM     20  C   UNL     1      -2.994  -3.019   5.369  1.00  0.00     0.204 C 
ATOM     21  C   UNL     1      -4.304  -2.535   6.006  1.00  0.00     0.073 C 
ATOM     22  N   UNL     1      -1.903  -2.496   6.213  1.00  0.00    -0.331 N 
ATOM     23  C   UNL     1      -3.883  -1.593   7.116  1.00  0.00     0.071 C 
ATOM     24  C   UNL     1      -2.442  -1.248   6.775  1.00  0.00     0.186 CG0
ATOM     25  C   UNL     1      -1.504  -3.465   7.238  1.00  0.00     0.333 C 
ATOM     26  H   UNL     1      -1.046  -2.324   5.688  1.00  0.00     0.348 HD
ATOM     27  G   UNL     1      -2.325  -0.029   5.828  1.00  0.00     0.000 G0
ENDBRANCH  19  20
ENDBRANCH  15  19
ENDBRANCH  12  15
ENDBRANCH   8  11
ENDBRANCH   6   8
ENDBRANCH   5   6
ENDBRANCH   4   5
ENDBRANCH   3   4
ENDBRANCH   2   3
ENDBRANCH   1   2
BRANCH   1  28
ATOM     28  C   UNL     1       1.562  -3.987   2.510  1.00  0.00     0.188 C 
BRANCH  28  29
ATOM     29  O   UNL     1       0.159  -4.140   2.649  1.00  0.00    -0.376 OA
BRANCH  29  30
ATOM     30  C   UNL     1      -0.228  -5.344   3.328  1.00  0.00     0.202 C 
BRANCH  30  31
ATOM     31  C   UNL     1       0.062  -6.677   2.606  1.00  0.00     0.261 C 
BRANCH  31  32
ATOM     32  O   UNL     1       1.469  -6.980   2.605  1.00  0.00    -0.460 OA
BRANCH  32  33
ATOM     33  C   UNL     1       2.134  -6.777   1.439  1.00  0.00     0.338 C 
ATOM     34  O   UNL     1       1.654  -6.699   0.318  1.00  0.00    -0.246 OA
BRANCH  33  35
ATOM     35  C   UNL     1       3.495  -6.293   1.791  1.00  0.00     0.060 A 
ATOM     36  C   UNL     1       3.998  -5.194   1.068  1.00  0.00     0.016 A 
ATOM     37  C   UNL     1       4.149  -6.734   2.949  1.00  0.00     0.016 A 
ATOM     38  C   UNL     1       5.136  -4.525   1.508  1.00  0.00     0.010 A 
ATOM     39  C   UNL     1       5.325  -6.107   3.356  1.00  0.00     0.010 A 
ATOM     40  C   UNL     1       5.839  -5.032   2.609  1.00  0.00    -0.014 A 
BRANCH  40  41
ATOM     41  C   UNL     1       7.292  -4.784   2.659  1.00  0.00     0.031 A 
ATOM     42  C   UNL     1       8.117  -5.681   1.774  1.00  0.00     0.074 A 
ATOM     43  C   UNL     1       7.848  -3.840   3.434  1.00  0.00     0.049 A 
ATOM     44  N   UNL     1       9.411  -5.761   1.635  1.00  0.00    -0.248 NA
ATOM     45  C   UNL     1       7.366  -6.631   0.927  1.00  0.00     0.031 C 
ATOM     46  C   UNL     1       7.129  -2.892   4.284  1.00  0.00     0.029 A 
ATOM     47  N   UNL     1       9.170  -3.539   3.632  1.00  0.00    -0.354 N 
ATOM     48  C   UNL     1       9.616  -6.760   0.690  1.00  0.00     0.074 A 
ATOM     49  C   UNL     1       8.331  -7.283   0.310  1.00  0.00     0.031 C 
ATOM     50  C   UNL     1       8.027  -2.125   4.933  1.00  0.00     0.029 A 
ATOM     51  C   UNL     1       9.376  -2.553   4.567  1.00  0.00     0.049 A 
ATOM     52  H   UNL     1       9.903  -3.986   3.151  1.00  0.00     0.167 HD
ATOM     53  C   UNL     1      10.780  -7.210   0.179  1.00  0.00     0.031 A 
ATOM     54  C   UNL     1      10.533  -2.086   5.075  1.00  0.00     0.031 A 
ATOM     55  C   UNL     1      12.054  -6.728   0.616  1.00  0.00     0.049 A 
ATOM     56  C   UNL     1      11.828  -2.674   4.565  1.00  0.00     0.074 A 
ATOM     57  C   UNL     1      13.312  -7.119   0.207  1.00  0.00     0.029 A 
ATOM     58  N   UNL     1      12.220  -5.752   1.588  1.00  0.00    -0.354 N 
ATOM     59  N   UNL     1      12.017  -3.603   3.656  1.00  0.00    -0.248 NA
ATOM     60  C   UNL     1      13.069  -2.143   5.146  1.00  0.00     0.031 C 
ATOM     61  C   UNL     1      14.244  -6.418   0.977  1.00  0.00     0.029 A 
ATOM     62  C   UNL     1      13.565  -5.539   1.810  1.00  0.00     0.049 A 
ATOM     63  H   UNL     1      11.488  -5.282   2.049  1.00  0.00     0.167 HD
ATOM     64  C   UNL     1      13.393  -3.746   3.533  1.00  0.00     0.074 A 
ATOM     65  C   UNL     1      13.990  -2.795   4.451  1.00  0.00     0.031 C 
ATOM     66  C   UNL     1      14.109  -4.579   2.736  1.00  0.00     0.031 A 
BRANCH  53  67
ATOM     67  C   UNL     1      10.697  -8.308  -0.842  1.00  0.00    -0.014 A 
ATOM     68  C   UNL     1      10.156  -8.078  -2.119  1.00  0.00     0.009 A 
ATOM     69  C   UNL     1      11.126  -9.601  -0.509  1.00  0.00     0.009 A 
ATOM     70  C   UNL     1      10.015  -9.129  -3.028  1.00  0.00     0.001 A 
ATOM     71  C   UNL     1      11.014 -10.642  -1.432  1.00  0.00     0.001 A 
ATOM     72  C   UNL     1      10.451 -10.408  -2.685  1.00  0.00     0.000 A 
ENDBRANCH  53  67
BRANCH  54  73
ATOM     73  C   UNL     1      10.528  -1.038   6.133  1.00  0.00    -0.014 A 
ATOM     74  C   UNL     1      11.040   0.245   5.882  1.00  0.00     0.009 A 
ATOM     75  C   UNL     1      10.030  -1.322   7.415  1.00  0.00     0.009 A 
ATOM     76  C   UNL     1      11.076   1.209   6.895  1.00  0.00     0.001 A 
ATOM     77  C   UNL     1      10.039  -0.348   8.418  1.00  0.00     0.001 A 
ATOM     78  C   UNL     1      10.571   0.914   8.160  1.00  0.00     0.000 A 
ENDBRANCH  54  73
BRANCH  66  79
ATOM     79  C   UNL     1      15.605  -4.465   2.790  1.00  0.00    -0.014 A 
ATOM     80  C   UNL     1      16.334  -4.915   3.900  1.00  0.00     0.009 A 
ATOM     81  C   UNL     1      16.295  -3.963   1.675  1.00  0.00     0.009 A 
ATOM     82  C   UNL     1      17.727  -4.826   3.906  1.00  0.00     0.001 A 
ATOM     83  C   UNL     1      17.688  -3.910   1.669  1.00  0.00     0.001 A 
ATOM     84  C   UNL     1      18.401  -4.331   2.790  1.00  0.00     0.000 A 
ENDBRANCH  66  79
ENDBRANCH  40  41
ENDBRANCH  33  35
ENDBRANCH  32  33
ENDBRANCH  31  32
ENDBRANCH  30  31
ENDBRANCH  29  30
ENDBRANCH  28  29
ENDBRANCH   1  28
TORSDOF 20
