REMARK SMILES Cc1cc(C)cc(C[N@@H+]2CCO[C@@H](CC(=O)OCCOCCOCCOC(=O)c3ccc(-c4c5nc(c(-c6ccccc6)c6ccc([nH]6)c(-c6ccccc6)c6nc(c(-c7ccccc7)c7ccc4[nH]7)C=C6)C=C5)cc3)C2)c1
REMARK SMILES IDX 21 1 20 2 19 3 18 4 17 5 15 6 16 7 14 8 13 9 9 10 10 11
REMARK SMILES IDX 77 12 11 14 12 15 8 16 7 17 1 18 2 19 3 20 78 21 4 22 5 23
REMARK SMILES IDX 6 24 22 25 23 26 24 27 25 28 26 29 27 30 28 31 29 32 30 33
REMARK SMILES IDX 76 34 31 35 75 36 32 37 33 38 34 39 69 40 35 41 74 42 68 43
REMARK SMILES IDX 70 44 36 45 73 46 67 47 66 48 37 50 59 51 44 52 58 53 45 54
REMARK SMILES IDX 48 55 57 56 71 57 46 58 47 59 56 61 72 62 49 63 38 64 39 65
REMARK SMILES IDX 43 66 40 67 42 68 41 69 60 70 61 71 65 72 62 73 64 74 63 75
REMARK SMILES IDX 50 76 51 77 55 78 52 79 54 80 53 81
REMARK H PARENT 9 13 70 49 48 60
REMARK Flexibility Score: inf
ROOT
ATOM      1  C   UNL     1       3.987  -1.387   2.617  1.00  0.00     0.188 C 
ENDROOT
BRANCH   1   2
ATOM      2  O   UNL     1       5.043  -2.194   3.125  1.00  0.00    -0.376 OA
BRANCH   2   3
ATOM      3  C   UNL     1       4.712  -3.472   3.667  1.00  0.00     0.202 C 
BRANCH   3   4
ATOM      4  C   UNL     1       3.611  -3.499   4.729  1.00  0.00     0.261 C 
BRANCH   4   5
ATOM      5  O   UNL     1       2.325  -3.100   4.206  1.00  0.00    -0.463 OA
BRANCH   5   6
ATOM      6  C   UNL     1       1.476  -2.627   5.145  1.00  0.00     0.308 C 
ATOM      7  O   UNL     1       1.727  -2.637   6.348  1.00  0.00    -0.252 OA
BRANCH   6   8
ATOM      8  C   UNL     1       0.271  -1.891   4.616  1.00  0.00     0.160 C 
BRANCH   8   9
ATOM      9  C   UNL     1      -0.493  -2.195   3.319  1.00  0.00     0.184 C 
ATOM     10  N   UNL     1      -1.142  -3.676   1.387  1.00  0.00    -0.327 N 
ATOM     11  C   UNL     1      -2.538  -3.489   1.774  1.00  0.00     0.291 C 
ATOM     12  C   UNL     1      -0.235  -3.501   2.538  1.00  0.00     0.295 C 
ATOM     13  H   UNL     1      -1.042  -4.662   1.144  1.00  0.00     0.348 HD
ATOM     14  C   UNL     1      -2.784  -2.240   2.634  1.00  0.00     0.222 C 
ATOM     15  O   UNL     1      -1.886  -2.175   3.739  1.00  0.00    -0.366 OA
BRANCH  10  16
ATOM     16  C   UNL     1      -0.724  -3.224   0.053  1.00  0.00     0.299 C 
BRANCH  16  17
ATOM     17  C   UNL     1      -0.825  -1.761  -0.362  1.00  0.00     0.007 A 
ATOM     18  C   UNL     1       1.263   0.836  -2.260  1.00  0.00     0.044 C 
ATOM     19  C   UNL     1       0.168   0.203  -1.455  1.00  0.00    -0.050 A 
ATOM     20  C   UNL     1      -1.014   0.920  -1.256  1.00  0.00     0.006 A 
ATOM     21  C   UNL     1       0.265  -1.117  -0.977  1.00  0.00     0.013 A 
ATOM     22  C   UNL     1      -2.130   0.291  -0.712  1.00  0.00    -0.050 A 
ATOM     23  C   UNL     1      -3.399   1.060  -0.492  1.00  0.00     0.044 C 
ATOM     24  C   UNL     1      -2.037  -1.057  -0.336  1.00  0.00     0.013 A 
ENDBRANCH  16  17
ENDBRANCH  10  16
ENDBRANCH   8   9
ENDBRANCH   6   8
ENDBRANCH   5   6
ENDBRANCH   4   5
ENDBRANCH   3   4
ENDBRANCH   2   3
ENDBRANCH   1   2
BRANCH   1  25
ATOM     25  C   UNL     1       3.002  -2.016   1.614  1.00  0.00     0.188 C 
BRANCH  25  26
ATOM     26  O   UNL     1       3.328  -3.325   1.177  1.00  0.00    -0.376 OA
BRANCH  26  27
ATOM     27  C   UNL     1       3.739  -3.431  -0.184  1.00  0.00     0.202 C 
BRANCH  27  28
ATOM     28  C   UNL     1       5.028  -2.678  -0.523  1.00  0.00     0.261 C 
BRANCH  28  29
ATOM     29  O   UNL     1       4.855  -1.262  -0.310  1.00  0.00    -0.460 OA
BRANCH  29  30
ATOM     30  C   UNL     1       4.935  -0.438  -1.368  1.00  0.00     0.338 C 
ATOM     31  O   UNL     1       5.172  -0.745  -2.528  1.00  0.00    -0.246 OA
BRANCH  30  32
ATOM     32  C   UNL     1       4.703   0.954  -0.917  1.00  0.00     0.060 A 
ATOM     33  C   UNL     1       3.659   1.282  -0.041  1.00  0.00     0.016 A 
ATOM     34  C   UNL     1       5.487   1.971  -1.460  1.00  0.00     0.016 A 
ATOM     35  C   UNL     1       3.369   2.609   0.264  1.00  0.00     0.010 A 
ATOM     36  C   UNL     1       5.222   3.301  -1.129  1.00  0.00     0.010 A 
ATOM     37  C   UNL     1       4.145   3.630  -0.286  1.00  0.00    -0.014 A 
BRANCH  37  38
ATOM     38  C   UNL     1       3.798   5.050  -0.062  1.00  0.00     0.031 A 
ATOM     39  C   UNL     1       3.307   5.875  -1.215  1.00  0.00     0.074 A 
ATOM     40  C   UNL     1       3.937   5.605   1.155  1.00  0.00     0.049 A 
ATOM     41  N   UNL     1       3.211   7.173  -1.321  1.00  0.00    -0.248 NA
ATOM     42  C   UNL     1       2.866   5.134  -2.409  1.00  0.00     0.031 C 
ATOM     43  C   UNL     1       4.301   4.891   2.379  1.00  0.00     0.029 A 
ATOM     44  N   UNL     1       3.809   6.912   1.551  1.00  0.00    -0.354 N 
ATOM     45  C   UNL     1       2.749   7.410  -2.609  1.00  0.00     0.074 A 
ATOM     46  C   UNL     1       2.567   6.122  -3.242  1.00  0.00     0.031 C 
ATOM     47  C   UNL     1       4.385   5.773   3.388  1.00  0.00     0.029 A 
ATOM     48  C   UNL     1       4.162   7.116   2.862  1.00  0.00     0.049 A 
ATOM     49  H   UNL     1       3.496   7.630   0.956  1.00  0.00     0.167 HD
ATOM     50  C   UNL     1       2.520   8.601  -3.211  1.00  0.00     0.031 A 
ATOM     51  C   UNL     1       4.356   8.260   3.543  1.00  0.00     0.031 A 
ATOM     52  C   UNL     1       2.702   9.874  -2.568  1.00  0.00     0.049 A 
ATOM     53  C   UNL     1       4.194   9.572   2.830  1.00  0.00     0.074 A 
ATOM     54  C   UNL     1       2.520  11.142  -3.092  1.00  0.00     0.029 A 
ATOM     55  N   UNL     1       3.103  10.037  -1.251  1.00  0.00    -0.354 N 
ATOM     56  N   UNL     1       3.842   9.797   1.587  1.00  0.00    -0.248 NA
ATOM     57  C   UNL     1       4.479  10.786   3.607  1.00  0.00     0.031 C 
ATOM     58  C   UNL     1       2.850  12.074  -2.101  1.00  0.00     0.029 A 
ATOM     59  C   UNL     1       3.191  11.384  -0.948  1.00  0.00     0.049 A 
ATOM     60  H   UNL     1       3.296   9.303  -0.624  1.00  0.00     0.167 HD
ATOM     61  C   UNL     1       3.852  11.176   1.435  1.00  0.00     0.074 A 
ATOM     62  C   UNL     1       4.231  11.737   2.717  1.00  0.00     0.031 C 
ATOM     63  C   UNL     1       3.576  11.915   0.333  1.00  0.00     0.031 A 
BRANCH  50  64
ATOM     64  C   UNL     1       2.109   8.580  -4.654  1.00  0.00    -0.014 A 
ATOM     65  C   UNL     1       0.809   8.227  -5.043  1.00  0.00     0.009 A 
ATOM     66  C   UNL     1       3.037   8.956  -5.639  1.00  0.00     0.009 A 
ATOM     67  C   UNL     1       0.453   8.230  -6.394  1.00  0.00     0.001 A 
ATOM     68  C   UNL     1       2.672   8.980  -6.985  1.00  0.00     0.001 A 
ATOM     69  C   UNL     1       1.382   8.611  -7.363  1.00  0.00     0.000 A 
ENDBRANCH  50  64
BRANCH  51  70
ATOM     70  C   UNL     1       4.809   8.207   4.957  1.00  0.00    -0.014 A 
ATOM     71  C   UNL     1       3.944   8.568   5.999  1.00  0.00     0.009 A 
ATOM     72  C   UNL     1       6.107   7.771   5.269  1.00  0.00     0.009 A 
ATOM     73  C   UNL     1       4.374   8.500   7.327  1.00  0.00     0.001 A 
ATOM     74  C   UNL     1       6.525   7.679   6.597  1.00  0.00     0.001 A 
ATOM     75  C   UNL     1       5.659   8.048   7.625  1.00  0.00     0.000 A 
ENDBRANCH  51  70
BRANCH  63  76
ATOM     76  C   UNL     1       3.644  13.406   0.480  1.00  0.00    -0.014 A 
ATOM     77  C   UNL     1       4.876  14.075   0.514  1.00  0.00     0.009 A 
ATOM     78  C   UNL     1       2.457  14.151   0.551  1.00  0.00     0.009 A 
ATOM     79  C   UNL     1       4.918  15.464   0.645  1.00  0.00     0.001 A 
ATOM     80  C   UNL     1       2.502  15.541   0.659  1.00  0.00     0.001 A 
ATOM     81  C   UNL     1       3.732  16.195   0.714  1.00  0.00     0.000 A 
ENDBRANCH  63  76
ENDBRANCH  37  38
ENDBRANCH  30  32
ENDBRANCH  29  30
ENDBRANCH  28  29
ENDBRANCH  27  28
ENDBRANCH  26  27
ENDBRANCH  25  26
ENDBRANCH   1  25
TORSDOF 20
