REMARK SMILES CC(C)[N@H+](C)Cc1cc2c(cc1Cl)C=C(C(=O)OCCOCCOCCOC(=O)c1ccc(-c3c4nc(c(-c5ccccc5)c5ccc([nH]5)c(-c5ccccc5)c5nc(c(-c6ccccc6)c6ccc3[nH]6)C=C5)C=C4)cc1)[C@@H](C(F)(F)F)O2
REMARK SMILES IDX 22 1 21 2 20 3 19 4 18 5 16 6 17 7 15 8 7 9 8 10 12 11 9 12
REMARK SMILES IDX 11 13 13 14 10 15 83 16 14 17 78 18 6 19 4 20 5 21 2 23 1 24
REMARK SMILES IDX 3 25 79 26 80 27 81 28 82 29 23 30 24 31 25 32 26 33 27 34
REMARK SMILES IDX 28 35 29 36 30 37 31 38 77 39 32 40 76 41 33 42 34 43 35 44
REMARK SMILES IDX 70 45 36 46 75 47 69 48 71 49 37 50 74 51 68 52 67 53 38 55
REMARK SMILES IDX 60 56 45 57 59 58 46 59 49 60 58 61 72 62 47 63 48 64 57 66
REMARK SMILES IDX 73 67 50 68 39 69 40 70 44 71 41 72 43 73 42 74 61 75 62 76
REMARK SMILES IDX 66 77 63 78 65 79 64 80 51 81 52 82 56 83 53 84 55 85 54 86
REMARK H PARENT 4 22 71 54 49 65
REMARK Flexibility Score: inf
ROOT
ATOM      1  C   UNL     1       0.334   9.881   3.192  1.00  0.00     0.188 C 
ENDROOT
BRANCH   1   2
ATOM      2  O   UNL     1       0.607  11.260   3.257  1.00  0.00    -0.376 OA
BRANCH   2   3
ATOM      3  C   UNL     1       0.458  12.092   2.118  1.00  0.00     0.202 C 
BRANCH   3   4
ATOM      4  C   UNL     1       0.224  11.614   0.671  1.00  0.00     0.261 C 
BRANCH   4   5
ATOM      5  O   UNL     1      -0.340  10.314   0.496  1.00  0.00    -0.460 OA
BRANCH   5   6
ATOM      6  C   UNL     1       0.477   9.399  -0.083  1.00  0.00     0.338 C 
ATOM      7  O   UNL     1       1.614   9.570  -0.485  1.00  0.00    -0.246 OA
BRANCH   6   8
ATOM      8  C   UNL     1      -0.153   8.076   0.046  1.00  0.00     0.087 C 
ATOM      9  C   UNL     1      -1.095   3.292   1.194  1.00  0.00     0.029 A 
ATOM     10  C   UNL     1      -1.679   4.235   0.319  1.00  0.00     0.058 A 
ATOM     11  C   UNL     1      -0.212   3.780   2.169  1.00  0.00     0.050 A 
ATOM     12  C   UNL     1      -1.235   5.553   0.282  1.00  0.00     0.128 A 
ATOM     13  C   UNL     1       0.323   5.064   2.044  1.00  0.00     0.033 A 
ATOM     14  Cl  UNL     1       0.236   2.942   3.613  1.00  0.00    -0.084 Cl
ATOM     15  C   UNL     1      -0.145   5.926   1.056  1.00  0.00     0.019 A 
ATOM     16  O   UNL     1      -1.861   6.396  -0.590  1.00  0.00    -0.475 OA
ATOM     17  C   UNL     1       0.511   7.191   0.800  1.00  0.00     0.027 C 
ATOM     18  C   UNL     1      -1.517   7.812  -0.531  1.00  0.00     0.316 C 
BRANCH   9  19
ATOM     19  C   UNL     1      -1.424   1.838   0.899  1.00  0.00     0.300 C 
BRANCH  19  20
ATOM     20  N   UNL     1      -0.678   0.834   1.635  1.00  0.00    -0.332 N 
ATOM     21  C   UNL     1      -1.458   0.097   2.608  1.00  0.00     0.333 C 
ATOM     22  H   UNL     1      -0.085   1.471   2.167  1.00  0.00     0.348 HD
BRANCH  20  23
ATOM     23  C   UNL     1       0.528   0.207   1.093  1.00  0.00     0.177 C 
ATOM     24  C   UNL     1       0.367  -0.503  -0.254  1.00  0.00     0.075 C 
ATOM     25  C   UNL     1       1.690   1.205   0.990  1.00  0.00     0.075 C 
ENDBRANCH  20  23
ENDBRANCH  19  20
ENDBRANCH   9  19
BRANCH  18  26
ATOM     26  C   UNL     1      -1.682   8.367  -1.952  1.00  0.00     0.430 C 
ATOM     27  F   UNL     1      -2.932   8.138  -2.421  1.00  0.00    -0.167 F 
ATOM     28  F   UNL     1      -1.488   9.705  -2.002  1.00  0.00    -0.167 F 
ATOM     29  F   UNL     1      -0.812   7.796  -2.816  1.00  0.00    -0.167 F 
ENDBRANCH  18  26
ENDBRANCH   6   8
ENDBRANCH   5   6
ENDBRANCH   4   5
ENDBRANCH   3   4
ENDBRANCH   2   3
ENDBRANCH   1   2
BRANCH   1  30
ATOM     30  C   UNL     1      -1.140   9.426   3.200  1.00  0.00     0.188 C 
BRANCH  30  31
ATOM     31  O   UNL     1      -2.175  10.371   3.039  1.00  0.00    -0.376 OA
BRANCH  31  32
ATOM     32  C   UNL     1      -2.334  11.413   3.990  1.00  0.00     0.202 C 
BRANCH  32  33
ATOM     33  C   UNL     1      -2.025  11.263   5.492  1.00  0.00     0.261 C 
BRANCH  33  34
ATOM     34  O   UNL     1      -0.903  10.447   5.848  1.00  0.00    -0.460 OA
BRANCH  34  35
ATOM     35  C   UNL     1      -1.206   9.263   6.446  1.00  0.00     0.338 C 
ATOM     36  O   UNL     1      -2.305   8.821   6.697  1.00  0.00    -0.246 OA
BRANCH  35  37
ATOM     37  C   UNL     1       0.039   8.473   6.567  1.00  0.00     0.060 A 
ATOM     38  C   UNL     1       1.103   8.937   7.340  1.00  0.00     0.016 A 
ATOM     39  C   UNL     1       0.131   7.248   5.891  1.00  0.00     0.016 A 
ATOM     40  C   UNL     1       2.259   8.160   7.449  1.00  0.00     0.010 A 
ATOM     41  C   UNL     1       1.293   6.479   5.990  1.00  0.00     0.010 A 
ATOM     42  C   UNL     1       2.358   6.921   6.787  1.00  0.00    -0.014 A 
BRANCH  42  43
ATOM     43  C   UNL     1       3.496   6.016   7.084  1.00  0.00     0.031 A 
ATOM     44  C   UNL     1       4.647   5.836   6.141  1.00  0.00     0.074 A 
ATOM     45  C   UNL     1       3.471   5.341   8.250  1.00  0.00     0.049 A 
ATOM     46  N   UNL     1       5.755   5.163   6.327  1.00  0.00    -0.248 NA
ATOM     47  C   UNL     1       4.548   6.484   4.826  1.00  0.00     0.031 C 
ATOM     48  C   UNL     1       2.387   5.413   9.231  1.00  0.00     0.029 A 
ATOM     49  N   UNL     1       4.379   4.481   8.815  1.00  0.00    -0.354 N 
ATOM     50  C   UNL     1       6.498   5.322   5.165  1.00  0.00     0.074 A 
ATOM     51  C   UNL     1       5.694   6.117   4.260  1.00  0.00     0.031 C 
ATOM     52  C   UNL     1       2.708   4.659  10.292  1.00  0.00     0.029 A 
ATOM     53  C   UNL     1       4.002   4.026  10.055  1.00  0.00     0.049 A 
ATOM     54  H   UNL     1       5.218   4.216   8.374  1.00  0.00     0.167 HD
ATOM     55  C   UNL     1       7.743   4.860   4.895  1.00  0.00     0.031 A 
ATOM     56  C   UNL     1       4.626   3.198  10.916  1.00  0.00     0.031 A 
ATOM     57  C   UNL     1       8.526   4.051   5.798  1.00  0.00     0.049 A 
ATOM     58  C   UNL     1       5.989   2.667  10.570  1.00  0.00     0.074 A 
ATOM     59  C   UNL     1       9.819   3.586   5.624  1.00  0.00     0.029 A 
ATOM     60  N   UNL     1       8.095   3.575   7.026  1.00  0.00    -0.354 N 
ATOM     61  N   UNL     1       6.723   2.911   9.512  1.00  0.00    -0.248 NA
ATOM     62  C   UNL     1       6.620   1.764  11.543  1.00  0.00     0.031 C 
ATOM     63  C   UNL     1      10.138   2.761   6.704  1.00  0.00     0.029 A 
ATOM     64  C   UNL     1       9.081   2.786   7.598  1.00  0.00     0.049 A 
ATOM     65  H   UNL     1       7.219   3.768   7.432  1.00  0.00     0.167 HD
ATOM     66  C   UNL     1       7.908   2.212   9.701  1.00  0.00     0.074 A 
ATOM     67  C   UNL     1       7.806   1.554  10.986  1.00  0.00     0.031 C 
ATOM     68  C   UNL     1       8.980   2.126   8.876  1.00  0.00     0.031 A 
BRANCH  55  69
ATOM     69  C   UNL     1       8.375   5.219   3.576  1.00  0.00    -0.014 A 
ATOM     70  C   UNL     1       8.685   4.210   2.649  1.00  0.00     0.009 A 
ATOM     71  C   UNL     1       8.812   6.528   3.321  1.00  0.00     0.009 A 
ATOM     72  C   UNL     1       9.444   4.497   1.512  1.00  0.00     0.001 A 
ATOM     73  C   UNL     1       9.546   6.818   2.168  1.00  0.00     0.001 A 
ATOM     74  C   UNL     1       9.873   5.801   1.272  1.00  0.00     0.000 A 
ENDBRANCH  55  69
BRANCH  56  75
ATOM     75  C   UNL     1       3.969   2.865  12.208  1.00  0.00    -0.014 A 
ATOM     76  C   UNL     1       2.777   2.120  12.230  1.00  0.00     0.009 A 
ATOM     77  C   UNL     1       4.493   3.337  13.420  1.00  0.00     0.009 A 
ATOM     78  C   UNL     1       2.109   1.882  13.433  1.00  0.00     0.001 A 
ATOM     79  C   UNL     1       3.842   3.065  14.626  1.00  0.00     0.001 A 
ATOM     80  C   UNL     1       2.646   2.349  14.630  1.00  0.00     0.000 A 
ENDBRANCH  56  75
BRANCH  68  81
ATOM     81  C   UNL     1      10.154   1.293   9.322  1.00  0.00    -0.014 A 
ATOM     82  C   UNL     1      11.392   1.908   9.572  1.00  0.00     0.009 A 
ATOM     83  C   UNL     1      10.071  -0.107   9.382  1.00  0.00     0.009 A 
ATOM     84  C   UNL     1      12.526   1.141   9.847  1.00  0.00     0.001 A 
ATOM     85  C   UNL     1      11.199  -0.870   9.694  1.00  0.00     0.001 A 
ATOM     86  C   UNL     1      12.427  -0.247   9.912  1.00  0.00     0.000 A 
ENDBRANCH  68  81
ENDBRANCH  42  43
ENDBRANCH  35  37
ENDBRANCH  34  35
ENDBRANCH  33  34
ENDBRANCH  32  33
ENDBRANCH  31  32
ENDBRANCH  30  31
ENDBRANCH   1  30
TORSDOF 21
