REMARK SMILES NS(=O)(=O)c1ccc(-n2nc(C(=O)NCCCCCCCCCCC(=O)OCCOCCOCCOC(=O)c3ccc(-c4c5nc(c(-c6ccccc6)c6ccc([nH]6)c(-c6ccccc6)c6nc(c(-c7ccccc7)c7ccc4[nH]7)C=C6)C=C5)cc3)cc2-c2ccccc2)cc1
REMARK SMILES IDX 24 1 23 2 22 3 21 4 20 5 19 6 18 7 17 8 16 9 15 10 14 11
REMARK SMILES IDX 12 12 13 13 11 15 9 16 10 17 88 18 87 19 8 20 5 21 6 22
REMARK SMILES IDX 96 23 7 24 95 25 2 26 3 27 4 28 1 29 89 32 90 33 94 34 91 35
REMARK SMILES IDX 93 36 92 37 25 38 26 39 27 40 28 41 29 42 30 43 31 44 32 45
REMARK SMILES IDX 33 46 34 47 35 48 36 49 37 50 38 51 39 52 40 53 86 54 41 55
REMARK SMILES IDX 85 56 42 57 43 58 44 59 79 60 45 61 84 62 78 63 80 64 46 65
REMARK SMILES IDX 83 66 77 67 76 68 47 70 69 71 54 72 68 73 55 74 58 75 67 76
REMARK SMILES IDX 81 77 56 78 57 79 66 81 82 82 59 83 48 84 49 85 53 86 50 87
REMARK SMILES IDX 52 88 51 89 70 90 71 91 75 92 72 93 74 94 73 95 60 96 61 97
REMARK SMILES IDX 65 98 62 99 64 100 63 101
REMARK H PARENT 14 14 1 30 1 31 80 69 58 80
REMARK Flexibility Score: inf
ROOT
ATOM      1  C   UNL     1       8.172 -16.681   3.757  1.00  0.00     0.123 C 
ENDROOT
BRANCH   1   2
ATOM      2  C   UNL     1       6.661 -16.530   3.555  1.00  0.00     0.012 C 
BRANCH   2   3
ATOM      3  C   UNL     1       5.900 -15.969   4.757  1.00  0.00     0.001 C 
BRANCH   3   4
ATOM      4  C   UNL     1       6.472 -14.641   5.249  1.00  0.00     0.000 C 
BRANCH   4   5
ATOM      5  C   UNL     1       6.206 -13.498   4.268  1.00  0.00     0.000 C 
BRANCH   5   6
ATOM      6  C   UNL     1       4.710 -13.264   4.033  1.00  0.00     0.000 C 
BRANCH   6   7
ATOM      7  C   UNL     1       3.938 -13.028   5.336  1.00  0.00     0.000 C 
BRANCH   7   8
ATOM      8  C   UNL     1       4.412 -11.782   6.097  1.00  0.00     0.002 C 
BRANCH   8   9
ATOM      9  C   UNL     1       4.341 -10.509   5.250  1.00  0.00     0.021 C 
BRANCH   9  10
ATOM     10  C   UNL     1       2.898 -10.200   4.857  1.00  0.00     0.116 C 
BRANCH  10  11
ATOM     11  N   UNL     1       2.298  -9.377   5.876  1.00  0.00    -0.351 N 
ATOM     12  C   UNL     1       2.112  -8.020   5.962  1.00  0.00     0.271 C 
ATOM     13  O   UNL     1       1.663  -7.606   7.034  1.00  0.00    -0.267 OA
ATOM     14  H   UNL     1       1.959  -9.880   6.652  1.00  0.00     0.163 HD
BRANCH  12  15
ATOM     15  C   UNL     1       2.363  -7.137   4.806  1.00  0.00     0.151 A 
ATOM     16  N   UNL     1       2.016  -5.436   3.545  1.00  0.00    -0.232 N 
ATOM     17  N   UNL     1       1.862  -5.888   4.806  1.00  0.00    -0.162 NA
ATOM     18  C   UNL     1       2.741  -6.311   2.759  1.00  0.00     0.075 A 
ATOM     19  C   UNL     1       3.085  -7.343   3.605  1.00  0.00     0.065 A 
BRANCH  16  20
ATOM     20  C   UNL     1       1.513  -4.169   3.185  1.00  0.00     0.065 A 
ATOM     21  C   UNL     1       0.809  -1.622   2.377  1.00  0.00     0.082 A 
ATOM     22  C   UNL     1       0.489  -2.713   1.563  1.00  0.00     0.024 A 
ATOM     23  C   UNL     1       1.429  -1.800   3.618  1.00  0.00     0.024 A 
ATOM     24  C   UNL     1       0.858  -3.994   1.961  1.00  0.00     0.030 A 
ATOM     25  C   UNL     1       1.755  -3.086   4.040  1.00  0.00     0.030 A 
BRANCH  21  26
ATOM     26  S   UNL     1       0.473   0.006   1.784  1.00  0.00     0.238 S 
ATOM     27  O   UNL     1       1.201   0.967   2.580  1.00  0.00    -0.207 OA
ATOM     28  O   UNL     1      -0.939   0.118   1.510  1.00  0.00    -0.207 OA
BRANCH  26  29
ATOM     29  N   UNL     1       1.246   0.003   0.289  1.00  0.00    -0.225 NA
ATOM     30  H   UNL     1       1.121   0.909  -0.160  1.00  0.00     0.137 HD
ATOM     31  H   UNL     1       0.844  -0.727  -0.299  1.00  0.00     0.137 HD
ENDBRANCH  26  29
ENDBRANCH  21  26
ENDBRANCH  16  20
BRANCH  18  32
ATOM     32  C   UNL     1       3.160  -6.095   1.380  1.00  0.00     0.000 A 
ATOM     33  C   UNL     1       4.063  -5.075   1.061  1.00  0.00     0.010 A 
ATOM     34  C   UNL     1       2.664  -6.920   0.363  1.00  0.00     0.010 A 
ATOM     35  C   UNL     1       4.451  -4.872  -0.264  1.00  0.00     0.001 A 
ATOM     36  C   UNL     1       3.050  -6.712  -0.962  1.00  0.00     0.001 A 
ATOM     37  C   UNL     1       3.942  -5.687  -1.274  1.00  0.00     0.000 A 
ENDBRANCH  18  32
ENDBRANCH  12  15
ENDBRANCH  10  11
ENDBRANCH   9  10
ENDBRANCH   8   9
ENDBRANCH   7   8
ENDBRANCH   6   7
ENDBRANCH   5   6
ENDBRANCH   4   5
ENDBRANCH   3   4
ENDBRANCH   2   3
ENDBRANCH   1   2
BRANCH   1  38
ATOM     38  C   UNL     1       8.655 -17.448   4.978  1.00  0.00     0.305 C 
ATOM     39  O   UNL     1       9.837 -17.497   5.297  1.00  0.00    -0.252 OA
BRANCH  38  40
ATOM     40  O   UNL     1       7.658 -18.120   5.598  1.00  0.00    -0.463 OA
BRANCH  40  41
ATOM     41  C   UNL     1       8.006 -19.100   6.584  1.00  0.00     0.261 C 
BRANCH  41  42
ATOM     42  C   UNL     1       7.486 -20.492   6.204  1.00  0.00     0.202 C 
BRANCH  42  43
ATOM     43  O   UNL     1       7.879 -20.969   4.915  1.00  0.00    -0.376 OA
BRANCH  43  44
ATOM     44  C   UNL     1       7.283 -20.327   3.782  1.00  0.00     0.188 C 
BRANCH  44  45
ATOM     45  C   UNL     1       5.754 -20.248   3.822  1.00  0.00     0.188 C 
BRANCH  45  46
ATOM     46  O   UNL     1       5.287 -19.326   4.793  1.00  0.00    -0.376 OA
BRANCH  46  47
ATOM     47  C   UNL     1       4.016 -19.442   5.421  1.00  0.00     0.202 C 
BRANCH  47  48
ATOM     48  C   UNL     1       3.050 -20.622   5.262  1.00  0.00     0.261 C 
BRANCH  48  49
ATOM     49  O   UNL     1       3.194 -21.425   4.111  1.00  0.00    -0.460 OA
BRANCH  49  50
ATOM     50  C   UNL     1       3.034 -20.850   2.906  1.00  0.00     0.338 C 
ATOM     51  O   UNL     1       2.689 -19.707   2.668  1.00  0.00    -0.246 OA
BRANCH  50  52
ATOM     52  C   UNL     1       3.371 -21.891   1.916  1.00  0.00     0.060 A 
ATOM     53  C   UNL     1       3.128 -21.616   0.573  1.00  0.00     0.016 A 
ATOM     54  C   UNL     1       3.780 -23.172   2.340  1.00  0.00     0.016 A 
ATOM     55  C   UNL     1       3.048 -22.680  -0.301  1.00  0.00     0.010 A 
ATOM     56  C   UNL     1       3.693 -24.232   1.473  1.00  0.00     0.010 A 
ATOM     57  C   UNL     1       3.223 -23.980   0.193  1.00  0.00    -0.014 A 
BRANCH  57  58
ATOM     58  C   UNL     1       2.893 -25.091  -0.669  1.00  0.00     0.031 A 
ATOM     59  C   UNL     1       3.887 -25.337  -1.722  1.00  0.00     0.074 A 
ATOM     60  C   UNL     1       1.786 -25.837  -0.492  1.00  0.00     0.049 A 
ATOM     61  N   UNL     1       3.774 -25.028  -2.968  1.00  0.00    -0.248 NA
ATOM     62  C   UNL     1       5.216 -25.824  -1.329  1.00  0.00     0.031 C 
ATOM     63  C   UNL     1       0.880 -25.839   0.663  1.00  0.00     0.029 A 
ATOM     64  N   UNL     1       1.283 -26.824  -1.283  1.00  0.00    -0.354 N 
ATOM     65  C   UNL     1       4.937 -25.487  -3.566  1.00  0.00     0.074 A 
ATOM     66  C   UNL     1       5.857 -25.787  -2.498  1.00  0.00     0.031 C 
ATOM     67  C   UNL     1       0.075 -26.924   0.596  1.00  0.00     0.029 A 
ATOM     68  C   UNL     1       0.302 -27.595  -0.674  1.00  0.00     0.049 A 
ATOM     69  H   UNL     1       1.589 -26.979  -2.206  1.00  0.00     0.167 HD
ATOM     70  C   UNL     1       4.933 -25.870  -4.869  1.00  0.00     0.031 A 
ATOM     71  C   UNL     1      -0.263 -28.718  -1.173  1.00  0.00     0.031 A 
ATOM     72  C   UNL     1       3.722 -25.465  -5.537  1.00  0.00     0.049 A 
ATOM     73  C   UNL     1      -0.091 -28.698  -2.640  1.00  0.00     0.074 A 
ATOM     74  C   UNL     1       3.187 -24.292  -6.018  1.00  0.00     0.029 A 
ATOM     75  N   UNL     1       2.697 -26.370  -5.424  1.00  0.00    -0.354 N 
ATOM     76  N   UNL     1      -0.708 -27.852  -3.413  1.00  0.00    -0.248 NA
ATOM     77  C   UNL     1       1.036 -29.392  -3.250  1.00  0.00     0.031 C 
ATOM     78  C   UNL     1       1.771 -24.465  -5.985  1.00  0.00     0.029 A 
ATOM     79  C   UNL     1       1.482 -25.746  -5.516  1.00  0.00     0.049 A 
ATOM     80  H   UNL     1       2.819 -27.338  -5.294  1.00  0.00     0.167 HD
ATOM     81  C   UNL     1       0.204 -27.577  -4.414  1.00  0.00     0.074 A 
ATOM     82  C   UNL     1       1.159 -28.677  -4.373  1.00  0.00     0.031 C 
ATOM     83  C   UNL     1       0.279 -26.331  -4.963  1.00  0.00     0.031 A 
BRANCH  70  84
ATOM     84  C   UNL     1       5.739 -27.033  -5.390  1.00  0.00    -0.014 A 
ATOM     85  C   UNL     1       5.702 -27.305  -6.769  1.00  0.00     0.009 A 
ATOM     86  C   UNL     1       6.270 -28.037  -4.558  1.00  0.00     0.009 A 
ATOM     87  C   UNL     1       6.123 -28.540  -7.277  1.00  0.00     0.001 A 
ATOM     88  C   UNL     1       6.725 -29.256  -5.066  1.00  0.00     0.001 A 
ATOM     89  C   UNL     1       6.629 -29.516  -6.424  1.00  0.00     0.000 A 
ENDBRANCH  70  84
BRANCH  71  90
ATOM     90  C   UNL     1      -0.795 -29.900  -0.469  1.00  0.00    -0.014 A 
ATOM     91  C   UNL     1      -1.708 -30.761  -1.097  1.00  0.00     0.009 A 
ATOM     92  C   UNL     1      -0.176 -30.342   0.713  1.00  0.00     0.009 A 
ATOM     93  C   UNL     1      -1.953 -32.043  -0.587  1.00  0.00     0.001 A 
ATOM     94  C   UNL     1      -0.420 -31.622   1.222  1.00  0.00     0.001 A 
ATOM     95  C   UNL     1      -1.295 -32.478   0.561  1.00  0.00     0.000 A 
ENDBRANCH  71  90
BRANCH  83  96
ATOM     96  C   UNL     1      -0.921 -25.439  -4.803  1.00  0.00    -0.014 A 
ATOM     97  C   UNL     1      -1.377 -24.964  -3.561  1.00  0.00     0.009 A 
ATOM     98  C   UNL     1      -1.574 -25.006  -5.966  1.00  0.00     0.009 A 
ATOM     99  C   UNL     1      -2.476 -24.103  -3.489  1.00  0.00     0.001 A 
ATOM    100  C   UNL     1      -2.656 -24.129  -5.895  1.00  0.00     0.001 A 
ATOM    101  C   UNL     1      -3.112 -23.683  -4.657  1.00  0.00     0.000 A 
ENDBRANCH  83  96
ENDBRANCH  57  58
ENDBRANCH  50  52
ENDBRANCH  49  50
ENDBRANCH  48  49
ENDBRANCH  47  48
ENDBRANCH  46  47
ENDBRANCH  45  46
ENDBRANCH  44  45
ENDBRANCH  43  44
ENDBRANCH  42  43
ENDBRANCH  41  42
ENDBRANCH  40  41
ENDBRANCH  38  40
ENDBRANCH   1  38
TORSDOF 32
