REMARK SMILES CC(C)n1cncc1[C@@H](O)[C@H](C)C(=O)OCCOCCOCCOC(=O)c1ccc(-c2c3nc(c(-c4ccccc4)c4ccc([nH]4)c(-c4ccccc4)c4nc(c(-c5ccccc5)c5ccc2[nH]5)C=C4)C=C3)cc1
REMARK SMILES IDX 19 1 18 2 17 3 16 4 15 5 13 6 14 7 11 8 12 9 9 10 8 11 4 12
REMARK SMILES IDX 5 13 6 14 7 15 2 16 1 17 3 18 10 19 20 21 21 22 22 23 23 24
REMARK SMILES IDX 24 25 25 26 26 27 27 28 28 29 74 30 29 31 73 32 30 33 31 34
REMARK SMILES IDX 32 35 67 36 33 37 72 38 66 39 68 40 34 41 71 42 65 43 64 44
REMARK SMILES IDX 35 46 57 47 42 48 56 49 43 50 46 51 55 52 69 53 44 54 45 55
REMARK SMILES IDX 54 57 70 58 47 59 36 60 37 61 41 62 38 63 40 64 39 65 58 66
REMARK SMILES IDX 59 67 63 68 60 69 62 70 61 71 48 72 49 73 53 74 50 75 52 76
REMARK SMILES IDX 51 77
REMARK H PARENT 10 20 68 45 46 56
REMARK Flexibility Score: inf
ROOT
ATOM      1  C   UNL     1      -2.125   5.039  -1.028  1.00  0.00     0.188 C 
ENDROOT
BRANCH   1   2
ATOM      2  O   UNL     1      -1.639   6.305  -0.641  1.00  0.00    -0.376 OA
BRANCH   2   3
ATOM      3  C   UNL     1      -0.319   6.386  -0.132  1.00  0.00     0.202 C 
BRANCH   3   4
ATOM      4  C   UNL     1       0.210   5.361   0.892  1.00  0.00     0.261 C 
BRANCH   4   5
ATOM      5  O   UNL     1      -0.104   3.978   0.641  1.00  0.00    -0.463 OA
BRANCH   5   6
ATOM      6  C   UNL     1      -1.066   3.422   1.417  1.00  0.00     0.311 C 
ATOM      7  O   UNL     1      -1.665   4.019   2.309  1.00  0.00    -0.252 OA
BRANCH   6   8
ATOM      8  C   UNL     1      -1.373   1.965   1.110  1.00  0.00     0.131 C 
ATOM      9  C   UNL     1      -1.242   1.455  -0.326  1.00  0.00     0.023 C 
BRANCH   8  10
ATOM     10  C   UNL     1      -0.646   1.141   2.176  1.00  0.00     0.176 C 
BRANCH  10  11
ATOM     11  C   UNL     1      -0.546  -0.299   1.819  1.00  0.00     0.067 A 
ATOM     12  N   UNL     1      -1.460  -1.291   2.116  1.00  0.00    -0.330 N 
ATOM     13  C   UNL     1      -1.012  -2.423   1.476  1.00  0.00     0.199 A 
ATOM     14  N   UNL     1       0.086  -2.218   0.791  1.00  0.00    -0.245 NA
ATOM     15  C   UNL     1       0.388  -0.910   0.996  1.00  0.00     0.137 A 
BRANCH  12  16
ATOM     16  C   UNL     1      -2.605  -1.220   3.028  1.00  0.00     0.082 C 
ATOM     17  C   UNL     1      -3.640  -0.138   2.689  1.00  0.00     0.031 C 
ATOM     18  C   UNL     1      -3.365  -2.547   3.155  1.00  0.00     0.031 C 
ENDBRANCH  12  16
ENDBRANCH  10  11
BRANCH  10  19
ATOM     19  O   UNL     1       0.694   1.593   2.335  1.00  0.00    -0.386 OA
ATOM     20  H   UNL     1       1.180   1.464   1.505  1.00  0.00     0.211 HD
ENDBRANCH  10  19
ENDBRANCH   8  10
ENDBRANCH   6   8
ENDBRANCH   5   6
ENDBRANCH   4   5
ENDBRANCH   3   4
ENDBRANCH   2   3
ENDBRANCH   1   2
BRANCH   1  21
ATOM     21  C   UNL     1      -1.330   4.173  -2.008  1.00  0.00     0.188 C 
BRANCH  21  22
ATOM     22  O   UNL     1       0.067   4.032  -1.978  1.00  0.00    -0.376 OA
BRANCH  22  23
ATOM     23  C   UNL     1       0.975   4.768  -2.787  1.00  0.00     0.202 C 
BRANCH  23  24
ATOM     24  C   UNL     1       0.620   5.610  -4.019  1.00  0.00     0.261 C 
BRANCH  24  25
ATOM     25  O   UNL     1      -0.742   5.910  -4.181  1.00  0.00    -0.460 OA
BRANCH  25  26
ATOM     26  C   UNL     1      -1.435   4.987  -4.875  1.00  0.00     0.338 C 
ATOM     27  O   UNL     1      -1.013   3.974  -5.434  1.00  0.00    -0.246 OA
BRANCH  26  28
ATOM     28  C   UNL     1      -2.850   5.313  -4.709  1.00  0.00     0.060 A 
ATOM     29  C   UNL     1      -3.785   4.394  -5.172  1.00  0.00     0.016 A 
ATOM     30  C   UNL     1      -3.180   6.643  -4.543  1.00  0.00     0.016 A 
ATOM     31  C   UNL     1      -4.610   4.878  -6.148  1.00  0.00     0.010 A 
ATOM     32  C   UNL     1      -4.224   7.047  -5.294  1.00  0.00     0.010 A 
ATOM     33  C   UNL     1      -4.561   6.246  -6.368  1.00  0.00    -0.014 A 
BRANCH  33  34
ATOM     34  C   UNL     1      -5.119   6.878  -7.538  1.00  0.00     0.031 A 
ATOM     35  C   UNL     1      -6.579   6.956  -7.351  1.00  0.00     0.074 A 
ATOM     36  C   UNL     1      -4.387   7.380  -8.565  1.00  0.00     0.049 A 
ATOM     37  N   UNL     1      -7.408   6.046  -7.744  1.00  0.00    -0.248 NA
ATOM     38  C   UNL     1      -7.137   7.863  -6.330  1.00  0.00     0.031 C 
ATOM     39  C   UNL     1      -2.937   7.457  -8.815  1.00  0.00     0.029 A 
ATOM     40  N   UNL     1      -4.880   7.991  -9.681  1.00  0.00    -0.354 N 
ATOM     41  C   UNL     1      -8.637   6.448  -7.253  1.00  0.00     0.074 A 
ATOM     42  C   UNL     1      -8.358   7.350  -6.172  1.00  0.00     0.031 C 
ATOM     43  C   UNL     1      -2.685   8.286  -9.868  1.00  0.00     0.029 A 
ATOM     44  C   UNL     1      -3.946   8.679 -10.466  1.00  0.00     0.049 A 
ATOM     45  H   UNL     1      -5.835   7.951  -9.920  1.00  0.00     0.167 HD
ATOM     46  C   UNL     1      -9.747   6.314  -8.024  1.00  0.00     0.031 A 
ATOM     47  C   UNL     1      -4.243   9.464 -11.546  1.00  0.00     0.031 A 
ATOM     48  C   UNL     1      -9.485   5.440  -9.143  1.00  0.00     0.049 A 
ATOM     49  C   UNL     1      -5.574   8.999 -12.031  1.00  0.00     0.074 A 
ATOM     50  C   UNL     1      -9.150   4.108  -9.275  1.00  0.00     0.029 A 
ATOM     51  N   UNL     1      -9.069   6.064 -10.298  1.00  0.00    -0.354 N 
ATOM     52  N   UNL     1      -5.733   7.806 -12.539  1.00  0.00    -0.248 NA
ATOM     53  C   UNL     1      -6.753   9.580 -11.397  1.00  0.00     0.031 C 
ATOM     54  C   UNL     1      -8.147   4.081 -10.290  1.00  0.00     0.029 A 
ATOM     55  C   UNL     1      -8.008   5.366 -10.818  1.00  0.00     0.049 A 
ATOM     56  H   UNL     1      -9.467   6.876 -10.686  1.00  0.00     0.167 HD
ATOM     57  C   UNL     1      -6.860   7.301 -11.907  1.00  0.00     0.074 A 
ATOM     58  C   UNL     1      -7.463   8.456 -11.226  1.00  0.00     0.031 C 
ATOM     59  C   UNL     1      -7.011   5.960 -11.682  1.00  0.00     0.031 A 
BRANCH  46  60
ATOM     60  C   UNL     1     -10.838   7.351  -8.069  1.00  0.00    -0.014 A 
ATOM     61  C   UNL     1     -11.946   7.097  -8.892  1.00  0.00     0.009 A 
ATOM     62  C   UNL     1     -10.692   8.666  -7.585  1.00  0.00     0.009 A 
ATOM     63  C   UNL     1     -12.815   8.124  -9.273  1.00  0.00     0.001 A 
ATOM     64  C   UNL     1     -11.575   9.687  -7.938  1.00  0.00     0.001 A 
ATOM     65  C   UNL     1     -12.623   9.420  -8.805  1.00  0.00     0.000 A 
ENDBRANCH  46  60
BRANCH  47  66
ATOM     66  C   UNL     1      -3.729  10.829 -11.869  1.00  0.00    -0.014 A 
ATOM     67  C   UNL     1      -3.949  11.446 -13.119  1.00  0.00     0.009 A 
ATOM     68  C   UNL     1      -3.262  11.653 -10.829  1.00  0.00     0.009 A 
ATOM     69  C   UNL     1      -3.724  12.826 -13.305  1.00  0.00     0.001 A 
ATOM     70  C   UNL     1      -3.050  13.028 -11.011  1.00  0.00     0.001 A 
ATOM     71  C   UNL     1      -3.288  13.618 -12.247  1.00  0.00     0.000 A 
ENDBRANCH  47  66
BRANCH  59  72
ATOM     72  C   UNL     1      -5.970   5.019 -12.253  1.00  0.00    -0.014 A 
ATOM     73  C   UNL     1      -4.639   4.930 -11.797  1.00  0.00     0.009 A 
ATOM     74  C   UNL     1      -6.412   4.064 -13.177  1.00  0.00     0.009 A 
ATOM     75  C   UNL     1      -3.775   3.936 -12.284  1.00  0.00     0.001 A 
ATOM     76  C   UNL     1      -5.559   3.064 -13.647  1.00  0.00     0.001 A 
ATOM     77  C   UNL     1      -4.239   3.004 -13.210  1.00  0.00     0.000 A 
ENDBRANCH  59  72
ENDBRANCH  33  34
ENDBRANCH  26  28
ENDBRANCH  25  26
ENDBRANCH  24  25
ENDBRANCH  23  24
ENDBRANCH  22  23
ENDBRANCH  21  22
ENDBRANCH   1  21
TORSDOF 21
