REMARK SMILES O=C(CCn1ccnc1)N[C@H]1C=C[C@H](C(=O)OCCOCCOCCOC(=O)c2ccc(-c3c4nc(c(-c5ccccc5)c5ccc([nH]5)c(-c5ccccc5)c5nc(c(-c6ccccc6)c6ccc3[nH]6)C=C5)C=C4)cc2)C1
REMARK SMILES IDX 21 1 20 2 19 3 18 4 17 5 15 6 16 7 14 8 11 9 12 10 77 11
REMARK SMILES IDX 13 12 10 13 1 14 2 15 3 17 4 18 5 19 6 20 9 21 7 22 8 23
REMARK SMILES IDX 22 24 23 25 24 26 25 27 26 28 27 29 28 30 29 31 30 32 76 33
REMARK SMILES IDX 31 34 75 35 32 36 33 37 34 38 69 39 35 40 74 41 68 42 70 43
REMARK SMILES IDX 36 44 73 45 67 46 66 47 37 49 59 50 44 51 58 52 45 53 48 54
REMARK SMILES IDX 57 55 71 56 46 57 47 58 56 60 72 61 49 62 38 63 39 64 43 65
REMARK SMILES IDX 40 66 42 67 41 68 60 69 61 70 65 71 62 72 64 73 63 74 50 75
REMARK SMILES IDX 51 76 55 77 52 78 54 79 53 80
REMARK H PARENT 10 16 70 48 48 59
REMARK Flexibility Score: inf
ROOT
ATOM      1  C   UNL     1      -0.227  -4.104  -3.886  1.00  0.00     0.188 C 
ENDROOT
BRANCH   1   2
ATOM      2  O   UNL     1      -1.150  -5.112  -4.269  1.00  0.00    -0.376 OA
BRANCH   2   3
ATOM      3  C   UNL     1      -2.458  -5.028  -3.713  1.00  0.00     0.202 C 
BRANCH   3   4
ATOM      4  C   UNL     1      -2.610  -5.018  -2.177  1.00  0.00     0.261 C 
BRANCH   4   5
ATOM      5  O   UNL     1      -1.655  -4.229  -1.433  1.00  0.00    -0.463 OA
BRANCH   5   6
ATOM      6  C   UNL     1      -0.711  -4.933  -0.746  1.00  0.00     0.312 C 
ATOM      7  O   UNL     1      -0.662  -6.160  -0.714  1.00  0.00    -0.252 OA
BRANCH   6   8
ATOM      8  C   UNL     1       0.305  -4.062   0.006  1.00  0.00     0.124 C 
ATOM      9  C   UNL     1       1.710  -2.250  -0.969  1.00  0.00     0.106 C 
ATOM     10  C   UNL     1       2.445  -3.546  -0.869  1.00  0.00    -0.006 C 
ATOM     11  C   UNL     1       0.373  -2.548  -0.258  1.00  0.00     0.048 C 
ATOM     12  C   UNL     1       1.698  -4.516  -0.334  1.00  0.00    -0.014 C 
BRANCH   9  13
ATOM     13  N   UNL     1       2.551  -1.233  -0.376  1.00  0.00    -0.350 N 
ATOM     14  O   UNL     1       0.929   0.341  -0.012  1.00  0.00    -0.275 OA
ATOM     15  C   UNL     1       2.103  -0.009   0.052  1.00  0.00     0.222 C 
ATOM     16  H   UNL     1       3.509  -1.433  -0.272  1.00  0.00     0.164 HD
BRANCH  15  17
ATOM     17  C   UNL     1       3.171   0.925   0.594  1.00  0.00     0.122 C 
BRANCH  17  18
ATOM     18  C   UNL     1       3.990   0.329   1.739  1.00  0.00     0.133 C 
BRANCH  18  19
ATOM     19  N   UNL     1       5.035  -0.568   1.283  1.00  0.00    -0.337 N 
ATOM     20  C   UNL     1       6.106  -0.228   0.503  1.00  0.00     0.107 A 
ATOM     21  C   UNL     1       5.062  -1.923   1.453  1.00  0.00     0.199 A 
ATOM     22  C   UNL     1       6.693  -1.425   0.165  1.00  0.00     0.130 A 
ATOM     23  N   UNL     1       6.026  -2.471   0.748  1.00  0.00    -0.245 NA
ENDBRANCH  18  19
ENDBRANCH  17  18
ENDBRANCH  15  17
ENDBRANCH   9  13
ENDBRANCH   6   8
ENDBRANCH   5   6
ENDBRANCH   4   5
ENDBRANCH   3   4
ENDBRANCH   2   3
ENDBRANCH   1   2
BRANCH   1  24
ATOM     24  C   UNL     1      -0.668  -2.641  -4.025  1.00  0.00     0.188 C 
BRANCH  24  25
ATOM     25  O   UNL     1      -2.020  -2.346  -3.686  1.00  0.00    -0.376 OA
BRANCH  25  26
ATOM     26  C   UNL     1      -2.397  -0.968  -3.775  1.00  0.00     0.202 C 
BRANCH  26  27
ATOM     27  C   UNL     1      -2.546  -0.424  -5.202  1.00  0.00     0.261 C 
BRANCH  27  28
ATOM     28  O   UNL     1      -1.375  -0.538  -6.004  1.00  0.00    -0.460 OA
BRANCH  28  29
ATOM     29  C   UNL     1      -0.211  -0.060  -5.512  1.00  0.00     0.338 C 
ATOM     30  O   UNL     1      -0.044   0.622  -4.523  1.00  0.00    -0.246 OA
BRANCH  29  31
ATOM     31  C   UNL     1       0.861  -0.541  -6.402  1.00  0.00     0.060 A 
ATOM     32  C   UNL     1       2.135  -0.006  -6.219  1.00  0.00     0.016 A 
ATOM     33  C   UNL     1       0.553  -1.366  -7.499  1.00  0.00     0.016 A 
ATOM     34  C   UNL     1       3.009  -0.046  -7.282  1.00  0.00     0.010 A 
ATOM     35  C   UNL     1       1.414  -1.393  -8.564  1.00  0.00     0.010 A 
ATOM     36  C   UNL     1       2.569  -0.626  -8.476  1.00  0.00    -0.014 A 
BRANCH  36  37
ATOM     37  C   UNL     1       3.263  -0.271  -9.691  1.00  0.00     0.031 A 
ATOM     38  C   UNL     1       4.431  -1.100 -10.015  1.00  0.00     0.074 A 
ATOM     39  C   UNL     1       2.773   0.692 -10.495  1.00  0.00     0.049 A 
ATOM     40  N   UNL     1       5.667  -0.735 -10.048  1.00  0.00    -0.248 NA
ATOM     41  C   UNL     1       4.207  -2.539 -10.211  1.00  0.00     0.031 C 
ATOM     42  C   UNL     1       1.458   1.342 -10.418  1.00  0.00     0.029 A 
ATOM     43  N   UNL     1       3.304   1.200 -11.637  1.00  0.00    -0.354 N 
ATOM     44  C   UNL     1       6.367  -1.860 -10.459  1.00  0.00     0.074 A 
ATOM     45  C   UNL     1       5.457  -2.973 -10.361  1.00  0.00     0.031 C 
ATOM     46  C   UNL     1       1.210   1.974 -11.587  1.00  0.00     0.029 A 
ATOM     47  C   UNL     1       2.389   1.874 -12.431  1.00  0.00     0.049 A 
ATOM     48  H   UNL     1       4.253   1.100 -11.879  1.00  0.00     0.167 HD
ATOM     49  C   UNL     1       7.553  -1.756 -11.115  1.00  0.00     0.031 A 
ATOM     50  C   UNL     1       2.564   2.241 -13.723  1.00  0.00     0.031 A 
ATOM     51  C   UNL     1       8.143  -0.451 -10.970  1.00  0.00     0.049 A 
ATOM     52  C   UNL     1       4.017   2.200 -14.014  1.00  0.00     0.074 A 
ATOM     53  C   UNL     1       8.559   0.315  -9.899  1.00  0.00     0.029 A 
ATOM     54  N   UNL     1       8.037   0.408 -12.037  1.00  0.00    -0.354 N 
ATOM     55  N   UNL     1       4.879   3.038 -13.514  1.00  0.00    -0.248 NA
ATOM     56  C   UNL     1       4.584   0.963 -14.530  1.00  0.00     0.031 C 
ATOM     57  C   UNL     1       8.255   1.659 -10.262  1.00  0.00     0.029 A 
ATOM     58  C   UNL     1       7.709   1.645 -11.547  1.00  0.00     0.049 A 
ATOM     59  H   UNL     1       8.174   0.177 -12.985  1.00  0.00     0.167 HD
ATOM     60  C   UNL     1       6.010   2.275 -13.258  1.00  0.00     0.074 A 
ATOM     61  C   UNL     1       5.813   1.042 -14.013  1.00  0.00     0.031 C 
ATOM     62  C   UNL     1       6.856   2.592 -12.233  1.00  0.00     0.031 A 
BRANCH  49  63
ATOM     63  C   UNL     1       7.947  -2.697 -12.222  1.00  0.00    -0.014 A 
ATOM     64  C   UNL     1       9.232  -2.586 -12.778  1.00  0.00     0.009 A 
ATOM     65  C   UNL     1       7.019  -3.496 -12.921  1.00  0.00     0.009 A 
ATOM     66  C   UNL     1       9.547  -3.195 -13.998  1.00  0.00     0.001 A 
ATOM     67  C   UNL     1       7.345  -4.144 -14.112  1.00  0.00     0.001 A 
ATOM     68  C   UNL     1       8.604  -3.971 -14.665  1.00  0.00     0.000 A 
ENDBRANCH  49  63
BRANCH  50  69
ATOM     69  C   UNL     1       1.542   2.349 -14.784  1.00  0.00    -0.014 A 
ATOM     70  C   UNL     1       1.802   3.060 -15.965  1.00  0.00     0.009 A 
ATOM     71  C   UNL     1       0.389   1.542 -14.746  1.00  0.00     0.009 A 
ATOM     72  C   UNL     1       0.954   2.943 -17.075  1.00  0.00     0.001 A 
ATOM     73  C   UNL     1      -0.461   1.431 -15.850  1.00  0.00     0.001 A 
ATOM     74  C   UNL     1      -0.170   2.121 -17.020  1.00  0.00     0.000 A 
ENDBRANCH  50  69
BRANCH  62  75
ATOM     75  C   UNL     1       6.691   3.939 -11.573  1.00  0.00    -0.014 A 
ATOM     76  C   UNL     1       5.514   4.323 -10.907  1.00  0.00     0.009 A 
ATOM     77  C   UNL     1       7.812   4.778 -11.482  1.00  0.00     0.009 A 
ATOM     78  C   UNL     1       5.454   5.526 -10.195  1.00  0.00     0.001 A 
ATOM     79  C   UNL     1       7.759   5.968 -10.753  1.00  0.00     0.001 A 
ATOM     80  C   UNL     1       6.579   6.344 -10.114  1.00  0.00     0.000 A 
ENDBRANCH  62  75
ENDBRANCH  36  37
ENDBRANCH  29  31
ENDBRANCH  28  29
ENDBRANCH  27  28
ENDBRANCH  26  27
ENDBRANCH  25  26
ENDBRANCH  24  25
ENDBRANCH   1  24
TORSDOF 21
