REMARK SMILES CS(=O)(=O)c1ccc(/C=C(/C(=O)OCCOCCOCCOC(=O)c2ccc(-c3c4nc(c(-c5ccccc5)c5ccc([nH]5)c(-c5ccccc5)c5nc(c(-c6ccccc6)c6ccc3[nH]6)C=C5)C=C4)cc2)c2ccc(-c3ccc(F)cc3F)cc2)cc1
REMARK SMILES IDX 17 1 16 2 15 3 14 4 13 5 11 6 12 7 10 8 9 9 8 10 5 11 6 12
REMARK SMILES IDX 88 13 7 14 87 15 2 16 1 17 3 18 4 19 73 20 74 21 86 22 75 23
REMARK SMILES IDX 85 24 76 25 77 26 78 27 83 28 79 29 82 30 84 31 80 32 81 33
REMARK SMILES IDX 18 34 19 35 20 36 21 37 22 38 23 39 24 40 25 41 26 42 72 43
REMARK SMILES IDX 27 44 71 45 28 46 29 47 30 48 65 49 31 50 70 51 64 52 66 53
REMARK SMILES IDX 32 54 69 55 63 56 62 57 33 59 55 60 40 61 54 62 41 63 44 64
REMARK SMILES IDX 53 65 67 66 42 67 43 68 52 70 68 71 45 72 34 73 35 74 39 75
REMARK SMILES IDX 36 76 38 77 37 78 56 79 57 80 61 81 58 82 60 83 59 84 46 85
REMARK SMILES IDX 47 86 51 87 48 88 50 89 49 90
REMARK H PARENT 66 58 44 69
REMARK Flexibility Score: inf
ROOT
ATOM      1  C   UNL     1       0.956 -10.238   3.463  1.00  0.00     0.188 C 
ENDROOT
BRANCH   1   2
ATOM      2  O   UNL     1       1.825 -11.232   3.947  1.00  0.00    -0.376 OA
BRANCH   2   3
ATOM      3  C   UNL     1       3.174 -11.222   3.515  1.00  0.00     0.202 C 
BRANCH   3   4
ATOM      4  C   UNL     1       3.974  -9.937   3.193  1.00  0.00     0.261 C 
BRANCH   4   5
ATOM      5  O   UNL     1       3.257  -8.705   3.020  1.00  0.00    -0.460 OA
BRANCH   5   6
ATOM      6  C   UNL     1       3.027  -8.292   1.746  1.00  0.00     0.338 C 
ATOM      7  O   UNL     1       3.359  -8.901   0.740  1.00  0.00    -0.246 OA
BRANCH   6   8
ATOM      8  C   UNL     1       2.177  -7.050   1.714  1.00  0.00     0.067 C 
ATOM      9  C   UNL     1       2.389  -6.057   2.616  1.00  0.00     0.024 C 
BRANCH   9  10
ATOM     10  C   UNL     1       1.773  -4.703   2.665  1.00  0.00    -0.025 A 
ATOM     11  C   UNL     1       0.915  -2.045   2.350  1.00  0.00     0.067 A 
ATOM     12  C   UNL     1       0.052  -3.090   2.034  1.00  0.00     0.021 A 
ATOM     13  C   UNL     1       2.143  -2.306   2.957  1.00  0.00     0.021 A 
ATOM     14  C   UNL     1       0.471  -4.409   2.235  1.00  0.00     0.009 A 
ATOM     15  C   UNL     1       2.568  -3.633   3.107  1.00  0.00     0.009 A 
BRANCH  11  16
ATOM     16  S   UNL     1       0.443  -0.375   1.966  1.00  0.00     0.175 S 
ATOM     17  C   UNL     1       1.089  -0.139   0.327  1.00  0.00     0.163 C 
ATOM     18  O   UNL     1       1.166   0.502   2.867  1.00  0.00    -0.224 OA
ATOM     19  O   UNL     1      -1.005  -0.337   1.887  1.00  0.00    -0.224 OA
ENDBRANCH  11  16
ENDBRANCH   9  10
BRANCH   8  20
ATOM     20  C   UNL     1       1.119  -6.981   0.684  1.00  0.00    -0.011 A 
ATOM     21  C   UNL     1      -0.046  -7.737   0.864  1.00  0.00     0.009 A 
ATOM     22  C   UNL     1       1.180  -6.090  -0.391  1.00  0.00     0.009 A 
ATOM     23  C   UNL     1      -1.141  -7.575   0.018  1.00  0.00     0.009 A 
ATOM     24  C   UNL     1       0.067  -5.917  -1.228  1.00  0.00     0.009 A 
ATOM     25  C   UNL     1      -1.118  -6.647  -1.029  1.00  0.00    -0.015 A 
BRANCH  25  26
ATOM     26  C   UNL     1      -2.312  -6.464  -1.871  1.00  0.00     0.018 A 
ATOM     27  C   UNL     1      -3.590  -6.317  -1.292  1.00  0.00     0.015 A 
ATOM     28  C   UNL     1      -2.233  -6.475  -3.273  1.00  0.00     0.133 A 
ATOM     29  C   UNL     1      -4.733  -6.209  -2.088  1.00  0.00     0.040 A 
ATOM     30  C   UNL     1      -3.366  -6.364  -4.072  1.00  0.00     0.079 A 
ATOM     31  F   UNL     1      -1.045  -6.616  -3.881  1.00  0.00    -0.206 F 
ATOM     32  C   UNL     1      -4.608  -6.239  -3.471  1.00  0.00     0.126 A 
ATOM     33  F   UNL     1      -5.702  -6.141  -4.236  1.00  0.00    -0.207 F 
ENDBRANCH  25  26
ENDBRANCH   8  20
ENDBRANCH   6   8
ENDBRANCH   5   6
ENDBRANCH   4   5
ENDBRANCH   3   4
ENDBRANCH   2   3
ENDBRANCH   1   2
BRANCH   1  34
ATOM     34  C   UNL     1       0.773  -9.055   4.437  1.00  0.00     0.188 C 
BRANCH  34  35
ATOM     35  O   UNL     1       1.449  -9.042   5.684  1.00  0.00    -0.376 OA
BRANCH  35  36
ATOM     36  C   UNL     1       1.447 -10.211   6.491  1.00  0.00     0.202 C 
BRANCH  36  37
ATOM     37  C   UNL     1       0.146 -10.990   6.771  1.00  0.00     0.261 C 
BRANCH  37  38
ATOM     38  O   UNL     1      -0.793 -11.097   5.689  1.00  0.00    -0.460 OA
BRANCH  38  39
ATOM     39  C   UNL     1      -1.897 -10.319   5.791  1.00  0.00     0.338 C 
ATOM     40  O   UNL     1      -2.182  -9.550   6.698  1.00  0.00    -0.246 OA
BRANCH  39  41
ATOM     41  C   UNL     1      -2.662 -10.379   4.529  1.00  0.00     0.060 A 
ATOM     42  C   UNL     1      -2.837  -9.197   3.795  1.00  0.00     0.016 A 
ATOM     43  C   UNL     1      -3.245 -11.570   4.093  1.00  0.00     0.016 A 
ATOM     44  C   UNL     1      -3.604  -9.199   2.631  1.00  0.00     0.010 A 
ATOM     45  C   UNL     1      -4.036 -11.565   2.938  1.00  0.00     0.010 A 
ATOM     46  C   UNL     1      -4.235 -10.377   2.212  1.00  0.00    -0.014 A 
BRANCH  46  47
ATOM     47  C   UNL     1      -5.239 -10.323   1.121  1.00  0.00     0.031 A 
ATOM     48  C   UNL     1      -6.686 -10.135   1.481  1.00  0.00     0.074 A 
ATOM     49  C   UNL     1      -4.877 -10.416  -0.171  1.00  0.00     0.049 A 
ATOM     50  N   UNL     1      -7.737 -10.092   0.702  1.00  0.00    -0.248 NA
ATOM     51  C   UNL     1      -6.987  -9.974   2.912  1.00  0.00     0.031 C 
ATOM     52  C   UNL     1      -3.509 -10.556  -0.661  1.00  0.00     0.029 A 
ATOM     53  N   UNL     1      -5.645 -10.409  -1.310  1.00  0.00    -0.354 N 
ATOM     54  C   UNL     1      -8.824  -9.911   1.547  1.00  0.00     0.074 A 
ATOM     55  C   UNL     1      -8.307  -9.870   2.899  1.00  0.00     0.031 C 
ATOM     56  C   UNL     1      -3.531 -10.614  -2.005  1.00  0.00     0.029 A 
ATOM     57  C   UNL     1      -4.918 -10.575  -2.464  1.00  0.00     0.049 A 
ATOM     58  H   UNL     1      -6.622 -10.296  -1.301  1.00  0.00     0.167 HD
ATOM     59  C   UNL     1     -10.135  -9.795   1.231  1.00  0.00     0.031 A 
ATOM     60  C   UNL     1      -5.329 -10.716  -3.740  1.00  0.00     0.031 A 
ATOM     61  C   UNL     1     -10.659  -9.877  -0.106  1.00  0.00     0.049 A 
ATOM     62  C   UNL     1      -6.804 -10.690  -4.055  1.00  0.00     0.074 A 
ATOM     63  C   UNL     1     -11.975  -9.771  -0.523  1.00  0.00     0.029 A 
ATOM     64  N   UNL     1      -9.897 -10.104  -1.241  1.00  0.00    -0.354 N 
ATOM     65  N   UNL     1      -7.821 -10.497  -3.250  1.00  0.00    -0.248 NA
ATOM     66  C   UNL     1      -7.185 -10.907  -5.460  1.00  0.00     0.031 C 
ATOM     67  C   UNL     1     -12.015 -10.002  -1.902  1.00  0.00     0.029 A 
ATOM     68  C   UNL     1     -10.717 -10.174  -2.354  1.00  0.00     0.049 A 
ATOM     69  H   UNL     1      -8.917 -10.202  -1.253  1.00  0.00     0.167 HD
ATOM     70  C   UNL     1      -8.955 -10.534  -4.055  1.00  0.00     0.074 A 
ATOM     71  C   UNL     1      -8.501 -10.755  -5.411  1.00  0.00     0.031 C 
ATOM     72  C   UNL     1     -10.257 -10.394  -3.701  1.00  0.00     0.031 A 
BRANCH  59  73
ATOM     73  C   UNL     1     -11.103  -9.620   2.369  1.00  0.00    -0.014 A 
ATOM     74  C   UNL     1     -11.152  -8.431   3.112  1.00  0.00     0.009 A 
ATOM     75  C   UNL     1     -11.995 -10.657   2.687  1.00  0.00     0.009 A 
ATOM     76  C   UNL     1     -12.048  -8.299   4.176  1.00  0.00     0.001 A 
ATOM     77  C   UNL     1     -12.910 -10.510   3.729  1.00  0.00     0.001 A 
ATOM     78  C   UNL     1     -12.929  -9.336   4.480  1.00  0.00     0.000 A 
ENDBRANCH  59  73
BRANCH  60  79
ATOM     79  C   UNL     1      -4.338 -10.940  -4.827  1.00  0.00    -0.014 A 
ATOM     80  C   UNL     1      -4.147  -9.980  -5.833  1.00  0.00     0.009 A 
ATOM     81  C   UNL     1      -3.610 -12.139  -4.890  1.00  0.00     0.009 A 
ATOM     82  C   UNL     1      -3.270 -10.229  -6.892  1.00  0.00     0.001 A 
ATOM     83  C   UNL     1      -2.709 -12.371  -5.931  1.00  0.00     0.001 A 
ATOM     84  C   UNL     1      -2.548 -11.421  -6.938  1.00  0.00     0.000 A 
ENDBRANCH  60  79
BRANCH  72  85
ATOM     85  C   UNL     1     -11.286 -10.423  -4.800  1.00  0.00    -0.014 A 
ATOM     86  C   UNL     1     -11.598 -11.607  -5.488  1.00  0.00     0.009 A 
ATOM     87  C   UNL     1     -11.991  -9.251  -5.118  1.00  0.00     0.009 A 
ATOM     88  C   UNL     1     -12.569 -11.605  -6.493  1.00  0.00     0.001 A 
ATOM     89  C   UNL     1     -12.984  -9.260  -6.099  1.00  0.00     0.001 A 
ATOM     90  C   UNL     1     -13.265 -10.435  -6.793  1.00  0.00     0.000 A 
ENDBRANCH  72  85
ENDBRANCH  46  47
ENDBRANCH  39  41
ENDBRANCH  38  39
ENDBRANCH  37  38
ENDBRANCH  36  37
ENDBRANCH  35  36
ENDBRANCH  34  35
ENDBRANCH   1  34
TORSDOF 21
