REMARK SMILES COc1ccc([C@H]2O[C@@H]2C(=O)OCCOCCOCCOC(=O)c2ccc(-c3c4nc(c(-c5ccccc5)c5ccc([nH]5)c(-c5ccccc5)c5nc(c(-c6ccccc6)c6ccc3[nH]6)C=C5)C=C4)cc2)cc1Oc1ccccc1
REMARK SMILES IDX 16 1 15 2 14 3 13 4 12 5 10 6 11 7 9 8 7 9 8 10 6 11 3 12
REMARK SMILES IDX 4 13 73 14 5 15 72 16 2 17 1 18 74 19 75 20 76 21 80 22
REMARK SMILES IDX 77 23 79 24 78 25 17 26 18 27 19 28 20 29 21 30 22 31 23 32
REMARK SMILES IDX 24 33 25 34 71 35 26 36 70 37 27 38 28 39 29 40 64 41 30 42
REMARK SMILES IDX 69 43 63 44 65 45 31 46 68 47 62 48 61 49 32 51 54 52 39 53
REMARK SMILES IDX 53 54 40 55 43 56 52 57 66 58 41 59 42 60 51 62 67 63 44 64
REMARK SMILES IDX 33 65 34 66 38 67 35 68 37 69 36 70 55 71 56 72 60 73 57 74
REMARK SMILES IDX 59 75 58 76 45 77 46 78 50 79 47 80 49 81 48 82
REMARK H PARENT 65 50 43 61
REMARK Flexibility Score: inf
ROOT
ATOM      1  C   UNL     1       4.252  -0.970  -5.636  1.00  0.00     0.188 C 
ENDROOT
BRANCH   1   2
ATOM      2  O   UNL     1       5.414  -0.588  -4.909  1.00  0.00    -0.376 OA
BRANCH   2   3
ATOM      3  C   UNL     1       6.472  -1.525  -4.727  1.00  0.00     0.202 C 
BRANCH   3   4
ATOM      4  C   UNL     1       6.155  -2.957  -4.261  1.00  0.00     0.261 C 
BRANCH   4   5
ATOM      5  O   UNL     1       5.112  -3.610  -5.008  1.00  0.00    -0.461 OA
BRANCH   5   6
ATOM      6  C   UNL     1       4.027  -3.999  -4.279  1.00  0.00     0.338 C 
ATOM      7  O   UNL     1       3.935  -3.938  -3.068  1.00  0.00    -0.249 OA
BRANCH   6   8
ATOM      8  C   UNL     1       2.868  -4.395  -5.141  1.00  0.00     0.262 C 
ATOM      9  C   UNL     1       1.477  -4.009  -4.665  1.00  0.00     0.190 C 
ATOM     10  O   UNL     1       2.014  -5.348  -4.511  1.00  0.00    -0.352 OA
BRANCH   9  11
ATOM     11  C   UNL     1       0.176  -3.968  -5.439  1.00  0.00    -0.012 A 
ATOM     12  C   UNL     1      -2.446  -3.841  -6.532  1.00  0.00     0.161 A 
ATOM     13  C   UNL     1      -2.093  -4.864  -5.654  1.00  0.00     0.051 A 
ATOM     14  C   UNL     1      -1.514  -2.847  -6.864  1.00  0.00     0.169 A 
ATOM     15  C   UNL     1      -0.806  -4.923  -5.126  1.00  0.00     0.010 A 
ATOM     16  C   UNL     1      -0.201  -2.942  -6.331  1.00  0.00     0.057 A 
BRANCH  12  17
ATOM     17  O   UNL     1      -3.763  -3.814  -6.902  1.00  0.00    -0.493 OA
ATOM     18  C   UNL     1      -3.992  -4.583  -8.079  1.00  0.00     0.278 C 
ENDBRANCH  12  17
BRANCH  14  19
ATOM     19  O   UNL     1      -1.708  -1.744  -7.682  1.00  0.00    -0.453 OA
BRANCH  19  20
ATOM     20  C   UNL     1      -2.973  -1.388  -8.091  1.00  0.00     0.127 A 
ATOM     21  C   UNL     1      -3.230  -1.367  -9.465  1.00  0.00     0.047 A 
ATOM     22  C   UNL     1      -3.971  -1.003  -7.192  1.00  0.00     0.047 A 
ATOM     23  C   UNL     1      -4.511  -1.063  -9.933  1.00  0.00     0.004 A 
ATOM     24  C   UNL     1      -5.256  -0.717  -7.662  1.00  0.00     0.004 A 
ATOM     25  C   UNL     1      -5.529  -0.758  -9.030  1.00  0.00     0.000 A 
ENDBRANCH  19  20
ENDBRANCH  14  19
ENDBRANCH   9  11
ENDBRANCH   6   8
ENDBRANCH   5   6
ENDBRANCH   4   5
ENDBRANCH   3   4
ENDBRANCH   2   3
ENDBRANCH   1   2
BRANCH   1  26
ATOM     26  C   UNL     1       4.401  -1.653  -7.013  1.00  0.00     0.188 C 
BRANCH  26  27
ATOM     27  O   UNL     1       5.722  -2.038  -7.317  1.00  0.00    -0.376 OA
BRANCH  27  28
ATOM     28  C   UNL     1       6.459  -1.271  -8.256  1.00  0.00     0.202 C 
BRANCH  28  29
ATOM     29  C   UNL     1       6.400   0.271  -8.313  1.00  0.00     0.261 C 
BRANCH  29  30
ATOM     30  O   UNL     1       5.217   0.918  -7.825  1.00  0.00    -0.460 OA
BRANCH  30  31
ATOM     31  C   UNL     1       4.224   1.121  -8.720  1.00  0.00     0.338 C 
ATOM     32  O   UNL     1       4.201   0.776  -9.887  1.00  0.00    -0.246 OA
BRANCH  31  33
ATOM     33  C   UNL     1       3.058   1.674  -8.002  1.00  0.00     0.060 A 
ATOM     34  C   UNL     1       1.895   0.896  -7.907  1.00  0.00     0.016 A 
ATOM     35  C   UNL     1       3.092   2.966  -7.472  1.00  0.00     0.016 A 
ATOM     36  C   UNL     1       0.747   1.425  -7.319  1.00  0.00     0.010 A 
ATOM     37  C   UNL     1       1.933   3.503  -6.902  1.00  0.00     0.010 A 
ATOM     38  C   UNL     1       0.745   2.749  -6.862  1.00  0.00    -0.014 A 
BRANCH  38  39
ATOM     39  C   UNL     1      -0.548   3.406  -6.555  1.00  0.00     0.031 A 
ATOM     40  C   UNL     1      -1.186   4.258  -7.620  1.00  0.00     0.074 A 
ATOM     41  C   UNL     1      -1.171   3.220  -5.379  1.00  0.00     0.049 A 
ATOM     42  N   UNL     1      -2.304   4.938  -7.585  1.00  0.00    -0.248 NA
ATOM     43  C   UNL     1      -0.460   4.360  -8.897  1.00  0.00     0.031 C 
ATOM     44  C   UNL     1      -0.685   2.382  -4.284  1.00  0.00     0.029 A 
ATOM     45  N   UNL     1      -2.356   3.732  -4.914  1.00  0.00    -0.354 N 
ATOM     46  C   UNL     1      -2.411   5.549  -8.829  1.00  0.00     0.074 A 
ATOM     47  C   UNL     1      -1.228   5.194  -9.580  1.00  0.00     0.031 C 
ATOM     48  C   UNL     1      -1.567   2.440  -3.270  1.00  0.00     0.029 A 
ATOM     49  C   UNL     1      -2.660   3.340  -3.634  1.00  0.00     0.049 A 
ATOM     50  H   UNL     1      -2.934   4.324  -5.448  1.00  0.00     0.167 HD
ATOM     51  C   UNL     1      -3.408   6.329  -9.309  1.00  0.00     0.031 A 
ATOM     52  C   UNL     1      -3.695   3.683  -2.843  1.00  0.00     0.031 A 
ATOM     53  C   UNL     1      -4.579   6.696  -8.558  1.00  0.00     0.049 A 
ATOM     54  C   UNL     1      -4.755   4.615  -3.372  1.00  0.00     0.074 A 
ATOM     55  C   UNL     1      -5.649   7.479  -8.956  1.00  0.00     0.029 A 
ATOM     56  N   UNL     1      -4.831   6.308  -7.252  1.00  0.00    -0.354 N 
ATOM     57  N   UNL     1      -4.856   5.172  -4.555  1.00  0.00    -0.248 NA
ATOM     58  C   UNL     1      -5.855   4.950  -2.456  1.00  0.00     0.031 C 
ATOM     59  C   UNL     1      -6.519   7.614  -7.870  1.00  0.00     0.029 A 
ATOM     60  C   UNL     1      -6.028   6.854  -6.820  1.00  0.00     0.049 A 
ATOM     61  H   UNL     1      -4.246   5.729  -6.711  1.00  0.00     0.167 HD
ATOM     62  C   UNL     1      -6.048   5.887  -4.539  1.00  0.00     0.074 A 
ATOM     63  C   UNL     1      -6.640   5.682  -3.233  1.00  0.00     0.031 C 
ATOM     64  C   UNL     1      -6.608   6.640  -5.518  1.00  0.00     0.031 A 
BRANCH  51  65
ATOM     65  C   UNL     1      -3.249   6.871 -10.703  1.00  0.00    -0.014 A 
ATOM     66  C   UNL     1      -3.323   6.033 -11.828  1.00  0.00     0.009 A 
ATOM     67  C   UNL     1      -3.039   8.245 -10.894  1.00  0.00     0.009 A 
ATOM     68  C   UNL     1      -3.151   6.557 -13.112  1.00  0.00     0.001 A 
ATOM     69  C   UNL     1      -2.901   8.770 -12.179  1.00  0.00     0.001 A 
ATOM     70  C   UNL     1      -2.946   7.925 -13.286  1.00  0.00     0.000 A 
ENDBRANCH  51  65
BRANCH  52  71
ATOM     71  C   UNL     1      -3.785   3.154  -1.456  1.00  0.00    -0.014 A 
ATOM     72  C   UNL     1      -4.801   2.255  -1.094  1.00  0.00     0.009 A 
ATOM     73  C   UNL     1      -2.873   3.574  -0.474  1.00  0.00     0.009 A 
ATOM     74  C   UNL     1      -4.921   1.815   0.227  1.00  0.00     0.001 A 
ATOM     75  C   UNL     1      -2.976   3.107   0.838  1.00  0.00     0.001 A 
ATOM     76  C   UNL     1      -4.007   2.238   1.190  1.00  0.00     0.000 A 
ENDBRANCH  52  71
BRANCH  64  77
ATOM     77  C   UNL     1      -7.956   7.248  -5.238  1.00  0.00    -0.014 A 
ATOM     78  C   UNL     1      -8.122   8.286  -4.308  1.00  0.00     0.009 A 
ATOM     79  C   UNL     1      -9.081   6.782  -5.939  1.00  0.00     0.009 A 
ATOM     80  C   UNL     1      -9.392   8.809  -4.051  1.00  0.00     0.001 A 
ATOM     81  C   UNL     1     -10.342   7.330  -5.707  1.00  0.00     0.001 A 
ATOM     82  C   UNL     1     -10.499   8.334  -4.753  1.00  0.00     0.000 A 
ENDBRANCH  64  77
ENDBRANCH  38  39
ENDBRANCH  31  33
ENDBRANCH  30  31
ENDBRANCH  29  30
ENDBRANCH  28  29
ENDBRANCH  27  28
ENDBRANCH  26  27
ENDBRANCH   1  26
TORSDOF 21
