REMARK SMILES O=C(NC(=S)Nc1cc(C(=O)OCCOCCOCCOC(=O)c2ccc(-c3c4nc(c(-c5ccccc5)c5ccc([nH]5)c(-c5ccccc5)c5nc(c(-c6ccccc6)c6ccc3[nH]6)C=C5)C=C4)cc2)ccc1Br)c1ccc(F)cc1
REMARK SMILES IDX 16 1 15 2 14 3 13 4 12 5 10 6 11 7 9 8 7 9 8 10 74 11 73 12
REMARK SMILES IDX 75 13 72 14 6 15 4 17 5 18 3 19 1 20 2 21 76 23 77 24 82 25
REMARK SMILES IDX 78 26 81 27 79 28 80 29 17 30 18 31 19 32 20 33 21 34 22 35
REMARK SMILES IDX 23 36 24 37 25 38 71 39 26 40 70 41 27 42 28 43 29 44 64 45
REMARK SMILES IDX 30 46 69 47 63 48 65 49 31 50 68 51 62 52 61 53 32 55 54 56
REMARK SMILES IDX 39 57 53 58 40 59 43 60 52 61 66 62 41 63 42 64 51 66 67 67
REMARK SMILES IDX 44 68 33 69 34 70 38 71 35 72 37 73 36 74 55 75 56 76 60 77
REMARK SMILES IDX 57 78 59 79 58 80 45 81 46 82 50 83 47 84 49 85 48 86
REMARK H PARENT 6 16 3 22 65 54 43 65
REMARK Flexibility Score: inf
ROOT
ATOM      1  C   UNL     1       6.378  -6.069   0.964  1.00  0.00     0.188 C 
ENDROOT
BRANCH   1   2
ATOM      2  O   UNL     1       5.983  -7.048   1.919  1.00  0.00    -0.376 OA
BRANCH   2   3
ATOM      3  C   UNL     1       4.771  -7.740   1.600  1.00  0.00     0.202 C 
BRANCH   3   4
ATOM      4  C   UNL     1       3.503  -6.998   2.057  1.00  0.00     0.261 C 
BRANCH   4   5
ATOM      5  O   UNL     1       3.202  -5.873   1.201  1.00  0.00    -0.460 OA
BRANCH   5   6
ATOM      6  C   UNL     1       3.452  -4.658   1.732  1.00  0.00     0.338 C 
ATOM      7  O   UNL     1       3.816  -4.381   2.861  1.00  0.00    -0.246 OA
BRANCH   6   8
ATOM      8  C   UNL     1       3.413  -3.635   0.680  1.00  0.00     0.062 A 
ATOM      9  C   UNL     1       4.394  -0.692  -0.563  1.00  0.00     0.055 A 
ATOM     10  C   UNL     1       4.648  -2.066   0.831  1.00  0.00     0.043 A 
ATOM     11  C   UNL     1       3.123  -0.678  -2.072  1.00  0.00     0.041 A 
ATOM     12  C   UNL     1       1.895  -2.254  -2.216  1.00  0.00     0.019 A 
ATOM     13  Br  UNL     1       2.937   0.810  -3.219  1.00  0.00    -0.049 Br
ATOM     14  C   UNL     1       2.145  -3.619  -0.820  1.00  0.00     0.017 A 
BRANCH   9  15
ATOM     15  N   UNL     1       4.893   0.546  -0.172  1.00  0.00    -0.331 N 
ATOM     16  H   UNL     1       5.860   0.707  -0.261  1.00  0.00     0.169 HD
BRANCH  15  17
ATOM     17  C   UNL     1       4.127   1.538   0.324  1.00  0.00     0.177 C 
ATOM     18  S   UNL     1       4.834   3.026   0.611  1.00  0.00    -0.040 S 
BRANCH  17  19
ATOM     19  N   UNL     1       2.801   1.363   0.673  1.00  0.00    -0.299 N 
ATOM     20  O   UNL     1       0.693   0.774   1.273  1.00  0.00    -0.269 OA
ATOM     21  C   UNL     1       1.784   0.402   0.832  1.00  0.00     0.257 C 
ATOM     22  H   UNL     1       2.425   2.246   0.896  1.00  0.00     0.172 HD
BRANCH  21  23
ATOM     23  C   UNL     1       1.879  -1.045   0.574  1.00  0.00     0.040 A 
ATOM     24  C   UNL     1       2.850  -1.855   0.338  1.00  0.00     0.017 A 
ATOM     25  C   UNL     1       2.343  -1.473  -0.557  1.00  0.00     0.017 A 
ATOM     26  C   UNL     1       4.226  -2.821  -0.833  1.00  0.00     0.040 A 
ATOM     27  C   UNL     1       3.711  -2.437  -1.743  1.00  0.00     0.040 A 
ATOM     28  C   UNL     1       4.845  -3.005  -1.940  1.00  0.00     0.123 A 
ATOM     29  F   UNL     1       5.035  -4.186  -2.526  1.00  0.00    -0.207 F 
ENDBRANCH  21  23
ENDBRANCH  17  19
ENDBRANCH  15  17
ENDBRANCH   9  15
ENDBRANCH   6   8
ENDBRANCH   5   6
ENDBRANCH   4   5
ENDBRANCH   3   4
ENDBRANCH   2   3
ENDBRANCH   1   2
BRANCH   1  30
ATOM     30  C   UNL     1       7.213  -6.611  -0.193  1.00  0.00     0.188 C 
BRANCH  30  31
ATOM     31  O   UNL     1       6.452  -7.503  -1.009  1.00  0.00    -0.376 OA
BRANCH  31  32
ATOM     32  C   UNL     1       6.705  -7.398  -2.416  1.00  0.00     0.202 C 
BRANCH  32  33
ATOM     33  C   UNL     1       8.135  -7.787  -2.820  1.00  0.00     0.261 C 
BRANCH  33  34
ATOM     34  O   UNL     1       9.097  -6.814  -2.374  1.00  0.00    -0.460 OA
BRANCH  34  35
ATOM     35  C   UNL     1       9.031  -5.613  -2.999  1.00  0.00     0.338 C 
ATOM     36  O   UNL     1       8.402  -5.356  -4.011  1.00  0.00    -0.246 OA
BRANCH  35  37
ATOM     37  C   UNL     1       9.675  -4.588  -2.144  1.00  0.00     0.060 A 
ATOM     38  C   UNL     1       9.175  -3.280  -2.197  1.00  0.00     0.016 A 
ATOM     39  C   UNL     1      10.735  -4.902  -1.285  1.00  0.00     0.016 A 
ATOM     40  C   UNL     1       9.772  -2.273  -1.438  1.00  0.00     0.010 A 
ATOM     41  C   UNL     1      11.335  -3.895  -0.528  1.00  0.00     0.010 A 
ATOM     42  C   UNL     1      10.882  -2.571  -0.634  1.00  0.00    -0.014 A 
BRANCH  42  43
ATOM     43  C   UNL     1      11.711  -1.470  -0.098  1.00  0.00     0.031 A 
ATOM     44  C   UNL     1      12.819  -0.937  -0.964  1.00  0.00     0.074 A 
ATOM     45  C   UNL     1      11.495  -0.950   1.122  1.00  0.00     0.049 A 
ATOM     46  N   UNL     1      13.662   0.035  -0.729  1.00  0.00    -0.248 NA
ATOM     47  C   UNL     1      12.996  -1.588  -2.274  1.00  0.00     0.031 C 
ATOM     48  C   UNL     1      10.453  -1.368   2.058  1.00  0.00     0.029 A 
ATOM     49  N   UNL     1      12.161   0.052   1.782  1.00  0.00    -0.354 N 
ATOM     50  C   UNL     1      14.457   0.120  -1.863  1.00  0.00     0.074 A 
ATOM     51  C   UNL     1      14.018  -0.912  -2.776  1.00  0.00     0.031 C 
ATOM     52  C   UNL     1      10.553  -0.628   3.177  1.00  0.00     0.029 A 
ATOM     53  C   UNL     1      11.671   0.304   3.038  1.00  0.00     0.049 A 
ATOM     54  H   UNL     1      12.919   0.543   1.391  1.00  0.00     0.167 HD
ATOM     55  C   UNL     1      15.462   0.984  -2.132  1.00  0.00     0.031 A 
ATOM     56  C   UNL     1      12.085   1.185   3.968  1.00  0.00     0.031 A 
ATOM     57  C   UNL     1      15.933   1.990  -1.225  1.00  0.00     0.049 A 
ATOM     58  C   UNL     1      13.252   2.090   3.674  1.00  0.00     0.074 A 
ATOM     59  C   UNL     1      16.947   2.913  -1.409  1.00  0.00     0.029 A 
ATOM     60  N   UNL     1      15.426   2.192   0.047  1.00  0.00    -0.354 N 
ATOM     61  N   UNL     1      13.966   2.189   2.579  1.00  0.00    -0.248 NA
ATOM     62  C   UNL     1      13.664   3.007   4.748  1.00  0.00     0.031 C 
ATOM     63  C   UNL     1      17.072   3.659  -0.231  1.00  0.00     0.029 A 
ATOM     64  C   UNL     1      16.118   3.214   0.670  1.00  0.00     0.049 A 
ATOM     65  H   UNL     1      14.684   1.685   0.448  1.00  0.00     0.167 HD
ATOM     66  C   UNL     1      14.895   3.193   2.824  1.00  0.00     0.074 A 
ATOM     67  C   UNL     1      14.654   3.673   4.168  1.00  0.00     0.031 C 
ATOM     68  C   UNL     1      15.859   3.678   2.006  1.00  0.00     0.031 A 
BRANCH  55  69
ATOM     69  C   UNL     1      16.124   0.849  -3.468  1.00  0.00    -0.014 A 
ATOM     70  C   UNL     1      15.516   1.371  -4.621  1.00  0.00     0.009 A 
ATOM     71  C   UNL     1      17.352   0.183  -3.579  1.00  0.00     0.009 A 
ATOM     72  C   UNL     1      16.117   1.204  -5.869  1.00  0.00     0.001 A 
ATOM     73  C   UNL     1      17.957   0.029  -4.828  1.00  0.00     0.001 A 
ATOM     74  C   UNL     1      17.336   0.533  -5.971  1.00  0.00     0.000 A 
ENDBRANCH  55  69
BRANCH  56  75
ATOM     75  C   UNL     1      11.398   1.265   5.280  1.00  0.00    -0.014 A 
ATOM     76  C   UNL     1      10.524   2.325   5.559  1.00  0.00     0.009 A 
ATOM     77  C   UNL     1      11.648   0.304   6.271  1.00  0.00     0.009 A 
ATOM     78  C   UNL     1       9.927   2.434   6.817  1.00  0.00     0.001 A 
ATOM     79  C   UNL     1      11.038   0.408   7.523  1.00  0.00     0.001 A 
ATOM     80  C   UNL     1      10.184   1.476   7.798  1.00  0.00     0.000 A 
ENDBRANCH  56  75
BRANCH  68  81
ATOM     81  C   UNL     1      16.706   4.798   2.530  1.00  0.00    -0.014 A 
ATOM     82  C   UNL     1      17.774   4.545   3.403  1.00  0.00     0.009 A 
ATOM     83  C   UNL     1      16.466   6.112   2.100  1.00  0.00     0.009 A 
ATOM     84  C   UNL     1      18.577   5.595   3.852  1.00  0.00     0.001 A 
ATOM     85  C   UNL     1      17.280   7.157   2.538  1.00  0.00     0.001 A 
ATOM     86  C   UNL     1      18.332   6.898   3.417  1.00  0.00     0.000 A 
ENDBRANCH  68  81
ENDBRANCH  42  43
ENDBRANCH  35  37
ENDBRANCH  34  35
ENDBRANCH  33  34
ENDBRANCH  32  33
ENDBRANCH  31  32
ENDBRANCH  30  31
ENDBRANCH   1  30
TORSDOF 21
