REMARK SMILES COc1ccccc1[C@H](C)NC(=O)[C@@H]1CC=CC[C@@H]1C(=O)OCCOCCOCCOC(=O)c1ccc(-c2c3nc(c(-c4ccccc4)c4ccc([nH]4)c(-c4ccccc4)c4nc(c(-c5ccccc5)c5ccc2[nH]5)C=C4)C=C3)cc1
REMARK SMILES IDX 26 1 25 2 24 3 23 4 22 5 20 6 21 7 19 8 14 9 15 10 16 11
REMARK SMILES IDX 18 12 17 13 12 14 11 15 13 17 9 18 10 19 8 20 3 21 4 22 5 23
REMARK SMILES IDX 7 24 6 25 2 26 1 27 27 28 28 29 29 30 30 31 31 32 32 33
REMARK SMILES IDX 33 34 34 35 35 36 81 37 36 38 80 39 37 40 38 41 39 42 74 43
REMARK SMILES IDX 40 44 79 45 73 46 75 47 41 48 78 49 72 50 71 51 42 53 64 54
REMARK SMILES IDX 49 55 63 56 50 57 53 58 62 59 76 60 51 61 52 62 61 64 77 65
REMARK SMILES IDX 54 66 43 67 44 68 48 69 45 70 47 71 46 72 65 73 66 74 70 75
REMARK SMILES IDX 67 76 69 77 68 78 55 79 56 80 60 81 57 82 59 83 58 84
REMARK H PARENT 11 16 75 52 53 63
REMARK Flexibility Score: inf
ROOT
ATOM      1  C   UNL     1      -1.696  -0.257  -0.415  1.00  0.00     0.188 C 
ENDROOT
BRANCH   1   2
ATOM      2  O   UNL     1      -1.618   0.998   0.268  1.00  0.00    -0.376 OA
BRANCH   2   3
ATOM      3  C   UNL     1      -1.619   2.158  -0.532  1.00  0.00     0.202 C 
BRANCH   3   4
ATOM      4  C   UNL     1      -0.241   2.615  -1.016  1.00  0.00     0.261 C 
BRANCH   4   5
ATOM      5  O   UNL     1       0.866   1.701  -1.170  1.00  0.00    -0.463 OA
BRANCH   5   6
ATOM      6  C   UNL     1       1.357   0.811  -0.280  1.00  0.00     0.310 C 
ATOM      7  O   UNL     1       0.846   0.425   0.762  1.00  0.00    -0.252 OA
BRANCH   6   8
ATOM      8  C   UNL     1       2.747   0.346  -0.669  1.00  0.00     0.115 C 
ATOM      9  C   UNL     1       3.477   1.318  -1.589  1.00  0.00     0.097 C 
ATOM     10  C   UNL     1       2.901   1.296  -3.039  1.00  0.00     0.041 C 
ATOM     11  C   UNL     1       2.402  -0.048  -3.499  1.00  0.00    -0.030 C 
ATOM     12  C   UNL     1       2.691  -1.079  -1.251  1.00  0.00     0.043 C 
ATOM     13  C   UNL     1       2.334  -1.125  -2.706  1.00  0.00    -0.030 C 
BRANCH   9  14
ATOM     14  C   UNL     1       3.692   2.779  -1.157  1.00  0.00     0.224 C 
ATOM     15  N   UNL     1       3.372   3.393   0.004  1.00  0.00    -0.349 N 
ATOM     16  H   UNL     1       3.657   4.335  -0.022  1.00  0.00     0.164 HD
ATOM     17  O   UNL     1       4.287   3.522  -1.956  1.00  0.00    -0.275 OA
BRANCH  15  18
ATOM     18  C   UNL     1       2.731   3.097   1.291  1.00  0.00     0.113 C 
ATOM     19  C   UNL     1       3.698   2.889   2.454  1.00  0.00     0.036 C 
BRANCH  18  20
ATOM     20  C   UNL     1       1.535   3.983   1.661  1.00  0.00     0.016 A 
ATOM     21  C   UNL     1       1.340   5.357   1.424  1.00  0.00     0.124 A 
ATOM     22  C   UNL     1       0.059   5.923   1.640  1.00  0.00     0.047 A 
ATOM     23  C   UNL     1      -1.021   5.179   2.109  1.00  0.00     0.004 A 
ATOM     24  C   UNL     1       0.433   3.274   2.228  1.00  0.00     0.010 A 
ATOM     25  C   UNL     1      -0.825   3.849   2.426  1.00  0.00     0.001 A 
BRANCH  21  26
ATOM     26  O   UNL     1       2.173   6.281   0.863  1.00  0.00    -0.496 OA
ATOM     27  C   UNL     1       3.560   6.301   1.139  1.00  0.00     0.278 C 
ENDBRANCH  21  26
ENDBRANCH  18  20
ENDBRANCH  15  18
ENDBRANCH   9  14
ENDBRANCH   6   8
ENDBRANCH   5   6
ENDBRANCH   4   5
ENDBRANCH   3   4
ENDBRANCH   2   3
ENDBRANCH   1   2
BRANCH   1  28
ATOM     28  C   UNL     1      -1.150  -0.357  -1.853  1.00  0.00     0.188 C 
BRANCH  28  29
ATOM     29  O   UNL     1      -1.806   0.527  -2.748  1.00  0.00    -0.376 OA
BRANCH  29  30
ATOM     30  C   UNL     1      -2.714  -0.077  -3.656  1.00  0.00     0.202 C 
BRANCH  30  31
ATOM     31  C   UNL     1      -3.920  -0.792  -3.022  1.00  0.00     0.261 C 
BRANCH  31  32
ATOM     32  O   UNL     1      -3.634  -1.843  -2.071  1.00  0.00    -0.460 OA
BRANCH  32  33
ATOM     33  C   UNL     1      -2.903  -2.913  -2.478  1.00  0.00     0.338 C 
ATOM     34  O   UNL     1      -2.535  -3.151  -3.603  1.00  0.00    -0.246 OA
BRANCH  33  35
ATOM     35  C   UNL     1      -2.400  -3.611  -1.256  1.00  0.00     0.060 A 
ATOM     36  C   UNL     1      -1.020  -3.832  -1.116  1.00  0.00     0.016 A 
ATOM     37  C   UNL     1      -3.274  -4.035  -0.254  1.00  0.00     0.016 A 
ATOM     38  C   UNL     1      -0.518  -4.516  -0.002  1.00  0.00     0.010 A 
ATOM     39  C   UNL     1      -2.775  -4.750   0.844  1.00  0.00     0.010 A 
ATOM     40  C   UNL     1      -1.399  -5.030   0.957  1.00  0.00    -0.014 A 
BRANCH  40  41
ATOM     41  C   UNL     1      -0.933  -6.065   1.919  1.00  0.00     0.031 A 
ATOM     42  C   UNL     1      -1.144  -7.512   1.550  1.00  0.00     0.074 A 
ATOM     43  C   UNL     1      -0.338  -5.759   3.087  1.00  0.00     0.049 A 
ATOM     44  N   UNL     1      -0.921  -8.595   2.251  1.00  0.00    -0.248 NA
ATOM     45  C   UNL     1      -1.685  -7.770   0.203  1.00  0.00     0.031 C 
ATOM     46  C   UNL     1      -0.012  -4.413   3.553  1.00  0.00     0.029 A 
ATOM     47  N   UNL     1       0.085  -6.579   4.108  1.00  0.00    -0.354 N 
ATOM     48  C   UNL     1      -1.318  -9.654   1.444  1.00  0.00     0.074 A 
ATOM     49  C   UNL     1      -1.802  -9.089   0.204  1.00  0.00     0.031 C 
ATOM     50  C   UNL     1       0.538  -4.498   4.779  1.00  0.00     0.029 A 
ATOM     51  C   UNL     1       0.567  -5.898   5.201  1.00  0.00     0.049 A 
ATOM     52  H   UNL     1       0.047  -7.562   4.060  1.00  0.00     0.167 HD
ATOM     53  C   UNL     1      -1.290 -10.981   1.708  1.00  0.00     0.031 A 
ATOM     54  C   UNL     1       0.951  -6.350   6.413  1.00  0.00     0.031 A 
ATOM     55  C   UNL     1      -0.811 -11.555   2.936  1.00  0.00     0.049 A 
ATOM     56  C   UNL     1       0.900  -7.830   6.711  1.00  0.00     0.074 A 
ATOM     57  C   UNL     1      -0.717 -12.893   3.279  1.00  0.00     0.029 A 
ATOM     58  N   UNL     1      -0.356 -10.828   4.022  1.00  0.00    -0.354 N 
ATOM     59  N   UNL     1       0.555  -8.824   5.928  1.00  0.00    -0.248 NA
ATOM     60  C   UNL     1       1.298  -8.251   8.065  1.00  0.00     0.031 C 
ATOM     61  C   UNL     1      -0.269 -12.973   4.600  1.00  0.00     0.029 A 
ATOM     62  C   UNL     1      -0.017 -11.688   5.053  1.00  0.00     0.049 A 
ATOM     63  H   UNL     1      -0.285  -9.846   4.057  1.00  0.00     0.167 HD
ATOM     64  C   UNL     1       0.723  -9.981   6.682  1.00  0.00     0.074 A 
ATOM     65  C   UNL     1       1.220  -9.570   7.977  1.00  0.00     0.031 C 
ATOM     66  C   UNL     1       0.485 -11.269   6.334  1.00  0.00     0.031 A 
BRANCH  53  67
ATOM     67  C   UNL     1      -1.843 -11.912   0.667  1.00  0.00    -0.014 A 
ATOM     68  C   UNL     1      -1.151 -12.180  -0.523  1.00  0.00     0.009 A 
ATOM     69  C   UNL     1      -3.054 -12.578   0.916  1.00  0.00     0.009 A 
ATOM     70  C   UNL     1      -1.673 -13.082  -1.453  1.00  0.00     0.001 A 
ATOM     71  C   UNL     1      -3.559 -13.499  -0.002  1.00  0.00     0.001 A 
ATOM     72  C   UNL     1      -2.871 -13.746  -1.188  1.00  0.00     0.000 A 
ENDBRANCH  53  67
BRANCH  54  73
ATOM     73  C   UNL     1       1.365  -5.397   7.482  1.00  0.00    -0.014 A 
ATOM     74  C   UNL     1       2.677  -5.395   7.982  1.00  0.00     0.009 A 
ATOM     75  C   UNL     1       0.422  -4.531   8.061  1.00  0.00     0.009 A 
ATOM     76  C   UNL     1       3.024  -4.578   9.062  1.00  0.00     0.001 A 
ATOM     77  C   UNL     1       0.781  -3.691   9.117  1.00  0.00     0.001 A 
ATOM     78  C   UNL     1       2.077  -3.725   9.626  1.00  0.00     0.000 A 
ENDBRANCH  54  73
BRANCH  66  79
ATOM     79  C   UNL     1       0.802 -12.336   7.347  1.00  0.00    -0.014 A 
ATOM     80  C   UNL     1       0.022 -12.508   8.501  1.00  0.00     0.009 A 
ATOM     81  C   UNL     1       1.872 -13.216   7.115  1.00  0.00     0.009 A 
ATOM     82  C   UNL     1       0.331 -13.514   9.420  1.00  0.00     0.001 A 
ATOM     83  C   UNL     1       2.158 -14.241   8.018  1.00  0.00     0.001 A 
ATOM     84  C   UNL     1       1.395 -14.383   9.175  1.00  0.00     0.000 A 
ENDBRANCH  66  79
ENDBRANCH  40  41
ENDBRANCH  33  35
ENDBRANCH  32  33
ENDBRANCH  31  32
ENDBRANCH  30  31
ENDBRANCH  29  30
ENDBRANCH  28  29
ENDBRANCH   1  28
TORSDOF 21
