REMARK SMILES C[C@@H]1CCC[C@H]1NC(=O)c1csc(/C=C/C(=O)OCCOCCOCCOC(=O)c2ccc(-c3c4nc(c(-c5ccccc5)c5ccc([nH]5)c(-c5ccccc5)c5nc(c(-c6ccccc6)c6ccc3[nH]6)C=C5)C=C4)cc2)c1
REMARK SMILES IDX 22 1 21 2 20 3 19 4 18 5 16 6 17 7 15 8 14 9 13 10 10 11
REMARK SMILES IDX 11 12 78 13 12 14 8 15 7 16 9 18 6 19 1 20 2 21 3 22 4 23
REMARK SMILES IDX 5 24 23 25 24 26 25 27 26 28 27 29 28 30 29 31 30 32 31 33
REMARK SMILES IDX 77 34 32 35 76 36 33 37 34 38 35 39 70 40 36 41 75 42 69 43
REMARK SMILES IDX 71 44 37 45 74 46 68 47 67 48 38 50 60 51 45 52 59 53 46 54
REMARK SMILES IDX 49 55 58 56 72 57 47 58 48 59 57 61 73 62 50 63 39 64 40 65
REMARK SMILES IDX 44 66 41 67 43 68 42 69 61 70 62 71 66 72 63 73 65 74 64 75
REMARK SMILES IDX 51 76 52 77 56 78 53 79 55 80 54 81
REMARK H PARENT 7 17 71 49 49 60
REMARK Flexibility Score: inf
ROOT
ATOM      1  C   UNL     1       5.713   9.075   1.059  1.00  0.00     0.188 C 
ENDROOT
BRANCH   1   2
ATOM      2  O   UNL     1       6.279  10.205   1.716  1.00  0.00    -0.376 OA
BRANCH   2   3
ATOM      3  C   UNL     1       6.090  10.368   3.119  1.00  0.00     0.202 C 
BRANCH   3   4
ATOM      4  C   UNL     1       4.661  10.389   3.673  1.00  0.00     0.261 C 
BRANCH   4   5
ATOM      5  O   UNL     1       3.873   9.238   3.320  1.00  0.00    -0.460 OA
BRANCH   5   6
ATOM      6  C   UNL     1       2.728   9.507   2.648  1.00  0.00     0.330 C 
ATOM      7  O   UNL     1       2.303  10.615   2.353  1.00  0.00    -0.247 OA
BRANCH   6   8
ATOM      8  C   UNL     1       2.039   8.289   2.176  1.00  0.00     0.095 C 
ATOM      9  C   UNL     1       2.226   7.041   2.634  1.00  0.00     0.026 C 
BRANCH   9  10
ATOM     10  C   UNL     1       1.489   5.925   2.124  1.00  0.00     0.028 A 
ATOM     11  C   UNL     1       0.339   3.843   2.021  1.00  0.00     0.051 A 
ATOM     12  C   UNL     1       0.090   4.377   0.774  1.00  0.00     0.079 A 
ATOM     13  C   UNL     1       1.152   4.756   2.788  1.00  0.00     0.033 A 
ATOM     14  S   UNL     1       0.902   5.853   0.504  1.00  0.00    -0.144 S 
BRANCH  11  15
ATOM     15  C   UNL     1      -0.233   2.614   2.567  1.00  0.00     0.252 C 
ATOM     16  N   UNL     1      -0.476   1.520   1.776  1.00  0.00    -0.349 N 
ATOM     17  H   UNL     1      -1.060   0.845   2.190  1.00  0.00     0.164 HD
ATOM     18  O   UNL     1      -0.511   2.525   3.762  1.00  0.00    -0.269 OA
BRANCH  16  19
ATOM     19  C   UNL     1      -0.025   1.178   0.429  1.00  0.00     0.085 C 
ATOM     20  C   UNL     1       1.804  -0.120  -0.760  1.00  0.00     0.010 C 
ATOM     21  C   UNL     1       0.887  -0.060   0.462  1.00  0.00     0.008 C 
ATOM     22  C   UNL     1      -0.103  -1.225   0.484  1.00  0.00     0.005 C 
ATOM     23  C   UNL     1      -1.274  -0.775  -0.382  1.00  0.00     0.002 C 
ATOM     24  C   UNL     1      -1.214   0.753  -0.439  1.00  0.00     0.025 C 
ENDBRANCH  16  19
ENDBRANCH  11  15
ENDBRANCH   9  10
ENDBRANCH   6   8
ENDBRANCH   5   6
ENDBRANCH   4   5
ENDBRANCH   3   4
ENDBRANCH   2   3
ENDBRANCH   1   2
BRANCH   1  25
ATOM     25  C   UNL     1       5.895   7.668   1.667  1.00  0.00     0.188 C 
BRANCH  25  26
ATOM     26  O   UNL     1       6.618   7.665   2.877  1.00  0.00    -0.376 OA
BRANCH  26  27
ATOM     27  C   UNL     1       7.955   7.198   2.889  1.00  0.00     0.202 C 
BRANCH  27  28
ATOM     28  C   UNL     1       8.981   7.588   1.809  1.00  0.00     0.261 C 
BRANCH  28  29
ATOM     29  O   UNL     1       8.487   7.889   0.501  1.00  0.00    -0.460 OA
BRANCH  29  30
ATOM     30  C   UNL     1       8.399   6.862  -0.374  1.00  0.00     0.338 C 
ATOM     31  O   UNL     1       8.614   5.685  -0.162  1.00  0.00    -0.246 OA
BRANCH  30  32
ATOM     32  C   UNL     1       7.844   7.399  -1.633  1.00  0.00     0.060 A 
ATOM     33  C   UNL     1       6.580   6.971  -2.055  1.00  0.00     0.016 A 
ATOM     34  C   UNL     1       8.574   8.319  -2.389  1.00  0.00     0.016 A 
ATOM     35  C   UNL     1       6.046   7.456  -3.251  1.00  0.00     0.010 A 
ATOM     36  C   UNL     1       8.046   8.788  -3.595  1.00  0.00     0.010 A 
ATOM     37  C   UNL     1       6.789   8.344  -4.041  1.00  0.00    -0.014 A 
BRANCH  37  38
ATOM     38  C   UNL     1       6.329   8.704  -5.403  1.00  0.00     0.031 A 
ATOM     39  C   UNL     1       6.860   7.926  -6.573  1.00  0.00     0.074 A 
ATOM     40  C   UNL     1       5.461   9.711  -5.600  1.00  0.00     0.049 A 
ATOM     41  N   UNL     1       6.664   8.115  -7.853  1.00  0.00    -0.248 NA
ATOM     42  C   UNL     1       7.728   6.779  -6.257  1.00  0.00     0.031 C 
ATOM     43  C   UNL     1       4.831  10.508  -4.548  1.00  0.00     0.029 A 
ATOM     44  N   UNL     1       4.970  10.242  -6.767  1.00  0.00    -0.354 N 
ATOM     45  C   UNL     1       7.382   7.113  -8.494  1.00  0.00     0.074 A 
ATOM     46  C   UNL     1       8.037   6.334  -7.466  1.00  0.00     0.031 C 
ATOM     47  C   UNL     1       4.043  11.437  -5.120  1.00  0.00     0.029 A 
ATOM     48  C   UNL     1       4.146  11.325  -6.574  1.00  0.00     0.049 A 
ATOM     49  H   UNL     1       5.187   9.882  -7.657  1.00  0.00     0.167 HD
ATOM     50  C   UNL     1       7.484   6.861  -9.820  1.00  0.00     0.031 A 
ATOM     51  C   UNL     1       3.568  12.147  -7.470  1.00  0.00     0.031 A 
ATOM     52  C   UNL     1       6.861   7.652 -10.846  1.00  0.00     0.049 A 
ATOM     53  C   UNL     1       3.799  11.920  -8.942  1.00  0.00     0.074 A 
ATOM     54  C   UNL     1       6.912   7.479 -12.218  1.00  0.00     0.029 A 
ATOM     55  N   UNL     1       6.083   8.773 -10.610  1.00  0.00    -0.354 N 
ATOM     56  N   UNL     1       4.466  10.961  -9.537  1.00  0.00    -0.248 NA
ATOM     57  C   UNL     1       3.197  12.895  -9.865  1.00  0.00     0.031 C 
ATOM     58  C   UNL     1       6.205   8.528 -12.815  1.00  0.00     0.029 A 
ATOM     59  C   UNL     1       5.670   9.321 -11.812  1.00  0.00     0.049 A 
ATOM     60  H   UNL     1       5.857   9.128  -9.720  1.00  0.00     0.167 HD
ATOM     61  C   UNL     1       4.341  11.201 -10.900  1.00  0.00     0.074 A 
ATOM     62  C   UNL     1       3.526  12.389 -11.046  1.00  0.00     0.031 C 
ATOM     63  C   UNL     1       4.855  10.500 -11.940  1.00  0.00     0.031 A 
BRANCH  50  64
ATOM     64  C   UNL     1       8.333   5.695 -10.234  1.00  0.00    -0.014 A 
ATOM     65  C   UNL     1       7.893   4.375 -10.045  1.00  0.00     0.009 A 
ATOM     66  C   UNL     1       9.576   5.918 -10.846  1.00  0.00     0.009 A 
ATOM     67  C   UNL     1       8.694   3.301 -10.437  1.00  0.00     0.001 A 
ATOM     68  C   UNL     1      10.364   4.842 -11.258  1.00  0.00     0.001 A 
ATOM     69  C   UNL     1       9.927   3.535 -11.046  1.00  0.00     0.000 A 
ENDBRANCH  50  64
BRANCH  51  70
ATOM     70  C   UNL     1       2.740  13.294  -7.013  1.00  0.00    -0.014 A 
ATOM     71  C   UNL     1       1.356  13.310  -7.240  1.00  0.00     0.009 A 
ATOM     72  C   UNL     1       3.338  14.399  -6.387  1.00  0.00     0.009 A 
ATOM     73  C   UNL     1       0.591  14.420  -6.872  1.00  0.00     0.001 A 
ATOM     74  C   UNL     1       2.567  15.496  -5.996  1.00  0.00     0.001 A 
ATOM     75  C   UNL     1       1.196  15.510  -6.248  1.00  0.00     0.000 A 
ENDBRANCH  51  70
BRANCH  63  76
ATOM     76  C   UNL     1       4.522  10.972 -13.326  1.00  0.00    -0.014 A 
ATOM     77  C   UNL     1       5.126  12.115 -13.871  1.00  0.00     0.009 A 
ATOM     78  C   UNL     1       3.632  10.228 -14.118  1.00  0.00     0.009 A 
ATOM     79  C   UNL     1       4.827  12.517 -15.175  1.00  0.00     0.001 A 
ATOM     80  C   UNL     1       3.354  10.618 -15.429  1.00  0.00     0.001 A 
ATOM     81  C   UNL     1       3.947  11.765 -15.954  1.00  0.00     0.000 A 
ENDBRANCH  63  76
ENDBRANCH  37  38
ENDBRANCH  30  32
ENDBRANCH  29  30
ENDBRANCH  28  29
ENDBRANCH  27  28
ENDBRANCH  26  27
ENDBRANCH  25  26
ENDBRANCH   1  25
TORSDOF 20
