REMARK SMILES O=C(OCCOCCOCCOC(=O)c1ccc(-c2c3nc(c(-c4ccccc4)c4ccc([nH]4)c(-c4ccccc4)c4nc(c(-c5ccccc5)c5ccc2[nH]5)C=C4)C=C3)cc1)C1=Cc2c(ccc(Cl)c2Cl)O[C@H]1C(F)(F)F
REMARK SMILES IDX 8 1 7 2 6 3 5 4 4 5 3 6 2 7 1 8 63 9 64 10 74 11 65 12 73 13
REMARK SMILES IDX 66 14 71 15 67 16 69 17 72 18 68 19 70 20 75 21 76 22 77 23
REMARK SMILES IDX 78 24 9 25 10 26 11 27 12 28 13 29 14 30 15 31 16 32 62 33
REMARK SMILES IDX 17 34 61 35 18 36 19 37 20 38 55 39 21 40 60 41 54 42 56 43
REMARK SMILES IDX 22 44 59 45 53 46 52 47 23 49 45 50 30 51 44 52 31 53 34 54
REMARK SMILES IDX 43 55 57 56 32 57 33 58 42 60 58 61 35 62 24 63 25 64 29 65
REMARK SMILES IDX 26 66 28 67 27 68 46 69 47 70 51 71 48 72 50 73 49 74 36 75
REMARK SMILES IDX 37 76 41 77 38 78 40 79 39 80
REMARK H PARENT 56 48 34 59
REMARK Flexibility Score: inf
ROOT
ATOM      1  C   UNL     1       1.164  -3.228  -2.461  1.00  0.00     0.188 C 
ENDROOT
BRANCH   1   2
ATOM      2  C   UNL     1       1.180  -1.983  -1.561  1.00  0.00     0.188 C 
BRANCH   2   3
ATOM      3  O   UNL     1       2.449  -1.722  -0.976  1.00  0.00    -0.376 OA
BRANCH   3   4
ATOM      4  C   UNL     1       2.483  -2.128   0.392  1.00  0.00     0.202 C 
BRANCH   4   5
ATOM      5  C   UNL     1       2.173  -0.950   1.327  1.00  0.00     0.261 C 
BRANCH   5   6
ATOM      6  O   UNL     1       1.939   0.296   0.620  1.00  0.00    -0.460 OA
BRANCH   6   7
ATOM      7  C   UNL     1       2.752   1.339   0.342  1.00  0.00     0.338 C 
ATOM      8  O   UNL     1       2.237   2.428   0.103  1.00  0.00    -0.246 OA
BRANCH   7   9
ATOM      9  C   UNL     1       4.235   1.264   0.356  1.00  0.00     0.087 C 
ATOM     10  C   UNL     1       4.922   0.155   0.631  1.00  0.00     0.029 C 
ATOM     11  C   UNL     1       4.975   2.555   0.020  1.00  0.00     0.316 C 
ATOM     12  C   UNL     1       6.356   0.167   0.852  1.00  0.00     0.037 A 
ATOM     13  O   UNL     1       6.422   2.520   0.253  1.00  0.00    -0.475 OA
ATOM     14  C   UNL     1       7.038   1.353   0.598  1.00  0.00     0.129 A 
ATOM     15  C   UNL     1       7.054  -0.955   1.357  1.00  0.00     0.070 A 
ATOM     16  C   UNL     1       8.424   1.400   0.747  1.00  0.00     0.049 A 
ATOM     17  C   UNL     1       8.443  -0.895   1.518  1.00  0.00     0.060 A 
ATOM     18  Cl  UNL     1       6.193  -2.386   1.858  1.00  0.00    -0.082 Cl
ATOM     19  C   UNL     1       9.126   0.276   1.190  1.00  0.00     0.026 A 
ATOM     20  Cl  UNL     1       9.366  -2.222   2.131  1.00  0.00    -0.083 Cl
BRANCH  11  21
ATOM     21  C   UNL     1       4.773   3.004  -1.449  1.00  0.00     0.430 C 
ATOM     22  F   UNL     1       4.988   1.982  -2.313  1.00  0.00    -0.167 F 
ATOM     23  F   UNL     1       3.548   3.502  -1.710  1.00  0.00    -0.167 F 
ATOM     24  F   UNL     1       5.652   3.987  -1.779  1.00  0.00    -0.167 F 
ENDBRANCH  11  21
ENDBRANCH   7   9
ENDBRANCH   6   7
ENDBRANCH   5   6
ENDBRANCH   4   5
ENDBRANCH   3   4
ENDBRANCH   2   3
ENDBRANCH   1   2
BRANCH   1  25
ATOM     25  O   UNL     1       2.037  -4.299  -2.120  1.00  0.00    -0.376 OA
BRANCH  25  26
ATOM     26  C   UNL     1       3.444  -4.104  -2.304  1.00  0.00     0.202 C 
BRANCH  26  27
ATOM     27  C   UNL     1       3.941  -3.672  -3.688  1.00  0.00     0.261 C 
BRANCH  27  28
ATOM     28  O   UNL     1       3.531  -2.335  -4.030  1.00  0.00    -0.460 OA
BRANCH  28  29
ATOM     29  C   UNL     1       2.984  -2.199  -5.255  1.00  0.00     0.338 C 
ATOM     30  O   UNL     1       2.787  -3.077  -6.094  1.00  0.00    -0.246 OA
BRANCH  29  31
ATOM     31  C   UNL     1       2.623  -0.801  -5.495  1.00  0.00     0.060 A 
ATOM     32  C   UNL     1       1.414  -0.288  -5.011  1.00  0.00     0.016 A 
ATOM     33  C   UNL     1       3.433  -0.044  -6.342  1.00  0.00     0.016 A 
ATOM     34  C   UNL     1       1.008   0.994  -5.378  1.00  0.00     0.010 A 
ATOM     35  C   UNL     1       3.022   1.233  -6.716  1.00  0.00     0.010 A 
ATOM     36  C   UNL     1       1.798   1.746  -6.256  1.00  0.00    -0.014 A 
BRANCH  36  37
ATOM     37  C   UNL     1       1.302   3.026  -6.802  1.00  0.00     0.031 A 
ATOM     38  C   UNL     1       0.611   3.028  -8.134  1.00  0.00     0.074 A 
ATOM     39  C   UNL     1       1.516   4.170  -6.132  1.00  0.00     0.049 A 
ATOM     40  N   UNL     1       0.222   4.043  -8.861  1.00  0.00    -0.248 NA
ATOM     41  C   UNL     1       0.321   1.712  -8.729  1.00  0.00     0.031 C 
ATOM     42  C   UNL     1       2.134   4.273  -4.811  1.00  0.00     0.029 A 
ATOM     43  N   UNL     1       1.256   5.468  -6.488  1.00  0.00    -0.354 N 
ATOM     44  C   UNL     1      -0.344   3.491 -10.003  1.00  0.00     0.074 A 
ATOM     45  C   UNL     1      -0.246   2.054  -9.878  1.00  0.00     0.031 C 
ATOM     46  C   UNL     1       2.236   5.572  -4.480  1.00  0.00     0.029 A 
ATOM     47  C   UNL     1       1.728   6.385  -5.582  1.00  0.00     0.049 A 
ATOM     48  H   UNL     1       0.778   5.718  -7.312  1.00  0.00     0.167 HD
ATOM     49  C   UNL     1      -0.885   4.131 -11.065  1.00  0.00     0.031 A 
ATOM     50  C   UNL     1       1.781   7.728  -5.659  1.00  0.00     0.031 A 
ATOM     51  C   UNL     1      -0.957   5.562 -11.190  1.00  0.00     0.049 A 
ATOM     52  C   UNL     1       1.252   8.410  -6.892  1.00  0.00     0.074 A 
ATOM     53  C   UNL     1      -1.507   6.311 -12.215  1.00  0.00     0.029 A 
ATOM     54  N   UNL     1      -0.447   6.457 -10.264  1.00  0.00    -0.354 N 
ATOM     55  N   UNL     1       0.685   7.883  -7.951  1.00  0.00    -0.248 NA
ATOM     56  C   UNL     1       1.378   9.874  -6.945  1.00  0.00     0.031 C 
ATOM     57  C   UNL     1      -1.277   7.662 -11.936  1.00  0.00     0.029 A 
ATOM     58  C   UNL     1      -0.630   7.753 -10.713  1.00  0.00     0.049 A 
ATOM     59  H   UNL     1      -0.018   6.209  -9.414  1.00  0.00     0.167 HD
ATOM     60  C   UNL     1       0.377   8.948  -8.787  1.00  0.00     0.074 A 
ATOM     61  C   UNL     1       0.797  10.154  -8.103  1.00  0.00     0.031 C 
ATOM     62  C   UNL     1      -0.197   8.934 -10.015  1.00  0.00     0.031 A 
BRANCH  49  63
ATOM     63  C   UNL     1      -1.397   3.293 -12.199  1.00  0.00    -0.014 A 
ATOM     64  C   UNL     1      -2.610   2.594 -12.100  1.00  0.00     0.009 A 
ATOM     65  C   UNL     1      -0.681   3.249 -13.406  1.00  0.00     0.009 A 
ATOM     66  C   UNL     1      -3.086   1.853 -13.184  1.00  0.00     0.001 A 
ATOM     67  C   UNL     1      -1.169   2.524 -14.493  1.00  0.00     0.001 A 
ATOM     68  C   UNL     1      -2.369   1.823 -14.381  1.00  0.00     0.000 A 
ENDBRANCH  49  63
BRANCH  50  69
ATOM     69  C   UNL     1       2.415   8.518  -4.572  1.00  0.00    -0.014 A 
ATOM     70  C   UNL     1       1.649   9.371  -3.763  1.00  0.00     0.009 A 
ATOM     71  C   UNL     1       3.802   8.451  -4.362  1.00  0.00     0.009 A 
ATOM     72  C   UNL     1       2.264  10.164  -2.790  1.00  0.00     0.001 A 
ATOM     73  C   UNL     1       4.410   9.222  -3.370  1.00  0.00     0.001 A 
ATOM     74  C   UNL     1       3.642  10.087  -2.593  1.00  0.00     0.000 A 
ENDBRANCH  50  69
BRANCH  62  75
ATOM     75  C   UNL     1      -0.410  10.259 -10.687  1.00  0.00    -0.014 A 
ATOM     76  C   UNL     1       0.666  10.965 -11.246  1.00  0.00     0.009 A 
ATOM     77  C   UNL     1      -1.707  10.781 -10.806  1.00  0.00     0.009 A 
ATOM     78  C   UNL     1       0.448  12.184 -11.891  1.00  0.00     0.001 A 
ATOM     79  C   UNL     1      -1.924  11.986 -11.474  1.00  0.00     0.001 A 
ATOM     80  C   UNL     1      -0.846  12.690 -12.009  1.00  0.00     0.000 A 
ENDBRANCH  62  75
ENDBRANCH  36  37
ENDBRANCH  29  31
ENDBRANCH  28  29
ENDBRANCH  27  28
ENDBRANCH  26  27
ENDBRANCH  25  26
ENDBRANCH   1  25
TORSDOF 18
