REMARK SMILES CCC[C@@H](CNC(=O)N1C[C@@H](C)[C@H](C(=O)OC)C1)C(=O)OCCOCCOCCOC(=O)c1ccc(-c2c3nc(c(-c4ccccc4)c4ccc([nH]4)c(-c4ccccc4)c4nc(c(-c5ccccc5)c5ccc2[nH]5)C=C4)C=C3)cc1
REMARK SMILES IDX 24 1 23 2 22 3 21 4 19 5 20 6 4 7 3 8 2 9 1 10 5 11 6 12
REMARK SMILES IDX 7 13 8 15 9 16 10 17 18 18 11 19 13 20 12 21 14 22 15 23
REMARK SMILES IDX 16 24 17 25 25 26 26 27 27 28 28 29 29 30 30 31 31 32 32 33
REMARK SMILES IDX 33 34 34 35 80 36 35 37 79 38 36 39 37 40 38 41 73 42 39 43
REMARK SMILES IDX 78 44 72 45 74 46 40 47 77 48 71 49 70 50 41 52 63 53 48 54
REMARK SMILES IDX 62 55 49 56 52 57 61 58 75 59 50 60 51 61 60 63 76 64 53 65
REMARK SMILES IDX 42 66 43 67 47 68 44 69 46 70 45 71 64 72 65 73 69 74 66 75
REMARK SMILES IDX 68 76 67 77 54 78 55 79 59 80 56 81 58 82 57 83
REMARK H PARENT 6 14 74 51 52 62
REMARK Flexibility Score: inf
ROOT
ATOM      1  O   UNL     1       3.335  -5.761  -2.846  1.00  0.00    -0.376 OA
ENDROOT
BRANCH   1   2
ATOM      2  C   UNL     1       2.038  -6.288  -3.027  1.00  0.00     0.202 C 
BRANCH   2   3
ATOM      3  C   UNL     1       0.784  -5.414  -3.236  1.00  0.00     0.261 C 
BRANCH   3   4
ATOM      4  O   UNL     1       0.714  -4.056  -2.775  1.00  0.00    -0.463 OA
BRANCH   4   5
ATOM      5  C   UNL     1       0.378  -3.836  -1.484  1.00  0.00     0.310 C 
ATOM      6  O   UNL     1       0.411  -4.686  -0.602  1.00  0.00    -0.252 OA
BRANCH   5   7
ATOM      7  C   UNL     1      -0.080  -2.413  -1.195  1.00  0.00     0.118 C 
BRANCH   7   8
ATOM      8  C   UNL     1       0.338  -1.290  -2.162  1.00  0.00     0.017 C 
BRANCH   8   9
ATOM      9  C   UNL     1       0.184   0.133  -1.589  1.00  0.00    -0.002 C 
ATOM     10  C   UNL     1       0.905   0.367  -0.265  1.00  0.00     0.004 C 
ENDBRANCH   8   9
ENDBRANCH   7   8
BRANCH   7  11
ATOM     11  C   UNL     1      -1.593  -2.456  -0.952  1.00  0.00     0.133 C 
BRANCH  11  12
ATOM     12  N   UNL     1      -2.352  -2.993  -2.077  1.00  0.00    -0.337 N 
ATOM     13  C   UNL     1      -2.632  -4.295  -2.356  1.00  0.00     0.317 C 
ATOM     14  H   UNL     1      -2.705  -2.330  -2.714  1.00  0.00     0.165 HD
ATOM     15  O   UNL     1      -2.653  -4.644  -3.535  1.00  0.00    -0.249 OA
BRANCH  13  16
ATOM     16  N   UNL     1      -2.801  -5.174  -1.334  1.00  0.00    -0.324 N 
ATOM     17  C   UNL     1      -3.429  -4.945  -0.051  1.00  0.00     0.125 C 
ATOM     18  C   UNL     1      -2.636  -6.607  -1.518  1.00  0.00     0.137 C 
ATOM     19  C   UNL     1      -2.731  -5.964   0.837  1.00  0.00     0.021 C 
ATOM     20  C   UNL     1      -2.541  -7.181  -0.100  1.00  0.00     0.123 C 
ATOM     21  C   UNL     1      -3.524  -6.287   2.090  1.00  0.00     0.010 C 
BRANCH  20  22
ATOM     22  C   UNL     1      -1.245  -7.896   0.224  1.00  0.00     0.310 C 
ATOM     23  O   UNL     1      -1.187  -8.828   1.018  1.00  0.00    -0.252 OA
BRANCH  22  24
ATOM     24  O   UNL     1      -0.166  -7.329  -0.364  1.00  0.00    -0.469 OA
ATOM     25  C   UNL     1       1.097  -7.735   0.170  1.00  0.00     0.282 C 
ENDBRANCH  22  24
ENDBRANCH  20  22
ENDBRANCH  13  16
ENDBRANCH  11  12
ENDBRANCH   7  11
ENDBRANCH   5   7
ENDBRANCH   4   5
ENDBRANCH   3   4
ENDBRANCH   2   3
ENDBRANCH   1   2
BRANCH   1  26
ATOM     26  C   UNL     1       3.505  -4.766  -1.864  1.00  0.00     0.188 C 
BRANCH  26  27
ATOM     27  C   UNL     1       3.426  -3.351  -2.440  1.00  0.00     0.188 C 
BRANCH  27  28
ATOM     28  O   UNL     1       3.360  -3.136  -3.841  1.00  0.00    -0.376 OA
BRANCH  28  29
ATOM     29  C   UNL     1       4.242  -3.873  -4.678  1.00  0.00     0.202 C 
BRANCH  29  30
ATOM     30  C   UNL     1       5.759  -3.822  -4.415  1.00  0.00     0.261 C 
BRANCH  30  31
ATOM     31  O   UNL     1       6.160  -3.787  -3.033  1.00  0.00    -0.460 OA
BRANCH  31  32
ATOM     32  C   UNL     1       6.521  -2.562  -2.566  1.00  0.00     0.338 C 
ATOM     33  O   UNL     1       6.606  -1.527  -3.200  1.00  0.00    -0.246 OA
BRANCH  32  34
ATOM     34  C   UNL     1       6.584  -2.593  -1.084  1.00  0.00     0.060 A 
ATOM     35  C   UNL     1       5.734  -1.732  -0.366  1.00  0.00     0.016 A 
ATOM     36  C   UNL     1       7.485  -3.413  -0.407  1.00  0.00     0.016 A 
ATOM     37  C   UNL     1       5.795  -1.673   1.024  1.00  0.00     0.010 A 
ATOM     38  C   UNL     1       7.582  -3.315   0.986  1.00  0.00     0.010 A 
ATOM     39  C   UNL     1       6.763  -2.418   1.701  1.00  0.00    -0.014 A 
BRANCH  39  40
ATOM     40  C   UNL     1       7.088  -2.061   3.103  1.00  0.00     0.031 A 
ATOM     41  C   UNL     1       8.220  -1.095   3.338  1.00  0.00     0.074 A 
ATOM     42  C   UNL     1       6.382  -2.538   4.143  1.00  0.00     0.049 A 
ATOM     43  N   UNL     1       8.727  -0.666   4.465  1.00  0.00    -0.248 NA
ATOM     44  C   UNL     1       8.865  -0.540   2.136  1.00  0.00     0.031 C 
ATOM     45  C   UNL     1       5.223  -3.423   4.051  1.00  0.00     0.029 A 
ATOM     46  N   UNL     1       6.552  -2.341   5.491  1.00  0.00    -0.354 N 
ATOM     47  C   UNL     1       9.761   0.191   4.107  1.00  0.00     0.074 A 
ATOM     48  C   UNL     1       9.822   0.208   2.663  1.00  0.00     0.031 C 
ATOM     49  C   UNL     1       4.797  -3.709   5.295  1.00  0.00     0.029 A 
ATOM     50  C   UNL     1       5.672  -3.056   6.266  1.00  0.00     0.049 A 
ATOM     51  H   UNL     1       7.239  -1.743   5.866  1.00  0.00     0.167 HD
ATOM     52  C   UNL     1      10.588   0.901   4.909  1.00  0.00     0.031 A 
ATOM     53  C   UNL     1       5.603  -3.188   7.606  1.00  0.00     0.031 A 
ATOM     54  C   UNL     1      10.538   0.879   6.345  1.00  0.00     0.049 A 
ATOM     55  C   UNL     1       6.586  -2.447   8.477  1.00  0.00     0.074 A 
ATOM     56  C   UNL     1      11.326   1.575   7.245  1.00  0.00     0.029 A 
ATOM     57  N   UNL     1       9.655   0.116   7.091  1.00  0.00    -0.354 N 
ATOM     58  N   UNL     1       7.548  -1.626   8.129  1.00  0.00    -0.248 NA
ATOM     59  C   UNL     1       6.465  -2.646   9.929  1.00  0.00     0.031 C 
ATOM     60  C   UNL     1      10.961   1.185   8.537  1.00  0.00     0.029 A 
ATOM     61  C   UNL     1       9.897   0.301   8.441  1.00  0.00     0.049 A 
ATOM     62  H   UNL     1       8.959  -0.471   6.717  1.00  0.00     0.167 HD
ATOM     63  C   UNL     1       8.121  -1.186   9.318  1.00  0.00     0.074 A 
ATOM     64  C   UNL     1       7.388  -1.818  10.395  1.00  0.00     0.031 C 
ATOM     65  C   UNL     1       9.158  -0.332   9.503  1.00  0.00     0.031 A 
BRANCH  52  66
ATOM     66  C   UNL     1      11.656   1.725   4.245  1.00  0.00    -0.014 A 
ATOM     67  C   UNL     1      11.346   2.894   3.533  1.00  0.00     0.009 A 
ATOM     68  C   UNL     1      13.000   1.336   4.362  1.00  0.00     0.009 A 
ATOM     69  C   UNL     1      12.359   3.641   2.928  1.00  0.00     0.001 A 
ATOM     70  C   UNL     1      14.012   2.101   3.782  1.00  0.00     0.001 A 
ATOM     71  C   UNL     1      13.691   3.248   3.058  1.00  0.00     0.000 A 
ENDBRANCH  52  66
BRANCH  53  72
ATOM     72  C   UNL     1       4.587  -4.085   8.219  1.00  0.00    -0.014 A 
ATOM     73  C   UNL     1       3.545  -3.566   9.003  1.00  0.00     0.009 A 
ATOM     74  C   UNL     1       4.683  -5.477   8.059  1.00  0.00     0.009 A 
ATOM     75  C   UNL     1       2.642  -4.422   9.638  1.00  0.00     0.001 A 
ATOM     76  C   UNL     1       3.759  -6.329   8.668  1.00  0.00     0.001 A 
ATOM     77  C   UNL     1       2.747  -5.802   9.467  1.00  0.00     0.000 A 
ENDBRANCH  53  72
BRANCH  65  78
ATOM     78  C   UNL     1       9.530   0.011  10.920  1.00  0.00    -0.014 A 
ATOM     79  C   UNL     1      10.137  -0.926  11.770  1.00  0.00     0.009 A 
ATOM     80  C   UNL     1       9.298   1.311  11.400  1.00  0.00     0.009 A 
ATOM     81  C   UNL     1      10.464  -0.581  13.084  1.00  0.00     0.001 A 
ATOM     82  C   UNL     1       9.657   1.663  12.701  1.00  0.00     0.001 A 
ATOM     83  C   UNL     1      10.228   0.713  13.546  1.00  0.00     0.000 A 
ENDBRANCH  65  78
ENDBRANCH  39  40
ENDBRANCH  32  34
ENDBRANCH  31  32
ENDBRANCH  30  31
ENDBRANCH  29  30
ENDBRANCH  28  29
ENDBRANCH  27  28
ENDBRANCH  26  27
ENDBRANCH   1  26
TORSDOF 24
