REMARK SMILES Cc1ccccc1C[C@H](CCSc1ccccc1)C(=O)OCCOCCOCCOC(=O)c1ccc(-c2c3nc(c(-c4ccccc4)c4ccc([nH]4)c(-c4ccccc4)c4nc(c(-c5ccccc5)c5ccc2[nH]5)C=C4)C=C3)cc1
REMARK SMILES IDX 25 1 24 2 23 3 22 4 21 5 19 6 20 7 9 8 8 9 7 10 1 11 2 12
REMARK SMILES IDX 3 13 4 14 6 15 5 16 10 17 11 18 12 19 13 20 14 21 18 22
REMARK SMILES IDX 15 23 17 24 16 25 26 26 27 27 28 28 29 29 30 30 31 31 32 32
REMARK SMILES IDX 33 33 34 34 80 35 35 36 79 37 36 38 37 39 38 40 73 41 39 42
REMARK SMILES IDX 78 43 72 44 74 45 40 46 77 47 71 48 70 49 41 51 63 52 48 53
REMARK SMILES IDX 62 54 49 55 52 56 61 57 75 58 50 59 51 60 60 62 76 63 53 64
REMARK SMILES IDX 42 65 43 66 47 67 44 68 46 69 45 70 64 71 65 72 69 73 66 74
REMARK SMILES IDX 68 75 67 76 54 77 55 78 59 79 56 80 58 81 57 82
REMARK H PARENT 74 50 52 61
REMARK Flexibility Score: inf
ROOT
ATOM      1  C   UNL     1       6.416   4.869  -1.834  1.00  0.00     0.188 C 
ENDROOT
BRANCH   1   2
ATOM      2  O   UNL     1       6.011   6.177  -1.478  1.00  0.00    -0.376 OA
BRANCH   2   3
ATOM      3  C   UNL     1       4.598   6.357  -1.644  1.00  0.00     0.202 C 
BRANCH   3   4
ATOM      4  C   UNL     1       3.675   5.205  -1.105  1.00  0.00     0.261 C 
BRANCH   4   5
ATOM      5  O   UNL     1       2.747   4.168  -1.885  1.00  0.00    -0.463 OA
BRANCH   5   6
ATOM      6  C   UNL     1       1.416   4.046  -2.297  1.00  0.00     0.309 C 
ATOM      7  O   UNL     1       1.191   4.500  -3.418  1.00  0.00    -0.252 OA
BRANCH   6   8
ATOM      8  C   UNL     1       0.191   3.095  -1.680  1.00  0.00     0.104 C 
BRANCH   8   9
ATOM      9  C   UNL     1      -1.289   3.669  -1.462  1.00  0.00     0.051 C 
BRANCH   9  10
ATOM     10  C   UNL     1      -1.861   4.386  -2.653  1.00  0.00    -0.044 A 
ATOM     11  C   UNL     1      -3.793   2.864  -3.377  1.00  0.00     0.044 C 
ATOM     12  C   UNL     1      -2.770   3.928  -3.623  1.00  0.00    -0.048 A 
ATOM     13  C   UNL     1      -2.842   4.588  -4.869  1.00  0.00     0.004 A 
ATOM     14  C   UNL     1      -2.069   5.698  -5.120  1.00  0.00     0.000 A 
ATOM     15  C   UNL     1      -1.304   5.620  -2.849  1.00  0.00     0.004 A 
ATOM     16  C   UNL     1      -1.367   6.230  -4.069  1.00  0.00     0.000 A 
ENDBRANCH   9  10
ENDBRANCH   8   9
BRANCH   8  17
ATOM     17  C   UNL     1       0.357   1.883  -0.722  1.00  0.00     0.027 C 
BRANCH  17  18
ATOM     18  C   UNL     1      -0.563   0.672  -1.013  1.00  0.00     0.076 C 
BRANCH  18  19
ATOM     19  S   UNL     1      -0.003  -0.397  -2.400  1.00  0.00    -0.126 SA
BRANCH  19  20
ATOM     20  C   UNL     1      -0.697   0.385  -3.853  1.00  0.00     0.007 A 
ATOM     21  C   UNL     1       0.031   1.359  -4.546  1.00  0.00     0.015 A 
ATOM     22  C   UNL     1      -1.913  -0.044  -4.393  1.00  0.00     0.015 A 
ATOM     23  C   UNL     1      -0.493   1.987  -5.676  1.00  0.00     0.001 A 
ATOM     24  C   UNL     1      -2.400   0.524  -5.578  1.00  0.00     0.001 A 
ATOM     25  C   UNL     1      -1.702   1.555  -6.205  1.00  0.00     0.000 A 
ENDBRANCH  19  20
ENDBRANCH  18  19
ENDBRANCH  17  18
ENDBRANCH   8  17
ENDBRANCH   6   8
ENDBRANCH   5   6
ENDBRANCH   4   5
ENDBRANCH   3   4
ENDBRANCH   2   3
ENDBRANCH   1   2
BRANCH   1  26
ATOM     26  C   UNL     1       6.777   4.047  -0.588  1.00  0.00     0.188 C 
BRANCH  26  27
ATOM     27  O   UNL     1       5.952   4.321   0.540  1.00  0.00    -0.376 OA
BRANCH  27  28
ATOM     28  C   UNL     1       6.455   5.250   1.496  1.00  0.00     0.202 C 
BRANCH  28  29
ATOM     29  C   UNL     1       6.920   4.446   2.716  1.00  0.00     0.261 C 
BRANCH  29  30
ATOM     30  O   UNL     1       5.768   3.989   3.467  1.00  0.00    -0.460 OA
BRANCH  30  31
ATOM     31  C   UNL     1       5.067   2.985   2.880  1.00  0.00     0.338 C 
ATOM     32  O   UNL     1       5.543   1.935   2.460  1.00  0.00    -0.246 OA
BRANCH  31  33
ATOM     33  C   UNL     1       3.704   3.509   2.546  1.00  0.00     0.060 A 
ATOM     34  C   UNL     1       3.102   3.025   1.413  1.00  0.00     0.016 A 
ATOM     35  C   UNL     1       3.148   4.661   3.114  1.00  0.00     0.016 A 
ATOM     36  C   UNL     1       2.122   3.824   0.780  1.00  0.00     0.010 A 
ATOM     37  C   UNL     1       2.177   5.448   2.421  1.00  0.00     0.010 A 
ATOM     38  C   UNL     1       1.705   5.115   1.146  1.00  0.00    -0.014 A 
BRANCH  38  39
ATOM     39  C   UNL     1       0.981   6.230   0.271  1.00  0.00     0.031 A 
ATOM     40  C   UNL     1      -0.446   6.506   0.665  1.00  0.00     0.074 A 
ATOM     41  C   UNL     1       1.264   7.002  -0.881  1.00  0.00     0.049 A 
ATOM     42  N   UNL     1      -1.265   7.165  -0.093  1.00  0.00    -0.248 NA
ATOM     43  C   UNL     1      -1.093   5.950   1.846  1.00  0.00     0.031 C 
ATOM     44  C   UNL     1       0.806   8.408  -1.031  1.00  0.00     0.029 A 
ATOM     45  N   UNL     1       1.945   6.874  -2.123  1.00  0.00    -0.354 N 
ATOM     46  C   UNL     1      -2.456   7.293   0.534  1.00  0.00     0.074 A 
ATOM     47  C   UNL     1      -2.317   6.481   1.734  1.00  0.00     0.031 C 
ATOM     48  C   UNL     1       1.030   8.879  -2.270  1.00  0.00     0.029 A 
ATOM     49  C   UNL     1       1.670   7.869  -3.079  1.00  0.00     0.049 A 
ATOM     50  H   UNL     1       2.570   6.136  -2.303  1.00  0.00     0.167 HD
ATOM     51  C   UNL     1      -3.402   8.137   0.035  1.00  0.00     0.031 A 
ATOM     52  C   UNL     1       1.812   7.841  -4.447  1.00  0.00     0.031 A 
ATOM     53  C   UNL     1      -3.012   8.920  -1.153  1.00  0.00     0.049 A 
ATOM     54  C   UNL     1       0.695   8.547  -5.218  1.00  0.00     0.074 A 
ATOM     55  C   UNL     1      -2.356  10.137  -1.268  1.00  0.00     0.029 A 
ATOM     56  N   UNL     1      -3.134   8.443  -2.460  1.00  0.00    -0.354 N 
ATOM     57  N   UNL     1      -0.234   9.289  -4.669  1.00  0.00    -0.248 NA
ATOM     58  C   UNL     1       0.384   8.250  -6.623  1.00  0.00     0.031 C 
ATOM     59  C   UNL     1      -2.154  10.427  -2.640  1.00  0.00     0.029 A 
ATOM     60  C   UNL     1      -2.651   9.379  -3.395  1.00  0.00     0.049 A 
ATOM     61  H   UNL     1      -3.511   7.565  -2.698  1.00  0.00     0.167 HD
ATOM     62  C   UNL     1      -1.383   9.156  -5.439  1.00  0.00     0.074 A 
ATOM     63  C   UNL     1      -0.873   8.716  -6.729  1.00  0.00     0.031 C 
ATOM     64  C   UNL     1      -2.641   9.120  -4.861  1.00  0.00     0.031 A 
BRANCH  51  65
ATOM     65  C   UNL     1      -4.530   8.523   0.949  1.00  0.00    -0.014 A 
ATOM     66  C   UNL     1      -4.880   9.877   1.066  1.00  0.00     0.009 A 
ATOM     67  C   UNL     1      -5.172   7.617   1.810  1.00  0.00     0.009 A 
ATOM     68  C   UNL     1      -5.720  10.322   2.089  1.00  0.00     0.001 A 
ATOM     69  C   UNL     1      -5.964   8.064   2.873  1.00  0.00     0.001 A 
ATOM     70  C   UNL     1      -6.223   9.421   3.021  1.00  0.00     0.000 A 
ENDBRANCH  51  65
BRANCH  52  71
ATOM     71  C   UNL     1       2.694   6.801  -5.089  1.00  0.00    -0.014 A 
ATOM     72  C   UNL     1       4.089   6.960  -5.030  1.00  0.00     0.009 A 
ATOM     73  C   UNL     1       2.223   5.574  -5.578  1.00  0.00     0.009 A 
ATOM     74  C   UNL     1       4.964   5.882  -5.254  1.00  0.00     0.001 A 
ATOM     75  C   UNL     1       3.095   4.486  -5.784  1.00  0.00     0.001 A 
ATOM     76  C   UNL     1       4.462   4.628  -5.582  1.00  0.00     0.000 A 
ENDBRANCH  52  71
BRANCH  64  77
ATOM     77  C   UNL     1      -3.952   8.722  -5.561  1.00  0.00    -0.014 A 
ATOM     78  C   UNL     1      -4.087   8.283  -6.890  1.00  0.00     0.009 A 
ATOM     79  C   UNL     1      -5.162   8.761  -4.829  1.00  0.00     0.009 A 
ATOM     80  C   UNL     1      -5.322   7.892  -7.442  1.00  0.00     0.001 A 
ATOM     81  C   UNL     1      -6.394   8.348  -5.361  1.00  0.00     0.001 A 
ATOM     82  C   UNL     1      -6.475   7.913  -6.673  1.00  0.00     0.000 A 
ENDBRANCH  64  77
ENDBRANCH  38  39
ENDBRANCH  31  33
ENDBRANCH  30  31
ENDBRANCH  29  30
ENDBRANCH  28  29
ENDBRANCH  27  28
ENDBRANCH  26  27
ENDBRANCH   1  26
TORSDOF 23
