REMARK SMILES CC(=O)c1cc2c(cc1NC(=O)/C=C/C(=O)OCCOCCOCCOC(=O)c1ccc(-c3c4nc(c(-c5ccccc5)c5ccc([nH]5)c(-c5ccccc5)c5nc(c(-c6ccccc6)c6ccc3[nH]6)C=C5)C=C4)cc1)OCO2
REMARK SMILES IDX 21 1 20 2 19 3 18 4 17 5 15 6 16 7 14 8 13 9 11 10 10 11
REMARK SMILES IDX 12 13 9 14 4 15 5 16 6 17 8 18 7 19 79 20 77 21 78 22 2 23
REMARK SMILES IDX 1 24 3 25 22 26 23 27 24 28 25 29 26 30 27 31 28 32 29 33
REMARK SMILES IDX 30 34 76 35 31 36 75 37 32 38 33 39 34 40 69 41 35 42 74 43
REMARK SMILES IDX 68 44 70 45 36 46 73 47 67 48 66 49 37 51 59 52 44 53 58 54
REMARK SMILES IDX 45 55 48 56 57 57 71 58 46 59 47 60 56 62 72 63 49 64 38 65
REMARK SMILES IDX 39 66 43 67 40 68 42 69 41 70 60 71 61 72 65 73 62 74 64 75
REMARK SMILES IDX 63 76 50 77 51 78 55 79 52 80 54 81 53 82
REMARK H PARENT 10 12 70 50 48 61
REMARK Flexibility Score: inf
ROOT
ATOM      1  C   UNL     1      -0.342   6.463  -5.413  1.00  0.00     0.188 C 
ENDROOT
BRANCH   1   2
ATOM      2  O   UNL     1      -0.468   7.282  -6.561  1.00  0.00    -0.376 OA
BRANCH   2   3
ATOM      3  C   UNL     1      -0.415   6.624  -7.819  1.00  0.00     0.202 C 
BRANCH   3   4
ATOM      4  C   UNL     1      -1.532   5.615  -8.120  1.00  0.00     0.261 C 
BRANCH   4   5
ATOM      5  O   UNL     1      -1.674   4.559  -7.150  1.00  0.00    -0.460 OA
BRANCH   5   6
ATOM      6  C   UNL     1      -1.024   3.396  -7.377  1.00  0.00     0.331 C 
ATOM      7  O   UNL     1      -0.238   3.178  -8.283  1.00  0.00    -0.247 OA
BRANCH   6   8
ATOM      8  C   UNL     1      -1.303   2.405  -6.307  1.00  0.00     0.099 C 
ATOM      9  C   UNL     1      -2.232   2.576  -5.353  1.00  0.00     0.079 C 
BRANCH   9  10
ATOM     10  C   UNL     1      -2.405   1.646  -4.213  1.00  0.00     0.248 C 
ATOM     11  N   UNL     1      -1.390   1.372  -3.335  1.00  0.00    -0.322 N 
ATOM     12  H   UNL     1      -1.628   0.687  -2.669  1.00  0.00     0.170 HD
ATOM     13  O   UNL     1      -3.510   1.127  -4.061  1.00  0.00    -0.270 OA
BRANCH  11  14
ATOM     14  C   UNL     1      -0.072   1.866  -3.182  1.00  0.00     0.056 A 
ATOM     15  C   UNL     1       0.883   1.136  -2.414  1.00  0.00     0.045 A 
ATOM     16  C   UNL     1       2.255   1.440  -2.501  1.00  0.00     0.064 A 
ATOM     17  C   UNL     1       2.626   2.470  -3.335  1.00  0.00     0.166 A 
ATOM     18  C   UNL     1       0.347   3.034  -3.815  1.00  0.00     0.077 A 
ATOM     19  C   UNL     1       1.693   3.270  -3.938  1.00  0.00     0.167 A 
ATOM     20  O   UNL     1       3.891   2.811  -3.699  1.00  0.00    -0.454 OA
ATOM     21  O   UNL     1       2.252   4.231  -4.720  1.00  0.00    -0.454 OA
ATOM     22  C   UNL     1       3.608   3.745  -4.765  1.00  0.00     0.468 C 
BRANCH  15  23
ATOM     23  C   UNL     1       0.446   0.017  -1.531  1.00  0.00     0.162 C 
ATOM     24  C   UNL     1       1.141  -0.162  -0.204  1.00  0.00     0.093 C 
ATOM     25  O   UNL     1      -0.517  -0.674  -1.856  1.00  0.00    -0.294 OA
ENDBRANCH  15  23
ENDBRANCH  11  14
ENDBRANCH   9  10
ENDBRANCH   6   8
ENDBRANCH   5   6
ENDBRANCH   4   5
ENDBRANCH   3   4
ENDBRANCH   2   3
ENDBRANCH   1   2
BRANCH   1  26
ATOM     26  C   UNL     1      -1.646   6.338  -4.600  1.00  0.00     0.188 C 
BRANCH  26  27
ATOM     27  O   UNL     1      -2.770   7.134  -4.949  1.00  0.00    -0.376 OA
BRANCH  27  28
ATOM     28  C   UNL     1      -2.585   8.528  -5.166  1.00  0.00     0.202 C 
BRANCH  28  29
ATOM     29  C   UNL     1      -2.011   9.365  -4.018  1.00  0.00     0.261 C 
BRANCH  29  30
ATOM     30  O   UNL     1      -0.712   8.938  -3.566  1.00  0.00    -0.460 OA
BRANCH  30  31
ATOM     31  C   UNL     1      -0.662   8.536  -2.272  1.00  0.00     0.338 C 
ATOM     32  O   UNL     1      -1.582   8.486  -1.474  1.00  0.00    -0.246 OA
BRANCH  31  33
ATOM     33  C   UNL     1       0.679   8.022  -1.939  1.00  0.00     0.060 A 
ATOM     34  C   UNL     1       0.785   6.700  -1.490  1.00  0.00     0.016 A 
ATOM     35  C   UNL     1       1.789   8.868  -1.926  1.00  0.00     0.016 A 
ATOM     36  C   UNL     1       1.998   6.232  -0.984  1.00  0.00     0.010 A 
ATOM     37  C   UNL     1       3.001   8.401  -1.403  1.00  0.00     0.010 A 
ATOM     38  C   UNL     1       3.101   7.093  -0.898  1.00  0.00    -0.014 A 
BRANCH  38  39
ATOM     39  C   UNL     1       4.315   6.657  -0.166  1.00  0.00     0.031 A 
ATOM     40  C   UNL     1       4.471   7.004   1.284  1.00  0.00     0.074 A 
ATOM     41  C   UNL     1       5.262   5.927  -0.778  1.00  0.00     0.049 A 
ATOM     42  N   UNL     1       5.441   6.696   2.105  1.00  0.00    -0.248 NA
ATOM     43  C   UNL     1       3.399   7.813   1.881  1.00  0.00     0.031 C 
ATOM     44  C   UNL     1       5.213   5.521  -2.174  1.00  0.00     0.029 A 
ATOM     45  N   UNL     1       6.430   5.383  -0.308  1.00  0.00    -0.354 N 
ATOM     46  C   UNL     1       5.110   7.292   3.313  1.00  0.00     0.074 A 
ATOM     47  C   UNL     1       3.854   7.985   3.113  1.00  0.00     0.031 C 
ATOM     48  C   UNL     1       6.274   4.741  -2.441  1.00  0.00     0.029 A 
ATOM     49  C   UNL     1       7.101   4.635  -1.244  1.00  0.00     0.049 A 
ATOM     50  H   UNL     1       6.755   5.515   0.612  1.00  0.00     0.167 HD
ATOM     51  C   UNL     1       5.797   7.276   4.480  1.00  0.00     0.031 A 
ATOM     52  C   UNL     1       8.254   3.946  -1.151  1.00  0.00     0.031 A 
ATOM     53  C   UNL     1       7.062   6.617   4.671  1.00  0.00     0.049 A 
ATOM     54  C   UNL     1       9.018   3.975   0.143  1.00  0.00     0.074 A 
ATOM     55  C   UNL     1       7.839   6.552   5.815  1.00  0.00     0.029 A 
ATOM     56  N   UNL     1       7.743   5.917   3.686  1.00  0.00    -0.354 N 
ATOM     57  N   UNL     1       8.690   4.536   1.281  1.00  0.00    -0.248 NA
ATOM     58  C   UNL     1      10.320   3.293   0.158  1.00  0.00     0.031 C 
ATOM     59  C   UNL     1       9.013   5.854   5.507  1.00  0.00     0.029 A 
ATOM     60  C   UNL     1       8.942   5.438   4.187  1.00  0.00     0.049 A 
ATOM     61  H   UNL     1       7.421   5.780   2.766  1.00  0.00     0.167 HD
ATOM     62  C   UNL     1       9.742   4.274   2.149  1.00  0.00     0.074 A 
ATOM     63  C   UNL     1      10.705   3.479   1.413  1.00  0.00     0.031 C 
ATOM     64  C   UNL     1       9.899   4.665   3.437  1.00  0.00     0.031 A 
BRANCH  51  65
ATOM     65  C   UNL     1       5.208   8.060   5.617  1.00  0.00    -0.014 A 
ATOM     66  C   UNL     1       4.056   7.621   6.289  1.00  0.00     0.009 A 
ATOM     67  C   UNL     1       5.800   9.273   6.002  1.00  0.00     0.009 A 
ATOM     68  C   UNL     1       3.482   8.406   7.291  1.00  0.00     0.001 A 
ATOM     69  C   UNL     1       5.240  10.042   7.022  1.00  0.00     0.001 A 
ATOM     70  C   UNL     1       4.074   9.615   7.657  1.00  0.00     0.000 A 
ENDBRANCH  51  65
BRANCH  52  71
ATOM     71  C   UNL     1       8.761   3.171  -2.314  1.00  0.00    -0.014 A 
ATOM     72  C   UNL     1       8.759   1.768  -2.284  1.00  0.00     0.009 A 
ATOM     73  C   UNL     1       9.248   3.824  -3.457  1.00  0.00     0.009 A 
ATOM     74  C   UNL     1       9.246   1.035  -3.369  1.00  0.00     0.001 A 
ATOM     75  C   UNL     1       9.709   3.088  -4.551  1.00  0.00     0.001 A 
ATOM     76  C   UNL     1       9.713   1.695  -4.504  1.00  0.00     0.000 A 
ENDBRANCH  52  71
BRANCH  64  77
ATOM     77  C   UNL     1      11.157   4.228   4.133  1.00  0.00    -0.014 A 
ATOM     78  C   UNL     1      12.394   4.819   3.833  1.00  0.00     0.009 A 
ATOM     79  C   UNL     1      11.098   3.232   5.120  1.00  0.00     0.009 A 
ATOM     80  C   UNL     1      13.553   4.399   4.488  1.00  0.00     0.001 A 
ATOM     81  C   UNL     1      12.254   2.832   5.791  1.00  0.00     0.001 A 
ATOM     82  C   UNL     1      13.482   3.409   5.468  1.00  0.00     0.000 A 
ENDBRANCH  64  77
ENDBRANCH  38  39
ENDBRANCH  31  33
ENDBRANCH  30  31
ENDBRANCH  29  30
ENDBRANCH  28  29
ENDBRANCH  27  28
ENDBRANCH  26  27
ENDBRANCH   1  26
TORSDOF 20
