REMARK SMILES Cc1ccc(N2C(=O)C[C@H](Sc3ccccc3C(=O)OCCOCCOCCOC(=O)c3ccc(-c4c5nc(c(-c6ccccc6)c6ccc([nH]6)c(-c6ccccc6)c6nc(c(-c7ccccc7)c7ccc4[nH]7)C=C6)C=C5)cc3)C2=O)cc1
REMARK SMILES IDX 24 1 23 2 22 3 21 4 20 5 18 6 19 7 17 8 12 9 13 10 14 11
REMARK SMILES IDX 16 12 15 13 11 14 10 15 6 16 7 17 80 18 8 19 9 20 81 21 5 22
REMARK SMILES IDX 1 23 2 24 3 25 83 26 4 27 82 28 25 29 26 30 27 31 28 32
REMARK SMILES IDX 29 33 30 34 31 35 32 36 33 37 79 38 34 39 78 40 35 41 36 42
REMARK SMILES IDX 37 43 72 44 38 45 77 46 71 47 73 48 39 49 76 50 70 51 69 52
REMARK SMILES IDX 40 54 62 55 47 56 61 57 48 58 51 59 60 60 74 61 49 62 50 63
REMARK SMILES IDX 59 65 75 66 52 67 41 68 42 69 46 70 43 71 45 72 44 73 63 74
REMARK SMILES IDX 64 75 68 76 65 77 67 78 66 79 53 80 54 81 58 82 55 83 57 84
REMARK SMILES IDX 56 85
REMARK H PARENT 73 53 51 64
REMARK Flexibility Score: inf
ROOT
ATOM      1  C   UNL     1      -4.215  -0.834  -3.323  1.00  0.00     0.188 C 
ENDROOT
BRANCH   1   2
ATOM      2  O   UNL     1      -5.484  -0.508  -3.841  1.00  0.00    -0.376 OA
BRANCH   2   3
ATOM      3  C   UNL     1      -6.097   0.626  -3.238  1.00  0.00     0.202 C 
BRANCH   3   4
ATOM      4  C   UNL     1      -5.440   1.375  -2.054  1.00  0.00     0.261 C 
BRANCH   4   5
ATOM      5  O   UNL     1      -5.530   1.193  -0.581  1.00  0.00    -0.460 OA
BRANCH   5   6
ATOM      6  C   UNL     1      -6.549   1.061   0.307  1.00  0.00     0.339 C 
ATOM      7  O   UNL     1      -7.687   0.785   0.055  1.00  0.00    -0.246 OA
BRANCH   6   8
ATOM      8  C   UNL     1      -6.211   1.557   1.659  1.00  0.00     0.073 A 
ATOM      9  C   UNL     1      -5.656   0.768   2.667  1.00  0.00     0.023 A 
ATOM     10  C   UNL     1      -5.280   1.389   3.872  1.00  0.00     0.016 A 
ATOM     11  C   UNL     1      -5.517   2.749   4.096  1.00  0.00     0.001 A 
ATOM     12  C   UNL     1      -6.612   2.870   1.966  1.00  0.00     0.017 A 
ATOM     13  C   UNL     1      -6.230   3.481   3.159  1.00  0.00     0.001 A 
BRANCH   9  14
ATOM     14  S   UNL     1      -5.794  -1.015   2.706  1.00  0.00    -0.111 SA
BRANCH  14  15
ATOM     15  C   UNL     1      -4.315  -1.600   1.877  1.00  0.00     0.151 C 
ATOM     16  N   UNL     1      -2.226  -1.110   1.070  1.00  0.00    -0.250 N 
ATOM     17  C   UNL     1      -2.944  -1.633   0.018  1.00  0.00     0.235 C 
ATOM     18  C   UNL     1      -3.006  -0.918   2.194  1.00  0.00     0.247 C 
ATOM     19  O   UNL     1      -2.555  -2.008  -1.078  1.00  0.00    -0.274 OA
ATOM     20  C   UNL     1      -4.377  -1.500   0.381  1.00  0.00     0.126 C 
ATOM     21  O   UNL     1      -2.681  -0.441   3.271  1.00  0.00    -0.273 OA
BRANCH  16  22
ATOM     22  C   UNL     1      -0.855  -0.854   0.967  1.00  0.00     0.052 A 
ATOM     23  C   UNL     1       3.243  -0.033   0.008  1.00  0.00     0.044 C 
ATOM     24  C   UNL     1       1.822  -0.314   0.387  1.00  0.00    -0.051 A 
ATOM     25  C   UNL     1       1.291  -1.576   0.119  1.00  0.00     0.005 A 
ATOM     26  C   UNL     1       1.022   0.655   1.011  1.00  0.00     0.005 A 
ATOM     27  C   UNL     1      -0.044  -1.834   0.387  1.00  0.00     0.027 A 
ATOM     28  C   UNL     1      -0.312   0.381   1.323  1.00  0.00     0.027 A 
ENDBRANCH  16  22
ENDBRANCH  14  15
ENDBRANCH   9  14
ENDBRANCH   6   8
ENDBRANCH   5   6
ENDBRANCH   4   5
ENDBRANCH   3   4
ENDBRANCH   2   3
ENDBRANCH   1   2
BRANCH   1  29
ATOM     29  C   UNL     1      -3.061   0.108  -3.719  1.00  0.00     0.188 C 
BRANCH  29  30
ATOM     30  O   UNL     1      -3.511   1.358  -4.254  1.00  0.00    -0.376 OA
BRANCH  30  31
ATOM     31  C   UNL     1      -2.649   1.939  -5.229  1.00  0.00     0.202 C 
BRANCH  31  32
ATOM     32  C   UNL     1      -1.265   2.326  -4.689  1.00  0.00     0.261 C 
BRANCH  32  33
ATOM     33  O   UNL     1      -1.405   3.489  -3.854  1.00  0.00    -0.460 OA
BRANCH  33  34
ATOM     34  C   UNL     1      -1.537   3.242  -2.529  1.00  0.00     0.338 C 
ATOM     35  O   UNL     1      -0.893   2.435  -1.880  1.00  0.00    -0.246 OA
BRANCH  34  36
ATOM     36  C   UNL     1      -2.765   3.926  -2.035  1.00  0.00     0.060 A 
ATOM     37  C   UNL     1      -3.223   3.644  -0.750  1.00  0.00     0.016 A 
ATOM     38  C   UNL     1      -3.593   4.640  -2.908  1.00  0.00     0.016 A 
ATOM     39  C   UNL     1      -4.555   3.930  -0.415  1.00  0.00     0.010 A 
ATOM     40  C   UNL     1      -4.939   4.835  -2.595  1.00  0.00     0.010 A 
ATOM     41  C   UNL     1      -5.471   4.371  -1.385  1.00  0.00    -0.014 A 
BRANCH  41  42
ATOM     42  C   UNL     1      -6.960   4.443  -1.242  1.00  0.00     0.031 A 
ATOM     43  C   UNL     1      -7.445   5.631  -0.504  1.00  0.00     0.074 A 
ATOM     44  C   UNL     1      -7.940   3.642  -1.793  1.00  0.00     0.049 A 
ATOM     45  N   UNL     1      -8.595   5.716   0.087  1.00  0.00    -0.248 NA
ATOM     46  C   UNL     1      -6.570   6.780  -0.249  1.00  0.00     0.031 C 
ATOM     47  C   UNL     1      -9.219   4.136  -2.303  1.00  0.00     0.029 A 
ATOM     48  N   UNL     1      -8.075   2.261  -2.023  1.00  0.00    -0.354 N 
ATOM     49  C   UNL     1      -8.756   7.057   0.337  1.00  0.00     0.074 A 
ATOM     50  C   UNL     1      -7.414   7.585   0.394  1.00  0.00     0.031 C 
ATOM     51  C   UNL     1     -10.012   3.110  -2.668  1.00  0.00     0.029 A 
ATOM     52  C   UNL     1      -9.386   1.842  -2.307  1.00  0.00     0.049 A 
ATOM     53  H   UNL     1      -7.314   1.638  -1.987  1.00  0.00     0.167 HD
ATOM     54  C   UNL     1      -9.966   7.643   0.096  1.00  0.00     0.031 A 
ATOM     55  C   UNL     1     -10.012   0.688  -1.867  1.00  0.00     0.031 A 
ATOM     56  C   UNL     1     -11.026   6.666  -0.197  1.00  0.00     0.049 A 
ATOM     57  C   UNL     1     -11.175   1.079  -0.977  1.00  0.00     0.074 A 
ATOM     58  C   UNL     1     -11.723   6.370  -1.360  1.00  0.00     0.029 A 
ATOM     59  N   UNL     1     -11.332   5.643   0.702  1.00  0.00    -0.354 N 
ATOM     60  N   UNL     1     -11.395   2.312  -0.638  1.00  0.00    -0.248 NA
ATOM     61  C   UNL     1     -12.089   0.157  -0.297  1.00  0.00     0.031 C 
ATOM     62  C   UNL     1     -12.460   5.184  -1.155  1.00  0.00     0.029 A 
ATOM     63  C   UNL     1     -12.208   4.739   0.129  1.00  0.00     0.049 A 
ATOM     64  H   UNL     1     -10.974   5.575   1.617  1.00  0.00     0.167 HD
ATOM     65  C   UNL     1     -12.363   2.370   0.309  1.00  0.00     0.074 A 
ATOM     66  C   UNL     1     -12.777   0.995   0.500  1.00  0.00     0.031 C 
ATOM     67  C   UNL     1     -12.695   3.570   0.853  1.00  0.00     0.031 A 
BRANCH  54  68
ATOM     68  C   UNL     1     -10.060   9.111  -0.313  1.00  0.00    -0.014 A 
ATOM     69  C   UNL     1     -11.137   9.546  -1.107  1.00  0.00     0.009 A 
ATOM     70  C   UNL     1      -9.087  10.090  -0.045  1.00  0.00     0.009 A 
ATOM     71  C   UNL     1     -11.169  10.814  -1.704  1.00  0.00     0.001 A 
ATOM     72  C   UNL     1      -9.092  11.351  -0.658  1.00  0.00     0.001 A 
ATOM     73  C   UNL     1     -10.128  11.707  -1.505  1.00  0.00     0.000 A 
ENDBRANCH  54  68
BRANCH  55  74
ATOM     74  C   UNL     1      -9.350  -0.671  -1.690  1.00  0.00    -0.014 A 
ATOM     75  C   UNL     1      -8.745  -1.315  -2.782  1.00  0.00     0.009 A 
ATOM     76  C   UNL     1      -9.230  -1.334  -0.448  1.00  0.00     0.009 A 
ATOM     77  C   UNL     1      -7.913  -2.442  -2.616  1.00  0.00     0.001 A 
ATOM     78  C   UNL     1      -8.420  -2.474  -0.280  1.00  0.00     0.001 A 
ATOM     79  C   UNL     1      -7.730  -3.008  -1.360  1.00  0.00     0.000 A 
ENDBRANCH  55  74
BRANCH  67  80
ATOM     80  C   UNL     1     -13.624   3.744   2.005  1.00  0.00    -0.014 A 
ATOM     81  C   UNL     1     -13.774   2.810   3.037  1.00  0.00     0.009 A 
ATOM     82  C   UNL     1     -14.325   4.960   2.114  1.00  0.00     0.009 A 
ATOM     83  C   UNL     1     -14.643   3.059   4.104  1.00  0.00     0.001 A 
ATOM     84  C   UNL     1     -15.162   5.226   3.193  1.00  0.00     0.001 A 
ATOM     85  C   UNL     1     -15.333   4.267   4.182  1.00  0.00     0.000 A 
ENDBRANCH  67  80
ENDBRANCH  41  42
ENDBRANCH  34  36
ENDBRANCH  33  34
ENDBRANCH  32  33
ENDBRANCH  31  32
ENDBRANCH  30  31
ENDBRANCH  29  30
ENDBRANCH   1  29
TORSDOF 20
