REMARK SMILES CCc1cccc(-c2ccc([C@@H](C)C(=O)OCCOCCOCCOC(=O)c3ccc(-c4c5nc(c(-c6ccccc6)c6ccc([nH]6)c(-c6ccccc6)c6nc(c(-c7ccccc7)c7ccc4[nH]7)C=C6)C=C5)cc3)cc2)c1
REMARK SMILES IDX 20 1 19 2 18 3 17 4 16 5 14 6 15 7 12 8 13 9 11 10 8 11 9 12
REMARK SMILES IDX 77 13 10 14 76 15 7 16 3 17 4 18 78 19 5 20 6 21 2 22 1 23
REMARK SMILES IDX 21 24 22 25 23 26 24 27 25 28 26 29 27 30 28 31 29 32 75 33
REMARK SMILES IDX 30 34 74 35 31 36 32 37 33 38 68 39 34 40 73 41 67 42 69 43
REMARK SMILES IDX 35 44 72 45 66 46 65 47 36 49 58 50 43 51 57 52 44 53 47 54
REMARK SMILES IDX 56 55 70 56 45 57 46 58 55 60 71 61 48 62 37 63 38 64 42 65
REMARK SMILES IDX 39 66 41 67 40 68 59 69 60 70 64 71 61 72 63 73 62 74 49 75
REMARK SMILES IDX 50 76 54 77 51 78 53 79 52 80
REMARK H PARENT 69 48 47 59
REMARK Flexibility Score: inf
ROOT
ATOM      1  C   UNL     1       1.107   8.006  -1.914  1.00  0.00     0.188 C 
ENDROOT
BRANCH   1   2
ATOM      2  O   UNL     1       2.090   8.847  -2.506  1.00  0.00    -0.376 OA
BRANCH   2   3
ATOM      3  C   UNL     1       3.249   9.198  -1.758  1.00  0.00     0.202 C 
BRANCH   3   4
ATOM      4  C   UNL     1       3.056   9.889  -0.399  1.00  0.00     0.261 C 
BRANCH   4   5
ATOM      5  O   UNL     1       2.233   9.180   0.556  1.00  0.00    -0.463 OA
BRANCH   5   6
ATOM      6  C   UNL     1       1.113   9.816   0.984  1.00  0.00     0.313 C 
ATOM      7  O   UNL     1       0.813  10.956   0.633  1.00  0.00    -0.252 OA
BRANCH   6   8
ATOM      8  C   UNL     1       0.199   9.031   1.932  1.00  0.00     0.126 C 
ATOM      9  C   UNL     1       0.071   9.809   3.241  1.00  0.00     0.025 C 
BRANCH   8  10
ATOM     10  C   UNL     1       0.424   7.546   2.214  1.00  0.00    -0.034 A 
ATOM     11  C   UNL     1       0.735   4.737   2.702  1.00  0.00    -0.018 A 
ATOM     12  C   UNL     1       1.788   5.646   2.909  1.00  0.00     0.009 A 
ATOM     13  C   UNL     1      -0.483   5.261   2.254  1.00  0.00     0.009 A 
ATOM     14  C   UNL     1       1.637   7.027   2.681  1.00  0.00     0.005 A 
ATOM     15  C   UNL     1      -0.639   6.638   2.023  1.00  0.00     0.005 A 
BRANCH  11  16
ATOM     16  C   UNL     1       0.893   3.297   3.006  1.00  0.00    -0.018 A 
ATOM     17  C   UNL     1       0.766   0.920   2.371  1.00  0.00    -0.048 A 
ATOM     18  C   UNL     1       1.182   0.567   3.662  1.00  0.00     0.004 A 
ATOM     19  C   UNL     1       0.617   2.288   2.059  1.00  0.00     0.012 A 
ATOM     20  C   UNL     1       1.455   1.546   4.613  1.00  0.00     0.001 A 
ATOM     21  C   UNL     1       1.310   2.895   4.286  1.00  0.00     0.009 A 
BRANCH  17  22
ATOM     22  C   UNL     1       0.420  -0.182   1.393  1.00  0.00     0.032 C 
ATOM     23  C   UNL     1       0.998  -0.016  -0.005  1.00  0.00     0.009 C 
ENDBRANCH  17  22
ENDBRANCH  11  16
ENDBRANCH   8  10
ENDBRANCH   6   8
ENDBRANCH   5   6
ENDBRANCH   4   5
ENDBRANCH   3   4
ENDBRANCH   2   3
ENDBRANCH   1   2
BRANCH   1  24
ATOM     24  C   UNL     1       1.548   6.872  -0.978  1.00  0.00     0.188 C 
BRANCH  24  25
ATOM     25  O   UNL     1       2.934   6.613  -0.998  1.00  0.00    -0.376 OA
BRANCH  25  26
ATOM     26  C   UNL     1       3.330   5.285  -1.270  1.00  0.00     0.202 C 
BRANCH  26  27
ATOM     27  C   UNL     1       3.042   4.810  -2.700  1.00  0.00     0.261 C 
BRANCH  27  28
ATOM     28  O   UNL     1       1.702   5.035  -3.179  1.00  0.00    -0.460 OA
BRANCH  28  29
ATOM     29  C   UNL     1       0.726   4.238  -2.682  1.00  0.00     0.338 C 
ATOM     30  O   UNL     1       0.852   3.332  -1.885  1.00  0.00    -0.246 OA
BRANCH  29  31
ATOM     31  C   UNL     1      -0.577   4.797  -3.120  1.00  0.00     0.060 A 
ATOM     32  C   UNL     1      -1.506   5.210  -2.154  1.00  0.00     0.016 A 
ATOM     33  C   UNL     1      -0.878   4.912  -4.478  1.00  0.00     0.016 A 
ATOM     34  C   UNL     1      -2.750   5.713  -2.545  1.00  0.00     0.010 A 
ATOM     35  C   UNL     1      -2.131   5.396  -4.867  1.00  0.00     0.010 A 
ATOM     36  C   UNL     1      -3.086   5.771  -3.904  1.00  0.00    -0.014 A 
BRANCH  36  37
ATOM     37  C   UNL     1      -4.484   6.043  -4.326  1.00  0.00     0.031 A 
ATOM     38  C   UNL     1      -5.361   4.876  -4.692  1.00  0.00     0.074 A 
ATOM     39  C   UNL     1      -4.974   7.294  -4.398  1.00  0.00     0.049 A 
ATOM     40  N   UNL     1      -6.577   4.867  -5.176  1.00  0.00    -0.248 NA
ATOM     41  C   UNL     1      -4.784   3.537  -4.487  1.00  0.00     0.031 C 
ATOM     42  C   UNL     1      -4.255   8.510  -4.026  1.00  0.00     0.029 A 
ATOM     43  N   UNL     1      -6.200   7.742  -4.826  1.00  0.00    -0.354 N 
ATOM     44  C   UNL     1      -6.904   3.527  -5.345  1.00  0.00     0.074 A 
ATOM     45  C   UNL     1      -5.750   2.754  -4.940  1.00  0.00     0.031 C 
ATOM     46  C   UNL     1      -5.051   9.571  -4.255  1.00  0.00     0.029 A 
ATOM     47  C   UNL     1      -6.316   9.111  -4.827  1.00  0.00     0.049 A 
ATOM     48  H   UNL     1      -6.926   7.140  -5.106  1.00  0.00     0.167 HD
ATOM     49  C   UNL     1      -8.061   2.984  -5.794  1.00  0.00     0.031 A 
ATOM     50  C   UNL     1      -7.315   9.902  -5.266  1.00  0.00     0.031 A 
ATOM     51  C   UNL     1      -9.204   3.748  -6.219  1.00  0.00     0.049 A 
ATOM     52  C   UNL     1      -8.556   9.279  -5.854  1.00  0.00     0.074 A 
ATOM     53  C   UNL     1     -10.423   3.287  -6.684  1.00  0.00     0.029 A 
ATOM     54  N   UNL     1      -9.264   5.132  -6.241  1.00  0.00    -0.354 N 
ATOM     55  N   UNL     1      -8.862   8.012  -5.993  1.00  0.00    -0.248 NA
ATOM     56  C   UNL     1      -9.594  10.202  -6.340  1.00  0.00     0.031 C 
ATOM     57  C   UNL     1     -11.198   4.393  -7.047  1.00  0.00     0.029 A 
ATOM     58  C   UNL     1     -10.489   5.543  -6.739  1.00  0.00     0.049 A 
ATOM     59  H   UNL     1      -8.543   5.734  -5.947  1.00  0.00     0.167 HD
ATOM     60  C   UNL     1     -10.136   7.986  -6.550  1.00  0.00     0.074 A 
ATOM     61  C   UNL     1     -10.552   9.363  -6.709  1.00  0.00     0.031 C 
ATOM     62  C   UNL     1     -10.896   6.916  -6.893  1.00  0.00     0.031 A 
BRANCH  49  63
ATOM     63  C   UNL     1      -8.130   1.485  -5.884  1.00  0.00    -0.014 A 
ATOM     64  C   UNL     1      -8.173   0.684  -4.731  1.00  0.00     0.009 A 
ATOM     65  C   UNL     1      -8.182   0.865  -7.142  1.00  0.00     0.009 A 
ATOM     66  C   UNL     1      -8.228  -0.708  -4.839  1.00  0.00     0.001 A 
ATOM     67  C   UNL     1      -8.269  -0.524  -7.247  1.00  0.00     0.001 A 
ATOM     68  C   UNL     1      -8.281  -1.309  -6.096  1.00  0.00     0.000 A 
ENDBRANCH  49  63
BRANCH  50  69
ATOM     69  C   UNL     1      -7.183  11.383  -5.195  1.00  0.00    -0.014 A 
ATOM     70  C   UNL     1      -7.998  12.135  -4.335  1.00  0.00     0.009 A 
ATOM     71  C   UNL     1      -6.260  12.056  -6.012  1.00  0.00     0.009 A 
ATOM     72  C   UNL     1      -7.911  13.530  -4.314  1.00  0.00     0.001 A 
ATOM     73  C   UNL     1      -6.152  13.448  -5.964  1.00  0.00     0.001 A 
ATOM     74  C   UNL     1      -6.984  14.184  -5.123  1.00  0.00     0.000 A 
ENDBRANCH  50  69
BRANCH  62  75
ATOM     75  C   UNL     1     -12.275   7.185  -7.432  1.00  0.00    -0.014 A 
ATOM     76  C   UNL     1     -12.473   7.735  -8.708  1.00  0.00     0.009 A 
ATOM     77  C   UNL     1     -13.398   6.834  -6.665  1.00  0.00     0.009 A 
ATOM     78  C   UNL     1     -13.766   7.961  -9.188  1.00  0.00     0.001 A 
ATOM     79  C   UNL     1     -14.688   7.030  -7.160  1.00  0.00     0.001 A 
ATOM     80  C   UNL     1     -14.871   7.603  -8.416  1.00  0.00     0.000 A 
ENDBRANCH  62  75
ENDBRANCH  36  37
ENDBRANCH  29  31
ENDBRANCH  28  29
ENDBRANCH  27  28
ENDBRANCH  26  27
ENDBRANCH  25  26
ENDBRANCH  24  25
ENDBRANCH   1  24
TORSDOF 20
