REMARK SMILES Cc1ccc(C(=O)N2CCC3(CCC(=O)N(CC(=O)OCCOCCOCCOC(=O)c4ccc(-c5c6nc(c(-c7ccccc7)c7ccc([nH]7)c(-c7ccccc7)c7nc(c(-c8ccccc8)c8ccc5[nH]8)C=C7)C=C6)cc4)C3)CC2)cc1O
REMARK SMILES IDX 24 1 23 2 22 3 21 4 20 5 18 6 19 7 17 8 16 9 6 10 7 11 8 12
REMARK SMILES IDX 9 13 82 14 10 15 81 16 11 17 12 18 80 19 13 20 14 21 15 22
REMARK SMILES IDX 5 23 1 24 2 25 3 26 84 27 4 28 83 29 85 30 25 32 26 33 27 34
REMARK SMILES IDX 28 35 29 36 30 37 31 38 32 39 33 40 79 41 34 42 78 43 35 44
REMARK SMILES IDX 36 45 37 46 72 47 38 48 77 49 71 50 73 51 39 52 76 53 70 54
REMARK SMILES IDX 69 55 40 57 62 58 47 59 61 60 48 61 51 62 60 63 74 64 49 65
REMARK SMILES IDX 50 66 59 68 75 69 52 70 41 71 42 72 46 73 43 74 45 75 44 76
REMARK SMILES IDX 63 77 64 78 68 79 65 80 67 81 66 82 53 83 54 84 58 85 55 86
REMARK SMILES IDX 57 87 56 88
REMARK H PARENT 85 31 73 56 51 67
REMARK Flexibility Score: inf
ROOT
ATOM      1  C   UNL     1      11.309  -3.030   4.971  1.00  0.00     0.188 C 
ENDROOT
BRANCH   1   2
ATOM      2  O   UNL     1      11.342  -4.264   5.679  1.00  0.00    -0.376 OA
BRANCH   2   3
ATOM      3  C   UNL     1      10.811  -5.431   5.063  1.00  0.00     0.202 C 
BRANCH   3   4
ATOM      4  C   UNL     1       9.282  -5.480   4.916  1.00  0.00     0.261 C 
BRANCH   4   5
ATOM      5  O   UNL     1       8.725  -4.513   3.990  1.00  0.00    -0.462 OA
BRANCH   5   6
ATOM      6  C   UNL     1       7.872  -3.592   4.507  1.00  0.00     0.325 C 
ATOM      7  O   UNL     1       7.518  -3.577   5.684  1.00  0.00    -0.250 OA
BRANCH   6   8
ATOM      8  C   UNL     1       7.463  -2.438   3.559  1.00  0.00     0.242 C 
BRANCH   8   9
ATOM      9  N   UNL     1       7.613  -2.451   2.094  1.00  0.00    -0.331 N 
ATOM     10  C   UNL     1       2.845   1.568   0.160  1.00  0.00     0.253 C 
ATOM     11  O   UNL     1       2.727   2.728   0.550  1.00  0.00    -0.269 OA
ATOM     12  N   UNL     1       4.079   0.937   0.092  1.00  0.00    -0.339 N 
ATOM     13  C   UNL     1       5.056   1.246   1.115  1.00  0.00     0.120 C 
ATOM     14  C   UNL     1       4.542   0.130  -1.032  1.00  0.00     0.120 C 
ATOM     15  C   UNL     1       5.554  -0.073   1.703  1.00  0.00     0.030 C 
ATOM     16  C   UNL     1       5.173  -1.181  -0.559  1.00  0.00     0.030 C 
ATOM     17  C   UNL     1       6.165  -1.006   0.622  1.00  0.00    -0.008 C 
ATOM     18  C   UNL     1       7.487  -0.403   0.069  1.00  0.00     0.019 C 
ATOM     19  C   UNL     1       6.438  -2.419   1.238  1.00  0.00     0.127 C 
ATOM     20  C   UNL     1       8.601  -0.483   1.098  1.00  0.00     0.101 C 
ATOM     21  C   UNL     1       8.732  -1.940   1.463  1.00  0.00     0.223 C 
ATOM     22  O   UNL     1       9.600  -2.651   0.979  1.00  0.00    -0.275 OA
BRANCH  10  23
ATOM     23  C   UNL     1       1.620   0.745  -0.048  1.00  0.00     0.043 A 
ATOM     24  C   UNL     1      -2.022  -1.579  -0.060  1.00  0.00     0.048 C 
ATOM     25  C   UNL     1      -0.772  -0.751  -0.087  1.00  0.00    -0.009 A 
ATOM     26  C   UNL     1       0.462  -1.389   0.061  1.00  0.00     0.008 A 
ATOM     27  C   UNL     1      -0.788   0.645  -0.203  1.00  0.00     0.119 A 
ATOM     28  C   UNL     1       1.639  -0.645   0.108  1.00  0.00     0.014 A 
ATOM     29  C   UNL     1       0.392   1.389  -0.201  1.00  0.00     0.060 A 
BRANCH  27  30
ATOM     30  O   UNL     1      -1.948   1.361  -0.288  1.00  0.00    -0.508 OA
ATOM     31  H   UNL     1      -2.773   0.917  -0.294  1.00  0.00     0.293 HD
ENDBRANCH  27  30
ENDBRANCH  10  23
ENDBRANCH   8   9
ENDBRANCH   6   8
ENDBRANCH   5   6
ENDBRANCH   4   5
ENDBRANCH   3   4
ENDBRANCH   2   3
ENDBRANCH   1   2
BRANCH   1  32
ATOM     32  C   UNL     1      11.249  -3.051   3.446  1.00  0.00     0.188 C 
BRANCH  32  33
ATOM     33  O   UNL     1      12.093  -4.041   2.884  1.00  0.00    -0.376 OA
BRANCH  33  34
ATOM     34  C   UNL     1      12.475  -3.784   1.538  1.00  0.00     0.202 C 
BRANCH  34  35
ATOM     35  C   UNL     1      13.853  -3.130   1.564  1.00  0.00     0.261 C 
BRANCH  35  36
ATOM     36  O   UNL     1      13.868  -1.900   2.324  1.00  0.00    -0.460 OA
BRANCH  36  37
ATOM     37  C   UNL     1      13.220  -0.851   1.776  1.00  0.00     0.338 C 
ATOM     38  O   UNL     1      12.725  -0.790   0.654  1.00  0.00    -0.246 OA
BRANCH  37  39
ATOM     39  C   UNL     1      13.012   0.184   2.811  1.00  0.00     0.060 A 
ATOM     40  C   UNL     1      11.724   0.706   2.994  1.00  0.00     0.016 A 
ATOM     41  C   UNL     1      14.071   0.660   3.584  1.00  0.00     0.016 A 
ATOM     42  C   UNL     1      11.495   1.738   3.904  1.00  0.00     0.010 A 
ATOM     43  C   UNL     1      13.846   1.704   4.489  1.00  0.00     0.010 A 
ATOM     44  C   UNL     1      12.567   2.275   4.626  1.00  0.00    -0.014 A 
BRANCH  44  45
ATOM     45  C   UNL     1      12.395   3.538   5.386  1.00  0.00     0.031 A 
ATOM     46  C   UNL     1      12.892   4.821   4.771  1.00  0.00     0.074 A 
ATOM     47  C   UNL     1      11.804   3.561   6.595  1.00  0.00     0.049 A 
ATOM     48  N   UNL     1      12.930   6.026   5.280  1.00  0.00    -0.248 NA
ATOM     49  C   UNL     1      13.418   4.731   3.398  1.00  0.00     0.031 C 
ATOM     50  C   UNL     1      11.233   2.405   7.285  1.00  0.00     0.029 A 
ATOM     51  N   UNL     1      11.603   4.605   7.465  1.00  0.00    -0.354 N 
ATOM     52  C   UNL     1      13.506   6.829   4.303  1.00  0.00     0.074 A 
ATOM     53  C   UNL     1      13.814   5.975   3.177  1.00  0.00     0.031 C 
ATOM     54  C   UNL     1      10.761   2.802   8.481  1.00  0.00     0.029 A 
ATOM     55  C   UNL     1      11.033   4.227   8.658  1.00  0.00     0.049 A 
ATOM     56  H   UNL     1      11.843   5.536   7.255  1.00  0.00     0.167 HD
ATOM     57  C   UNL     1      13.757   8.159   4.339  1.00  0.00     0.031 A 
ATOM     58  C   UNL     1      10.791   4.942   9.775  1.00  0.00     0.031 A 
ATOM     59  C   UNL     1      13.449   9.014   5.453  1.00  0.00     0.049 A 
ATOM     60  C   UNL     1      11.147   6.407   9.813  1.00  0.00     0.074 A 
ATOM     61  C   UNL     1      13.640  10.380   5.565  1.00  0.00     0.029 A 
ATOM     62  N   UNL     1      12.892   8.587   6.646  1.00  0.00    -0.354 N 
ATOM     63  N   UNL     1      11.662   7.161   8.871  1.00  0.00    -0.248 NA
ATOM     64  C   UNL     1      10.881   7.123  11.071  1.00  0.00     0.031 C 
ATOM     65  C   UNL     1      13.258  10.770   6.851  1.00  0.00     0.029 A 
ATOM     66  C   UNL     1      12.764   9.658   7.514  1.00  0.00     0.049 A 
ATOM     67  H   UNL     1      12.627   7.660   6.848  1.00  0.00     0.167 HD
ATOM     68  C   UNL     1      11.747   8.440   9.411  1.00  0.00     0.074 A 
ATOM     69  C   UNL     1      11.216   8.365  10.755  1.00  0.00     0.031 C 
ATOM     70  C   UNL     1      12.222   9.575   8.844  1.00  0.00     0.031 A 
BRANCH  57  71
ATOM     71  C   UNL     1      14.435   8.776   3.149  1.00  0.00    -0.014 A 
ATOM     72  C   UNL     1      13.754   8.977   1.939  1.00  0.00     0.009 A 
ATOM     73  C   UNL     1      15.759   9.229   3.268  1.00  0.00     0.009 A 
ATOM     74  C   UNL     1      14.392   9.604   0.866  1.00  0.00     0.001 A 
ATOM     75  C   UNL     1      16.385   9.879   2.204  1.00  0.00     0.001 A 
ATOM     76  C   UNL     1      15.703  10.062   1.003  1.00  0.00     0.000 A 
ENDBRANCH  57  71
BRANCH  58  77
ATOM     77  C   UNL     1      10.222   4.285  10.984  1.00  0.00    -0.014 A 
ATOM     78  C   UNL     1       8.947   4.631  11.460  1.00  0.00     0.009 A 
ATOM     79  C   UNL     1      10.982   3.351  11.706  1.00  0.00     0.009 A 
ATOM     80  C   UNL     1       8.464   4.087  12.653  1.00  0.00     0.001 A 
ATOM     81  C   UNL     1      10.482   2.782  12.880  1.00  0.00     0.001 A 
ATOM     82  C   UNL     1       9.230   3.162  13.360  1.00  0.00     0.000 A 
ENDBRANCH  58  77
BRANCH  70  83
ATOM     83  C   UNL     1      12.142  10.843   9.650  1.00  0.00    -0.014 A 
ATOM     84  C   UNL     1      12.970  11.060  10.762  1.00  0.00     0.009 A 
ATOM     85  C   UNL     1      11.255  11.858   9.256  1.00  0.00     0.009 A 
ATOM     86  C   UNL     1      12.885  12.254  11.483  1.00  0.00     0.001 A 
ATOM     87  C   UNL     1      11.195  13.062   9.959  1.00  0.00     0.001 A 
ATOM     88  C   UNL     1      12.002  13.255  11.078  1.00  0.00     0.000 A 
ENDBRANCH  70  83
ENDBRANCH  44  45
ENDBRANCH  37  39
ENDBRANCH  36  37
ENDBRANCH  35  36
ENDBRANCH  34  35
ENDBRANCH  33  34
ENDBRANCH  32  33
ENDBRANCH   1  32
TORSDOF 20
