REMARK SMILES Cc1cc(=O)cc(C)n1-c1ccc(Cl)cc1C(=O)OCCOCCOCCOC(=O)c1ccc(-c2c3nc(c(-c4ccccc4)c4ccc([nH]4)c(-c4ccccc4)c4nc(c(-c5ccccc5)c5ccc2[nH]5)C=C4)C=C3)cc1
REMARK SMILES IDX 24 1 23 2 22 3 21 4 20 5 19 6 17 7 18 8 16 9 10 10 11 11
REMARK SMILES IDX 12 12 15 13 13 14 14 15 9 16 1 17 2 18 3 19 4 20 7 21 5 22
REMARK SMILES IDX 6 23 8 24 25 25 26 26 27 27 28 28 29 29 30 30 31 31 32 32
REMARK SMILES IDX 78 33 33 34 77 35 34 36 35 37 36 38 71 39 37 40 76 41 70 42
REMARK SMILES IDX 72 43 38 44 75 45 69 46 68 47 39 49 61 50 46 51 60 52 47 53
REMARK SMILES IDX 50 54 59 55 73 56 48 57 49 58 58 60 74 61 51 62 40 63 41 64
REMARK SMILES IDX 45 65 42 66 44 67 43 68 62 69 63 70 67 71 64 72 66 73 65 74
REMARK SMILES IDX 52 75 53 76 57 77 54 78 56 79 55 80
REMARK H PARENT 72 48 50 59
REMARK Flexibility Score: inf
ROOT
ATOM      1  C   UNL     1      -3.287   1.897   0.933  1.00  0.00     0.188 C 
ENDROOT
BRANCH   1   2
ATOM      2  C   UNL     1      -3.514   1.899  -0.595  1.00  0.00     0.188 C 
BRANCH   2   3
ATOM      3  O   UNL     1      -4.066   0.759  -1.216  1.00  0.00    -0.376 OA
BRANCH   3   4
ATOM      4  C   UNL     1      -3.321  -0.444  -1.314  1.00  0.00     0.202 C 
BRANCH   4   5
ATOM      5  C   UNL     1      -1.792  -0.517  -1.212  1.00  0.00     0.261 C 
BRANCH   5   6
ATOM      6  O   UNL     1      -1.183   0.409  -0.308  1.00  0.00    -0.460 OA
BRANCH   6   7
ATOM      7  C   UNL     1      -0.327   1.293  -0.869  1.00  0.00     0.340 C 
ATOM      8  O   UNL     1      -0.058   1.378  -2.058  1.00  0.00    -0.246 OA
BRANCH   7   9
ATOM      9  C   UNL     1       0.176   2.292   0.104  1.00  0.00     0.085 A 
ATOM     10  C   UNL     1       0.654   2.008   1.404  1.00  0.00     0.060 A 
ATOM     11  C   UNL     1       1.217   3.085   2.128  1.00  0.00     0.029 A 
ATOM     12  C   UNL     1       1.184   4.399   1.649  1.00  0.00     0.023 A 
ATOM     13  C   UNL     1       0.148   3.619  -0.375  1.00  0.00     0.038 A 
ATOM     14  C   UNL     1       0.619   4.663   0.410  1.00  0.00     0.042 A 
ATOM     15  Cl  UNL     1       0.490   6.282  -0.151  1.00  0.00    -0.084 Cl
BRANCH  10  16
ATOM     16  N   UNL     1       0.546   0.726   2.051  1.00  0.00    -0.317 N 
ATOM     17  C   UNL     1       1.959  -0.429   0.246  1.00  0.00     0.065 C 
ATOM     18  C   UNL     1       1.061  -0.458   1.462  1.00  0.00     0.024 A 
ATOM     19  C   UNL     1       0.806  -1.681   1.964  1.00  0.00     0.073 A 
ATOM     20  C   UNL     1      -0.003  -1.826   3.184  1.00  0.00     0.182 A 
ATOM     21  C   UNL     1      -0.187   0.604   3.275  1.00  0.00     0.024 A 
ATOM     22  O   UNL     1      -0.267  -2.928   3.649  1.00  0.00    -0.290 OA
ATOM     23  C   UNL     1      -0.457  -0.591   3.834  1.00  0.00     0.073 A 
ATOM     24  C   UNL     1      -0.753   1.805   4.007  1.00  0.00     0.065 C 
ENDBRANCH  10  16
ENDBRANCH   7   9
ENDBRANCH   6   7
ENDBRANCH   5   6
ENDBRANCH   4   5
ENDBRANCH   3   4
ENDBRANCH   2   3
ENDBRANCH   1   2
BRANCH   1  25
ATOM     25  O   UNL     1      -3.503   0.736   1.702  1.00  0.00    -0.376 OA
BRANCH  25  26
ATOM     26  C   UNL     1      -4.783   0.130   1.723  1.00  0.00     0.202 C 
BRANCH  26  27
ATOM     27  C   UNL     1      -6.101   0.925   1.664  1.00  0.00     0.261 C 
BRANCH  27  28
ATOM     28  O   UNL     1      -6.117   2.095   0.837  1.00  0.00    -0.460 OA
BRANCH  28  29
ATOM     29  C   UNL     1      -6.148   3.278   1.504  1.00  0.00     0.338 C 
ATOM     30  O   UNL     1      -6.173   3.450   2.707  1.00  0.00    -0.246 OA
BRANCH  29  31
ATOM     31  C   UNL     1      -5.932   4.378   0.542  1.00  0.00     0.060 A 
ATOM     32  C   UNL     1      -4.764   5.148   0.654  1.00  0.00     0.016 A 
ATOM     33  C   UNL     1      -6.882   4.669  -0.437  1.00  0.00     0.016 A 
ATOM     34  C   UNL     1      -4.548   6.223  -0.206  1.00  0.00     0.010 A 
ATOM     35  C   UNL     1      -6.682   5.772  -1.272  1.00  0.00     0.010 A 
ATOM     36  C   UNL     1      -5.530   6.570  -1.141  1.00  0.00    -0.014 A 
BRANCH  36  37
ATOM     37  C   UNL     1      -5.455   7.880  -1.827  1.00  0.00     0.031 A 
ATOM     38  C   UNL     1      -6.204   9.039  -1.227  1.00  0.00     0.074 A 
ATOM     39  C   UNL     1      -4.724   8.052  -2.942  1.00  0.00     0.049 A 
ATOM     40  N   UNL     1      -6.345  10.258  -1.679  1.00  0.00    -0.248 NA
ATOM     41  C   UNL     1      -6.880   8.789   0.058  1.00  0.00     0.031 C 
ATOM     42  C   UNL     1      -3.896   7.032  -3.581  1.00  0.00     0.029 A 
ATOM     43  N   UNL     1      -4.567   9.162  -3.736  1.00  0.00    -0.354 N 
ATOM     44  C   UNL     1      -7.129  10.916  -0.740  1.00  0.00     0.074 A 
ATOM     45  C   UNL     1      -7.455   9.959   0.293  1.00  0.00     0.031 C 
ATOM     46  C   UNL     1      -3.325   7.561  -4.678  1.00  0.00     0.029 A 
ATOM     47  C   UNL     1      -3.777   8.943  -4.838  1.00  0.00     0.049 A 
ATOM     48  H   UNL     1      -4.981  10.032  -3.534  1.00  0.00     0.167 HD
ATOM     49  C   UNL     1      -7.538  12.206  -0.736  1.00  0.00     0.031 A 
ATOM     50  C   UNL     1      -3.477   9.757  -5.870  1.00  0.00     0.031 A 
ATOM     51  C   UNL     1      -7.227  13.155  -1.770  1.00  0.00     0.049 A 
ATOM     52  C   UNL     1      -4.033  11.158  -5.894  1.00  0.00     0.074 A 
ATOM     53  C   UNL     1      -7.601  14.485  -1.853  1.00  0.00     0.029 A 
ATOM     54  N   UNL     1      -6.473  12.877  -2.897  1.00  0.00    -0.354 N 
ATOM     55  N   UNL     1      -4.772  11.772  -5.002  1.00  0.00    -0.248 NA
ATOM     56  C   UNL     1      -3.708  11.982  -7.070  1.00  0.00     0.031 C 
ATOM     57  C   UNL     1      -7.125  14.995  -3.064  1.00  0.00     0.029 A 
ATOM     58  C   UNL     1      -6.394  14.004  -3.698  1.00  0.00     0.049 A 
ATOM     59  H   UNL     1      -6.056  12.009  -3.099  1.00  0.00     0.167 HD
ATOM     60  C   UNL     1      -4.974  13.057  -5.492  1.00  0.00     0.074 A 
ATOM     61  C   UNL     1      -4.266  13.142  -6.752  1.00  0.00     0.031 C 
ATOM     62  C   UNL     1      -5.683  14.076  -4.948  1.00  0.00     0.031 A 
BRANCH  49  63
ATOM     63  C   UNL     1      -8.391  12.668   0.410  1.00  0.00    -0.014 A 
ATOM     64  C   UNL     1      -7.845  12.870   1.687  1.00  0.00     0.009 A 
ATOM     65  C   UNL     1      -9.742  12.980   0.189  1.00  0.00     0.009 A 
ATOM     66  C   UNL     1      -8.639  13.368   2.722  1.00  0.00     0.001 A 
ATOM     67  C   UNL     1     -10.525  13.504   1.219  1.00  0.00     0.001 A 
ATOM     68  C   UNL     1      -9.974  13.694   2.485  1.00  0.00     0.000 A 
ENDBRANCH  49  63
BRANCH  50  69
ATOM     69  C   UNL     1      -2.622   9.267  -6.985  1.00  0.00    -0.014 A 
ATOM     70  C   UNL     1      -1.344   9.807  -7.198  1.00  0.00     0.009 A 
ATOM     71  C   UNL     1      -3.088   8.272  -7.859  1.00  0.00     0.009 A 
ATOM     72  C   UNL     1      -0.563   9.378  -8.274  1.00  0.00     0.001 A 
ATOM     73  C   UNL     1      -2.293   7.821  -8.914  1.00  0.00     0.001 A 
ATOM     74  C   UNL     1      -1.035   8.381  -9.127  1.00  0.00     0.000 A 
ENDBRANCH  50  69
BRANCH  62  75
ATOM     75  C   UNL     1      -5.707  15.388  -5.685  1.00  0.00    -0.014 A 
ATOM     76  C   UNL     1      -6.422  15.540  -6.883  1.00  0.00     0.009 A 
ATOM     77  C   UNL     1      -5.064  16.507  -5.132  1.00  0.00     0.009 A 
ATOM     78  C   UNL     1      -6.468  16.779  -7.525  1.00  0.00     0.001 A 
ATOM     79  C   UNL     1      -5.140  17.752  -5.758  1.00  0.00     0.001 A 
ATOM     80  C   UNL     1      -5.835  17.885  -6.959  1.00  0.00     0.000 A 
ENDBRANCH  62  75
ENDBRANCH  36  37
ENDBRANCH  29  31
ENDBRANCH  28  29
ENDBRANCH  27  28
ENDBRANCH  26  27
ENDBRANCH  25  26
ENDBRANCH   1  25
TORSDOF 18
