REMARK SMILES CC(C)[NH2+][C@]1(C(=O)OCCOCCOCCOC(=O)c2ccc(-c3c4nc(c(-c5ccccc5)c5ccc([nH]5)c(-c5ccccc5)c5nc(c(-c6ccccc6)c6ccc3[nH]6)C=C5)C=C4)cc2)CC[C@H](Oc2cccc(CO)c2)C1
REMARK SMILES IDX 12 1 11 2 10 3 9 4 8 5 6 6 7 7 5 8 68 9 80 10 69 11 70 12
REMARK SMILES IDX 4 13 2 16 1 17 3 18 71 19 72 20 73 21 79 22 74 23 76 24
REMARK SMILES IDX 75 25 77 26 78 27 13 29 14 30 15 31 16 32 17 33 18 34 19 35
REMARK SMILES IDX 20 36 21 37 67 38 22 39 66 40 23 41 24 42 25 43 60 44 26 45
REMARK SMILES IDX 65 46 59 47 61 48 27 49 64 50 58 51 57 52 28 54 50 55 35 56
REMARK SMILES IDX 49 57 36 58 39 59 48 60 62 61 37 62 38 63 47 65 63 66 40 67
REMARK SMILES IDX 29 68 30 69 34 70 31 71 33 72 32 73 51 74 52 75 56 76 53 77
REMARK SMILES IDX 55 78 54 79 41 80 42 81 46 82 43 83 45 84 44 85
REMARK H PARENT 4 14 4 15 78 28 61 53 39 64
REMARK Flexibility Score: inf
ROOT
ATOM      1  C   UNL     1       1.735  -1.849  -0.537  1.00  0.00     0.188 C 
ENDROOT
BRANCH   1   2
ATOM      2  O   UNL     1       2.022  -0.480  -0.805  1.00  0.00    -0.376 OA
BRANCH   2   3
ATOM      3  C   UNL     1       1.525   0.481   0.118  1.00  0.00     0.202 C 
BRANCH   3   4
ATOM      4  C   UNL     1       0.002   0.656   0.123  1.00  0.00     0.261 C 
BRANCH   4   5
ATOM      5  O   UNL     1      -0.691  -0.546   0.529  1.00  0.00    -0.459 OA
BRANCH   5   6
ATOM      6  C   UNL     1      -1.628  -1.057  -0.313  1.00  0.00     0.368 C 
ATOM      7  O   UNL     1      -1.888  -0.549  -1.399  1.00  0.00    -0.245 OA
BRANCH   6   8
ATOM      8  C   UNL     1      -2.317  -2.359   0.231  1.00  0.00     0.198 C 
ATOM      9  C   UNL     1      -3.131  -2.898  -0.974  1.00  0.00     0.085 C 
ATOM     10  C   UNL     1      -1.415  -3.586   0.486  1.00  0.00     0.126 C 
ATOM     11  C   UNL     1      -3.425  -4.354  -0.693  1.00  0.00     0.052 C 
ATOM     12  C   UNL     1      -2.211  -4.858   0.080  1.00  0.00     0.180 C 
BRANCH   8  13
ATOM     13  N   UNL     1      -3.228  -2.176   1.388  1.00  0.00    -0.330 N 
ATOM     14  H   UNL     1      -4.172  -2.094   1.009  1.00  0.00     0.347 HD
ATOM     15  H   UNL     1      -3.026  -2.985   1.975  1.00  0.00     0.347 HD
BRANCH  13  16
ATOM     16  C   UNL     1      -3.040  -1.046   2.299  1.00  0.00     0.176 C 
ATOM     17  C   UNL     1      -4.250  -1.039   3.242  1.00  0.00     0.075 C 
ATOM     18  C   UNL     1      -1.779  -1.070   3.173  1.00  0.00     0.075 C 
ENDBRANCH  13  16
ENDBRANCH   8  13
BRANCH  12  19
ATOM     19  O   UNL     1      -2.586  -5.610   1.238  1.00  0.00    -0.490 OA
BRANCH  19  20
ATOM     20  C   UNL     1      -3.140  -6.855   1.051  1.00  0.00     0.120 A 
ATOM     21  C   UNL     1      -3.323  -7.508  -0.171  1.00  0.00     0.046 A 
ATOM     22  C   UNL     1      -3.578  -7.486   2.221  1.00  0.00     0.052 A 
ATOM     23  C   UNL     1      -3.981  -8.742  -0.227  1.00  0.00     0.004 A 
ATOM     24  C   UNL     1      -4.224  -8.734   2.179  1.00  0.00    -0.019 A 
ATOM     25  C   UNL     1      -4.441  -9.347   0.940  1.00  0.00     0.006 A 
BRANCH  24  26
ATOM     26  C   UNL     1      -4.738  -9.380   3.437  1.00  0.00     0.191 C 
BRANCH  26  27
ATOM     27  O   UNL     1      -6.130  -9.139   3.587  1.00  0.00    -0.392 OA
ATOM     28  H   UNL     1      -6.288  -8.183   3.644  1.00  0.00     0.211 HD
ENDBRANCH  26  27
ENDBRANCH  24  26
ENDBRANCH  19  20
ENDBRANCH  12  19
ENDBRANCH   6   8
ENDBRANCH   5   6
ENDBRANCH   4   5
ENDBRANCH   3   4
ENDBRANCH   2   3
ENDBRANCH   1   2
BRANCH   1  29
ATOM     29  C   UNL     1       1.663  -2.293   0.930  1.00  0.00     0.188 C 
BRANCH  29  30
ATOM     30  O   UNL     1       2.859  -1.984   1.633  1.00  0.00    -0.376 OA
BRANCH  30  31
ATOM     31  C   UNL     1       3.307  -3.078   2.428  1.00  0.00     0.202 C 
BRANCH  31  32
ATOM     32  C   UNL     1       4.341  -3.890   1.644  1.00  0.00     0.261 C 
BRANCH  32  33
ATOM     33  O   UNL     1       3.929  -4.305   0.321  1.00  0.00    -0.460 OA
BRANCH  33  34
ATOM     34  C   UNL     1       2.975  -5.261   0.245  1.00  0.00     0.338 C 
ATOM     35  O   UNL     1       2.393  -5.778   1.180  1.00  0.00    -0.246 OA
BRANCH  34  36
ATOM     36  C   UNL     1       2.602  -5.484  -1.176  1.00  0.00     0.060 A 
ATOM     37  C   UNL     1       1.243  -5.521  -1.501  1.00  0.00     0.016 A 
ATOM     38  C   UNL     1       3.550  -5.719  -2.170  1.00  0.00     0.016 A 
ATOM     39  C   UNL     1       0.816  -5.816  -2.800  1.00  0.00     0.010 A 
ATOM     40  C   UNL     1       3.126  -6.038  -3.470  1.00  0.00     0.010 A 
ATOM     41  C   UNL     1       1.755  -6.118  -3.791  1.00  0.00    -0.014 A 
BRANCH  41  42
ATOM     42  C   UNL     1       1.320  -6.702  -5.093  1.00  0.00     0.031 A 
ATOM     43  C   UNL     1       1.539  -8.175  -5.331  1.00  0.00     0.074 A 
ATOM     44  C   UNL     1       0.707  -5.970  -6.043  1.00  0.00     0.049 A 
ATOM     45  N   UNL     1       1.391  -8.877  -6.426  1.00  0.00    -0.248 NA
ATOM     46  C   UNL     1       1.985  -8.960  -4.168  1.00  0.00     0.031 C 
ATOM     47  C   UNL     1       0.323  -4.565  -5.920  1.00  0.00     0.029 A 
ATOM     48  N   UNL     1       0.303  -6.317  -7.312  1.00  0.00    -0.354 N 
ATOM     49  C   UNL     1       1.763 -10.176  -6.094  1.00  0.00     0.074 A 
ATOM     50  C   UNL     1       2.152 -10.161  -4.701  1.00  0.00     0.031 C 
ATOM     51  C   UNL     1      -0.255  -4.168  -7.068  1.00  0.00     0.029 A 
ATOM     52  C   UNL     1      -0.224  -5.269  -8.029  1.00  0.00     0.049 A 
ATOM     53  H   UNL     1       0.384  -7.230  -7.672  1.00  0.00     0.167 HD
ATOM     54  C   UNL     1       1.785 -11.281  -6.878  1.00  0.00     0.031 A 
ATOM     55  C   UNL     1      -0.597  -5.192  -9.324  1.00  0.00     0.031 A 
ATOM     56  C   UNL     1       1.396 -11.300  -8.263  1.00  0.00     0.049 A 
ATOM     57  C   UNL     1      -0.454  -6.404 -10.211  1.00  0.00     0.074 A 
ATOM     58  C   UNL     1       1.401 -12.366  -9.147  1.00  0.00     0.029 A 
ATOM     59  N   UNL     1       0.932 -10.200  -8.966  1.00  0.00    -0.354 N 
ATOM     60  N   UNL     1      -0.055  -7.614  -9.903  1.00  0.00    -0.248 NA
ATOM     61  C   UNL     1      -0.808  -6.234 -11.629  1.00  0.00     0.031 C 
ATOM     62  C   UNL     1       0.998 -11.896 -10.400  1.00  0.00     0.029 A 
ATOM     63  C   UNL     1       0.671 -10.554 -10.279  1.00  0.00     0.049 A 
ATOM     64  H   UNL     1       0.806  -9.300  -8.588  1.00  0.00     0.167 HD
ATOM     65  C   UNL     1      -0.142  -8.355 -11.077  1.00  0.00     0.074 A 
ATOM     66  C   UNL     1      -0.644  -7.462 -12.100  1.00  0.00     0.031 C 
ATOM     67  C   UNL     1       0.164  -9.659 -11.288  1.00  0.00     0.031 A 
BRANCH  54  68
ATOM     68  C   UNL     1       2.312 -12.551  -6.264  1.00  0.00    -0.014 A 
ATOM     69  C   UNL     1       1.597 -13.249  -5.278  1.00  0.00     0.009 A 
ATOM     70  C   UNL     1       3.547 -13.062  -6.693  1.00  0.00     0.009 A 
ATOM     71  C   UNL     1       2.131 -14.405  -4.702  1.00  0.00     0.001 A 
ATOM     72  C   UNL     1       4.062 -14.236  -6.141  1.00  0.00     0.001 A 
ATOM     73  C   UNL     1       3.360 -14.899  -5.137  1.00  0.00     0.000 A 
ENDBRANCH  54  68
BRANCH  55  74
ATOM     74  C   UNL     1      -1.092  -3.905  -9.890  1.00  0.00    -0.014 A 
ATOM     75  C   UNL     1      -2.415  -3.779 -10.343  1.00  0.00     0.009 A 
ATOM     76  C   UNL     1      -0.230  -2.803 -10.015  1.00  0.00     0.009 A 
ATOM     77  C   UNL     1      -2.855  -2.588 -10.929  1.00  0.00     0.001 A 
ATOM     78  C   UNL     1      -0.682  -1.603 -10.569  1.00  0.00     0.001 A 
ATOM     79  C   UNL     1      -1.991  -1.500 -11.035  1.00  0.00     0.000 A 
ENDBRANCH  55  74
BRANCH  67  80
ATOM     80  C   UNL     1      -0.087 -10.221 -12.662  1.00  0.00    -0.014 A 
ATOM     81  C   UNL     1       0.709  -9.865 -13.761  1.00  0.00     0.009 A 
ATOM     82  C   UNL     1      -1.112 -11.164 -12.844  1.00  0.00     0.009 A 
ATOM     83  C   UNL     1       0.462 -10.416 -15.021  1.00  0.00     0.001 A 
ATOM     84  C   UNL     1      -1.335 -11.738 -14.097  1.00  0.00     0.001 A 
ATOM     85  C   UNL     1      -0.555 -11.357 -15.186  1.00  0.00     0.000 A 
ENDBRANCH  67  80
ENDBRANCH  41  42
ENDBRANCH  34  36
ENDBRANCH  33  34
ENDBRANCH  32  33
ENDBRANCH  31  32
ENDBRANCH  30  31
ENDBRANCH  29  30
ENDBRANCH   1  29
TORSDOF 23
