REMARK SMILES COc1ccc(-c2ccc(C(=O)NCc3ccc(C(=O)OCCOCCOCCOC(=O)c4ccc(-c5c6nc(c(-c7ccccc7)c7ccc([nH]7)c(-c7ccccc7)c7nc(c(-c8ccccc8)c8ccc5[nH]8)C=C7)C=C6)cc4)cc3)o2)c([N+](=O)[O-])c1
REMARK SMILES IDX 24 1 23 2 22 3 21 4 19 5 20 6 18 7 15 8 16 9 82 10 17 11
REMARK SMILES IDX 81 12 14 13 13 14 11 15 12 16 10 18 7 19 8 20 83 21 9 22
REMARK SMILES IDX 6 23 3 24 4 25 88 26 5 27 84 28 2 29 1 30 85 31 86 32 87 33
REMARK SMILES IDX 25 34 26 35 27 36 28 37 29 38 30 39 31 40 32 41 33 42 34 43
REMARK SMILES IDX 80 44 35 45 79 46 36 47 37 48 38 49 73 50 39 51 78 52 72 53
REMARK SMILES IDX 74 54 40 55 77 56 71 57 70 58 41 60 63 61 48 62 62 63 49 64
REMARK SMILES IDX 52 65 61 66 75 67 50 68 51 69 60 71 76 72 53 73 42 74 43 75
REMARK SMILES IDX 47 76 44 77 46 78 45 79 64 80 65 81 69 82 66 83 68 84 67 85
REMARK SMILES IDX 54 86 55 87 59 88 56 89 58 90 57 91
REMARK H PARENT 13 17 74 59 52 70
REMARK Flexibility Score: inf
ROOT
ATOM      1  O   UNL     1       2.900 -11.109  13.490  1.00  0.00    -0.376 OA
ENDROOT
BRANCH   1   2
ATOM      2  C   UNL     1       2.187 -12.339  13.502  1.00  0.00     0.202 C 
BRANCH   2   3
ATOM      3  C   UNL     1       1.083 -12.600  12.471  1.00  0.00     0.261 C 
BRANCH   3   4
ATOM      4  O   UNL     1       1.503 -12.437  11.107  1.00  0.00    -0.460 OA
BRANCH   4   5
ATOM      5  C   UNL     1       0.855 -11.466  10.419  1.00  0.00     0.338 C 
ATOM      6  O   UNL     1      -0.062 -10.768  10.824  1.00  0.00    -0.246 OA
BRANCH   5   7
ATOM      7  C   UNL     1       1.529 -11.213   9.127  1.00  0.00     0.060 A 
ATOM      8  C   UNL     1       2.713 -10.591   6.656  1.00  0.00    -0.029 A 
ATOM      9  C   UNL     1       2.249  -9.572   7.499  1.00  0.00     0.006 A 
ATOM     10  C   UNL     1       2.606 -11.926   7.084  1.00  0.00     0.006 A 
ATOM     11  C   UNL     1       1.657  -9.880   8.722  1.00  0.00     0.016 A 
ATOM     12  C   UNL     1       2.023 -12.239   8.319  1.00  0.00     0.016 A 
BRANCH   8  13
ATOM     13  C   UNL     1       3.227 -10.264   5.275  1.00  0.00     0.152 C 
BRANCH  13  14
ATOM     14  N   UNL     1       2.118 -10.030   4.379  1.00  0.00    -0.345 N 
ATOM     15  C   UNL     1       1.580  -8.906   3.804  1.00  0.00     0.287 C 
ATOM     16  O   UNL     1       0.603  -9.117   3.078  1.00  0.00    -0.266 OA
ATOM     17  H   UNL     1       1.645 -10.855   4.126  1.00  0.00     0.164 HD
BRANCH  15  18
ATOM     18  C   UNL     1       2.110  -7.570   4.022  1.00  0.00     0.192 A 
ATOM     19  C   UNL     1       2.179  -5.400   3.546  1.00  0.00     0.142 A 
ATOM     20  C   UNL     1       3.095  -5.601   4.550  1.00  0.00     0.052 A 
ATOM     21  O   UNL     1       1.563  -6.571   3.241  1.00  0.00    -0.451 OA
ATOM     22  C   UNL     1       3.050  -6.985   4.854  1.00  0.00     0.057 A 
BRANCH  19  23
ATOM     23  C   UNL     1       1.744  -4.233   2.797  1.00  0.00     0.095 A 
ATOM     24  C   UNL     1       0.833  -1.838   1.582  1.00  0.00     0.125 A 
ATOM     25  C   UNL     1      -0.038  -2.642   2.320  1.00  0.00     0.047 A 
ATOM     26  C   UNL     1       2.159  -2.234   1.428  1.00  0.00     0.132 A 
ATOM     27  C   UNL     1       0.406  -3.830   2.910  1.00  0.00     0.023 A 
ATOM     28  C   UNL     1       2.603  -3.427   2.032  1.00  0.00     0.284 A 
BRANCH  24  29
ATOM     29  O   UNL     1       0.280  -0.686   1.098  1.00  0.00    -0.497 OA
ATOM     30  C   UNL     1       0.980  -0.029   0.048  1.00  0.00     0.278 C 
ENDBRANCH  24  29
BRANCH  28  31
ATOM     31  N   UNL     1       4.000  -3.794   1.825  1.00  0.00     0.063 N 
ATOM     32  O   UNL     1       4.263  -4.973   1.557  1.00  0.00    -0.258 OA
ATOM     33  O   UNL     1       4.836  -2.881   1.896  1.00  0.00    -0.258 OA
ENDBRANCH  28  31
ENDBRANCH  19  23
ENDBRANCH  15  18
ENDBRANCH  13  14
ENDBRANCH   8  13
ENDBRANCH   5   7
ENDBRANCH   4   5
ENDBRANCH   3   4
ENDBRANCH   2   3
ENDBRANCH   1   2
BRANCH   1  34
ATOM     34  C   UNL     1       3.500 -10.652  12.288  1.00  0.00     0.188 C 
BRANCH  34  35
ATOM     35  C   UNL     1       4.403 -11.588  11.458  1.00  0.00     0.188 C 
BRANCH  35  36
ATOM     36  O   UNL     1       4.538 -12.913  11.906  1.00  0.00    -0.376 OA
BRANCH  36  37
ATOM     37  C   UNL     1       5.502 -13.273  12.881  1.00  0.00     0.202 C 
BRANCH  37  38
ATOM     38  C   UNL     1       6.421 -12.316  13.663  1.00  0.00     0.261 C 
BRANCH  38  39
ATOM     39  O   UNL     1       6.259 -10.911  13.477  1.00  0.00    -0.460 OA
BRANCH  39  40
ATOM     40  C   UNL     1       7.184 -10.315  12.691  1.00  0.00     0.338 C 
ATOM     41  O   UNL     1       8.093 -10.848  12.071  1.00  0.00    -0.246 OA
BRANCH  40  42
ATOM     42  C   UNL     1       6.833  -8.893  12.556  1.00  0.00     0.060 A 
ATOM     43  C   UNL     1       6.463  -8.411  11.294  1.00  0.00     0.016 A 
ATOM     44  C   UNL     1       6.903  -8.038  13.657  1.00  0.00     0.016 A 
ATOM     45  C   UNL     1       6.183  -7.056  11.125  1.00  0.00     0.010 A 
ATOM     46  C   UNL     1       6.640  -6.678  13.481  1.00  0.00     0.010 A 
ATOM     47  C   UNL     1       6.306  -6.178  12.210  1.00  0.00    -0.014 A 
BRANCH  47  48
ATOM     48  C   UNL     1       6.251  -4.715  11.985  1.00  0.00     0.031 A 
ATOM     49  C   UNL     1       7.543  -3.963  11.820  1.00  0.00     0.074 A 
ATOM     50  C   UNL     1       5.077  -4.063  11.922  1.00  0.00     0.049 A 
ATOM     51  N   UNL     1       7.742  -2.679  11.669  1.00  0.00    -0.248 NA
ATOM     52  C   UNL     1       8.774  -4.770  11.827  1.00  0.00     0.031 C 
ATOM     53  C   UNL     1       3.757  -4.681  12.021  1.00  0.00     0.029 A 
ATOM     54  N   UNL     1       4.815  -2.724  11.770  1.00  0.00    -0.354 N 
ATOM     55  C   UNL     1       9.119  -2.523  11.571  1.00  0.00     0.074 A 
ATOM     56  C   UNL     1       9.707  -3.838  11.703  1.00  0.00     0.031 C 
ATOM     57  C   UNL     1       2.820  -3.719  11.940  1.00  0.00     0.029 A 
ATOM     58  C   UNL     1       3.478  -2.418  11.819  1.00  0.00     0.049 A 
ATOM     59  H   UNL     1       5.519  -2.049  11.638  1.00  0.00     0.167 HD
ATOM     60  C   UNL     1       9.831  -1.387  11.386  1.00  0.00     0.031 A 
ATOM     61  C   UNL     1       2.858  -1.222  11.796  1.00  0.00     0.031 A 
ATOM     62  C   UNL     1       9.252  -0.076  11.279  1.00  0.00     0.049 A 
ATOM     63  C   UNL     1       3.679   0.036  11.684  1.00  0.00     0.074 A 
ATOM     64  C   UNL     1       9.891   1.136  11.081  1.00  0.00     0.029 A 
ATOM     65  N   UNL     1       7.897   0.196  11.375  1.00  0.00    -0.354 N 
ATOM     66  N   UNL     1       4.978   0.170  11.563  1.00  0.00    -0.248 NA
ATOM     67  C   UNL     1       2.943   1.310  11.700  1.00  0.00     0.031 C 
ATOM     68  C   UNL     1       8.926   2.148  11.113  1.00  0.00     0.029 A 
ATOM     69  C   UNL     1       7.681   1.560  11.270  1.00  0.00     0.049 A 
ATOM     70  H   UNL     1       7.192  -0.479  11.500  1.00  0.00     0.167 HD
ATOM     71  C   UNL     1       5.211   1.537  11.461  1.00  0.00     0.074 A 
ATOM     72  C   UNL     1       3.920   2.188  11.520  1.00  0.00     0.031 C 
ATOM     73  C   UNL     1       6.390   2.194  11.329  1.00  0.00     0.031 A 
BRANCH  60  74
ATOM     74  C   UNL     1      11.327  -1.516  11.329  1.00  0.00    -0.014 A 
ATOM     75  C   UNL     1      11.968  -2.090  10.220  1.00  0.00     0.009 A 
ATOM     76  C   UNL     1      12.106  -1.034  12.392  1.00  0.00     0.009 A 
ATOM     77  C   UNL     1      13.359  -2.209  10.193  1.00  0.00     0.001 A 
ATOM     78  C   UNL     1      13.498  -1.129  12.350  1.00  0.00     0.001 A 
ATOM     79  C   UNL     1      14.123  -1.725  11.255  1.00  0.00     0.000 A 
ENDBRANCH  60  74
BRANCH  61  80
ATOM     80  C   UNL     1       1.379  -1.145  11.911  1.00  0.00    -0.014 A 
ATOM     81  C   UNL     1       0.597  -0.730  10.822  1.00  0.00     0.009 A 
ATOM     82  C   UNL     1       0.742  -1.456  13.123  1.00  0.00     0.009 A 
ATOM     83  C   UNL     1      -0.788  -0.603  10.953  1.00  0.00     0.001 A 
ATOM     84  C   UNL     1      -0.645  -1.356  13.242  1.00  0.00     0.001 A 
ATOM     85  C   UNL     1      -1.408  -0.920  12.161  1.00  0.00     0.000 A 
ENDBRANCH  61  80
BRANCH  73  86
ATOM     86  C   UNL     1       6.337   3.691  11.197  1.00  0.00    -0.014 A 
ATOM     87  C   UNL     1       6.029   4.511  12.294  1.00  0.00     0.009 A 
ATOM     88  C   UNL     1       6.645   4.290   9.965  1.00  0.00     0.009 A 
ATOM     89  C   UNL     1       6.000   5.900  12.150  1.00  0.00     0.001 A 
ATOM     90  C   UNL     1       6.644   5.679   9.832  1.00  0.00     0.001 A 
ATOM     91  C   UNL     1       6.313   6.482  10.921  1.00  0.00     0.000 A 
ENDBRANCH  73  86
ENDBRANCH  47  48
ENDBRANCH  40  42
ENDBRANCH  39  40
ENDBRANCH  38  39
ENDBRANCH  37  38
ENDBRANCH  36  37
ENDBRANCH  35  36
ENDBRANCH  34  35
ENDBRANCH   1  34
TORSDOF 23
