REMARK SMILES C[C@@H]1[C@@H](C(=O)OCCOCCOCCOC(=O)c2ccc(-c3c4nc(c(-c5ccccc5)c5ccc([nH]5)c(-c5ccccc5)c5nc(c(-c6ccccc6)c6ccc3[nH]6)C=C5)C=C4)cc2)CCN1C(=O)CC[C@@H]1CCCC[NH2+]1
REMARK SMILES IDX 10 1 9 2 8 3 7 4 6 5 4 6 5 7 3 8 1 9 2 10 68 11 66 12 67 13
REMARK SMILES IDX 69 14 70 15 71 16 72 17 73 18 74 19 78 20 75 21 77 22 76 25
REMARK SMILES IDX 11 26 12 27 13 28 14 29 15 30 16 31 17 32 18 33 19 34 65 35
REMARK SMILES IDX 20 36 64 37 21 38 22 39 23 40 58 41 24 42 63 43 57 44 59 45
REMARK SMILES IDX 25 46 62 47 56 48 55 49 26 51 48 52 33 53 47 54 34 55 37 56
REMARK SMILES IDX 46 57 60 58 35 59 36 60 45 62 61 63 38 64 27 65 28 66 32 67
REMARK SMILES IDX 29 68 31 69 30 70 49 71 50 72 54 73 51 74 53 75 52 76 39 77
REMARK SMILES IDX 40 78 44 79 41 80 43 81 42 82
REMARK H PARENT 78 23 78 24 59 50 37 61
REMARK Flexibility Score: inf
ROOT
ATOM      1  C   UNL     1      -0.122   3.271  -2.876  1.00  0.00     0.188 C 
ENDROOT
BRANCH   1   2
ATOM      2  O   UNL     1      -1.109   3.361  -3.885  1.00  0.00    -0.376 OA
BRANCH   2   3
ATOM      3  C   UNL     1      -1.968   2.249  -4.072  1.00  0.00     0.202 C 
BRANCH   3   4
ATOM      4  C   UNL     1      -3.002   2.070  -2.958  1.00  0.00     0.261 C 
BRANCH   4   5
ATOM      5  O   UNL     1      -2.416   1.917  -1.650  1.00  0.00    -0.463 OA
BRANCH   5   6
ATOM      6  C   UNL     1      -1.907   0.689  -1.368  1.00  0.00     0.311 C 
ATOM      7  O   UNL     1      -1.979  -0.272  -2.123  1.00  0.00    -0.252 OA
BRANCH   6   8
ATOM      8  C   UNL     1      -1.186   0.709  -0.022  1.00  0.00     0.123 C 
ATOM      9  C   UNL     1       1.157   0.223   0.867  1.00  0.00     0.032 C 
ATOM     10  C   UNL     1       0.033  -0.226  -0.063  1.00  0.00     0.096 C 
ATOM     11  N   UNL     1      -0.500  -1.549   0.283  1.00  0.00    -0.339 N 
ATOM     12  C   UNL     1      -2.040   0.095   1.068  1.00  0.00     0.039 C 
ATOM     13  C   UNL     1      -1.835  -1.403   0.858  1.00  0.00     0.121 C 
BRANCH  11  14
ATOM     14  C   UNL     1      -0.102  -2.810  -0.146  1.00  0.00     0.223 C 
ATOM     15  O   UNL     1      -0.913  -3.742  -0.179  1.00  0.00    -0.275 OA
BRANCH  14  16
ATOM     16  C   UNL     1       1.363  -3.116  -0.470  1.00  0.00     0.106 C 
BRANCH  16  17
ATOM     17  C   UNL     1       1.738  -3.195  -1.962  1.00  0.00     0.075 C 
BRANCH  17  18
ATOM     18  C   UNL     1       1.893  -1.793  -2.541  1.00  0.00     0.182 C 
ATOM     19  C   UNL     1       0.933  -1.497  -3.694  1.00  0.00     0.065 C 
ATOM     20  N   UNL     1       3.247  -1.359  -2.885  1.00  0.00    -0.344 N 
ATOM     21  C   UNL     1       0.959  -0.013  -4.051  1.00  0.00     0.012 C 
ATOM     22  C   UNL     1       3.218   0.109  -2.969  1.00  0.00     0.260 C 
ATOM     23  H   UNL     1       3.525  -1.756  -3.783  1.00  0.00     0.346 HD
ATOM     24  H   UNL     1       3.920  -1.671  -2.185  1.00  0.00     0.346 HD
ATOM     25  C   UNL     1       2.372   0.538  -4.167  1.00  0.00     0.062 C 
ENDBRANCH  17  18
ENDBRANCH  16  17
ENDBRANCH  14  16
ENDBRANCH  11  14
ENDBRANCH   6   8
ENDBRANCH   5   6
ENDBRANCH   4   5
ENDBRANCH   3   4
ENDBRANCH   2   3
ENDBRANCH   1   2
BRANCH   1  26
ATOM     26  C   UNL     1      -0.202   4.392  -1.826  1.00  0.00     0.188 C 
BRANCH  26  27
ATOM     27  O   UNL     1      -0.900   5.597  -2.099  1.00  0.00    -0.376 OA
BRANCH  27  28
ATOM     28  C   UNL     1      -0.963   6.098  -3.425  1.00  0.00     0.202 C 
BRANCH  28  29
ATOM     29  C   UNL     1       0.345   6.536  -4.097  1.00  0.00     0.261 C 
BRANCH  29  30
ATOM     30  O   UNL     1       1.382   5.538  -4.195  1.00  0.00    -0.460 OA
BRANCH  30  31
ATOM     31  C   UNL     1       2.434   5.706  -3.354  1.00  0.00     0.338 C 
ATOM     32  O   UNL     1       2.539   6.541  -2.473  1.00  0.00    -0.246 OA
BRANCH  31  33
ATOM     33  C   UNL     1       3.468   4.662  -3.565  1.00  0.00     0.060 A 
ATOM     34  C   UNL     1       3.957   3.977  -2.446  1.00  0.00     0.016 A 
ATOM     35  C   UNL     1       4.056   4.450  -4.816  1.00  0.00     0.016 A 
ATOM     36  C   UNL     1       5.051   3.110  -2.574  1.00  0.00     0.010 A 
ATOM     37  C   UNL     1       5.162   3.589  -4.939  1.00  0.00     0.010 A 
ATOM     38  C   UNL     1       5.686   2.927  -3.817  1.00  0.00    -0.014 A 
BRANCH  38  39
ATOM     39  C   UNL     1       6.979   2.177  -3.883  1.00  0.00     0.031 A 
ATOM     40  C   UNL     1       8.246   2.889  -3.506  1.00  0.00     0.074 A 
ATOM     41  C   UNL     1       7.058   0.880  -4.239  1.00  0.00     0.049 A 
ATOM     42  N   UNL     1       9.468   2.425  -3.459  1.00  0.00    -0.248 NA
ATOM     43  C   UNL     1       8.126   4.322  -3.196  1.00  0.00     0.031 C 
ATOM     44  C   UNL     1       5.946   0.084  -4.725  1.00  0.00     0.029 A 
ATOM     45  N   UNL     1       8.100  -0.019  -4.197  1.00  0.00    -0.354 N 
ATOM     46  C   UNL     1      10.271   3.517  -3.166  1.00  0.00     0.074 A 
ATOM     47  C   UNL     1       9.395   4.661  -3.022  1.00  0.00     0.031 C 
ATOM     48  C   UNL     1       6.294  -1.212  -4.747  1.00  0.00     0.029 A 
ATOM     49  C   UNL     1       7.716  -1.321  -4.447  1.00  0.00     0.049 A 
ATOM     50  H   UNL     1       9.030   0.242  -4.008  1.00  0.00     0.167 HD
ATOM     51  C   UNL     1      11.620   3.571  -3.067  1.00  0.00     0.031 A 
ATOM     52  C   UNL     1       8.429  -2.466  -4.470  1.00  0.00     0.031 A 
ATOM     53  C   UNL     1      12.501   2.449  -3.260  1.00  0.00     0.049 A 
ATOM     54  C   UNL     1       9.926  -2.379  -4.340  1.00  0.00     0.074 A 
ATOM     55  C   UNL     1      13.884   2.422  -3.206  1.00  0.00     0.029 A 
ATOM     56  N   UNL     1      12.088   1.158  -3.554  1.00  0.00    -0.354 N 
ATOM     57  N   UNL     1      10.672  -1.338  -4.063  1.00  0.00    -0.248 NA
ATOM     58  C   UNL     1      10.686  -3.614  -4.590  1.00  0.00     0.031 C 
ATOM     59  C   UNL     1      14.310   1.126  -3.513  1.00  0.00     0.029 A 
ATOM     60  C   UNL     1      13.191   0.331  -3.693  1.00  0.00     0.049 A 
ATOM     61  H   UNL     1      11.151   0.872  -3.649  1.00  0.00     0.167 HD
ATOM     62  C   UNL     1      11.985  -1.788  -4.120  1.00  0.00     0.074 A 
ATOM     63  C   UNL     1      11.934  -3.206  -4.407  1.00  0.00     0.031 C 
ATOM     64  C   UNL     1      13.131  -1.080  -3.976  1.00  0.00     0.031 A 
BRANCH  51  65
ATOM     65  C   UNL     1      12.226   4.919  -2.804  1.00  0.00    -0.014 A 
ATOM     66  C   UNL     1      12.106   5.542  -1.552  1.00  0.00     0.009 A 
ATOM     67  C   UNL     1      12.934   5.572  -3.825  1.00  0.00     0.009 A 
ATOM     68  C   UNL     1      12.653   6.808  -1.340  1.00  0.00     0.001 A 
ATOM     69  C   UNL     1      13.506   6.824  -3.601  1.00  0.00     0.001 A 
ATOM     70  C   UNL     1      13.356   7.446  -2.363  1.00  0.00     0.000 A 
ENDBRANCH  51  65
BRANCH  52  71
ATOM     71  C   UNL     1       7.780  -3.789  -4.712  1.00  0.00    -0.014 A 
ATOM     72  C   UNL     1       7.864  -4.812  -3.751  1.00  0.00     0.009 A 
ATOM     73  C   UNL     1       7.125  -4.066  -5.922  1.00  0.00     0.009 A 
ATOM     74  C   UNL     1       7.332  -6.080  -4.007  1.00  0.00     0.001 A 
ATOM     75  C   UNL     1       6.554  -5.319  -6.158  1.00  0.00     0.001 A 
ATOM     76  C   UNL     1       6.669  -6.330  -5.207  1.00  0.00     0.000 A 
ENDBRANCH  52  71
BRANCH  64  77
ATOM     77  C   UNL     1      14.425  -1.837  -4.087  1.00  0.00    -0.014 A 
ATOM     78  C   UNL     1      14.890  -2.316  -5.322  1.00  0.00     0.009 A 
ATOM     79  C   UNL     1      15.207  -2.043  -2.940  1.00  0.00     0.009 A 
ATOM     80  C   UNL     1      16.097  -3.015  -5.399  1.00  0.00     0.001 A 
ATOM     81  C   UNL     1      16.426  -2.716  -3.024  1.00  0.00     0.001 A 
ATOM     82  C   UNL     1      16.866  -3.209  -4.251  1.00  0.00     0.000 A 
ENDBRANCH  64  77
ENDBRANCH  38  39
ENDBRANCH  31  33
ENDBRANCH  30  31
ENDBRANCH  29  30
ENDBRANCH  28  29
ENDBRANCH  27  28
ENDBRANCH  26  27
ENDBRANCH   1  26
TORSDOF 21
