REMARK SMILES O=C(OCCOCCOCCOC(=O)[C@@H]1CCCC[C@@H]1NS(=O)(=O)c1ccc2ccccc2c1)c1ccc(-c2c3nc(c(-c4ccccc4)c4ccc([nH]4)c(-c4ccccc4)c4nc(c(-c5ccccc5)c5ccc2[nH]5)C=C4)C=C3)cc1
REMARK SMILES IDX 8 1 7 2 6 3 5 4 4 5 3 6 2 7 1 8 35 9 36 10 82 11 37 12 81 13
REMARK SMILES IDX 38 14 39 15 40 16 75 17 41 18 80 19 74 20 76 21 42 22 79 23
REMARK SMILES IDX 73 24 72 25 43 27 65 28 50 29 64 30 51 31 54 32 63 33 77 34
REMARK SMILES IDX 52 35 53 36 62 38 78 39 55 40 44 41 45 42 49 43 46 44 48 45
REMARK SMILES IDX 47 46 66 47 67 48 71 49 68 50 70 51 69 52 56 53 57 54 61 55
REMARK SMILES IDX 58 56 60 57 59 58 9 59 10 60 11 61 12 62 13 63 14 64 15 65
REMARK SMILES IDX 16 66 20 67 17 68 19 69 18 70 21 71 22 73 23 74 24 75 25 76
REMARK SMILES IDX 26 77 34 78 27 79 33 80 28 81 32 82 29 83 31 84 30 85
REMARK H PARENT 76 26 54 37 21 72
REMARK Flexibility Score: inf
ROOT
ATOM      1  C   UNL     1       3.004  -2.397  -0.069  1.00  0.00     0.188 C 
ENDROOT
BRANCH   1   2
ATOM      2  C   UNL     1       3.046  -0.884  -0.127  1.00  0.00     0.188 C 
BRANCH   2   3
ATOM      3  O   UNL     1       4.359  -0.353  -0.139  1.00  0.00    -0.376 OA
BRANCH   3   4
ATOM      4  C   UNL     1       4.881  -0.098   1.159  1.00  0.00     0.202 C 
BRANCH   4   5
ATOM      5  C   UNL     1       4.465   1.262   1.731  1.00  0.00     0.261 C 
BRANCH   5   6
ATOM      6  O   UNL     1       3.115   1.679   1.443  1.00  0.00    -0.460 OA
BRANCH   6   7
ATOM      7  C   UNL     1       2.578   2.283   0.353  1.00  0.00     0.338 C 
ATOM      8  O   UNL     1       1.432   2.724   0.449  1.00  0.00    -0.246 OA
BRANCH   7   9
ATOM      9  C   UNL     1       3.220   2.338  -1.003  1.00  0.00     0.060 A 
ATOM     10  C   UNL     1       4.550   2.020  -1.284  1.00  0.00     0.016 A 
ATOM     11  C   UNL     1       2.397   2.695  -2.090  1.00  0.00     0.016 A 
ATOM     12  C   UNL     1       5.023   1.907  -2.587  1.00  0.00     0.010 A 
ATOM     13  C   UNL     1       2.898   2.719  -3.396  1.00  0.00     0.010 A 
ATOM     14  C   UNL     1       4.219   2.322  -3.641  1.00  0.00    -0.014 A 
BRANCH  14  15
ATOM     15  C   UNL     1       4.904   2.744  -4.873  1.00  0.00     0.031 A 
ATOM     16  C   UNL     1       5.495   4.119  -4.840  1.00  0.00     0.074 A 
ATOM     17  C   UNL     1       5.077   1.931  -5.928  1.00  0.00     0.049 A 
ATOM     18  N   UNL     1       6.157   4.754  -5.763  1.00  0.00    -0.248 NA
ATOM     19  C   UNL     1       5.392   4.848  -3.560  1.00  0.00     0.031 C 
ATOM     20  C   UNL     1       4.768   0.509  -5.966  1.00  0.00     0.029 A 
ATOM     21  N   UNL     1       5.525   2.199  -7.191  1.00  0.00    -0.354 N 
ATOM     22  C   UNL     1       6.590   5.925  -5.159  1.00  0.00     0.074 A 
ATOM     23  C   UNL     1       6.103   5.932  -3.803  1.00  0.00     0.031 C 
ATOM     24  C   UNL     1       4.865   0.061  -7.227  1.00  0.00     0.029 A 
ATOM     25  C   UNL     1       5.287   1.168  -8.070  1.00  0.00     0.049 A 
ATOM     26  H   UNL     1       5.971   3.039  -7.445  1.00  0.00     0.167 HD
ATOM     27  C   UNL     1       7.323   6.917  -5.704  1.00  0.00     0.031 A 
ATOM     28  C   UNL     1       5.368   1.152  -9.412  1.00  0.00     0.031 A 
ATOM     29  C   UNL     1       7.657   6.936  -7.097  1.00  0.00     0.049 A 
ATOM     30  C   UNL     1       5.945   2.371 -10.071  1.00  0.00     0.074 A 
ATOM     31  C   UNL     1       8.296   7.918  -7.824  1.00  0.00     0.029 A 
ATOM     32  N   UNL     1       7.314   5.922  -7.985  1.00  0.00    -0.354 N 
ATOM     33  N   UNL     1       6.353   3.484  -9.505  1.00  0.00    -0.248 NA
ATOM     34  C   UNL     1       6.125   2.325 -11.524  1.00  0.00     0.031 C 
ATOM     35  C   UNL     1       8.265   7.532  -9.168  1.00  0.00     0.029 A 
ATOM     36  C   UNL     1       7.683   6.274  -9.267  1.00  0.00     0.049 A 
ATOM     37  H   UNL     1       6.873   5.077  -7.736  1.00  0.00     0.167 HD
ATOM     38  C   UNL     1       6.894   4.253 -10.521  1.00  0.00     0.074 A 
ATOM     39  C   UNL     1       6.739   3.482 -11.744  1.00  0.00     0.031 C 
ATOM     40  C   UNL     1       7.492   5.468 -10.450  1.00  0.00     0.031 A 
BRANCH  27  41
ATOM     41  C   UNL     1       7.643   8.073  -4.801  1.00  0.00    -0.014 A 
ATOM     42  C   UNL     1       8.523   7.933  -3.712  1.00  0.00     0.009 A 
ATOM     43  C   UNL     1       6.947   9.279  -4.960  1.00  0.00     0.009 A 
ATOM     44  C   UNL     1       8.650   8.957  -2.770  1.00  0.00     0.001 A 
ATOM     45  C   UNL     1       7.099  10.312  -4.033  1.00  0.00     0.001 A 
ATOM     46  C   UNL     1       7.936  10.144  -2.931  1.00  0.00     0.000 A 
ENDBRANCH  27  41
BRANCH  28  47
ATOM     47  C   UNL     1       4.870  -0.024 -10.173  1.00  0.00    -0.014 A 
ATOM     48  C   UNL     1       5.745  -0.913 -10.811  1.00  0.00     0.009 A 
ATOM     49  C   UNL     1       3.489  -0.287 -10.223  1.00  0.00     0.009 A 
ATOM     50  C   UNL     1       5.247  -2.030 -11.493  1.00  0.00     0.001 A 
ATOM     51  C   UNL     1       2.996  -1.412 -10.890  1.00  0.00     0.001 A 
ATOM     52  C   UNL     1       3.876  -2.281 -11.529  1.00  0.00     0.000 A 
ENDBRANCH  28  47
BRANCH  40  53
ATOM     53  C   UNL     1       8.060   6.018 -11.722  1.00  0.00    -0.014 A 
ATOM     54  C   UNL     1       7.232   6.540 -12.724  1.00  0.00     0.009 A 
ATOM     55  C   UNL     1       9.454   6.110 -11.857  1.00  0.00     0.009 A 
ATOM     56  C   UNL     1       7.795   7.136 -13.852  1.00  0.00     0.001 A 
ATOM     57  C   UNL     1      10.012   6.736 -12.968  1.00  0.00     0.001 A 
ATOM     58  C   UNL     1       9.182   7.244 -13.966  1.00  0.00     0.000 A 
ENDBRANCH  40  53
ENDBRANCH  14  15
ENDBRANCH   7   9
ENDBRANCH   6   7
ENDBRANCH   5   6
ENDBRANCH   4   5
ENDBRANCH   3   4
ENDBRANCH   2   3
ENDBRANCH   1   2
BRANCH   1  59
ATOM     59  O   UNL     1       4.182  -3.054   0.379  1.00  0.00    -0.376 OA
BRANCH  59  60
ATOM     60  C   UNL     1       5.327  -3.029  -0.477  1.00  0.00     0.202 C 
BRANCH  60  61
ATOM     61  C   UNL     1       5.156  -3.474  -1.930  1.00  0.00     0.261 C 
BRANCH  61  62
ATOM     62  O   UNL     1       4.221  -2.662  -2.662  1.00  0.00    -0.463 OA
BRANCH  62  63
ATOM     63  C   UNL     1       3.548  -3.330  -3.635  1.00  0.00     0.310 C 
ATOM     64  O   UNL     1       3.787  -4.481  -3.987  1.00  0.00    -0.252 OA
BRANCH  63  65
ATOM     65  C   UNL     1       2.482  -2.506  -4.318  1.00  0.00     0.117 C 
ATOM     66  C   UNL     1       2.320  -1.043  -3.912  1.00  0.00     0.017 C 
ATOM     67  C   UNL     1       1.115  -3.211  -4.294  1.00  0.00     0.084 C 
ATOM     68  C   UNL     1       1.543  -0.335  -5.020  1.00  0.00     0.001 C 
ATOM     69  C   UNL     1       0.161  -2.478  -5.268  1.00  0.00     0.021 C 
ATOM     70  C   UNL     1       0.151  -0.942  -5.153  1.00  0.00     0.002 C 
BRANCH  67  71
ATOM     71  N   UNL     1       0.534  -3.206  -2.923  1.00  0.00    -0.207 NA
ATOM     72  H   UNL     1      -0.189  -2.486  -2.916  1.00  0.00     0.141 HD
BRANCH  71  73
ATOM     73  S   UNL     1      -0.170  -4.606  -2.275  1.00  0.00     0.240 S 
ATOM     74  O   UNL     1      -1.150  -4.117  -1.333  1.00  0.00    -0.207 OA
ATOM     75  O   UNL     1      -0.532  -5.492  -3.360  1.00  0.00    -0.207 OA
BRANCH  73  76
ATOM     76  C   UNL     1       1.148  -5.348  -1.335  1.00  0.00     0.083 A 
ATOM     77  C   UNL     1       1.254  -5.090   0.033  1.00  0.00     0.022 A 
ATOM     78  C   UNL     1       2.089  -6.162  -1.967  1.00  0.00     0.030 A 
ATOM     79  C   UNL     1       2.394  -5.506   0.730  1.00  0.00     0.010 A 
ATOM     80  C   UNL     1       3.247  -6.572  -1.278  1.00  0.00    -0.017 A 
ATOM     81  C   UNL     1       3.429  -6.185   0.069  1.00  0.00    -0.018 A 
ATOM     82  C   UNL     1       4.279  -7.269  -1.929  1.00  0.00     0.009 A 
ATOM     83  C   UNL     1       4.669  -6.417   0.693  1.00  0.00     0.009 A 
ATOM     84  C   UNL     1       5.505  -7.490  -1.297  1.00  0.00     0.001 A 
ATOM     85  C   UNL     1       5.710  -7.041   0.003  1.00  0.00     0.001 A 
ENDBRANCH  73  76
ENDBRANCH  71  73
ENDBRANCH  67  71
ENDBRANCH  63  65
ENDBRANCH  62  63
ENDBRANCH  61  62
ENDBRANCH  60  61
ENDBRANCH  59  60
ENDBRANCH   1  59
TORSDOF 20
