REMARK SMILES CC[C@@](C)(NC(=O)N(C)CCO)C(=O)OCCOCCOCCOC(=O)c1ccc(-c2c3nc(c(-c4ccccc4)c4ccc([nH]4)c(-c4ccccc4)c4nc(c(-c5ccccc5)c5ccc2[nH]5)C=C4)C=C3)cc1
REMARK SMILES IDX 18 1 17 2 16 3 15 4 13 5 14 6 3 7 4 8 2 9 1 10 5 11 6 12
REMARK SMILES IDX 7 14 8 15 9 16 10 17 11 18 12 19 19 21 20 22 21 23 22 24
REMARK SMILES IDX 23 25 24 26 25 27 26 28 27 29 28 30 74 31 29 32 73 33 30 34
REMARK SMILES IDX 31 35 32 36 67 37 33 38 72 39 66 40 68 41 34 42 71 43 65 44
REMARK SMILES IDX 64 45 35 47 57 48 42 49 56 50 43 51 46 52 55 53 69 54 44 55
REMARK SMILES IDX 45 56 54 58 70 59 47 60 36 61 37 62 41 63 38 64 40 65 39 66
REMARK SMILES IDX 58 67 59 68 63 69 60 70 62 71 61 72 48 73 49 74 53 75 50 76
REMARK SMILES IDX 52 77 51 78
REMARK H PARENT 5 13 12 20 68 46 46 57
REMARK Flexibility Score: inf
ROOT
ATOM      1  O   UNL     1       5.812  -0.617   1.430  1.00  0.00    -0.376 OA
ENDROOT
BRANCH   1   2
ATOM      2  C   UNL     1       5.873   0.617   2.156  1.00  0.00     0.202 C 
BRANCH   2   3
ATOM      3  C   UNL     1       4.802   1.638   1.779  1.00  0.00     0.261 C 
BRANCH   3   4
ATOM      4  O   UNL     1       3.536   1.227   2.342  1.00  0.00    -0.462 OA
BRANCH   4   5
ATOM      5  C   UNL     1       2.442   1.695   1.705  1.00  0.00     0.331 C 
ATOM      6  O   UNL     1       2.506   2.434   0.726  1.00  0.00    -0.249 OA
BRANCH   5   7
ATOM      7  C   UNL     1       1.098   1.172   2.283  1.00  0.00     0.136 C 
ATOM      8  C   UNL     1       0.144   2.378   2.324  1.00  0.00     0.047 C 
BRANCH   7   9
ATOM      9  C   UNL     1       0.557   0.097   1.260  1.00  0.00     0.037 C 
ATOM     10  C   UNL     1       0.684   0.339  -0.236  1.00  0.00     0.007 C 
ENDBRANCH   7   9
BRANCH   7  11
ATOM     11  N   UNL     1       0.964   0.431   3.585  1.00  0.00    -0.322 N 
ATOM     12  C   UNL     1       1.275   0.389   4.878  1.00  0.00     0.318 C 
ATOM     13  H   UNL     1       0.410  -0.362   3.402  1.00  0.00     0.166 HD
ATOM     14  O   UNL     1       0.486  -0.281   5.558  1.00  0.00    -0.249 OA
BRANCH  12  15
ATOM     15  N   UNL     1       2.395   0.896   5.436  1.00  0.00    -0.326 N 
ATOM     16  C   UNL     1       3.159   2.035   4.988  1.00  0.00     0.148 C 
BRANCH  15  17
ATOM     17  C   UNL     1       2.942   0.164   6.595  1.00  0.00     0.149 C 
BRANCH  17  18
ATOM     18  C   UNL     1       2.829   0.916   7.924  1.00  0.00     0.177 C 
BRANCH  18  19
ATOM     19  O   UNL     1       1.478   1.196   8.277  1.00  0.00    -0.395 OA
ATOM     20  H   UNL     1       1.078   1.763   7.598  1.00  0.00     0.210 HD
ENDBRANCH  18  19
ENDBRANCH  17  18
ENDBRANCH  15  17
ENDBRANCH  12  15
ENDBRANCH   7  11
ENDBRANCH   5   7
ENDBRANCH   4   5
ENDBRANCH   3   4
ENDBRANCH   2   3
ENDBRANCH   1   2
BRANCH   1  21
ATOM     21  C   UNL     1       4.550  -1.274   1.417  1.00  0.00     0.188 C 
BRANCH  21  22
ATOM     22  C   UNL     1       4.150  -1.991   2.708  1.00  0.00     0.188 C 
BRANCH  22  23
ATOM     23  O   UNL     1       4.540  -1.367   3.928  1.00  0.00    -0.376 OA
BRANCH  23  24
ATOM     24  C   UNL     1       5.668  -1.992   4.557  1.00  0.00     0.202 C 
BRANCH  24  25
ATOM     25  C   UNL     1       5.255  -3.099   5.537  1.00  0.00     0.261 C 
BRANCH  25  26
ATOM     26  O   UNL     1       4.711  -4.208   4.808  1.00  0.00    -0.460 OA
BRANCH  26  27
ATOM     27  C   UNL     1       3.359  -4.315   4.802  1.00  0.00     0.338 C 
ATOM     28  O   UNL     1       2.573  -3.782   5.566  1.00  0.00    -0.246 OA
BRANCH  27  29
ATOM     29  C   UNL     1       2.967  -5.005   3.548  1.00  0.00     0.060 A 
ATOM     30  C   UNL     1       1.778  -4.615   2.912  1.00  0.00     0.016 A 
ATOM     31  C   UNL     1       3.823  -5.926   2.934  1.00  0.00     0.016 A 
ATOM     32  C   UNL     1       1.440  -5.148   1.666  1.00  0.00     0.010 A 
ATOM     33  C   UNL     1       3.487  -6.456   1.693  1.00  0.00     0.010 A 
ATOM     34  C   UNL     1       2.286  -6.087   1.065  1.00  0.00    -0.014 A 
BRANCH  34  35
ATOM     35  C   UNL     1       1.862  -6.880  -0.108  1.00  0.00     0.031 A 
ATOM     36  C   UNL     1       1.313  -8.251   0.155  1.00  0.00     0.074 A 
ATOM     37  C   UNL     1       2.083  -6.456  -1.363  1.00  0.00     0.049 A 
ATOM     38  N   UNL     1       1.105  -9.237  -0.675  1.00  0.00    -0.248 NA
ATOM     39  C   UNL     1       0.993  -8.557   1.559  1.00  0.00     0.031 C 
ATOM     40  C   UNL     1       2.598  -5.141  -1.738  1.00  0.00     0.029 A 
ATOM     41  N   UNL     1       1.944  -7.121  -2.555  1.00  0.00    -0.354 N 
ATOM     42  C   UNL     1       0.666 -10.293   0.112  1.00  0.00     0.074 A 
ATOM     43  C   UNL     1       0.653  -9.832   1.483  1.00  0.00     0.031 C 
ATOM     44  C   UNL     1       2.766  -5.107  -3.072  1.00  0.00     0.029 A 
ATOM     45  C   UNL     1       2.413  -6.411  -3.633  1.00  0.00     0.049 A 
ATOM     46  H   UNL     1       1.546  -8.018  -2.631  1.00  0.00     0.167 HD
ATOM     47  C   UNL     1       0.316 -11.543  -0.271  1.00  0.00     0.031 A 
ATOM     48  C   UNL     1       2.581  -6.790  -4.915  1.00  0.00     0.031 A 
ATOM     49  C   UNL     1       0.354 -11.999  -1.632  1.00  0.00     0.049 A 
ATOM     50  C   UNL     1       2.218  -8.194  -5.322  1.00  0.00     0.074 A 
ATOM     51  C   UNL     1      -0.007 -13.233  -2.140  1.00  0.00     0.029 A 
ATOM     52  N   UNL     1       0.796 -11.235  -2.701  1.00  0.00    -0.354 N 
ATOM     53  N   UNL     1       1.767  -9.179  -4.581  1.00  0.00    -0.248 NA
ATOM     54  C   UNL     1       2.385  -8.539  -6.741  1.00  0.00     0.031 C 
ATOM     55  C   UNL     1       0.263 -13.231  -3.512  1.00  0.00     0.029 A 
ATOM     56  C   UNL     1       0.738 -11.977  -3.866  1.00  0.00     0.049 A 
ATOM     57  H   UNL     1       1.104 -10.302  -2.640  1.00  0.00     0.167 HD
ATOM     58  C   UNL     1       1.570 -10.249  -5.446  1.00  0.00     0.074 A 
ATOM     59  C   UNL     1       1.948  -9.792  -6.768  1.00  0.00     0.031 C 
ATOM     60  C   UNL     1       1.114 -11.496  -5.172  1.00  0.00     0.031 A 
BRANCH  47  61
ATOM     61  C   UNL     1      -0.076 -12.501   0.817  1.00  0.00    -0.014 A 
ATOM     62  C   UNL     1      -1.268 -12.338   1.543  1.00  0.00     0.009 A 
ATOM     63  C   UNL     1       0.780 -13.562   1.146  1.00  0.00     0.009 A 
ATOM     64  C   UNL     1      -1.565 -13.185   2.612  1.00  0.00     0.001 A 
ATOM     65  C   UNL     1       0.464 -14.428   2.194  1.00  0.00     0.001 A 
ATOM     66  C   UNL     1      -0.699 -14.229   2.936  1.00  0.00     0.000 A 
ENDBRANCH  47  61
BRANCH  48  67
ATOM     67  C   UNL     1       3.145  -5.831  -5.899  1.00  0.00    -0.014 A 
ATOM     68  C   UNL     1       2.325  -5.247  -6.877  1.00  0.00     0.009 A 
ATOM     69  C   UNL     1       4.503  -5.476  -5.853  1.00  0.00     0.009 A 
ATOM     70  C   UNL     1       2.856  -4.337  -7.794  1.00  0.00     0.001 A 
ATOM     71  C   UNL     1       5.025  -4.547  -6.756  1.00  0.00     0.001 A 
ATOM     72  C   UNL     1       4.202  -3.982  -7.729  1.00  0.00     0.000 A 
ENDBRANCH  48  67
BRANCH  60  73
ATOM     73  C   UNL     1       0.948 -12.445  -6.325  1.00  0.00    -0.014 A 
ATOM     74  C   UNL     1       2.053 -13.068  -6.924  1.00  0.00     0.009 A 
ATOM     75  C   UNL     1      -0.344 -12.783  -6.758  1.00  0.00     0.009 A 
ATOM     76  C   UNL     1       1.865 -13.998  -7.949  1.00  0.00     0.001 A 
ATOM     77  C   UNL     1      -0.529 -13.732  -7.763  1.00  0.00     0.001 A 
ATOM     78  C   UNL     1       0.576 -14.335  -8.362  1.00  0.00     0.000 A 
ENDBRANCH  60  73
ENDBRANCH  34  35
ENDBRANCH  27  29
ENDBRANCH  26  27
ENDBRANCH  25  26
ENDBRANCH  24  25
ENDBRANCH  23  24
ENDBRANCH  22  23
ENDBRANCH  21  22
ENDBRANCH   1  21
TORSDOF 23
