REMARK SMILES O=C(OCCOCCOCCOC(=O)c1ccc(-c2c3nc(c(-c4ccccc4)c4ccc([nH]4)c(-c4ccccc4)c4nc(c(-c5ccccc5)c5ccc2[nH]5)C=C4)C=C3)cc1)C1=Cc2cc(Cl)cc(-c3ccc(O)cc3)c2O[C@@H]1C(F)(F)F
REMARK SMILES IDX 7 1 6 2 5 3 4 4 3 5 2 6 1 7 63 8 64 9 80 10 65 11 79 12
REMARK SMILES IDX 66 13 78 14 67 15 70 16 68 17 69 18 81 19 82 20 83 21 84 22
REMARK SMILES IDX 71 23 72 24 77 25 73 26 76 27 74 28 75 29 8 31 9 32 10 33
REMARK SMILES IDX 11 34 12 35 13 36 14 37 15 38 16 39 62 40 17 41 61 42 18 43
REMARK SMILES IDX 19 44 20 45 55 46 21 47 60 48 54 49 56 50 22 51 59 52 53 53
REMARK SMILES IDX 52 54 23 56 45 57 30 58 44 59 31 60 34 61 43 62 57 63 32 64
REMARK SMILES IDX 33 65 42 67 58 68 35 69 24 70 25 71 29 72 26 73 28 74 27 75
REMARK SMILES IDX 46 76 47 77 51 78 48 79 50 80 49 81 36 82 37 83 41 84 38 85
REMARK SMILES IDX 40 86 39 87
REMARK H PARENT 75 30 56 55 34 66
REMARK Flexibility Score: inf
ROOT
ATOM      1  C   UNL     1       2.094  -1.629  -1.470  1.00  0.00     0.188 C 
ENDROOT
BRANCH   1   2
ATOM      2  O   UNL     1       3.552  -1.273  -1.661  1.00  0.00    -0.376 OA
BRANCH   2   3
ATOM      3  C   UNL     1       4.434   0.041  -0.862  1.00  0.00     0.202 C 
BRANCH   3   4
ATOM      4  C   UNL     1       3.913   0.746   1.133  1.00  0.00     0.261 C 
BRANCH   4   5
ATOM      5  O   UNL     1       3.010   1.963   1.449  1.00  0.00    -0.460 OA
BRANCH   5   6
ATOM      6  C   UNL     1       3.115   2.940   0.536  1.00  0.00     0.338 C 
ATOM      7  O   UNL     1       2.432   3.921   0.384  1.00  0.00    -0.246 OA
BRANCH   6   8
ATOM      8  C   UNL     1       3.905   2.168  -0.398  1.00  0.00     0.087 C 
ATOM      9  C   UNL     1       5.311   2.064  -0.076  1.00  0.00     0.027 C 
ATOM     10  C   UNL     1       2.665   0.707  -0.479  1.00  0.00     0.316 C 
ATOM     11  C   UNL     1       6.071   0.580   0.553  1.00  0.00     0.019 A 
ATOM     12  O   UNL     1       3.437  -0.893   0.369  1.00  0.00    -0.475 OA
ATOM     13  C   UNL     1       7.380   0.689   0.947  1.00  0.00     0.032 A 
ATOM     14  C   UNL     1       5.202  -0.887   0.855  1.00  0.00     0.135 A 
ATOM     15  C   UNL     1       7.928  -0.457   1.519  1.00  0.00     0.042 A 
ATOM     16  C   UNL     1       5.851  -1.992   1.385  1.00  0.00     0.026 A 
ATOM     17  Cl  UNL     1       9.577  -0.378   2.041  1.00  0.00    -0.084 Cl
ATOM     18  C   UNL     1       7.222  -1.700   1.704  1.00  0.00     0.033 A 
BRANCH  10  19
ATOM     19  C   UNL     1       2.259   1.062  -2.097  1.00  0.00     0.430 C 
ATOM     20  F   UNL     1       2.722   0.284  -3.095  1.00  0.00    -0.167 F 
ATOM     21  F   UNL     1       0.915   1.156  -2.237  1.00  0.00    -0.167 F 
ATOM     22  F   UNL     1       2.735   2.298  -2.448  1.00  0.00    -0.167 F 
ENDBRANCH  10  19
BRANCH  16  23
ATOM     23  C   UNL     1       5.452  -3.378   1.603  1.00  0.00    -0.014 A 
ATOM     24  C   UNL     1       4.895  -3.801   2.816  1.00  0.00     0.012 A 
ATOM     25  C   UNL     1       5.891  -4.376   0.706  1.00  0.00     0.012 A 
ATOM     26  C   UNL     1       4.680  -5.162   3.070  1.00  0.00     0.047 A 
ATOM     27  C   UNL     1       5.645  -5.735   0.939  1.00  0.00     0.047 A 
ATOM     28  C   UNL     1       5.008  -6.111   2.110  1.00  0.00     0.115 A 
BRANCH  28  29
ATOM     29  O   UNL     1       4.684  -7.412   2.350  1.00  0.00    -0.508 OA
ATOM     30  H   UNL     1       4.253  -7.648   3.148  1.00  0.00     0.293 HD
ENDBRANCH  28  29
ENDBRANCH  16  23
ENDBRANCH   6   8
ENDBRANCH   5   6
ENDBRANCH   4   5
ENDBRANCH   3   4
ENDBRANCH   2   3
ENDBRANCH   1   2
BRANCH   1  31
ATOM     31  C   UNL     1       1.533  -3.050  -1.660  1.00  0.00     0.188 C 
BRANCH  31  32
ATOM     32  O   UNL     1       2.180  -4.125  -1.038  1.00  0.00    -0.376 OA
BRANCH  32  33
ATOM     33  C   UNL     1       3.562  -4.203  -1.310  1.00  0.00     0.202 C 
BRANCH  33  34
ATOM     34  C   UNL     1       4.033  -4.407  -2.754  1.00  0.00     0.261 C 
BRANCH  34  35
ATOM     35  O   UNL     1       3.675  -3.347  -3.655  1.00  0.00    -0.460 OA
BRANCH  35  36
ATOM     36  C   UNL     1       2.708  -3.628  -4.561  1.00  0.00     0.338 C 
ATOM     37  O   UNL     1       2.118  -4.681  -4.725  1.00  0.00    -0.246 OA
BRANCH  36  38
ATOM     38  C   UNL     1       2.340  -2.374  -5.240  1.00  0.00     0.060 A 
ATOM     39  C   UNL     1       1.105  -1.764  -4.974  1.00  0.00     0.016 A 
ATOM     40  C   UNL     1       3.219  -1.828  -6.172  1.00  0.00     0.016 A 
ATOM     41  C   UNL     1       0.760  -0.575  -5.616  1.00  0.00     0.010 A 
ATOM     42  C   UNL     1       2.852  -0.668  -6.850  1.00  0.00     0.010 A 
ATOM     43  C   UNL     1       1.621  -0.043  -6.581  1.00  0.00    -0.014 A 
BRANCH  43  44
ATOM     44  C   UNL     1       1.171   1.056  -7.460  1.00  0.00     0.031 A 
ATOM     45  C   UNL     1       0.487   0.690  -8.744  1.00  0.00     0.074 A 
ATOM     46  C   UNL     1       1.428   2.339  -7.153  1.00  0.00     0.049 A 
ATOM     47  N   UNL     1       0.150   1.456  -9.748  1.00  0.00    -0.248 NA
ATOM     48  C   UNL     1       0.151  -0.733  -8.928  1.00  0.00     0.031 C 
ATOM     49  C   UNL     1       2.047   2.805  -5.915  1.00  0.00     0.029 A 
ATOM     50  N   UNL     1       1.222   3.485  -7.881  1.00  0.00    -0.354 N 
ATOM     51  C   UNL     1      -0.407   0.605 -10.693  1.00  0.00     0.074 A 
ATOM     52  C   UNL     1      -0.370  -0.732 -10.146  1.00  0.00     0.031 C 
ATOM     53  C   UNL     1       2.196   4.140  -5.978  1.00  0.00     0.029 A 
ATOM     54  C   UNL     1       1.731   4.612  -7.281  1.00  0.00     0.049 A 
ATOM     55  H   UNL     1       0.756   3.497  -8.748  1.00  0.00     0.167 HD
ATOM     56  C   UNL     1      -0.888   0.916 -11.917  1.00  0.00     0.031 A 
ATOM     57  C   UNL     1       1.849   5.868  -7.757  1.00  0.00     0.031 A 
ATOM     58  C   UNL     1      -0.897   2.245 -12.461  1.00  0.00     0.049 A 
ATOM     59  C   UNL     1       1.370   6.166  -9.158  1.00  0.00     0.074 A 
ATOM     60  C   UNL     1      -1.394   2.670 -13.680  1.00  0.00     0.029 A 
ATOM     61  N   UNL     1      -0.367   3.359 -11.830  1.00  0.00    -0.354 N 
ATOM     62  N   UNL     1       0.791   5.369 -10.024  1.00  0.00    -0.248 NA
ATOM     63  C   UNL     1       1.570   7.538  -9.652  1.00  0.00     0.031 C 
ATOM     64  C   UNL     1      -1.089   4.025 -13.822  1.00  0.00     0.029 A 
ATOM     65  C   UNL     1      -0.477   4.462 -12.657  1.00  0.00     0.049 A 
ATOM     66  H   UNL     1       0.029   3.364 -10.928  1.00  0.00     0.167 HD
ATOM     67  C   UNL     1       0.540   6.145 -11.149  1.00  0.00     0.074 A 
ATOM     68  C   UNL     1       1.001   7.483 -10.847  1.00  0.00     0.031 C 
ATOM     69  C   UNL     1      -0.014   5.785 -12.333  1.00  0.00     0.031 A 
BRANCH  56  70
ATOM     70  C   UNL     1      -1.385  -0.205 -12.783  1.00  0.00    -0.014 A 
ATOM     71  C   UNL     1      -2.589  -0.870 -12.508  1.00  0.00     0.009 A 
ATOM     72  C   UNL     1      -0.663  -0.552 -13.937  1.00  0.00     0.009 A 
ATOM     73  C   UNL     1      -3.054  -1.869 -13.366  1.00  0.00     0.001 A 
ATOM     74  C   UNL     1      -1.145  -1.529 -14.807  1.00  0.00     0.001 A 
ATOM     75  C   UNL     1      -2.337  -2.190 -14.519  1.00  0.00     0.000 A 
ENDBRANCH  56  70
BRANCH  57  76
ATOM     76  C   UNL     1       2.513   6.931  -6.950  1.00  0.00    -0.014 A 
ATOM     77  C   UNL     1       1.810   8.078  -6.549  1.00  0.00     0.009 A 
ATOM     78  C   UNL     1       3.880   6.839  -6.638  1.00  0.00     0.009 A 
ATOM     79  C   UNL     1       2.469   9.126  -5.898  1.00  0.00     0.001 A 
ATOM     80  C   UNL     1       4.527   7.868  -5.952  1.00  0.00     0.001 A 
ATOM     81  C   UNL     1       3.826   9.018  -5.598  1.00  0.00     0.000 A 
ENDBRANCH  57  76
BRANCH  69  82
ATOM     82  C   UNL     1      -0.180   6.853 -13.378  1.00  0.00    -0.014 A 
ATOM     83  C   UNL     1       0.925   7.386 -14.059  1.00  0.00     0.009 A 
ATOM     84  C   UNL     1      -1.470   7.279 -13.736  1.00  0.00     0.009 A 
ATOM     85  C   UNL     1       0.743   8.345 -15.058  1.00  0.00     0.001 A 
ATOM     86  C   UNL     1      -1.651   8.210 -14.759  1.00  0.00     0.001 A 
ATOM     87  C   UNL     1      -0.544   8.748 -15.413  1.00  0.00     0.000 A 
ENDBRANCH  69  82
ENDBRANCH  43  44
ENDBRANCH  36  38
ENDBRANCH  35  36
ENDBRANCH  34  35
ENDBRANCH  33  34
ENDBRANCH  32  33
ENDBRANCH  31  32
ENDBRANCH   1  31
TORSDOF 20
