REMARK SMILES O=C(OCCOCCOCCOC(=O)c1ccc(-c2c3nc(c(-c4ccccc4)c4ccc([nH]4)c(-c4ccccc4)c4nc(c(-c5ccccc5)c5ccc2[nH]5)C=C4)C=C3)cc1)C1=Cc2cc(S(F)(F)(F)(F)F)cc(Br)c2O[C@@H]1C(F)(F)F
REMARK SMILES IDX 8 1 7 2 6 3 5 4 4 5 3 6 2 7 1 8 63 9 64 10 79 11 65 12 78 13
REMARK SMILES IDX 66 14 77 15 67 16 75 17 74 18 76 19 80 20 81 21 82 22 83 23
REMARK SMILES IDX 68 24 69 25 70 26 71 27 72 28 73 29 9 30 10 31 11 32 12 33
REMARK SMILES IDX 13 34 14 35 15 36 16 37 62 38 17 39 61 40 18 41 19 42 20 43
REMARK SMILES IDX 55 44 21 45 60 46 54 47 56 48 22 49 59 50 53 51 52 52 23 54
REMARK SMILES IDX 45 55 30 56 44 57 31 58 34 59 43 60 57 61 32 62 33 63 42 65
REMARK SMILES IDX 58 66 35 67 24 68 25 69 29 70 26 71 28 72 27 73 46 74 47 75
REMARK SMILES IDX 51 76 48 77 50 78 49 79 36 80 37 81 41 82 38 83 40 84 39 85
REMARK H PARENT 56 53 34 64
REMARK Flexibility Score: inf
ROOT
ATOM      1  C   UNL     1       2.573   1.501   1.889  1.00  0.00     0.188 C 
ENDROOT
BRANCH   1   2
ATOM      2  C   UNL     1       3.080   0.141   1.435  1.00  0.00     0.188 C 
BRANCH   2   3
ATOM      3  O   UNL     1       4.500   0.141   1.435  1.00  0.00    -0.376 OA
BRANCH   3   4
ATOM      4  C   UNL     1       4.973   1.144   0.547  1.00  0.00     0.202 C 
BRANCH   4   5
ATOM      5  C   UNL     1       4.466   0.858  -0.857  1.00  0.00     0.261 C 
BRANCH   5   6
ATOM      6  O   UNL     1       3.046   0.858  -0.857  1.00  0.00    -0.460 OA
BRANCH   6   7
ATOM      7  C   UNL     1       2.336  -0.063  -0.042  1.00  0.00     0.338 C 
ATOM      8  O   UNL     1       1.065  -0.063  -0.042  1.00  0.00    -0.246 OA
BRANCH   7   9
ATOM      9  C   UNL     1       3.096  -1.049   0.831  1.00  0.00     0.087 C 
ATOM     10  C   UNL     1       4.457  -1.049   0.831  1.00  0.00     0.027 C 
ATOM     11  C   UNL     1       2.336  -2.034   1.703  1.00  0.00     0.316 C 
ATOM     12  C   UNL     1       5.217  -0.063  -0.042  1.00  0.00     0.020 A 
ATOM     13  O   UNL     1       3.614   1.499   0.757  1.00  0.00    -0.474 OA
ATOM     14  C   UNL     1       6.238  -0.438  -0.899  1.00  0.00     0.036 A 
ATOM     15  C   UNL     1       4.765   1.185  -0.013  1.00  0.00     0.142 A 
ATOM     16  C   UNL     1       6.921   0.652  -1.488  1.00  0.00     0.109 A 
ATOM     17  C   UNL     1       5.401   2.176  -0.721  1.00  0.00     0.062 A 
ATOM     18  C   UNL     1       6.455   1.887  -1.543  1.00  0.00     0.044 A 
ATOM     19  Br  UNL     1       4.789   4.030  -0.552  1.00  0.00    -0.047 Br
BRANCH  11  20
ATOM     20  C   UNL     1       2.704  -1.808   3.161  1.00  0.00     0.430 C 
ATOM     21  F   UNL     1       2.382  -0.567   3.512  1.00  0.00    -0.167 F 
ATOM     22  F   UNL     1       2.038  -2.671   3.924  1.00  0.00    -0.167 F 
ATOM     23  F   UNL     1       4.011  -1.990   3.322  1.00  0.00    -0.167 F 
ENDBRANCH  11  20
BRANCH  16  24
ATOM     24  S   UNL     1       8.547   0.333  -2.216  1.00  0.00     0.310 S 
ATOM     25  F   UNL     1       9.253   0.281  -0.797  1.00  0.00    -0.094 F 
ATOM     26  F   UNL     1       8.823   1.884  -2.221  1.00  0.00    -0.094 F 
ATOM     27  F   UNL     1       9.939   0.055  -2.851  1.00  0.00    -0.094 F 
ATOM     28  F   UNL     1       8.310  -1.222  -2.075  1.00  0.00    -0.094 F 
ATOM     29  F   UNL     1       7.179   0.595  -1.469  1.00  0.00    -0.094 F 
ENDBRANCH  16  24
ENDBRANCH   7   9
ENDBRANCH   6   7
ENDBRANCH   5   6
ENDBRANCH   4   5
ENDBRANCH   3   4
ENDBRANCH   2   3
ENDBRANCH   1   2
BRANCH   1  30
ATOM     30  O   UNL     1       3.046   2.503   1.002  1.00  0.00    -0.376 OA
BRANCH  30  31
ATOM     31  C   UNL     1       4.466   2.503   1.002  1.00  0.00     0.202 C 
BRANCH  31  32
ATOM     32  C   UNL     1       4.973   2.789   2.406  1.00  0.00     0.261 C 
BRANCH  32  33
ATOM     33  O   UNL     1       4.500   1.787   3.293  1.00  0.00    -0.460 OA
BRANCH  33  34
ATOM     34  C   UNL     1       3.104   1.592   3.465  1.00  0.00     0.338 C 
ATOM     35  O   UNL     1       2.278   2.316   2.825  1.00  0.00    -0.246 OA
BRANCH  34  36
ATOM     36  C   UNL     1       2.597   0.519   4.415  1.00  0.00     0.060 A 
ATOM     37  C   UNL     1       1.462  -0.217   4.118  1.00  0.00     0.016 A 
ATOM     38  C   UNL     1       3.181   0.435   5.605  1.00  0.00     0.016 A 
ATOM     39  C   UNL     1       0.846  -0.803   5.249  1.00  0.00     0.010 A 
ATOM     40  C   UNL     1       2.589  -0.268   6.626  1.00  0.00     0.010 A 
ATOM     41  C   UNL     1       1.435  -0.971   6.419  1.00  0.00    -0.014 A 
BRANCH  41  42
ATOM     42  C   UNL     1       0.860  -1.897   7.479  1.00  0.00     0.031 A 
ATOM     43  C   UNL     1       0.538  -1.276   8.687  1.00  0.00     0.074 A 
ATOM     44  C   UNL     1       0.544  -3.210   7.176  1.00  0.00     0.049 A 
ATOM     45  N   UNL     1      -0.135  -1.795   9.714  1.00  0.00    -0.248 NA
ATOM     46  C   UNL     1       0.903   0.108   9.024  1.00  0.00     0.031 C 
ATOM     47  C   UNL     1       0.858  -3.842   5.957  1.00  0.00     0.029 A 
ATOM     48  N   UNL     1      -0.112  -4.126   7.968  1.00  0.00    -0.354 N 
ATOM     49  C   UNL     1      -0.264  -0.889  10.686  1.00  0.00     0.074 A 
ATOM     50  C   UNL     1       0.407   0.346  10.258  1.00  0.00     0.031 C 
ATOM     51  C   UNL     1       0.409  -5.123   6.017  1.00  0.00     0.029 A 
ATOM     52  C   UNL     1      -0.195  -5.314   7.275  1.00  0.00     0.049 A 
ATOM     53  H   UNL     1      -0.461  -3.961   8.873  1.00  0.00     0.167 HD
ATOM     54  C   UNL     1      -0.916  -1.043  11.910  1.00  0.00     0.031 A 
ATOM     55  C   UNL     1      -0.758  -6.507   7.699  1.00  0.00     0.031 A 
ATOM     56  C   UNL     1      -1.518  -2.224  12.317  1.00  0.00     0.049 A 
ATOM     57  C   UNL     1      -1.360  -6.679   8.948  1.00  0.00     0.074 A 
ATOM     58  C   UNL     1      -2.186  -2.394  13.544  1.00  0.00     0.029 A 
ATOM     59  N   UNL     1      -1.579  -3.418  11.634  1.00  0.00    -0.354 N 
ATOM     60  N   UNL     1      -1.523  -5.762   9.902  1.00  0.00    -0.248 NA
ATOM     61  C   UNL     1      -1.931  -7.947   9.421  1.00  0.00     0.031 C 
ATOM     62  C   UNL     1      -2.636  -3.676  13.605  1.00  0.00     0.029 A 
ATOM     63  C   UNL     1      -2.255  -4.328  12.417  1.00  0.00     0.049 A 
ATOM     64  H   UNL     1      -1.204  -3.592  10.740  1.00  0.00     0.167 HD
ATOM     65  C   UNL     1      -2.160  -6.294  10.947  1.00  0.00     0.074 A 
ATOM     66  C   UNL     1      -2.425  -7.709  10.656  1.00  0.00     0.031 C 
ATOM     67  C   UNL     1      -2.533  -5.655  12.131  1.00  0.00     0.031 A 
BRANCH  54  68
ATOM     68  C   UNL     1      -0.969   0.150  12.851  1.00  0.00    -0.014 A 
ATOM     69  C   UNL     1      -1.561   1.339  12.457  1.00  0.00     0.009 A 
ATOM     70  C   UNL     1      -0.418   0.019  14.052  1.00  0.00     0.009 A 
ATOM     71  C   UNL     1      -1.264   2.434  13.302  1.00  0.00     0.001 A 
ATOM     72  C   UNL     1      -0.283   1.106  14.881  1.00  0.00     0.001 A 
ATOM     73  C   UNL     1      -0.791   2.326  14.530  1.00  0.00     0.000 A 
ENDBRANCH  54  68
BRANCH  55  74
ATOM     74  C   UNL     1      -0.719  -7.695   6.752  1.00  0.00    -0.014 A 
ATOM     75  C   UNL     1      -1.923  -8.249   6.347  1.00  0.00     0.009 A 
ATOM     76  C   UNL     1       0.441  -8.179   6.324  1.00  0.00     0.009 A 
ATOM     77  C   UNL     1      -1.790  -9.505   5.709  1.00  0.00     0.001 A 
ATOM     78  C   UNL     1       0.486  -9.339   5.589  1.00  0.00     0.001 A 
ATOM     79  C   UNL     1      -0.663  -9.973   5.204  1.00  0.00     0.000 A 
ENDBRANCH  55  74
BRANCH  67  80
ATOM     80  C   UNL     1      -3.292  -6.465  13.170  1.00  0.00    -0.014 A 
ATOM     81  C   UNL     1      -2.803  -7.669  13.649  1.00  0.00     0.009 A 
ATOM     82  C   UNL     1      -4.502  -6.032  13.504  1.00  0.00     0.009 A 
ATOM     83  C   UNL     1      -3.787  -8.489  14.250  1.00  0.00     0.001 A 
ATOM     84  C   UNL     1      -5.364  -6.837  14.209  1.00  0.00     0.001 A 
ATOM     85  C   UNL     1      -4.966  -8.063  14.663  1.00  0.00     0.000 A 
ENDBRANCH  67  80
ENDBRANCH  41  42
ENDBRANCH  34  36
ENDBRANCH  33  34
ENDBRANCH  32  33
ENDBRANCH  31  32
ENDBRANCH  30  31
ENDBRANCH   1  30
TORSDOF 19
