REMARK SMILES CC[C@H](C)[C@H](NC(=O)[C@H](C)Oc1ccc2c(C)c(C)c(=O)oc2c1C)C(=O)OCCOCCOCCOC(=O)c1ccc(-c2c3nc(c(-c4ccccc4)c4ccc([nH]4)c(-c4ccccc4)c4nc(c(-c5ccccc5)c5ccc2[nH]5)C=C4)C=C3)cc1
REMARK SMILES IDX 32 1 31 2 30 3 29 4 28 5 26 6 27 7 5 8 3 9 4 10 2 11 1 12
REMARK SMILES IDX 6 13 7 14 8 16 9 17 10 18 11 19 12 20 13 21 24 22 14 23
REMARK SMILES IDX 23 24 25 25 15 26 22 27 16 28 20 29 17 30 18 31 21 32 19 33
REMARK SMILES IDX 33 34 34 35 35 36 36 37 37 38 38 39 39 40 40 41 41 42 87 43
REMARK SMILES IDX 42 44 86 45 43 46 44 47 45 48 80 49 46 50 85 51 79 52 81 53
REMARK SMILES IDX 47 54 84 55 78 56 77 57 48 59 70 60 55 61 69 62 56 63 59 64
REMARK SMILES IDX 68 65 82 66 57 67 58 68 67 70 83 71 60 72 49 73 50 74 54 75
REMARK SMILES IDX 51 76 53 77 52 78 71 79 72 80 76 81 73 82 75 83 74 84 61 85
REMARK SMILES IDX 62 86 66 87 63 88 65 89 64 90
REMARK H PARENT 6 15 81 58 59 69
REMARK Flexibility Score: inf
ROOT
ATOM      1  C   UNL     1      -1.849  -4.729  -1.780  1.00  0.00     0.188 C 
ENDROOT
BRANCH   1   2
ATOM      2  O   UNL     1      -1.758  -5.942  -2.504  1.00  0.00    -0.376 OA
BRANCH   2   3
ATOM      3  C   UNL     1      -1.114  -7.044  -1.882  1.00  0.00     0.202 C 
BRANCH   3   4
ATOM      4  C   UNL     1       0.334  -6.852  -1.421  1.00  0.00     0.261 C 
BRANCH   4   5
ATOM      5  O   UNL     1       0.492  -5.940  -0.307  1.00  0.00    -0.462 OA
BRANCH   5   6
ATOM      6  C   UNL     1       1.336  -4.892  -0.519  1.00  0.00     0.328 C 
ATOM      7  O   UNL     1       1.859  -4.638  -1.601  1.00  0.00    -0.250 OA
BRANCH   6   8
ATOM      8  C   UNL     1       1.730  -4.127   0.766  1.00  0.00     0.195 C 
BRANCH   8   9
ATOM      9  C   UNL     1       2.846  -4.891   1.575  1.00  0.00     0.019 C 
ATOM     10  C   UNL     1       2.319  -5.717   2.760  1.00  0.00     0.010 C 
BRANCH   9  11
ATOM     11  C   UNL     1       3.771  -5.798   0.723  1.00  0.00     0.002 C 
ATOM     12  C   UNL     1       4.862  -5.006   0.033  1.00  0.00     0.004 C 
ENDBRANCH   9  11
ENDBRANCH   8   9
BRANCH   8  13
ATOM     13  N   UNL     1       0.636  -3.680   1.649  1.00  0.00    -0.339 N 
ATOM     14  C   UNL     1       0.016  -2.481   1.835  1.00  0.00     0.261 C 
ATOM     15  H   UNL     1       0.280  -4.397   2.223  1.00  0.00     0.164 HD
ATOM     16  O   UNL     1      -0.537  -2.338   2.935  1.00  0.00    -0.271 OA
BRANCH  14  17
ATOM     17  C   UNL     1      -0.131  -1.355   0.760  1.00  0.00     0.258 C 
ATOM     18  C   UNL     1      -0.422  -1.875  -0.633  1.00  0.00     0.064 C 
BRANCH  17  19
ATOM     19  O   UNL     1       0.653  -0.170   0.706  1.00  0.00    -0.480 OA
BRANCH  19  20
ATOM     20  C   UNL     1       1.970  -0.393   0.460  1.00  0.00     0.127 A 
ATOM     21  C   UNL     1       2.401  -0.769  -0.812  1.00  0.00     0.047 A 
ATOM     22  C   UNL     1       2.880  -0.191   1.490  1.00  0.00     0.035 A 
ATOM     23  C   UNL     1       3.724  -1.140  -1.021  1.00  0.00     0.016 A 
ATOM     24  C   UNL     1       4.204  -0.583   1.255  1.00  0.00     0.145 A 
ATOM     25  C   UNL     1       2.474   0.448   2.788  1.00  0.00     0.052 C 
ATOM     26  C   UNL     1       4.642  -1.094   0.030  1.00  0.00     0.021 A 
ATOM     27  O   UNL     1       5.086  -0.483   2.343  1.00  0.00    -0.422 OA
ATOM     28  C   UNL     1       6.020  -1.596  -0.094  1.00  0.00    -0.030 A 
ATOM     29  C   UNL     1       6.344  -1.049   2.307  1.00  0.00     0.339 A 
ATOM     30  C   UNL     1       6.454  -2.130  -1.439  1.00  0.00     0.045 C 
ATOM     31  C   UNL     1       6.801  -1.613   1.007  1.00  0.00     0.038 A 
ATOM     32  O   UNL     1       7.048  -1.069   3.311  1.00  0.00    -0.246 OA
ATOM     33  C   UNL     1       8.183  -2.201   1.025  1.00  0.00     0.052 C 
ENDBRANCH  19  20
ENDBRANCH  17  19
ENDBRANCH  14  17
ENDBRANCH   8  13
ENDBRANCH   6   8
ENDBRANCH   5   6
ENDBRANCH   4   5
ENDBRANCH   3   4
ENDBRANCH   2   3
ENDBRANCH   1   2
BRANCH   1  34
ATOM     34  C   UNL     1      -2.293  -4.750  -0.299  1.00  0.00     0.188 C 
BRANCH  34  35
ATOM     35  O   UNL     1      -3.119  -5.796   0.170  1.00  0.00    -0.376 OA
BRANCH  35  36
ATOM     36  C   UNL     1      -4.282  -6.097  -0.583  1.00  0.00     0.202 C 
BRANCH  36  37
ATOM     37  C   UNL     1      -5.318  -4.981  -0.769  1.00  0.00     0.261 C 
BRANCH  37  38
ATOM     38  O   UNL     1      -4.840  -3.830  -1.497  1.00  0.00    -0.460 OA
BRANCH  38  39
ATOM     39  C   UNL     1      -4.930  -2.646  -0.841  1.00  0.00     0.338 C 
ATOM     40  O   UNL     1      -5.337  -2.473   0.300  1.00  0.00    -0.246 OA
BRANCH  39  41
ATOM     41  C   UNL     1      -4.305  -1.550  -1.615  1.00  0.00     0.060 A 
ATOM     42  C   UNL     1      -3.411  -0.719  -0.936  1.00  0.00     0.016 A 
ATOM     43  C   UNL     1      -4.621  -1.279  -2.948  1.00  0.00     0.016 A 
ATOM     44  C   UNL     1      -2.785   0.342  -1.593  1.00  0.00     0.010 A 
ATOM     45  C   UNL     1      -4.051  -0.161  -3.587  1.00  0.00     0.010 A 
ATOM     46  C   UNL     1      -3.131   0.659  -2.912  1.00  0.00    -0.014 A 
BRANCH  46  47
ATOM     47  C   UNL     1      -2.683   1.966  -3.466  1.00  0.00     0.031 A 
ATOM     48  C   UNL     1      -3.308   3.223  -2.914  1.00  0.00     0.074 A 
ATOM     49  C   UNL     1      -1.691   2.066  -4.373  1.00  0.00     0.049 A 
ATOM     50  N   UNL     1      -3.073   4.471  -3.226  1.00  0.00    -0.248 NA
ATOM     51  C   UNL     1      -4.305   3.050  -1.842  1.00  0.00     0.031 C 
ATOM     52  C   UNL     1      -0.901   0.954  -4.898  1.00  0.00     0.029 A 
ATOM     53  N   UNL     1      -1.165   3.174  -4.999  1.00  0.00    -0.354 N 
ATOM     54  C   UNL     1      -3.867   5.225  -2.371  1.00  0.00     0.074 A 
ATOM     55  C   UNL     1      -4.589   4.303  -1.526  1.00  0.00     0.031 C 
ATOM     56  C   UNL     1       0.002   1.436  -5.772  1.00  0.00     0.029 A 
ATOM     57  C   UNL     1      -0.168   2.884  -5.900  1.00  0.00     0.049 A 
ATOM     58  H   UNL     1      -1.476   4.091  -4.818  1.00  0.00     0.167 HD
ATOM     59  C   UNL     1      -4.002   6.567  -2.302  1.00  0.00     0.031 A 
ATOM     60  C   UNL     1       0.511   3.686  -6.747  1.00  0.00     0.031 A 
ATOM     61  C   UNL     1      -3.353   7.494  -3.182  1.00  0.00     0.049 A 
ATOM     62  C   UNL     1       0.214   5.165  -6.778  1.00  0.00     0.074 A 
ATOM     63  C   UNL     1      -3.500   8.868  -3.237  1.00  0.00     0.029 A 
ATOM     64  N   UNL     1      -2.451   7.140  -4.170  1.00  0.00    -0.354 N 
ATOM     65  N   UNL     1      -0.584   5.859  -6.003  1.00  0.00    -0.248 NA
ATOM     66  C   UNL     1       0.896   5.969  -7.806  1.00  0.00     0.031 C 
ATOM     67  C   UNL     1      -2.727   9.341  -4.298  1.00  0.00     0.029 A 
ATOM     68  C   UNL     1      -2.053   8.268  -4.861  1.00  0.00     0.049 A 
ATOM     69  H   UNL     1      -2.141   6.223  -4.352  1.00  0.00     0.167 HD
ATOM     70  C   UNL     1      -0.488   7.177  -6.437  1.00  0.00     0.074 A 
ATOM     71  C   UNL     1       0.449   7.191  -7.540  1.00  0.00     0.031 C 
ATOM     72  C   UNL     1      -1.122   8.274  -5.958  1.00  0.00     0.031 A 
BRANCH  59  73
ATOM     73  C   UNL     1      -4.942   7.117  -1.272  1.00  0.00    -0.014 A 
ATOM     74  C   UNL     1      -4.560   7.218   0.073  1.00  0.00     0.009 A 
ATOM     75  C   UNL     1      -6.199   7.600  -1.668  1.00  0.00     0.009 A 
ATOM     76  C   UNL     1      -5.423   7.793   1.006  1.00  0.00     0.001 A 
ATOM     77  C   UNL     1      -7.051   8.192  -0.736  1.00  0.00     0.001 A 
ATOM     78  C   UNL     1      -6.663   8.287   0.599  1.00  0.00     0.000 A 
ENDBRANCH  59  73
BRANCH  60  79
ATOM     79  C   UNL     1       1.511   3.098  -7.680  1.00  0.00    -0.014 A 
ATOM     80  C   UNL     1       2.884   3.336  -7.512  1.00  0.00     0.009 A 
ATOM     81  C   UNL     1       1.093   2.283  -8.745  1.00  0.00     0.009 A 
ATOM     82  C   UNL     1       3.814   2.763  -8.386  1.00  0.00     0.001 A 
ATOM     83  C   UNL     1       2.025   1.694  -9.602  1.00  0.00     0.001 A 
ATOM     84  C   UNL     1       3.385   1.936  -9.423  1.00  0.00     0.000 A 
ENDBRANCH  60  79
BRANCH  72  85
ATOM     85  C   UNL     1      -0.841   9.604  -6.595  1.00  0.00    -0.014 A 
ATOM     86  C   UNL     1      -1.434   9.957  -7.815  1.00  0.00     0.009 A 
ATOM     87  C   UNL     1      -0.108  10.571  -5.886  1.00  0.00     0.009 A 
ATOM     88  C   UNL     1      -1.300  11.255  -8.313  1.00  0.00     0.001 A 
ATOM     89  C   UNL     1       0.004  11.873  -6.375  1.00  0.00     0.001 A 
ATOM     90  C   UNL     1      -0.592  12.214  -7.587  1.00  0.00     0.000 A 
ENDBRANCH  72  85
ENDBRANCH  46  47
ENDBRANCH  39  41
ENDBRANCH  38  39
ENDBRANCH  37  38
ENDBRANCH  36  37
ENDBRANCH  35  36
ENDBRANCH  34  35
ENDBRANCH   1  34
TORSDOF 23
