REMARK SMILES N#Cc1ccc(C(=O)NC[C@H]2CC[C@H](C(=O)OCCOCCOCCOC(=O)c3ccc(-c4c5nc(c(-c6ccccc6)c6ccc([nH]6)c(-c6ccccc6)c6nc(c(-c7ccccc7)c7ccc4[nH]7)C=C6)C=C5)cc3)O2)cc1
REMARK SMILES IDX 21 1 20 2 19 3 18 4 17 5 15 6 16 7 14 8 11 9 12 10 77 11
REMARK SMILES IDX 13 12 10 13 9 14 7 15 8 16 6 18 3 19 4 20 79 21 5 22 78 23
REMARK SMILES IDX 2 24 1 25 22 26 23 27 24 28 25 29 26 30 27 31 28 32 29 33
REMARK SMILES IDX 30 34 76 35 31 36 75 37 32 38 33 39 34 40 69 41 35 42 74 43
REMARK SMILES IDX 68 44 70 45 36 46 73 47 67 48 66 49 37 51 59 52 44 53 58 54
REMARK SMILES IDX 45 55 48 56 57 57 71 58 46 59 47 60 56 62 72 63 49 64 38 65
REMARK SMILES IDX 39 66 43 67 40 68 42 69 41 70 60 71 61 72 65 73 62 74 64 75
REMARK SMILES IDX 63 76 50 77 51 78 55 79 52 80 54 81 53 82
REMARK H PARENT 9 17 70 50 48 61
REMARK Flexibility Score: inf
ROOT
ATOM      1  C   UNL     1       1.817  -8.352  -1.195  1.00  0.00     0.188 C 
ENDROOT
BRANCH   1   2
ATOM      2  O   UNL     1       0.901  -8.729  -0.185  1.00  0.00    -0.376 OA
BRANCH   2   3
ATOM      3  C   UNL     1       0.327  -7.710   0.631  1.00  0.00     0.202 C 
BRANCH   3   4
ATOM      4  C   UNL     1       1.207  -6.576   1.199  1.00  0.00     0.261 C 
BRANCH   4   5
ATOM      5  O   UNL     1       1.950  -5.831   0.211  1.00  0.00    -0.461 OA
BRANCH   5   6
ATOM      6  C   UNL     1       3.301  -5.856   0.332  1.00  0.00     0.335 C 
ATOM      7  O   UNL     1       3.891  -6.374   1.276  1.00  0.00    -0.249 OA
BRANCH   6   8
ATOM      8  C   UNL     1       4.049  -5.292  -0.887  1.00  0.00     0.228 C 
ATOM      9  C   UNL     1       4.894  -3.101  -0.779  1.00  0.00     0.138 C 
ATOM     10  C   UNL     1       3.542  -3.054  -1.480  1.00  0.00     0.037 C 
ATOM     11  O   UNL     1       5.109  -4.469  -0.385  1.00  0.00    -0.361 OA
ATOM     12  C   UNL     1       3.348  -4.466  -1.950  1.00  0.00     0.047 C 
BRANCH   9  13
ATOM     13  C   UNL     1       6.142  -2.689  -1.585  1.00  0.00     0.148 C 
BRANCH  13  14
ATOM     14  N   UNL     1       5.967  -2.757  -3.024  1.00  0.00    -0.349 N 
ATOM     15  C   UNL     1       5.708  -1.800  -3.969  1.00  0.00     0.251 C 
ATOM     16  O   UNL     1       5.626  -2.170  -5.141  1.00  0.00    -0.269 OA
ATOM     17  H   UNL     1       6.050  -3.667  -3.392  1.00  0.00     0.163 HD
BRANCH  15  18
ATOM     18  C   UNL     1       5.570  -0.346  -3.657  1.00  0.00     0.039 A 
ATOM     19  C   UNL     1       5.500   2.442  -3.229  1.00  0.00     0.052 A 
ATOM     20  C   UNL     1       5.792   1.935  -4.497  1.00  0.00     0.020 A 
ATOM     21  C   UNL     1       5.186   1.562  -2.194  1.00  0.00     0.020 A 
ATOM     22  C   UNL     1       5.830   0.552  -4.705  1.00  0.00     0.015 A 
ATOM     23  C   UNL     1       5.190   0.180  -2.417  1.00  0.00     0.015 A 
BRANCH  19  24
ATOM     24  C   UNL     1       5.525   3.857  -2.985  1.00  0.00     0.099 C 
ATOM     25  N   UNL     1       5.554   4.992  -2.770  1.00  0.00    -0.192 NA
ENDBRANCH  19  24
ENDBRANCH  15  18
ENDBRANCH  13  14
ENDBRANCH   9  13
ENDBRANCH   6   8
ENDBRANCH   5   6
ENDBRANCH   4   5
ENDBRANCH   3   4
ENDBRANCH   2   3
ENDBRANCH   1   2
BRANCH   1  26
ATOM     26  C   UNL     1       1.401  -7.278  -2.201  1.00  0.00     0.188 C 
BRANCH  26  27
ATOM     27  O   UNL     1       0.371  -6.410  -1.804  1.00  0.00    -0.376 OA
BRANCH  27  28
ATOM     28  C   UNL     1      -0.899  -6.440  -2.439  1.00  0.00     0.202 C 
BRANCH  28  29
ATOM     29  C   UNL     1      -1.501  -7.670  -3.164  1.00  0.00     0.261 C 
BRANCH  29  30
ATOM     30  O   UNL     1      -0.620  -8.643  -3.748  1.00  0.00    -0.460 OA
BRANCH  30  31
ATOM     31  C   UNL     1      -0.007  -8.308  -4.915  1.00  0.00     0.338 C 
ATOM     32  O   UNL     1      -0.181  -7.291  -5.560  1.00  0.00    -0.246 OA
BRANCH  31  33
ATOM     33  C   UNL     1       1.147  -9.237  -5.100  1.00  0.00     0.060 A 
ATOM     34  C   UNL     1       2.447  -8.701  -5.130  1.00  0.00     0.016 A 
ATOM     35  C   UNL     1       0.964 -10.617  -5.164  1.00  0.00     0.016 A 
ATOM     36  C   UNL     1       3.561  -9.540  -5.238  1.00  0.00     0.010 A 
ATOM     37  C   UNL     1       2.079 -11.453  -5.312  1.00  0.00     0.010 A 
ATOM     38  C   UNL     1       3.382 -10.921  -5.372  1.00  0.00    -0.014 A 
BRANCH  38  39
ATOM     39  C   UNL     1       4.527 -11.798  -5.739  1.00  0.00     0.031 A 
ATOM     40  C   UNL     1       4.666 -12.238  -7.172  1.00  0.00     0.074 A 
ATOM     41  C   UNL     1       5.432 -12.204  -4.829  1.00  0.00     0.049 A 
ATOM     42  N   UNL     1       5.520 -13.072  -7.709  1.00  0.00    -0.248 NA
ATOM     43  C   UNL     1       3.706 -11.661  -8.127  1.00  0.00     0.031 C 
ATOM     44  C   UNL     1       5.459 -11.810  -3.422  1.00  0.00     0.029 A 
ATOM     45  N   UNL     1       6.503 -13.057  -4.960  1.00  0.00    -0.354 N 
ATOM     46  C   UNL     1       5.190 -13.134  -9.057  1.00  0.00     0.074 A 
ATOM     47  C   UNL     1       4.041 -12.275  -9.251  1.00  0.00     0.031 C 
ATOM     48  C   UNL     1       6.487 -12.431  -2.816  1.00  0.00     0.029 A 
ATOM     49  C   UNL     1       7.162 -13.301  -3.779  1.00  0.00     0.049 A 
ATOM     50  H   UNL     1       6.772 -13.455  -5.819  1.00  0.00     0.167 HD
ATOM     51  C   UNL     1       5.786 -13.840 -10.047  1.00  0.00     0.031 A 
ATOM     52  C   UNL     1       8.170 -14.152  -3.497  1.00  0.00     0.031 A 
ATOM     53  C   UNL     1       6.916 -14.711  -9.855  1.00  0.00     0.049 A 
ATOM     54  C   UNL     1       8.751 -15.007  -4.596  1.00  0.00     0.074 A 
ATOM     55  C   UNL     1       7.598 -15.457 -10.801  1.00  0.00     0.029 A 
ATOM     56  N   UNL     1       7.522 -14.965  -8.634  1.00  0.00    -0.354 N 
ATOM     57  N   UNL     1       8.447 -15.040  -5.871  1.00  0.00    -0.248 NA
ATOM     58  C   UNL     1       9.820 -15.942  -4.213  1.00  0.00     0.031 C 
ATOM     59  C   UNL     1       8.564 -16.223 -10.141  1.00  0.00     0.029 A 
ATOM     60  C   UNL     1       8.542 -15.888  -8.797  1.00  0.00     0.049 A 
ATOM     61  H   UNL     1       7.265 -14.550  -7.779  1.00  0.00     0.167 HD
ATOM     62  C   UNL     1       9.307 -15.970  -6.445  1.00  0.00     0.074 A 
ATOM     63  C   UNL     1      10.159 -16.464  -5.383  1.00  0.00     0.031 C 
ATOM     64  C   UNL     1       9.384 -16.379  -7.736  1.00  0.00     0.031 A 
BRANCH  51  65
ATOM     65  C   UNL     1       5.194 -13.739 -11.428  1.00  0.00    -0.014 A 
ATOM     66  C   UNL     1       5.268 -12.553 -12.176  1.00  0.00     0.009 A 
ATOM     67  C   UNL     1       4.586 -14.866 -12.005  1.00  0.00     0.009 A 
ATOM     68  C   UNL     1       4.711 -12.488 -13.456  1.00  0.00     0.001 A 
ATOM     69  C   UNL     1       4.062 -14.809 -13.297  1.00  0.00     0.001 A 
ATOM     70  C   UNL     1       4.115 -13.617 -14.017  1.00  0.00     0.000 A 
ENDBRANCH  51  65
BRANCH  52  71
ATOM     71  C   UNL     1       8.683 -14.274  -2.104  1.00  0.00    -0.014 A 
ATOM     72  C   UNL     1       9.996 -13.892  -1.784  1.00  0.00     0.009 A 
ATOM     73  C   UNL     1       7.872 -14.809  -1.090  1.00  0.00     0.009 A 
ATOM     74  C   UNL     1      10.493 -14.072  -0.491  1.00  0.00     0.001 A 
ATOM     75  C   UNL     1       8.359 -14.952   0.211  1.00  0.00     0.001 A 
ATOM     76  C   UNL     1       9.672 -14.595   0.507  1.00  0.00     0.000 A 
ENDBRANCH  52  71
BRANCH  64  77
ATOM     77  C   UNL     1      10.454 -17.381  -8.088  1.00  0.00    -0.014 A 
ATOM     78  C   UNL     1      10.397 -18.709  -7.637  1.00  0.00     0.009 A 
ATOM     79  C   UNL     1      11.515 -16.997  -8.924  1.00  0.00     0.009 A 
ATOM     80  C   UNL     1      11.401 -19.617  -7.981  1.00  0.00     0.001 A 
ATOM     81  C   UNL     1      12.497 -17.916  -9.298  1.00  0.00     0.001 A 
ATOM     82  C   UNL     1      12.446 -19.222  -8.816  1.00  0.00     0.000 A 
ENDBRANCH  64  77
ENDBRANCH  38  39
ENDBRANCH  31  33
ENDBRANCH  30  31
ENDBRANCH  29  30
ENDBRANCH  28  29
ENDBRANCH  27  28
ENDBRANCH  26  27
ENDBRANCH   1  26
TORSDOF 21
