REMARK SMILES Cc1nc2ncnn2c(O)c1CCC(=O)OCCOCCOCCOC(=O)c1ccc(-c2c3nc(c(-c4ccccc4)c4ccc([nH]4)c(-c4ccccc4)c4nc(c(-c5ccccc5)c5ccc2[nH]5)C=C4)C=C3)cc1
REMARK SMILES IDX 20 1 19 2 18 3 17 4 16 5 14 6 15 7 13 8 12 9 11 10 1 11 2 12
REMARK SMILES IDX 3 13 4 14 9 15 5 16 8 17 6 18 7 19 10 20 21 22 22 23 23 24
REMARK SMILES IDX 24 25 25 26 26 27 27 28 28 29 29 30 75 31 30 32 74 33 31 34
REMARK SMILES IDX 32 35 33 36 68 37 34 38 73 39 67 40 69 41 35 42 72 43 66 44
REMARK SMILES IDX 65 45 36 47 58 48 43 49 57 50 44 51 47 52 56 53 70 54 45 55
REMARK SMILES IDX 46 56 55 58 71 59 48 60 37 61 38 62 42 63 39 64 41 65 40 66
REMARK SMILES IDX 59 67 60 68 64 69 61 70 63 71 62 72 49 73 50 74 54 75 51 76
REMARK SMILES IDX 53 77 52 78
REMARK H PARENT 10 21 69 46 47 57
REMARK Flexibility Score: inf
ROOT
ATOM      1  C   UNL     1       3.222   5.957   1.793  1.00  0.00     0.188 C 
ENDROOT
BRANCH   1   2
ATOM      2  O   UNL     1       3.700   6.998   0.947  1.00  0.00    -0.376 OA
BRANCH   2   3
ATOM      3  C   UNL     1       3.122   7.062  -0.354  1.00  0.00     0.202 C 
BRANCH   3   4
ATOM      4  C   UNL     1       3.748   6.079  -1.346  1.00  0.00     0.261 C 
BRANCH   4   5
ATOM      5  O   UNL     1       3.344   4.725  -1.051  1.00  0.00    -0.463 OA
BRANCH   5   6
ATOM      6  C   UNL     1       4.270   3.821  -0.672  1.00  0.00     0.306 C 
ATOM      7  O   UNL     1       5.467   4.050  -0.566  1.00  0.00    -0.252 OA
BRANCH   6   8
ATOM      8  C   UNL     1       3.659   2.453  -0.409  1.00  0.00     0.128 C 
BRANCH   8   9
ATOM      9  C   UNL     1       2.239   2.401   0.190  1.00  0.00     0.055 C 
BRANCH   9  10
ATOM     10  C   UNL     1       1.075   2.350  -0.787  1.00  0.00     0.036 A 
ATOM     11  C   UNL     1       0.816  -0.215  -0.379  1.00  0.00     0.067 C 
ATOM     12  C   UNL     1       0.368   1.038  -1.101  1.00  0.00     0.050 A 
ATOM     13  N   UNL     1      -0.638   0.890  -1.915  1.00  0.00    -0.216 NA
ATOM     14  C   UNL     1      -1.128   2.008  -2.514  1.00  0.00     0.255 A 
ATOM     15  C   UNL     1       0.491   3.416  -1.379  1.00  0.00     0.220 A 
ATOM     16  N   UNL     1      -2.130   2.143  -3.357  1.00  0.00    -0.197 NA
ATOM     17  N   UNL     1      -0.595   3.260  -2.242  1.00  0.00    -0.163 N 
ATOM     18  C   UNL     1      -2.196   3.487  -3.560  1.00  0.00     0.249 A 
ATOM     19  N   UNL     1      -1.302   4.218  -2.902  1.00  0.00    -0.150 NA
BRANCH  15  20
ATOM     20  O   UNL     1       0.898   4.711  -1.177  1.00  0.00    -0.493 OA
ATOM     21  H   UNL     1       0.458   5.414  -1.613  1.00  0.00     0.295 HD
ENDBRANCH  15  20
ENDBRANCH   9  10
ENDBRANCH   8   9
ENDBRANCH   6   8
ENDBRANCH   5   6
ENDBRANCH   4   5
ENDBRANCH   3   4
ENDBRANCH   2   3
ENDBRANCH   1   2
BRANCH   1  22
ATOM     22  C   UNL     1       1.756   6.128   2.195  1.00  0.00     0.188 C 
BRANCH  22  23
ATOM     23  O   UNL     1       0.851   5.422   1.344  1.00  0.00    -0.376 OA
BRANCH  23  24
ATOM     24  C   UNL     1      -0.354   6.072   0.890  1.00  0.00     0.202 C 
BRANCH  24  25
ATOM     25  C   UNL     1      -1.298   6.849   1.805  1.00  0.00     0.261 C 
BRANCH  25  26
ATOM     26  O   UNL     1      -0.834   7.003   3.118  1.00  0.00    -0.460 OA
BRANCH  26  27
ATOM     27  C   UNL     1      -0.702   5.879   3.846  1.00  0.00     0.338 C 
ATOM     28  O   UNL     1      -1.094   4.757   3.586  1.00  0.00    -0.246 OA
BRANCH  27  29
ATOM     29  C   UNL     1       0.045   6.299   5.040  1.00  0.00     0.060 A 
ATOM     30  C   UNL     1       0.096   5.419   6.114  1.00  0.00     0.016 A 
ATOM     31  C   UNL     1       0.537   7.620   5.123  1.00  0.00     0.016 A 
ATOM     32  C   UNL     1       0.348   5.957   7.351  1.00  0.00     0.010 A 
ATOM     33  C   UNL     1       0.772   8.161   6.352  1.00  0.00     0.010 A 
ATOM     34  C   UNL     1       0.542   7.341   7.443  1.00  0.00    -0.014 A 
BRANCH  34  35
ATOM     35  C   UNL     1       0.355   7.956   8.726  1.00  0.00     0.031 A 
ATOM     36  C   UNL     1       1.540   7.934   9.585  1.00  0.00     0.074 A 
ATOM     37  C   UNL     1      -0.815   8.533   9.048  1.00  0.00     0.049 A 
ATOM     38  N   UNL     1       1.727   7.196  10.623  1.00  0.00    -0.248 NA
ATOM     39  C   UNL     1       2.711   8.705   9.148  1.00  0.00     0.031 C 
ATOM     40  C   UNL     1      -1.939   8.885   8.173  1.00  0.00     0.029 A 
ATOM     41  N   UNL     1      -1.191   9.025  10.251  1.00  0.00    -0.354 N 
ATOM     42  C   UNL     1       2.987   7.536  11.085  1.00  0.00     0.074 A 
ATOM     43  C   UNL     1       3.613   8.320  10.049  1.00  0.00     0.031 C 
ATOM     44  C   UNL     1      -2.763   9.730   8.836  1.00  0.00     0.029 A 
ATOM     45  C   UNL     1      -2.295   9.857  10.207  1.00  0.00     0.049 A 
ATOM     46  H   UNL     1      -0.718   8.809  11.087  1.00  0.00     0.167 HD
ATOM     47  C   UNL     1       3.336   7.362  12.385  1.00  0.00     0.031 A 
ATOM     48  C   UNL     1      -2.719  10.648  11.220  1.00  0.00     0.031 A 
ATOM     49  C   UNL     1       2.418   6.508  13.089  1.00  0.00     0.049 A 
ATOM     50  C   UNL     1      -2.115  10.129  12.474  1.00  0.00     0.074 A 
ATOM     51  C   UNL     1       2.034   5.189  12.960  1.00  0.00     0.029 A 
ATOM     52  N   UNL     1       1.442   7.121  13.841  1.00  0.00    -0.354 N 
ATOM     53  N   UNL     1      -2.438   8.986  13.009  1.00  0.00    -0.248 NA
ATOM     54  C   UNL     1      -0.834  10.672  12.902  1.00  0.00     0.031 C 
ATOM     55  C   UNL     1       0.641   5.174  13.262  1.00  0.00     0.029 A 
ATOM     56  C   UNL     1       0.256   6.474  13.598  1.00  0.00     0.049 A 
ATOM     57  H   UNL     1       1.572   7.887  14.446  1.00  0.00     0.167 HD
ATOM     58  C   UNL     1      -1.245   8.468  13.497  1.00  0.00     0.074 A 
ATOM     59  C   UNL     1      -0.318   9.596  13.504  1.00  0.00     0.031 C 
ATOM     60  C   UNL     1      -1.042   7.119  13.578  1.00  0.00     0.031 A 
BRANCH  47  61
ATOM     61  C   UNL     1       4.297   8.276  13.078  1.00  0.00    -0.014 A 
ATOM     62  C   UNL     1       4.817   7.907  14.325  1.00  0.00     0.009 A 
ATOM     63  C   UNL     1       4.527   9.600  12.649  1.00  0.00     0.009 A 
ATOM     64  C   UNL     1       5.522   8.827  15.109  1.00  0.00     0.001 A 
ATOM     65  C   UNL     1       5.269  10.505  13.406  1.00  0.00     0.001 A 
ATOM     66  C   UNL     1       5.751  10.122  14.648  1.00  0.00     0.000 A 
ENDBRANCH  47  61
BRANCH  48  67
ATOM     67  C   UNL     1      -3.329  11.990  11.129  1.00  0.00    -0.014 A 
ATOM     68  C   UNL     1      -3.955  12.562  12.246  1.00  0.00     0.009 A 
ATOM     69  C   UNL     1      -3.058  12.825  10.029  1.00  0.00     0.009 A 
ATOM     70  C   UNL     1      -4.255  13.930  12.279  1.00  0.00     0.001 A 
ATOM     71  C   UNL     1      -3.363  14.189  10.059  1.00  0.00     0.001 A 
ATOM     72  C   UNL     1      -3.945  14.745  11.193  1.00  0.00     0.000 A 
ENDBRANCH  48  67
BRANCH  60  73
ATOM     73  C   UNL     1      -2.233   6.216  13.351  1.00  0.00    -0.014 A 
ATOM     74  C   UNL     1      -2.933   6.168  12.132  1.00  0.00     0.009 A 
ATOM     75  C   UNL     1      -2.554   5.273  14.339  1.00  0.00     0.009 A 
ATOM     76  C   UNL     1      -3.939   5.219  11.919  1.00  0.00     0.001 A 
ATOM     77  C   UNL     1      -3.544   4.312  14.117  1.00  0.00     0.001 A 
ATOM     78  C   UNL     1      -4.239   4.287  12.910  1.00  0.00     0.000 A 
ENDBRANCH  60  73
ENDBRANCH  34  35
ENDBRANCH  27  29
ENDBRANCH  26  27
ENDBRANCH  25  26
ENDBRANCH  24  25
ENDBRANCH  23  24
ENDBRANCH  22  23
ENDBRANCH   1  22
TORSDOF 20
