REMARK SMILES O=C(OCCOCCOCCOC(=O)[C@H](F)[C@H](O)C1CCOCC1)c1ccc(-c2c3nc(c(-c4ccccc4)c4ccc([nH]4)c(-c4ccccc4)c4nc(c(-c5ccccc5)c5ccc2[nH]5)C=C4)C=C3)cc1
REMARK SMILES IDX 7 1 6 2 5 3 4 4 3 5 2 6 1 7 25 8 26 9 72 10 27 11 71 12
REMARK SMILES IDX 28 13 29 14 30 15 65 16 31 17 70 18 64 19 66 20 32 21 69 22
REMARK SMILES IDX 63 23 62 24 33 26 55 27 40 28 54 29 41 30 44 31 53 32 67 33
REMARK SMILES IDX 42 34 43 35 52 37 68 38 45 39 34 40 35 41 39 42 36 43 38 44
REMARK SMILES IDX 37 45 56 46 57 47 61 48 58 49 60 50 59 51 46 52 47 53 51 54
REMARK SMILES IDX 48 55 50 56 49 57 8 58 9 59 10 60 11 61 12 62 13 63 14 64
REMARK SMILES IDX 15 65 16 66 17 67 19 68 20 69 24 70 21 71 23 72 22 73 18 74
REMARK H PARENT 66 25 44 36 18 75
REMARK Flexibility Score: inf
ROOT
ATOM      1  C   UNL     1      -1.291   3.899   4.526  1.00  0.00     0.188 C 
ENDROOT
BRANCH   1   2
ATOM      2  O   UNL     1      -1.807   4.645   3.422  1.00  0.00    -0.376 OA
BRANCH   2   3
ATOM      3  C   UNL     1      -3.101   4.191   3.024  1.00  0.00     0.202 C 
BRANCH   3   4
ATOM      4  C   UNL     1      -3.079   2.950   2.116  1.00  0.00     0.261 C 
BRANCH   4   5
ATOM      5  O   UNL     1      -1.996   2.046   2.404  1.00  0.00    -0.460 OA
BRANCH   5   6
ATOM      6  C   UNL     1      -0.765   1.966   1.840  1.00  0.00     0.338 C 
ATOM      7  O   UNL     1      -0.072   0.987   2.118  1.00  0.00    -0.246 OA
BRANCH   6   8
ATOM      8  C   UNL     1      -0.170   2.988   0.911  1.00  0.00     0.060 A 
ATOM      9  C   UNL     1      -0.723   4.228   0.591  1.00  0.00     0.016 A 
ATOM     10  C   UNL     1       1.076   2.668   0.327  1.00  0.00     0.016 A 
ATOM     11  C   UNL     1      -0.116   5.084  -0.324  1.00  0.00     0.010 A 
ATOM     12  C   UNL     1       1.705   3.529  -0.582  1.00  0.00     0.010 A 
ATOM     13  C   UNL     1       1.082   4.724  -0.938  1.00  0.00    -0.014 A 
BRANCH  13  14
ATOM     14  C   UNL     1       1.531   5.545  -2.078  1.00  0.00     0.031 A 
ATOM     15  C   UNL     1       1.022   5.183  -3.442  1.00  0.00     0.074 A 
ATOM     16  C   UNL     1       2.221   6.678  -1.871  1.00  0.00     0.049 A 
ATOM     17  N   UNL     1       1.113   5.847  -4.562  1.00  0.00    -0.248 NA
ATOM     18  C   UNL     1       0.269   3.920  -3.545  1.00  0.00     0.031 C 
ATOM     19  C   UNL     1       2.671   7.166  -0.567  1.00  0.00     0.029 A 
ATOM     20  N   UNL     1       2.629   7.644  -2.752  1.00  0.00    -0.354 N 
ATOM     21  C   UNL     1       0.398   5.105  -5.492  1.00  0.00     0.074 A 
ATOM     22  C   UNL     1      -0.092   3.924  -4.818  1.00  0.00     0.031 C 
ATOM     23  C   UNL     1       3.285   8.350  -0.733  1.00  0.00     0.029 A 
ATOM     24  C   UNL     1       3.288   8.689  -2.153  1.00  0.00     0.049 A 
ATOM     25  H   UNL     1       2.466   7.593  -3.721  1.00  0.00     0.167 HD
ATOM     26  C   UNL     1       0.165   5.385  -6.794  1.00  0.00     0.031 A 
ATOM     27  C   UNL     1       3.833   9.791  -2.703  1.00  0.00     0.031 A 
ATOM     28  C   UNL     1       0.724   6.517  -7.477  1.00  0.00     0.049 A 
ATOM     29  C   UNL     1       3.698   9.996  -4.188  1.00  0.00     0.074 A 
ATOM     30  C   UNL     1       0.646   6.848  -8.816  1.00  0.00     0.029 A 
ATOM     31  N   UNL     1       1.491   7.495  -6.861  1.00  0.00    -0.354 N 
ATOM     32  N   UNL     1       3.030   9.282  -5.063  1.00  0.00    -0.248 NA
ATOM     33  C   UNL     1       4.390  11.159  -4.761  1.00  0.00     0.031 C 
ATOM     34  C   UNL     1       1.408   8.005  -9.019  1.00  0.00     0.029 A 
ATOM     35  C   UNL     1       1.917   8.418  -7.797  1.00  0.00     0.049 A 
ATOM     36  H   UNL     1       1.701   7.526  -5.899  1.00  0.00     0.167 HD
ATOM     37  C   UNL     1       3.207   9.916  -6.286  1.00  0.00     0.074 A 
ATOM     38  C   UNL     1       4.028  11.084  -6.035  1.00  0.00     0.031 C 
ATOM     39  C   UNL     1       2.737   9.567  -7.509  1.00  0.00     0.031 A 
BRANCH  26  40
ATOM     40  C   UNL     1      -0.681   4.404  -7.550  1.00  0.00    -0.014 A 
ATOM     41  C   UNL     1      -2.072   4.357  -7.363  1.00  0.00     0.009 A 
ATOM     42  C   UNL     1      -0.077   3.484  -8.419  1.00  0.00     0.009 A 
ATOM     43  C   UNL     1      -2.837   3.382  -8.007  1.00  0.00     0.001 A 
ATOM     44  C   UNL     1      -0.848   2.523  -9.075  1.00  0.00     0.001 A 
ATOM     45  C   UNL     1      -2.224   2.466  -8.861  1.00  0.00     0.000 A 
ENDBRANCH  26  40
BRANCH  27  46
ATOM     46  C   UNL     1       4.580  10.762  -1.859  1.00  0.00    -0.014 A 
ATOM     47  C   UNL     1       4.105  12.066  -1.659  1.00  0.00     0.009 A 
ATOM     48  C   UNL     1       5.799  10.389  -1.269  1.00  0.00     0.009 A 
ATOM     49  C   UNL     1       4.846  12.982  -0.905  1.00  0.00     0.001 A 
ATOM     50  C   UNL     1       6.524  11.297  -0.494  1.00  0.00     0.001 A 
ATOM     51  C   UNL     1       6.052  12.596  -0.321  1.00  0.00     0.000 A 
ENDBRANCH  27  46
BRANCH  39  52
ATOM     52  C   UNL     1       3.087  10.469  -8.655  1.00  0.00    -0.014 A 
ATOM     53  C   UNL     1       4.375  10.463  -9.212  1.00  0.00     0.009 A 
ATOM     54  C   UNL     1       2.102  11.297  -9.214  1.00  0.00     0.009 A 
ATOM     55  C   UNL     1       4.676  11.291 -10.294  1.00  0.00     0.001 A 
ATOM     56  C   UNL     1       2.400  12.105 -10.310  1.00  0.00     0.001 A 
ATOM     57  C   UNL     1       3.688  12.107 -10.845  1.00  0.00     0.000 A 
ENDBRANCH  39  52
ENDBRANCH  13  14
ENDBRANCH   6   8
ENDBRANCH   5   6
ENDBRANCH   4   5
ENDBRANCH   3   4
ENDBRANCH   2   3
ENDBRANCH   1   2
BRANCH   1  58
ATOM     58  C   UNL     1      -0.794   4.782   5.666  1.00  0.00     0.188 C 
BRANCH  58  59
ATOM     59  O   UNL     1      -1.641   5.855   6.066  1.00  0.00    -0.376 OA
BRANCH  59  60
ATOM     60  C   UNL     1      -1.615   7.036   5.254  1.00  0.00     0.202 C 
BRANCH  60  61
ATOM     61  C   UNL     1      -0.247   7.726   5.122  1.00  0.00     0.261 C 
BRANCH  61  62
ATOM     62  O   UNL     1       0.559   6.994   4.181  1.00  0.00    -0.461 OA
BRANCH  62  63
ATOM     63  C   UNL     1       1.907   7.062   4.355  1.00  0.00     0.343 C 
ATOM     64  O   UNL     1       2.488   7.941   4.981  1.00  0.00    -0.249 OA
BRANCH  63  65
ATOM     65  C   UNL     1       2.580   5.865   3.710  1.00  0.00     0.304 C 
ATOM     66  F   UNL     1       1.697   4.877   3.352  1.00  0.00    -0.232 F 
BRANCH  65  67
ATOM     67  C   UNL     1       3.687   5.216   4.562  1.00  0.00     0.163 C 
BRANCH  67  68
ATOM     68  C   UNL     1       3.343   4.530   5.918  1.00  0.00     0.026 C 
ATOM     69  C   UNL     1       2.586   3.197   5.787  1.00  0.00     0.035 C 
ATOM     70  C   UNL     1       2.682   5.463   6.945  1.00  0.00     0.035 C 
ATOM     71  C   UNL     1       2.210   2.637   7.154  1.00  0.00     0.160 C 
ATOM     72  C   UNL     1       2.212   4.748   8.206  1.00  0.00     0.160 C 
ATOM     73  O   UNL     1       1.445   3.592   7.882  1.00  0.00    -0.381 OA
ENDBRANCH  67  68
BRANCH  67  74
ATOM     74  O   UNL     1       4.334   4.227   3.730  1.00  0.00    -0.389 OA
ATOM     75  H   UNL     1       3.704   3.520   3.518  1.00  0.00     0.211 HD
ENDBRANCH  67  74
ENDBRANCH  65  67
ENDBRANCH  63  65
ENDBRANCH  62  63
ENDBRANCH  61  62
ENDBRANCH  60  61
ENDBRANCH  59  60
ENDBRANCH  58  59
ENDBRANCH   1  58
TORSDOF 20
