REMARK SMILES N#CCCN(c1ccc(F)cc1)S(=O)(=O)c1cc(C(=O)OCCOCCOCCOC(=O)c2ccc(-c3c4nc(c(-c5ccccc5)c5ccc([nH]5)c(-c5ccccc5)c5nc(c(-c6ccccc6)c6ccc3[nH]6)C=C5)C=C4)cc2)ccc1Cl
REMARK SMILES IDX 24 1 23 2 22 3 21 4 19 5 20 6 18 7 16 8 17 9 83 10 82 11
REMARK SMILES IDX 84 12 81 13 13 14 14 15 15 16 5 17 4 18 3 19 2 20 1 21 6 22
REMARK SMILES IDX 7 23 12 24 8 25 11 26 9 27 10 28 25 29 26 30 27 31 28 32
REMARK SMILES IDX 29 33 30 34 31 35 32 36 33 37 34 38 80 39 35 40 79 41 36 42
REMARK SMILES IDX 37 43 38 44 73 45 39 46 78 47 72 48 74 49 40 50 77 51 71 52
REMARK SMILES IDX 70 53 41 55 63 56 48 57 62 58 49 59 52 60 61 61 75 62 50 63
REMARK SMILES IDX 51 64 60 66 76 67 53 68 42 69 43 70 47 71 44 72 46 73 45 74
REMARK SMILES IDX 64 75 65 76 69 77 66 78 68 79 67 80 54 81 55 82 59 83 56 84
REMARK SMILES IDX 58 85 57 86
REMARK H PARENT 74 54 52 65
REMARK Flexibility Score: inf
ROOT
ATOM      1  O   UNL     1       1.626   4.324   9.193  1.00  0.00    -0.376 OA
ENDROOT
BRANCH   1   2
ATOM      2  C   UNL     1       0.750   3.673  10.105  1.00  0.00     0.202 C 
BRANCH   2   3
ATOM      3  C   UNL     1      -0.354   2.769   9.558  1.00  0.00     0.261 C 
BRANCH   3   4
ATOM      4  O   UNL     1       0.182   1.612   8.894  1.00  0.00    -0.460 OA
BRANCH   4   5
ATOM      5  C   UNL     1      -0.239   1.439   7.622  1.00  0.00     0.338 C 
ATOM      6  O   UNL     1      -1.067   2.104   7.019  1.00  0.00    -0.246 OA
BRANCH   5   7
ATOM      7  C   UNL     1       0.602   0.430   6.951  1.00  0.00     0.061 A 
ATOM      8  C   UNL     1       1.900  -0.160   4.963  1.00  0.00     0.107 A 
ATOM      9  C   UNL     1       1.219   0.792   5.747  1.00  0.00     0.039 A 
ATOM     10  C   UNL     1       1.857  -1.496   5.361  1.00  0.00     0.061 A 
ATOM     11  C   UNL     1       1.344  -1.828   6.630  1.00  0.00     0.023 A 
ATOM     12  Cl  UNL     1       2.216  -2.827   4.322  1.00  0.00    -0.083 Cl
ATOM     13  C   UNL     1       0.727  -0.866   7.436  1.00  0.00     0.017 A 
BRANCH   8  14
ATOM     14  S   UNL     1       2.291   0.376   3.320  1.00  0.00     0.265 S 
ATOM     15  O   UNL     1       2.363   1.827   3.370  1.00  0.00    -0.201 OA
ATOM     16  O   UNL     1       1.260  -0.287   2.567  1.00  0.00    -0.201 OA
BRANCH  14  17
ATOM     17  N   UNL     1       3.861  -0.137   2.698  1.00  0.00    -0.265 N 
BRANCH  17  18
ATOM     18  C   UNL     1       4.211   0.581   1.347  1.00  0.00     0.151 C 
BRANCH  18  19
ATOM     19  C   UNL     1       3.743  -0.084   0.038  1.00  0.00     0.143 C 
BRANCH  19  20
ATOM     20  C   UNL     1       2.223  -0.084   0.038  1.00  0.00     0.064 C 
ATOM     21  N   UNL     1       0.962  -0.084   0.038  1.00  0.00    -0.198 NA
ENDBRANCH  19  20
ENDBRANCH  18  19
ENDBRANCH  17  18
BRANCH  17  22
ATOM     22  C   UNL     1       4.939  -0.032   3.670  1.00  0.00     0.052 A 
ATOM     23  C   UNL     1       5.705   1.128   3.831  1.00  0.00     0.030 A 
ATOM     24  C   UNL     1       5.202  -1.125   4.497  1.00  0.00     0.030 A 
ATOM     25  C   UNL     1       6.723   1.179   4.790  1.00  0.00     0.041 A 
ATOM     26  C   UNL     1       6.179  -1.059   5.492  1.00  0.00     0.041 A 
ATOM     27  C   UNL     1       6.937   0.092   5.626  1.00  0.00     0.123 A 
ATOM     28  F   UNL     1       7.896   0.147   6.556  1.00  0.00    -0.207 F 
ENDBRANCH  17  22
ENDBRANCH  14  17
ENDBRANCH   8  14
ENDBRANCH   5   7
ENDBRANCH   4   5
ENDBRANCH   3   4
ENDBRANCH   2   3
ENDBRANCH   1   2
BRANCH   1  29
ATOM     29  C   UNL     1       2.259   3.576   8.172  1.00  0.00     0.188 C 
BRANCH  29  30
ATOM     30  C   UNL     1       3.159   2.371   8.523  1.00  0.00     0.188 C 
BRANCH  30  31
ATOM     31  O   UNL     1       3.445   2.042   9.867  1.00  0.00    -0.376 OA
BRANCH  31  32
ATOM     32  C   UNL     1       4.047   3.019  10.703  1.00  0.00     0.202 C 
BRANCH  32  33
ATOM     33  C   UNL     1       5.307   3.745  10.227  1.00  0.00     0.261 C 
BRANCH  33  34
ATOM     34  O   UNL     1       5.121   4.460   8.995  1.00  0.00    -0.460 OA
BRANCH  34  35
ATOM     35  C   UNL     1       5.977   4.120   8.004  1.00  0.00     0.338 C 
ATOM     36  O   UNL     1       6.883   3.306   8.039  1.00  0.00    -0.246 OA
BRANCH  35  37
ATOM     37  C   UNL     1       5.576   4.784   6.756  1.00  0.00     0.060 A 
ATOM     38  C   UNL     1       5.017   4.007   5.736  1.00  0.00     0.016 A 
ATOM     39  C   UNL     1       5.857   6.132   6.552  1.00  0.00     0.016 A 
ATOM     40  C   UNL     1       4.790   4.561   4.481  1.00  0.00     0.010 A 
ATOM     41  C   UNL     1       5.638   6.684   5.288  1.00  0.00     0.010 A 
ATOM     42  C   UNL     1       5.149   5.889   4.235  1.00  0.00    -0.014 A 
BRANCH  42  43
ATOM     43  C   UNL     1       5.148   6.414   2.852  1.00  0.00     0.031 A 
ATOM     44  C   UNL     1       6.459   6.585   2.136  1.00  0.00     0.074 A 
ATOM     45  C   UNL     1       3.996   6.729   2.236  1.00  0.00     0.049 A 
ATOM     46  N   UNL     1       6.706   7.152   0.984  1.00  0.00    -0.248 NA
ATOM     47  C   UNL     1       7.650   6.037   2.807  1.00  0.00     0.031 C 
ATOM     48  C   UNL     1       2.656   6.525   2.786  1.00  0.00     0.029 A 
ATOM     49  N   UNL     1       3.777   7.308   1.012  1.00  0.00    -0.354 N 
ATOM     50  C   UNL     1       8.081   7.059   0.806  1.00  0.00     0.074 A 
ATOM     51  C   UNL     1       8.616   6.384   1.969  1.00  0.00     0.031 C 
ATOM     52  C   UNL     1       1.753   6.998   1.911  1.00  0.00     0.029 A 
ATOM     53  C   UNL     1       2.454   7.580   0.769  1.00  0.00     0.049 A 
ATOM     54  H   UNL     1       4.497   7.509   0.372  1.00  0.00     0.167 HD
ATOM     55  C   UNL     1       8.830   7.505  -0.230  1.00  0.00     0.031 A 
ATOM     56  C   UNL     1       1.878   8.261  -0.239  1.00  0.00     0.031 A 
ATOM     57  C   UNL     1       8.297   8.187  -1.378  1.00  0.00     0.049 A 
ATOM     58  C   UNL     1       2.742   8.839  -1.327  1.00  0.00     0.074 A 
ATOM     59  C   UNL     1       8.974   8.677  -2.481  1.00  0.00     0.029 A 
ATOM     60  N   UNL     1       6.956   8.482  -1.566  1.00  0.00    -0.354 N 
ATOM     61  N   UNL     1       4.041   8.757  -1.483  1.00  0.00    -0.248 NA
ATOM     62  C   UNL     1       2.057   9.604  -2.379  1.00  0.00     0.031 C 
ATOM     63  C   UNL     1       8.047   9.313  -3.314  1.00  0.00     0.029 A 
ATOM     64  C   UNL     1       6.787   9.168  -2.756  1.00  0.00     0.049 A 
ATOM     65  H   UNL     1       6.231   8.239  -0.945  1.00  0.00     0.167 HD
ATOM     66  C   UNL     1       4.324   9.432  -2.664  1.00  0.00     0.074 A 
ATOM     67  C   UNL     1       3.062   9.912  -3.187  1.00  0.00     0.031 C 
ATOM     68  C   UNL     1       5.523   9.631  -3.265  1.00  0.00     0.031 A 
BRANCH  55  69
ATOM     69  C   UNL     1      10.316   7.311  -0.141  1.00  0.00    -0.014 A 
ATOM     70  C   UNL     1      10.902   6.047  -0.308  1.00  0.00     0.009 A 
ATOM     71  C   UNL     1      11.146   8.421   0.086  1.00  0.00     0.009 A 
ATOM     72  C   UNL     1      12.287   5.894  -0.220  1.00  0.00     0.001 A 
ATOM     73  C   UNL     1      12.532   8.268   0.148  1.00  0.00     0.001 A 
ATOM     74  C   UNL     1      13.101   7.004   0.004  1.00  0.00     0.000 A 
ENDBRANCH  55  69
BRANCH  56  75
ATOM     75  C   UNL     1       0.409   8.476  -0.245  1.00  0.00    -0.014 A 
ATOM     76  C   UNL     1      -0.403   7.832  -1.190  1.00  0.00     0.009 A 
ATOM     77  C   UNL     1      -0.187   9.341   0.687  1.00  0.00     0.009 A 
ATOM     78  C   UNL     1      -1.780   8.067  -1.215  1.00  0.00     0.001 A 
ATOM     79  C   UNL     1      -1.567   9.553   0.677  1.00  0.00     0.001 A 
ATOM     80  C   UNL     1      -2.361   8.923  -0.280  1.00  0.00     0.000 A 
ENDBRANCH  56  75
BRANCH  68  81
ATOM     81  C   UNL     1       5.524  10.354  -4.581  1.00  0.00    -0.014 A 
ATOM     82  C   UNL     1       5.323  11.741  -4.654  1.00  0.00     0.009 A 
ATOM     83  C   UNL     1       5.789   9.640  -5.761  1.00  0.00     0.009 A 
ATOM     84  C   UNL     1       5.363  12.394  -5.888  1.00  0.00     0.001 A 
ATOM     85  C   UNL     1       5.854  10.300  -6.989  1.00  0.00     0.001 A 
ATOM     86  C   UNL     1       5.634  11.674  -7.052  1.00  0.00     0.000 A 
ENDBRANCH  68  81
ENDBRANCH  42  43
ENDBRANCH  35  37
ENDBRANCH  34  35
ENDBRANCH  33  34
ENDBRANCH  32  33
ENDBRANCH  31  32
ENDBRANCH  30  31
ENDBRANCH  29  30
ENDBRANCH   1  29
TORSDOF 23
