REMARK SMILES C[C@@H](C(=O)OCCOCCOCCOC(=O)c1ccc(-c2c3nc(c(-c4ccccc4)c4ccc([nH]4)c(-c4ccccc4)c4nc(c(-c5ccccc5)c5ccc2[nH]5)C=C4)C=C3)cc1)c1ccc(-c2cccc(OC(=O)NCCC3CCCCC3)c2)c(F)c1
REMARK SMILES IDX 7 1 6 2 5 3 3 4 4 5 2 6 1 7 65 8 66 9 89 10 67 11 87 12
REMARK SMILES IDX 68 13 88 14 69 15 70 16 86 17 71 18 73 19 72 20 74 21 75 22
REMARK SMILES IDX 76 23 77 24 78 26 79 27 80 28 81 29 85 30 82 31 84 32 83 33
REMARK SMILES IDX 8 34 9 35 10 36 11 37 12 38 13 39 14 40 15 41 16 42 17 43
REMARK SMILES IDX 18 44 64 45 19 46 63 47 20 48 21 49 22 50 57 51 23 52 62 53
REMARK SMILES IDX 56 54 58 55 24 56 61 57 55 58 54 59 25 61 47 62 32 63 46 64
REMARK SMILES IDX 33 65 36 66 45 67 59 68 34 69 35 70 44 72 60 73 37 74 26 75
REMARK SMILES IDX 27 76 31 77 28 78 30 79 29 80 48 81 49 82 53 83 50 84 52 85
REMARK SMILES IDX 51 86 38 87 39 88 43 89 40 90 42 91 41 92
REMARK H PARENT 77 25 58 60 36 71
REMARK Flexibility Score: inf
ROOT
ATOM      1  C   UNL     1       2.632  -3.504  -3.098  1.00  0.00     0.202 C 
ENDROOT
BRANCH   1   2
ATOM      2  C   UNL     1       2.412  -2.058  -3.579  1.00  0.00     0.261 C 
BRANCH   2   3
ATOM      3  O   UNL     1       1.905  -1.137  -2.583  1.00  0.00    -0.463 OA
BRANCH   3   4
ATOM      4  C   UNL     1       0.902  -0.297  -2.978  1.00  0.00     0.313 C 
ATOM      5  O   UNL     1       0.427  -0.307  -4.111  1.00  0.00    -0.252 OA
BRANCH   4   6
ATOM      6  C   UNL     1       0.395   0.679  -1.889  1.00  0.00     0.126 C 
ATOM      7  C   UNL     1       1.160   0.685  -0.558  1.00  0.00     0.025 C 
BRANCH   6   8
ATOM      8  C   UNL     1      -1.118   0.603  -1.625  1.00  0.00    -0.031 A 
ATOM      9  C   UNL     1      -1.852   1.724  -1.200  1.00  0.00     0.005 A 
ATOM     10  C   UNL     1      -1.833  -0.587  -1.748  1.00  0.00     0.044 A 
ATOM     11  C   UNL     1      -3.240   1.640  -0.905  1.00  0.00     0.012 A 
ATOM     12  C   UNL     1      -3.201  -0.658  -1.445  1.00  0.00     0.131 A 
ATOM     13  C   UNL     1      -3.951   0.430  -0.996  1.00  0.00     0.018 A 
ATOM     14  F   UNL     1      -3.792  -1.835  -1.640  1.00  0.00    -0.206 F 
BRANCH  13  15
ATOM     15  C   UNL     1      -5.430   0.331  -0.794  1.00  0.00    -0.012 A 
ATOM     16  C   UNL     1      -6.262   0.848  -1.805  1.00  0.00     0.009 A 
ATOM     17  C   UNL     1      -6.066  -0.295   0.328  1.00  0.00     0.056 A 
ATOM     18  C   UNL     1      -7.655   0.764  -1.716  1.00  0.00     0.004 A 
ATOM     19  C   UNL     1      -7.478  -0.378   0.413  1.00  0.00     0.133 A 
ATOM     20  C   UNL     1      -8.260   0.155  -0.615  1.00  0.00     0.047 A 
BRANCH  19  21
ATOM     21  O   UNL     1      -8.282  -0.975   1.475  1.00  0.00    -0.410 OA
BRANCH  21  22
ATOM     22  C   UNL     1      -7.863  -1.736   2.579  1.00  0.00     0.412 C 
ATOM     23  O   UNL     1      -6.676  -1.925   2.842  1.00  0.00    -0.224 OA
ATOM     24  N   UNL     1      -8.845  -2.300   3.396  1.00  0.00    -0.321 N 
ATOM     25  H   UNL     1      -8.506  -3.052   3.934  1.00  0.00     0.167 HD
BRANCH  24  26
ATOM     26  C   UNL     1     -10.291  -2.025   3.640  1.00  0.00     0.119 C 
BRANCH  26  27
ATOM     27  C   UNL     1     -11.395  -3.242   3.979  1.00  0.00     0.025 C 
BRANCH  27  28
ATOM     28  C   UNL     1     -10.947  -4.312   5.071  1.00  0.00    -0.009 C 
ATOM     29  C   UNL     1     -10.900  -3.450   6.535  1.00  0.00     0.003 C 
ATOM     30  C   UNL     1     -10.822  -6.307   5.114  1.00  0.00     0.003 C 
ATOM     31  C   UNL     1      -9.570  -3.719   7.519  1.00  0.00     0.000 C 
ATOM     32  C   UNL     1      -9.424  -7.053   6.370  1.00  0.00     0.000 C 
ATOM     33  C   UNL     1      -8.765  -5.419   7.700  1.00  0.00     0.000 C 
ENDBRANCH  27  28
ENDBRANCH  26  27
ENDBRANCH  24  26
ENDBRANCH  21  22
ENDBRANCH  19  21
ENDBRANCH  13  15
ENDBRANCH   6   8
ENDBRANCH   4   6
ENDBRANCH   3   4
ENDBRANCH   2   3
ENDBRANCH   1   2
BRANCH   1  34
ATOM     34  O   UNL     1       1.557  -4.268  -2.569  1.00  0.00    -0.376 OA
BRANCH  34  35
ATOM     35  C   UNL     1       0.637  -3.624  -1.714  1.00  0.00     0.188 C 
BRANCH  35  36
ATOM     36  C   UNL     1       1.152  -2.935  -0.442  1.00  0.00     0.188 C 
BRANCH  36  37
ATOM     37  O   UNL     1       2.486  -3.075  -0.013  1.00  0.00    -0.376 OA
BRANCH  37  38
ATOM     38  C   UNL     1       3.028  -4.358   0.241  1.00  0.00     0.202 C 
BRANCH  38  39
ATOM     39  C   UNL     1       2.229  -5.505   0.883  1.00  0.00     0.261 C 
BRANCH  39  40
ATOM     40  O   UNL     1       0.814  -5.508   0.675  1.00  0.00    -0.460 OA
BRANCH  40  41
ATOM     41  C   UNL     1       0.068  -5.070   1.721  1.00  0.00     0.338 C 
ATOM     42  O   UNL     1       0.465  -4.684   2.805  1.00  0.00    -0.246 OA
BRANCH  41  43
ATOM     43  C   UNL     1      -1.329  -4.934   1.255  1.00  0.00     0.060 A 
ATOM     44  C   UNL     1      -1.933  -3.671   1.308  1.00  0.00     0.016 A 
ATOM     45  C   UNL     1      -2.033  -6.036   0.766  1.00  0.00     0.016 A 
ATOM     46  C   UNL     1      -3.248  -3.512   0.870  1.00  0.00     0.010 A 
ATOM     47  C   UNL     1      -3.363  -5.881   0.360  1.00  0.00     0.010 A 
ATOM     48  C   UNL     1      -3.984  -4.622   0.422  1.00  0.00    -0.014 A 
BRANCH  48  49
ATOM     49  C   UNL     1      -5.468  -4.512   0.329  1.00  0.00     0.031 A 
ATOM     50  C   UNL     1      -6.234  -4.788   1.587  1.00  0.00     0.074 A 
ATOM     51  C   UNL     1      -6.093  -4.130  -0.798  1.00  0.00     0.049 A 
ATOM     52  N   UNL     1      -7.507  -5.000   1.780  1.00  0.00    -0.248 NA
ATOM     53  C   UNL     1      -5.417  -4.957   2.788  1.00  0.00     0.031 C 
ATOM     54  C   UNL     1      -5.412  -3.846  -2.054  1.00  0.00     0.029 A 
ATOM     55  N   UNL     1      -7.416  -3.871  -1.072  1.00  0.00    -0.354 N 
ATOM     56  C   UNL     1      -7.657  -5.283   3.145  1.00  0.00     0.074 A 
ATOM     57  C   UNL     1      -6.324  -5.382   3.645  1.00  0.00     0.031 C 
ATOM     58  C   UNL     1      -6.296  -3.349  -2.935  1.00  0.00     0.029 A 
ATOM     59  C   UNL     1      -7.628  -3.375  -2.343  1.00  0.00     0.049 A 
ATOM     60  H   UNL     1      -8.142  -4.024  -0.424  1.00  0.00     0.167 HD
ATOM     61  C   UNL     1      -8.851  -5.410   3.806  1.00  0.00     0.031 A 
ATOM     62  C   UNL     1      -8.760  -2.998  -2.975  1.00  0.00     0.031 A 
ATOM     63  C   UNL     1     -10.045  -5.614   2.693  1.00  0.00     0.049 A 
ATOM     64  C   UNL     1     -10.071  -3.132  -2.269  1.00  0.00     0.074 A 
ATOM     65  C   UNL     1     -11.020  -6.613   2.424  1.00  0.00     0.029 A 
ATOM     66  N   UNL     1     -10.281  -4.756   1.585  1.00  0.00    -0.354 N 
ATOM     67  N   UNL     1     -10.270  -3.562  -1.056  1.00  0.00    -0.248 NA
ATOM     68  C   UNL     1     -11.309  -2.762  -2.981  1.00  0.00     0.031 C 
ATOM     69  C   UNL     1     -12.083  -6.059   1.696  1.00  0.00     0.029 A 
ATOM     70  C   UNL     1     -11.595  -4.927   1.100  1.00  0.00     0.049 A 
ATOM     71  H   UNL     1      -9.621  -4.130   1.209  1.00  0.00     0.167 HD
ATOM     72  C   UNL     1     -11.635  -3.534  -0.868  1.00  0.00     0.074 A 
ATOM     73  C   UNL     1     -12.234  -2.957  -2.046  1.00  0.00     0.031 C 
ATOM     74  C   UNL     1     -12.297  -4.078   0.171  1.00  0.00     0.031 A 
BRANCH  61  75
ATOM     75  C   UNL     1      -8.948  -5.352   5.699  1.00  0.00    -0.014 A 
ATOM     76  C   UNL     1      -7.445  -6.135   6.189  1.00  0.00     0.009 A 
ATOM     77  C   UNL     1     -10.463  -5.650   6.950  1.00  0.00     0.009 A 
ATOM     78  C   UNL     1      -7.420  -7.211   7.530  1.00  0.00     0.001 A 
ATOM     79  C   UNL     1     -10.304  -6.805   8.295  1.00  0.00     0.001 A 
ATOM     80  C   UNL     1      -8.775  -7.559   8.505  1.00  0.00     0.000 A 
ENDBRANCH  61  75
BRANCH  62  81
ATOM     81  C   UNL     1      -8.745  -2.520  -4.377  1.00  0.00    -0.014 A 
ATOM     82  C   UNL     1      -9.182  -1.225  -4.695  1.00  0.00     0.009 A 
ATOM     83  C   UNL     1      -8.394  -3.396  -5.413  1.00  0.00     0.009 A 
ATOM     84  C   UNL     1      -9.306  -0.830  -6.027  1.00  0.00     0.001 A 
ATOM     85  C   UNL     1      -8.482  -2.985  -6.742  1.00  0.00     0.001 A 
ATOM     86  C   UNL     1      -8.953  -1.710  -7.048  1.00  0.00     0.000 A 
ENDBRANCH  62  81
BRANCH  74  87
ATOM     87  C   UNL     1     -13.803  -3.980   0.207  1.00  0.00    -0.014 A 
ATOM     88  C   UNL     1     -14.623  -4.811  -0.580  1.00  0.00     0.009 A 
ATOM     89  C   UNL     1     -14.425  -3.070   1.075  1.00  0.00     0.009 A 
ATOM     90  C   UNL     1     -16.020  -4.737  -0.492  1.00  0.00     0.001 A 
ATOM     91  C   UNL     1     -15.822  -3.000   1.166  1.00  0.00     0.001 A 
ATOM     92  C   UNL     1     -16.619  -3.835   0.386  1.00  0.00     0.000 A 
ENDBRANCH  74  87
ENDBRANCH  48  49
ENDBRANCH  41  43
ENDBRANCH  40  41
ENDBRANCH  39  40
ENDBRANCH  38  39
ENDBRANCH  37  38
ENDBRANCH  36  37
ENDBRANCH  35  36
ENDBRANCH  34  35
ENDBRANCH   1  34
TORSDOF 24
