REMARK SMILES Cc1ccc(C(=O)OCCOCCOCCOC(=O)c2ccc(-c3c4nc(c(-c5ccccc5)c5ccc([nH]5)c(-c5ccccc5)c5nc(c(-c6ccccc6)c6ccc3[nH]6)C=C5)C=C4)cc2)cc1N1C(=O)/C(=C/c2ccc([N+](=O)[O-])cc2)SC1=S
REMARK SMILES IDX 12 1 11 2 10 3 9 4 8 5 6 6 7 7 5 8 1 9 2 10 3 11 69 12 4 13
REMARK SMILES IDX 68 14 70 15 71 16 85 17 72 18 73 19 84 20 86 21 74 22 75 23
REMARK SMILES IDX 76 24 83 25 77 26 82 27 78 28 79 29 80 30 81 31 13 32 14 33
REMARK SMILES IDX 15 34 16 35 17 36 18 37 19 38 20 39 21 40 67 41 22 42 66 43
REMARK SMILES IDX 23 44 24 45 25 46 60 47 26 48 65 49 59 50 61 51 27 52 64 53
REMARK SMILES IDX 58 54 57 55 28 57 50 58 35 59 49 60 36 61 39 62 48 63 62 64
REMARK SMILES IDX 37 65 38 66 47 68 63 69 40 70 29 71 30 72 34 73 31 74 33 75
REMARK SMILES IDX 32 76 51 77 52 78 56 79 53 80 55 81 54 82 41 83 42 84 46 85
REMARK SMILES IDX 43 86 45 87 44 88
REMARK H PARENT 61 56 39 67
REMARK Flexibility Score: inf
ROOT
ATOM      1  C   UNL     1      -6.880  -0.192  -2.256  1.00  0.00     0.188 C 
ENDROOT
BRANCH   1   2
ATOM      2  O   UNL     1      -6.114   0.553  -1.297  1.00  0.00    -0.376 OA
BRANCH   2   3
ATOM      3  C   UNL     1      -6.361   1.957  -1.249  1.00  0.00     0.202 C 
BRANCH   3   4
ATOM      4  C   UNL     1      -5.310   2.783  -0.428  1.00  0.00     0.261 C 
BRANCH   4   5
ATOM      5  O   UNL     1      -3.892   2.383  -0.569  1.00  0.00    -0.460 OA
BRANCH   5   6
ATOM      6  C   UNL     1      -2.754   3.045  -0.969  1.00  0.00     0.338 C 
ATOM      7  O   UNL     1      -2.769   4.184  -1.404  1.00  0.00    -0.246 OA
BRANCH   6   8
ATOM      8  C   UNL     1      -1.355   2.202  -0.731  1.00  0.00     0.062 A 
ATOM      9  C   UNL     1       2.510   0.090  -0.330  1.00  0.00     0.046 C 
ATOM     10  C   UNL     1       1.218   0.837  -0.476  1.00  0.00    -0.027 A 
ATOM     11  C   UNL     1       0.131   0.344   0.173  1.00  0.00     0.006 A 
ATOM     12  C   UNL     1       1.037   2.064  -1.141  1.00  0.00     0.054 A 
ATOM     13  C   UNL     1      -1.068   1.050   0.069  1.00  0.00     0.016 A 
ATOM     14  C   UNL     1      -0.227   2.714  -1.309  1.00  0.00     0.042 A 
BRANCH  12  15
ATOM     15  N   UNL     1       2.145   2.904  -1.284  1.00  0.00    -0.261 N 
ATOM     16  C   UNL     1       2.706   3.337  -0.085  1.00  0.00     0.270 C 
ATOM     17  C   UNL     1       2.414   3.626  -2.429  1.00  0.00     0.152 C 
ATOM     18  O   UNL     1       2.617   2.847   1.034  1.00  0.00    -0.268 OA
ATOM     19  C   UNL     1       3.316   4.644  -0.328  1.00  0.00     0.081 C 
ATOM     20  S   UNL     1       3.495   4.944  -2.011  1.00  0.00    -0.054 SA
ATOM     21  S   UNL     1       1.855   3.358  -3.981  1.00  0.00    -0.051 S 
ATOM     22  C   UNL     1       3.474   5.475   0.704  1.00  0.00     0.029 C 
BRANCH  22  23
ATOM     23  C   UNL     1       3.984   6.812   0.509  1.00  0.00    -0.024 A 
ATOM     24  C   UNL     1       3.112   7.895   0.366  1.00  0.00     0.015 A 
ATOM     25  C   UNL     1       5.363   6.960   0.346  1.00  0.00     0.015 A 
ATOM     26  C   UNL     1       3.632   9.150   0.062  1.00  0.00     0.086 A 
ATOM     27  C   UNL     1       5.886   8.206   0.036  1.00  0.00     0.086 A 
ATOM     28  C   UNL     1       5.018   9.297  -0.098  1.00  0.00     0.269 A 
BRANCH  28  29
ATOM     29  N   UNL     1       5.577  10.614  -0.409  1.00  0.00     0.062 N 
ATOM     30  O   UNL     1       4.790  11.567  -0.496  1.00  0.00    -0.258 OA
ATOM     31  O   UNL     1       6.804  10.696  -0.560  1.00  0.00    -0.258 OA
ENDBRANCH  28  29
ENDBRANCH  22  23
ENDBRANCH  12  15
ENDBRANCH   6   8
ENDBRANCH   5   6
ENDBRANCH   4   5
ENDBRANCH   3   4
ENDBRANCH   2   3
ENDBRANCH   1   2
BRANCH   1  32
ATOM     32  C   UNL     1      -6.217  -0.156  -3.631  1.00  0.00     0.188 C 
BRANCH  32  33
ATOM     33  O   UNL     1      -6.356   1.130  -4.206  1.00  0.00    -0.376 OA
BRANCH  33  34
ATOM     34  C   UNL     1      -5.654   1.408  -5.418  1.00  0.00     0.202 C 
BRANCH  34  35
ATOM     35  C   UNL     1      -4.875   0.290  -6.149  1.00  0.00     0.261 C 
BRANCH  35  36
ATOM     36  O   UNL     1      -3.641   0.009  -5.454  1.00  0.00    -0.460 OA
BRANCH  36  37
ATOM     37  C   UNL     1      -3.331  -1.280  -5.080  1.00  0.00     0.338 C 
ATOM     38  O   UNL     1      -3.736  -2.285  -5.597  1.00  0.00    -0.246 OA
BRANCH  37  39
ATOM     39  C   UNL     1      -2.696  -1.185  -3.704  1.00  0.00     0.060 A 
ATOM     40  C   UNL     1      -2.914  -2.151  -2.717  1.00  0.00     0.016 A 
ATOM     41  C   UNL     1      -2.417   0.071  -3.263  1.00  0.00     0.016 A 
ATOM     42  C   UNL     1      -3.058  -1.774  -1.331  1.00  0.00     0.010 A 
ATOM     43  C   UNL     1      -2.998   0.390  -2.033  1.00  0.00     0.010 A 
ATOM     44  C   UNL     1      -3.242  -0.441  -0.918  1.00  0.00    -0.014 A 
BRANCH  44  45
ATOM     45  C   UNL     1      -3.893   0.009   0.535  1.00  0.00     0.031 A 
ATOM     46  C   UNL     1      -3.511   1.134   1.765  1.00  0.00     0.074 A 
ATOM     47  C   UNL     1      -4.952  -0.740   0.900  1.00  0.00     0.049 A 
ATOM     48  N   UNL     1      -3.729   0.912   3.053  1.00  0.00    -0.248 NA
ATOM     49  C   UNL     1      -2.762   2.447   1.742  1.00  0.00     0.031 C 
ATOM     50  C   UNL     1      -5.935  -0.472   1.934  1.00  0.00     0.029 A 
ATOM     51  N   UNL     1      -5.294  -1.997   0.429  1.00  0.00    -0.354 N 
ATOM     52  C   UNL     1      -3.425   2.104   3.733  1.00  0.00     0.074 A 
ATOM     53  C   UNL     1      -2.438   2.748   2.987  1.00  0.00     0.031 C 
ATOM     54  C   UNL     1      -6.618  -1.602   2.176  1.00  0.00     0.029 A 
ATOM     55  C   UNL     1      -5.984  -2.672   1.425  1.00  0.00     0.049 A 
ATOM     56  H   UNL     1      -5.083  -2.352  -0.465  1.00  0.00     0.167 HD
ATOM     57  C   UNL     1      -4.271   2.707   4.616  1.00  0.00     0.031 A 
ATOM     58  C   UNL     1      -5.466  -3.827   1.938  1.00  0.00     0.031 A 
ATOM     59  C   UNL     1      -5.121   1.710   5.194  1.00  0.00     0.049 A 
ATOM     60  C   UNL     1      -5.155  -3.710   3.416  1.00  0.00     0.074 A 
ATOM     61  C   UNL     1      -6.460   1.399   5.111  1.00  0.00     0.029 A 
ATOM     62  N   UNL     1      -4.478   0.622   5.748  1.00  0.00    -0.354 N 
ATOM     63  N   UNL     1      -5.181  -2.576   4.063  1.00  0.00    -0.248 NA
ATOM     64  C   UNL     1      -4.799  -4.821   4.296  1.00  0.00     0.031 C 
ATOM     65  C   UNL     1      -6.577   0.019   5.460  1.00  0.00     0.029 A 
ATOM     66  C   UNL     1      -5.324  -0.456   5.814  1.00  0.00     0.049 A 
ATOM     67  H   UNL     1      -3.543   0.620   6.054  1.00  0.00     0.167 HD
ATOM     68  C   UNL     1      -4.843  -2.765   5.370  1.00  0.00     0.074 A 
ATOM     69  C   UNL     1      -4.613  -4.191   5.473  1.00  0.00     0.031 C 
ATOM     70  C   UNL     1      -4.752  -1.722   6.243  1.00  0.00     0.031 A 
BRANCH  57  71
ATOM     71  C   UNL     1      -4.432   4.226   4.795  1.00  0.00    -0.014 A 
ATOM     72  C   UNL     1      -5.346   4.710   5.747  1.00  0.00     0.009 A 
ATOM     73  C   UNL     1      -3.833   5.232   3.994  1.00  0.00     0.009 A 
ATOM     74  C   UNL     1      -5.637   6.082   5.887  1.00  0.00     0.001 A 
ATOM     75  C   UNL     1      -4.087   6.607   4.153  1.00  0.00     0.001 A 
ATOM     76  C   UNL     1      -5.002   7.033   5.097  1.00  0.00     0.000 A 
ENDBRANCH  57  71
BRANCH  58  77
ATOM     77  C   UNL     1      -4.803  -4.690   0.905  1.00  0.00    -0.014 A 
ATOM     78  C   UNL     1      -5.609  -5.093  -0.189  1.00  0.00     0.009 A 
ATOM     79  C   UNL     1      -3.413  -4.823   0.765  1.00  0.00     0.009 A 
ATOM     80  C   UNL     1      -5.055  -5.495  -1.409  1.00  0.00     0.001 A 
ATOM     81  C   UNL     1      -2.857  -5.258  -0.457  1.00  0.00     0.001 A 
ATOM     82  C   UNL     1      -3.675  -5.564  -1.548  1.00  0.00     0.000 A 
ENDBRANCH  58  77
BRANCH  70  83
ATOM     83  C   UNL     1      -4.016  -1.744   7.560  1.00  0.00    -0.014 A 
ATOM     84  C   UNL     1      -2.953  -2.613   7.832  1.00  0.00     0.009 A 
ATOM     85  C   UNL     1      -4.231  -0.687   8.477  1.00  0.00     0.009 A 
ATOM     86  C   UNL     1      -2.156  -2.443   8.972  1.00  0.00     0.001 A 
ATOM     87  C   UNL     1      -3.400  -0.479   9.578  1.00  0.00     0.001 A 
ATOM     88  C   UNL     1      -2.366  -1.367   9.831  1.00  0.00     0.000 A 
ENDBRANCH  70  83
ENDBRANCH  44  45
ENDBRANCH  37  39
ENDBRANCH  36  37
ENDBRANCH  35  36
ENDBRANCH  34  35
ENDBRANCH  33  34
ENDBRANCH  32  33
ENDBRANCH   1  32
TORSDOF 20
