REMARK SMILES Cc1nsc(N[C@@H](C)C2CCCC2)c1C(=O)OCCOCCOCCOC(=O)c1ccc(-c2c3nc(c(-c4ccccc4)c4ccc([nH]4)c(-c4ccccc4)c4nc(c(-c5ccccc5)c5ccc2[nH]5)C=C4)C=C3)cc1
REMARK SMILES IDX 21 1 20 2 19 3 18 4 17 5 15 6 16 7 14 8 1 9 2 10 3 11 4 12
REMARK SMILES IDX 5 13 6 14 7 16 8 17 9 18 10 19 13 20 11 21 12 22 22 23 23 24
REMARK SMILES IDX 24 25 25 26 26 27 27 28 28 29 29 30 30 31 76 32 31 33 75 34
REMARK SMILES IDX 32 35 33 36 34 37 69 38 35 39 74 40 68 41 70 42 36 43 73 44
REMARK SMILES IDX 67 45 66 46 37 48 59 49 44 50 58 51 45 52 48 53 57 54 71 55
REMARK SMILES IDX 46 56 47 57 56 59 72 60 49 61 38 62 39 63 43 64 40 65 42 66
REMARK SMILES IDX 41 67 60 68 61 69 65 70 62 71 64 72 63 73 50 74 51 75 55 76
REMARK SMILES IDX 52 77 54 78 53 79
REMARK H PARENT 6 15 70 47 48 58
REMARK Flexibility Score: inf
ROOT
ATOM      1  C   UNL     1      -0.841   4.125   1.213  1.00  0.00     0.188 C 
ENDROOT
BRANCH   1   2
ATOM      2  O   UNL     1      -0.249   5.217   0.551  1.00  0.00    -0.376 OA
BRANCH   2   3
ATOM      3  C   UNL     1       1.062   5.136   0.017  1.00  0.00     0.202 C 
BRANCH   3   4
ATOM      4  C   UNL     1       2.094   4.019   0.296  1.00  0.00     0.261 C 
BRANCH   4   5
ATOM      5  O   UNL     1       1.599   2.736   0.685  1.00  0.00    -0.460 OA
BRANCH   5   6
ATOM      6  C   UNL     1       1.744   2.416   2.006  1.00  0.00     0.343 C 
ATOM      7  O   UNL     1       2.338   3.119   2.814  1.00  0.00    -0.246 OA
BRANCH   6   8
ATOM      8  C   UNL     1       0.952   1.256   2.395  1.00  0.00     0.117 A 
ATOM      9  C   UNL     1       1.211  -0.235   0.252  1.00  0.00     0.069 C 
ATOM     10  C   UNL     1       0.720   0.054   1.631  1.00  0.00     0.068 A 
ATOM     11  N   UNL     1      -0.030  -0.874   2.223  1.00  0.00    -0.195 NA
ATOM     12  S   UNL     1      -0.547  -0.305   3.680  1.00  0.00    -0.018 S 
ATOM     13  C   UNL     1       0.195   1.243   3.569  1.00  0.00     0.124 A 
BRANCH  13  14
ATOM     14  N   UNL     1       0.020   2.287   4.433  1.00  0.00    -0.372 N 
ATOM     15  H   UNL     1       0.312   3.177   4.129  1.00  0.00     0.161 HD
BRANCH  14  16
ATOM     16  C   UNL     1      -0.561   2.197   5.767  1.00  0.00     0.080 C 
ATOM     17  C   UNL     1       0.440   2.836   6.739  1.00  0.00     0.031 C 
BRANCH  16  18
ATOM     18  C   UNL     1      -1.933   2.890   5.881  1.00  0.00     0.011 C 
ATOM     19  C   UNL     1      -2.032   4.344   5.411  1.00  0.00     0.006 C 
ATOM     20  C   UNL     1      -3.073   2.236   5.100  1.00  0.00     0.006 C 
ATOM     21  C   UNL     1      -3.538   4.614   5.349  1.00  0.00     0.000 C 
ATOM     22  C   UNL     1      -4.211   3.244   5.243  1.00  0.00     0.000 C 
ENDBRANCH  16  18
ENDBRANCH  14  16
ENDBRANCH  13  14
ENDBRANCH   6   8
ENDBRANCH   5   6
ENDBRANCH   4   5
ENDBRANCH   3   4
ENDBRANCH   2   3
ENDBRANCH   1   2
BRANCH   1  23
ATOM     23  C   UNL     1      -1.345   2.924   0.388  1.00  0.00     0.188 C 
BRANCH  23  24
ATOM     24  O   UNL     1      -0.768   2.587  -0.855  1.00  0.00    -0.376 OA
BRANCH  24  25
ATOM     25  C   UNL     1      -0.869   3.378  -2.027  1.00  0.00     0.202 C 
BRANCH  25  26
ATOM     26  C   UNL     1      -1.957   4.413  -2.324  1.00  0.00     0.261 C 
BRANCH  26  27
ATOM     27  O   UNL     1      -2.555   5.003  -1.190  1.00  0.00    -0.460 OA
BRANCH  27  28
ATOM     28  C   UNL     1      -3.696   4.385  -0.826  1.00  0.00     0.338 C 
ATOM     29  O   UNL     1      -4.209   3.407  -1.336  1.00  0.00    -0.246 OA
BRANCH  28  30
ATOM     30  C   UNL     1      -4.244   5.055   0.355  1.00  0.00     0.060 A 
ATOM     31  C   UNL     1      -5.136   4.311   1.133  1.00  0.00     0.016 A 
ATOM     32  C   UNL     1      -4.098   6.440   0.484  1.00  0.00     0.016 A 
ATOM     33  C   UNL     1      -6.097   4.990   1.839  1.00  0.00     0.010 A 
ATOM     34  C   UNL     1      -5.064   7.121   1.183  1.00  0.00     0.010 A 
ATOM     35  C   UNL     1      -6.116   6.380   1.728  1.00  0.00    -0.014 A 
BRANCH  35  36
ATOM     36  C   UNL     1      -7.393   7.029   1.941  1.00  0.00     0.031 A 
ATOM     37  C   UNL     1      -7.719   7.404   3.327  1.00  0.00     0.074 A 
ATOM     38  C   UNL     1      -8.148   7.336   0.866  1.00  0.00     0.049 A 
ATOM     39  N   UNL     1      -8.793   7.134   3.990  1.00  0.00    -0.248 NA
ATOM     40  C   UNL     1      -6.688   8.112   4.099  1.00  0.00     0.031 C 
ATOM     41  C   UNL     1      -7.769   7.235  -0.552  1.00  0.00     0.029 A 
ATOM     42  N   UNL     1      -9.357   7.957   0.815  1.00  0.00    -0.354 N 
ATOM     43  C   UNL     1      -8.645   7.762   5.221  1.00  0.00     0.074 A 
ATOM     44  C   UNL     1      -7.290   8.247   5.279  1.00  0.00     0.031 C 
ATOM     45  C   UNL     1      -8.592   8.014  -1.283  1.00  0.00     0.029 A 
ATOM     46  C   UNL     1      -9.607   8.569  -0.405  1.00  0.00     0.049 A 
ATOM     47  H   UNL     1      -9.990   7.970   1.568  1.00  0.00     0.167 HD
ATOM     48  C   UNL     1      -9.706   8.021   6.030  1.00  0.00     0.031 A 
ATOM     49  C   UNL     1     -10.502   9.559  -0.641  1.00  0.00     0.031 A 
ATOM     50  C   UNL     1     -10.853   7.222   5.700  1.00  0.00     0.049 A 
ATOM     51  C   UNL     1     -11.466   9.576   0.486  1.00  0.00     0.074 A 
ATOM     52  C   UNL     1     -11.113   5.867   5.685  1.00  0.00     0.029 A 
ATOM     53  N   UNL     1     -11.863   7.812   4.979  1.00  0.00    -0.354 N 
ATOM     54  N   UNL     1     -12.335   8.631   0.707  1.00  0.00    -0.248 NA
ATOM     55  C   UNL     1     -11.169  10.425   1.631  1.00  0.00     0.031 C 
ATOM     56  C   UNL     1     -11.991   5.670   4.583  1.00  0.00     0.029 A 
ATOM     57  C   UNL     1     -12.240   6.919   4.010  1.00  0.00     0.049 A 
ATOM     58  H   UNL     1     -12.243   8.708   5.130  1.00  0.00     0.167 HD
ATOM     59  C   UNL     1     -12.370   8.494   2.088  1.00  0.00     0.074 A 
ATOM     60  C   UNL     1     -11.720   9.695   2.606  1.00  0.00     0.031 C 
ATOM     61  C   UNL     1     -12.654   7.293   2.675  1.00  0.00     0.031 A 
BRANCH  48  62
ATOM     62  C   UNL     1      -9.800   9.254   6.884  1.00  0.00    -0.014 A 
ATOM     63  C   UNL     1     -10.896   9.396   7.752  1.00  0.00     0.009 A 
ATOM     64  C   UNL     1      -9.007  10.398   6.668  1.00  0.00     0.009 A 
ATOM     65  C   UNL     1     -11.217  10.634   8.318  1.00  0.00     0.001 A 
ATOM     66  C   UNL     1      -9.299  11.625   7.267  1.00  0.00     0.001 A 
ATOM     67  C   UNL     1     -10.422  11.749   8.070  1.00  0.00     0.000 A 
ENDBRANCH  48  62
BRANCH  49  68
ATOM     68  C   UNL     1     -10.358  10.668  -1.611  1.00  0.00    -0.014 A 
ATOM     69  C   UNL     1     -11.460  11.445  -1.992  1.00  0.00     0.009 A 
ATOM     70  C   UNL     1      -9.081  11.109  -2.013  1.00  0.00     0.009 A 
ATOM     71  C   UNL     1     -11.286  12.622  -2.736  1.00  0.00     0.001 A 
ATOM     72  C   UNL     1      -8.907  12.274  -2.764  1.00  0.00     0.001 A 
ATOM     73  C   UNL     1     -10.011  13.038  -3.117  1.00  0.00     0.000 A 
ENDBRANCH  49  68
BRANCH  61  74
ATOM     74  C   UNL     1     -13.135   6.165   1.796  1.00  0.00    -0.014 A 
ATOM     75  C   UNL     1     -12.346   5.631   0.762  1.00  0.00     0.009 A 
ATOM     76  C   UNL     1     -14.317   5.495   2.144  1.00  0.00     0.009 A 
ATOM     77  C   UNL     1     -12.739   4.474   0.083  1.00  0.00     0.001 A 
ATOM     78  C   UNL     1     -14.700   4.327   1.479  1.00  0.00     0.001 A 
ATOM     79  C   UNL     1     -13.913   3.819   0.448  1.00  0.00     0.000 A 
ENDBRANCH  61  74
ENDBRANCH  35  36
ENDBRANCH  28  30
ENDBRANCH  27  28
ENDBRANCH  26  27
ENDBRANCH  25  26
ENDBRANCH  24  25
ENDBRANCH  23  24
ENDBRANCH   1  23
TORSDOF 20
