REMARK SMILES C[C@H](Oc1ccc(/C=C2\SC(=S)N(N)C2=O)cc1)C(=O)OCCOCCOCCOC(=O)c1ccc(-c2c3nc(c(-c4ccccc4)c4ccc([nH]4)c(-c4ccccc4)c4nc(c(-c5ccccc5)c5ccc2[nH]5)C=C4)C=C3)cc1
REMARK SMILES IDX 25 1 24 2 23 3 22 4 21 5 19 6 20 7 2 8 1 9 3 10 4 11 5 12
REMARK SMILES IDX 18 13 6 14 17 15 7 16 8 17 9 18 10 19 15 20 11 21 13 22
REMARK SMILES IDX 16 23 12 24 14 25 26 28 27 29 28 30 29 31 30 32 31 33 32 34
REMARK SMILES IDX 33 35 34 36 80 37 35 38 79 39 36 40 37 41 38 42 73 43 39 44
REMARK SMILES IDX 78 45 72 46 74 47 40 48 77 49 71 50 70 51 41 53 63 54 48 55
REMARK SMILES IDX 62 56 49 57 52 58 61 59 75 60 50 61 51 62 60 64 76 65 53 66
REMARK SMILES IDX 42 67 43 68 47 69 44 70 46 71 45 72 64 73 65 74 69 75 66 76
REMARK SMILES IDX 68 77 67 78 54 79 55 80 59 81 56 82 58 83 57 84
REMARK H PARENT 14 26 14 27 74 52 52 63
REMARK Flexibility Score: inf
ROOT
ATOM      1  C   UNL     1      -2.052  -0.873   1.545  1.00  0.00     0.188 C 
ENDROOT
BRANCH   1   2
ATOM      2  O   UNL     1      -3.418  -0.482   1.601  1.00  0.00    -0.376 OA
BRANCH   2   3
ATOM      3  C   UNL     1      -3.890   0.551   0.740  1.00  0.00     0.202 C 
BRANCH   3   4
ATOM      4  C   UNL     1      -3.110   1.872   0.617  1.00  0.00     0.261 C 
BRANCH   4   5
ATOM      5  O   UNL     1      -1.717   1.734   0.272  1.00  0.00    -0.461 OA
BRANCH   5   6
ATOM      6  C   UNL     1      -0.835   2.149   1.214  1.00  0.00     0.347 C 
ATOM      7  O   UNL     1      -1.155   2.662   2.284  1.00  0.00    -0.248 OA
BRANCH   6   8
ATOM      8  C   UNL     1       0.644   1.899   0.863  1.00  0.00     0.279 C 
ATOM      9  C   UNL     1       1.285   3.286   0.750  1.00  0.00     0.066 C 
BRANCH   8  10
ATOM     10  O   UNL     1       0.997   1.081  -0.257  1.00  0.00    -0.479 OA
BRANCH  10  11
ATOM     11  C   UNL     1       2.300   0.630  -0.309  1.00  0.00     0.120 A 
ATOM     12  C   UNL     1       3.249   0.831   0.690  1.00  0.00     0.047 A 
ATOM     13  C   UNL     1       2.710  -0.017  -1.477  1.00  0.00     0.047 A 
ATOM     14  C   UNL     1       4.597   0.560   0.461  1.00  0.00     0.012 A 
ATOM     15  C   UNL     1       4.079  -0.253  -1.720  1.00  0.00     0.012 A 
ATOM     16  C   UNL     1       5.050   0.147  -0.790  1.00  0.00    -0.024 A 
BRANCH  16  17
ATOM     17  C   UNL     1       6.487   0.186  -1.161  1.00  0.00     0.029 C 
ATOM     18  C   UNL     1       7.416   1.071  -0.745  1.00  0.00     0.082 C 
ATOM     19  S   UNL     1       7.221   2.376   0.378  1.00  0.00    -0.053 SA
ATOM     20  C   UNL     1       8.802   1.117  -1.313  1.00  0.00     0.280 C 
ATOM     21  C   UNL     1       8.790   3.070   0.053  1.00  0.00     0.162 C 
ATOM     22  N   UNL     1       9.455   2.261  -0.849  1.00  0.00    -0.226 N 
ATOM     23  O   UNL     1       9.271   0.269  -2.061  1.00  0.00    -0.267 OA
ATOM     24  S   UNL     1       9.332   4.477   0.767  1.00  0.00    -0.050 S 
BRANCH  22  25
ATOM     25  N   UNL     1      10.747   2.594  -1.344  1.00  0.00    -0.239 NA
ATOM     26  H   UNL     1      11.070   3.453  -0.900  1.00  0.00     0.144 HD
ATOM     27  H   UNL     1      10.699   2.729  -2.354  1.00  0.00     0.144 HD
ENDBRANCH  22  25
ENDBRANCH  16  17
ENDBRANCH  10  11
ENDBRANCH   8  10
ENDBRANCH   6   8
ENDBRANCH   5   6
ENDBRANCH   4   5
ENDBRANCH   3   4
ENDBRANCH   2   3
ENDBRANCH   1   2
BRANCH   1  28
ATOM     28  C   UNL     1      -1.395  -1.146   0.179  1.00  0.00     0.188 C 
BRANCH  28  29
ATOM     29  O   UNL     1      -2.180  -0.763  -0.924  1.00  0.00    -0.376 OA
BRANCH  29  30
ATOM     30  C   UNL     1      -2.779  -1.780  -1.708  1.00  0.00     0.202 C 
BRANCH  30  31
ATOM     31  C   UNL     1      -3.437  -3.023  -1.071  1.00  0.00     0.261 C 
BRANCH  31  32
ATOM     32  O   UNL     1      -2.898  -3.507   0.171  1.00  0.00    -0.460 OA
BRANCH  32  33
ATOM     33  C   UNL     1      -1.855  -4.363   0.097  1.00  0.00     0.338 C 
ATOM     34  O   UNL     1      -1.310  -4.773  -0.919  1.00  0.00    -0.246 OA
BRANCH  33  35
ATOM     35  C   UNL     1      -1.321  -4.574   1.460  1.00  0.00     0.060 A 
ATOM     36  C   UNL     1      -0.034  -4.105   1.760  1.00  0.00     0.016 A 
ATOM     37  C   UNL     1      -2.065  -5.252   2.428  1.00  0.00     0.016 A 
ATOM     38  C   UNL     1       0.525  -4.344   3.016  1.00  0.00     0.010 A 
ATOM     39  C   UNL     1      -1.493  -5.511   3.681  1.00  0.00     0.010 A 
ATOM     40  C   UNL     1      -0.182  -5.089   3.969  1.00  0.00    -0.014 A 
BRANCH  40  41
ATOM     41  C   UNL     1       0.524  -5.569   5.185  1.00  0.00     0.031 A 
ATOM     42  C   UNL     1       1.039  -6.984   5.214  1.00  0.00     0.074 A 
ATOM     43  C   UNL     1       0.761  -4.751   6.226  1.00  0.00     0.049 A 
ATOM     44  N   UNL     1       1.696  -7.612   6.157  1.00  0.00    -0.248 NA
ATOM     45  C   UNL     1       0.780  -7.801   4.016  1.00  0.00     0.031 C 
ATOM     46  C   UNL     1       0.354  -3.350   6.314  1.00  0.00     0.029 A 
ATOM     47  N   UNL     1       1.409  -4.989   7.414  1.00  0.00    -0.354 N 
ATOM     48  C   UNL     1       1.933  -8.890   5.665  1.00  0.00     0.074 A 
ATOM     49  C   UNL     1       1.310  -8.964   4.361  1.00  0.00     0.031 C 
ATOM     50  C   UNL     1       0.757  -2.853   7.497  1.00  0.00     0.029 A 
ATOM     51  C   UNL     1       1.423  -3.907   8.260  1.00  0.00     0.049 A 
ATOM     52  H   UNL     1       1.823  -5.853   7.638  1.00  0.00     0.167 HD
ATOM     53  C   UNL     1       2.618  -9.909   6.237  1.00  0.00     0.031 A 
ATOM     54  C   UNL     1       1.902  -3.785   9.514  1.00  0.00     0.031 A 
ATOM     55  C   UNL     1       3.216  -9.852   7.545  1.00  0.00     0.049 A 
ATOM     56  C   UNL     1       2.586  -4.962  10.164  1.00  0.00     0.074 A 
ATOM     57  C   UNL     1       3.924 -10.836   8.213  1.00  0.00     0.029 A 
ATOM     58  N   UNL     1       3.172  -8.751   8.386  1.00  0.00    -0.354 N 
ATOM     59  N   UNL     1       2.824  -6.156   9.678  1.00  0.00    -0.248 NA
ATOM     60  C   UNL     1       3.082  -4.763  11.534  1.00  0.00     0.031 C 
ATOM     61  C   UNL     1       4.257 -10.351   9.482  1.00  0.00     0.029 A 
ATOM     62  C   UNL     1       3.820  -9.040   9.576  1.00  0.00     0.049 A 
ATOM     63  H   UNL     1       2.742  -7.892   8.170  1.00  0.00     0.167 HD
ATOM     64  C   UNL     1       3.521  -6.838  10.669  1.00  0.00     0.074 A 
ATOM     65  C   UNL     1       3.692  -5.915  11.771  1.00  0.00     0.031 C 
ATOM     66  C   UNL     1       3.980  -8.115  10.669  1.00  0.00     0.031 A 
BRANCH  53  67
ATOM     67  C   UNL     1       2.736 -11.188   5.454  1.00  0.00    -0.014 A 
ATOM     68  C   UNL     1       3.533 -11.263   4.300  1.00  0.00     0.009 A 
ATOM     69  C   UNL     1       2.071 -12.343   5.894  1.00  0.00     0.009 A 
ATOM     70  C   UNL     1       3.635 -12.460   3.587  1.00  0.00     0.001 A 
ATOM     71  C   UNL     1       2.200 -13.546   5.197  1.00  0.00     0.001 A 
ATOM     72  C   UNL     1       2.974 -13.601   4.039  1.00  0.00     0.000 A 
ENDBRANCH  53  67
BRANCH  54  73
ATOM     73  C   UNL     1       1.731  -2.510  10.263  1.00  0.00    -0.014 A 
ATOM     74  C   UNL     1       2.839  -1.726  10.622  1.00  0.00     0.009 A 
ATOM     75  C   UNL     1       0.451  -2.094  10.664  1.00  0.00     0.009 A 
ATOM     76  C   UNL     1       2.671  -0.575  11.397  1.00  0.00     0.001 A 
ATOM     77  C   UNL     1       0.283  -0.924  11.407  1.00  0.00     0.001 A 
ATOM     78  C   UNL     1       1.394  -0.173  11.785  1.00  0.00     0.000 A 
ENDBRANCH  54  73
BRANCH  66  79
ATOM     79  C   UNL     1       4.746  -8.572  11.882  1.00  0.00    -0.014 A 
ATOM     80  C   UNL     1       4.118  -8.753  13.125  1.00  0.00     0.009 A 
ATOM     81  C   UNL     1       6.120  -8.841  11.774  1.00  0.00     0.009 A 
ATOM     82  C   UNL     1       4.859  -9.141  14.243  1.00  0.00     0.001 A 
ATOM     83  C   UNL     1       6.852  -9.264  12.885  1.00  0.00     0.001 A 
ATOM     84  C   UNL     1       6.224  -9.399  14.121  1.00  0.00     0.000 A 
ENDBRANCH  66  79
ENDBRANCH  40  41
ENDBRANCH  33  35
ENDBRANCH  32  33
ENDBRANCH  31  32
ENDBRANCH  30  31
ENDBRANCH  29  30
ENDBRANCH  28  29
ENDBRANCH   1  28
TORSDOF 21
