REMARK SMILES CN(CC(N)=O)S(=O)(=O)c1ccc(C(=O)OCCOCCOCCOC(=O)c2ccc(-c3c4nc(c(-c5ccccc5)c5ccc([nH]5)c(-c5ccccc5)c5nc(c(-c6ccccc6)c6ccc3[nH]6)C=C5)C=C4)cc2)cc1Br
REMARK SMILES IDX 20 1 19 2 18 3 17 4 16 5 14 6 15 7 13 8 10 9 11 10 77 11
REMARK SMILES IDX 12 12 76 13 78 14 7 15 8 16 9 17 2 18 1 19 3 20 4 21 5 22
REMARK SMILES IDX 6 23 21 26 22 27 23 28 24 29 25 30 26 31 27 32 28 33 29 34
REMARK SMILES IDX 75 35 30 36 74 37 31 38 32 39 33 40 68 41 34 42 73 43 67 44
REMARK SMILES IDX 69 45 35 46 72 47 66 48 65 49 36 51 58 52 43 53 57 54 44 55
REMARK SMILES IDX 47 56 56 57 70 58 45 59 46 60 55 62 71 63 48 64 37 65 38 66
REMARK SMILES IDX 42 67 39 68 41 69 40 70 59 71 60 72 64 73 61 74 63 75 62 76
REMARK SMILES IDX 49 77 50 78 54 79 51 80 53 81 52 82
REMARK H PARENT 5 24 5 25 69 50 47 61
REMARK Flexibility Score: inf
ROOT
ATOM      1  C   UNL     1      -1.420  -9.081   2.982  1.00  0.00     0.188 C 
ENDROOT
BRANCH   1   2
ATOM      2  O   UNL     1      -1.498  -9.950   4.094  1.00  0.00    -0.376 OA
BRANCH   2   3
ATOM      3  C   UNL     1      -1.468  -9.437   5.415  1.00  0.00     0.202 C 
BRANCH   3   4
ATOM      4  C   UNL     1      -0.402  -8.431   5.850  1.00  0.00     0.261 C 
BRANCH   4   5
ATOM      5  O   UNL     1      -0.319  -7.264   5.019  1.00  0.00    -0.460 OA
BRANCH   5   6
ATOM      6  C   UNL     1       0.872  -7.102   4.395  1.00  0.00     0.338 C 
ATOM      7  O   UNL     1       1.851  -7.824   4.469  1.00  0.00    -0.246 OA
BRANCH   6   8
ATOM      8  C   UNL     1       0.790  -5.990   3.431  1.00  0.00     0.061 A 
ATOM      9  C   UNL     1       0.869  -3.885   1.582  1.00  0.00     0.096 A 
ATOM     10  C   UNL     1       1.205  -5.202   1.199  1.00  0.00     0.024 A 
ATOM     11  C   UNL     1       0.477  -3.633   2.901  1.00  0.00     0.038 A 
ATOM     12  C   UNL     1       1.192  -6.242   2.122  1.00  0.00     0.017 A 
ATOM     13  C   UNL     1       0.401  -4.704   3.815  1.00  0.00     0.032 A 
ATOM     14  Br  UNL     1       0.134  -1.929   3.658  1.00  0.00    -0.049 Br
BRANCH   9  15
ATOM     15  S   UNL     1       1.153  -2.690   0.292  1.00  0.00     0.244 S 
ATOM     16  O   UNL     1       0.552  -3.253  -0.900  1.00  0.00    -0.207 OA
ATOM     17  O   UNL     1       2.574  -2.419   0.350  1.00  0.00    -0.207 OA
BRANCH  15  18
ATOM     18  N   UNL     1       0.324  -1.259   0.631  1.00  0.00    -0.192 NA
ATOM     19  C   UNL     1       0.952  -0.056   0.028  1.00  0.00     0.125 C 
BRANCH  18  20
ATOM     20  C   UNL     1      -1.152  -1.271   0.474  1.00  0.00     0.201 C 
BRANCH  20  21
ATOM     21  C   UNL     1      -1.675  -1.283  -0.953  1.00  0.00     0.232 C 
ATOM     22  N   UNL     1      -2.390  -2.387  -1.319  1.00  0.00    -0.369 N 
ATOM     23  O   UNL     1      -1.506  -0.360  -1.745  1.00  0.00    -0.274 OA
ATOM     24  H   UNL     1      -2.522  -3.123  -0.679  1.00  0.00     0.159 HD
ATOM     25  H   UNL     1      -2.775  -2.447  -2.224  1.00  0.00     0.159 HD
ENDBRANCH  20  21
ENDBRANCH  18  20
ENDBRANCH  15  18
ENDBRANCH   9  15
ENDBRANCH   6   8
ENDBRANCH   5   6
ENDBRANCH   4   5
ENDBRANCH   3   4
ENDBRANCH   2   3
ENDBRANCH   1   2
BRANCH   1  26
ATOM     26  C   UNL     1      -2.385  -7.888   2.823  1.00  0.00     0.188 C 
BRANCH  26  27
ATOM     27  O   UNL     1      -3.478  -7.689   3.695  1.00  0.00    -0.376 OA
BRANCH  27  28
ATOM     28  C   UNL     1      -4.446  -8.703   3.898  1.00  0.00     0.202 C 
BRANCH  28  29
ATOM     29  C   UNL     1      -5.040  -9.518   2.745  1.00  0.00     0.261 C 
BRANCH  29  30
ATOM     30  O   UNL     1      -4.098  -9.994   1.781  1.00  0.00    -0.460 OA
BRANCH  30  31
ATOM     31  C   UNL     1      -4.232  -9.451   0.543  1.00  0.00     0.338 C 
ATOM     32  O   UNL     1      -5.021  -8.608   0.181  1.00  0.00    -0.246 OA
BRANCH  31  33
ATOM     33  C   UNL     1      -3.124  -9.930  -0.304  1.00  0.00     0.060 A 
ATOM     34  C   UNL     1      -2.231  -8.985  -0.822  1.00  0.00     0.016 A 
ATOM     35  C   UNL     1      -2.998 -11.283  -0.618  1.00  0.00     0.016 A 
ATOM     36  C   UNL     1      -1.205  -9.393  -1.673  1.00  0.00     0.010 A 
ATOM     37  C   UNL     1      -1.983 -11.687  -1.487  1.00  0.00     0.010 A 
ATOM     38  C   UNL     1      -1.096 -10.742  -2.033  1.00  0.00    -0.014 A 
BRANCH  38  39
ATOM     39  C   UNL     1      -0.143 -11.154  -3.087  1.00  0.00     0.031 A 
ATOM     40  C   UNL     1      -0.637 -11.294  -4.498  1.00  0.00     0.074 A 
ATOM     41  C   UNL     1       1.143 -11.411  -2.791  1.00  0.00     0.049 A 
ATOM     42  N   UNL     1      -0.002 -11.718  -5.559  1.00  0.00    -0.248 NA
ATOM     43  C   UNL     1      -2.036 -10.906  -4.743  1.00  0.00     0.031 C 
ATOM     44  C   UNL     1       1.755 -11.267  -1.471  1.00  0.00     0.029 A 
ATOM     45  N   UNL     1       2.162 -11.864  -3.590  1.00  0.00    -0.354 N 
ATOM     46  C   UNL     1      -0.923 -11.653  -6.597  1.00  0.00     0.074 A 
ATOM     47  C   UNL     1      -2.166 -11.171  -6.034  1.00  0.00     0.031 C 
ATOM     48  C   UNL     1       3.045 -11.641  -1.548  1.00  0.00     0.029 A 
ATOM     49  C   UNL     1       3.334 -12.085  -2.910  1.00  0.00     0.049 A 
ATOM     50  H   UNL     1       2.062 -12.016  -4.557  1.00  0.00     0.167 HD
ATOM     51  C   UNL     1      -0.749 -11.968  -7.902  1.00  0.00     0.031 A 
ATOM     52  C   UNL     1       4.497 -12.617  -3.334  1.00  0.00     0.031 A 
ATOM     53  C   UNL     1       0.477 -12.471  -8.458  1.00  0.00     0.049 A 
ATOM     54  C   UNL     1       4.633 -13.057  -4.768  1.00  0.00     0.074 A 
ATOM     55  C   UNL     1       0.754 -12.806  -9.772  1.00  0.00     0.029 A 
ATOM     56  N   UNL     1       1.627 -12.724  -7.728  1.00  0.00    -0.354 N 
ATOM     57  N   UNL     1       3.765 -12.968  -5.747  1.00  0.00    -0.248 NA
ATOM     58  C   UNL     1       5.911 -13.673  -5.154  1.00  0.00     0.031 C 
ATOM     59  C   UNL     1       2.055 -13.317  -9.826  1.00  0.00     0.029 A 
ATOM     60  C   UNL     1       2.606 -13.246  -8.557  1.00  0.00     0.049 A 
ATOM     61  H   UNL     1       1.733 -12.558  -6.763  1.00  0.00     0.167 HD
ATOM     62  C   UNL     1       4.399 -13.493  -6.866  1.00  0.00     0.074 A 
ATOM     63  C   UNL     1       5.729 -13.886  -6.450  1.00  0.00     0.031 C 
ATOM     64  C   UNL     1       3.924 -13.635  -8.127  1.00  0.00     0.031 A 
BRANCH  51  65
ATOM     65  C   UNL     1      -1.935 -11.815  -8.810  1.00  0.00    -0.014 A 
ATOM     66  C   UNL     1      -2.397 -10.547  -9.197  1.00  0.00     0.009 A 
ATOM     67  C   UNL     1      -2.580 -12.957  -9.309  1.00  0.00     0.009 A 
ATOM     68  C   UNL     1      -3.503 -10.428 -10.042  1.00  0.00     0.001 A 
ATOM     69  C   UNL     1      -3.668 -12.835 -10.174  1.00  0.00     0.001 A 
ATOM     70  C   UNL     1      -4.134 -11.571 -10.533  1.00  0.00     0.000 A 
ENDBRANCH  51  65
BRANCH  52  71
ATOM     71  C   UNL     1       5.623 -12.803  -2.382  1.00  0.00    -0.014 A 
ATOM     72  C   UNL     1       6.792 -12.037  -2.498  1.00  0.00     0.009 A 
ATOM     73  C   UNL     1       5.543 -13.771  -1.368  1.00  0.00     0.009 A 
ATOM     74  C   UNL     1       7.868 -12.253  -1.633  1.00  0.00     0.001 A 
ATOM     75  C   UNL     1       6.610 -13.966  -0.488  1.00  0.00     0.001 A 
ATOM     76  C   UNL     1       7.774 -13.213  -0.627  1.00  0.00     0.000 A 
ENDBRANCH  52  71
BRANCH  64  77
ATOM     77  C   UNL     1       4.853 -14.214  -9.157  1.00  0.00    -0.014 A 
ATOM     78  C   UNL     1       5.168 -15.581  -9.166  1.00  0.00     0.009 A 
ATOM     79  C   UNL     1       5.373 -13.389 -10.166  1.00  0.00     0.009 A 
ATOM     80  C   UNL     1       6.008 -16.105 -10.152  1.00  0.00     0.001 A 
ATOM     81  C   UNL     1       6.190 -13.920 -11.166  1.00  0.00     0.001 A 
ATOM     82  C   UNL     1       6.512 -15.276 -11.153  1.00  0.00     0.000 A 
ENDBRANCH  64  77
ENDBRANCH  38  39
ENDBRANCH  31  33
ENDBRANCH  30  31
ENDBRANCH  29  30
ENDBRANCH  28  29
ENDBRANCH  27  28
ENDBRANCH  26  27
ENDBRANCH   1  26
TORSDOF 21
