REMARK SMILES Cc1ccccc1C(=O)Nc1ccc(OCC(=O)OCCOCCOCCOC(=O)c2ccc(-c3c4nc(c(-c5ccccc5)c5ccc([nH]5)c(-c5ccccc5)c5nc(c(-c6ccccc6)c6ccc3[nH]6)C=C5)C=C4)cc2)c(-c2nc3ccccc3s2)c1
REMARK SMILES IDX 23 1 22 2 21 3 20 4 19 5 17 6 18 7 16 8 15 9 14 10 11 11
REMARK SMILES IDX 12 12 89 13 13 14 79 15 10 16 8 17 9 18 7 20 1 21 2 22 3 23
REMARK SMILES IDX 4 24 6 25 5 26 80 27 81 28 88 29 82 30 87 31 83 32 86 33
REMARK SMILES IDX 84 34 85 35 24 36 25 37 26 38 27 39 28 40 29 41 30 42 31 43
REMARK SMILES IDX 32 44 78 45 33 46 77 47 34 48 35 49 36 50 71 51 37 52 76 53
REMARK SMILES IDX 70 54 72 55 38 56 75 57 69 58 68 59 39 61 61 62 46 63 60 64
REMARK SMILES IDX 47 65 50 66 59 67 73 68 48 69 49 70 58 72 74 73 51 74 40 75
REMARK SMILES IDX 41 76 45 77 42 78 44 79 43 80 62 81 63 82 67 83 64 84 66 85
REMARK SMILES IDX 65 86 52 87 53 88 57 89 54 90 56 91 55 92
REMARK H PARENT 10 19 72 60 50 71
REMARK Flexibility Score: inf
ROOT
ATOM      1  C   UNL     1      -0.361  -3.498   0.781  1.00  0.00     0.188 C 
ENDROOT
BRANCH   1   2
ATOM      2  O   UNL     1       0.330  -4.756   0.766  1.00  0.00    -0.376 OA
BRANCH   2   3
ATOM      3  C   UNL     1       1.127  -5.152   1.908  1.00  0.00     0.202 C 
BRANCH   3   4
ATOM      4  C   UNL     1       2.845  -5.188   2.130  1.00  0.00     0.261 C 
BRANCH   4   5
ATOM      5  O   UNL     1       4.268  -4.169   1.914  1.00  0.00    -0.461 OA
BRANCH   5   6
ATOM      6  C   UNL     1       5.589  -4.076   1.190  1.00  0.00     0.344 C 
ATOM      7  O   UNL     1       6.192  -4.828   0.409  1.00  0.00    -0.248 OA
BRANCH   6   8
ATOM      8  C   UNL     1       6.357  -2.821   1.176  1.00  0.00     0.352 C 
BRANCH   8   9
ATOM      9  O   UNL     1       5.380  -1.847   1.191  1.00  0.00    -0.481 OA
BRANCH   9  10
ATOM     10  C   UNL     1       5.108  -1.356  -0.133  1.00  0.00     0.130 A 
ATOM     11  C   UNL     1       3.528   1.741  -1.314  1.00  0.00     0.042 A 
ATOM     12  C   UNL     1       4.999   1.725  -0.373  1.00  0.00     0.030 A 
ATOM     13  C   UNL     1       2.853   0.297  -1.924  1.00  0.00     0.041 A 
ATOM     14  C   UNL     1       5.804   0.291   0.229  1.00  0.00     0.049 A 
ATOM     15  C   UNL     1       3.474  -1.366  -1.451  1.00  0.00     0.055 A 
BRANCH  11  16
ATOM     16  N   UNL     1       2.742   2.965  -1.161  1.00  0.00    -0.322 N 
ATOM     17  C   UNL     1       1.391   3.417  -1.103  1.00  0.00     0.255 C 
ATOM     18  O   UNL     1       1.225   4.644  -1.163  1.00  0.00    -0.269 OA
ATOM     19  H   UNL     1       3.349   3.735  -1.066  1.00  0.00     0.170 HD
BRANCH  17  20
ATOM     20  C   UNL     1       0.127   2.653  -0.778  1.00  0.00     0.043 A 
ATOM     21  C   UNL     1       0.685   2.595   1.654  1.00  0.00     0.045 C 
ATOM     22  C   UNL     1      -0.075   2.074   0.466  1.00  0.00    -0.038 A 
ATOM     23  C   UNL     1      -1.101   1.100   0.586  1.00  0.00     0.004 A 
ATOM     24  C   UNL     1      -2.164   1.052  -0.284  1.00  0.00     0.000 A 
ATOM     25  C   UNL     1      -1.086   2.854  -1.461  1.00  0.00     0.014 A 
ATOM     26  C   UNL     1      -2.241   2.080  -1.191  1.00  0.00     0.001 A 
ENDBRANCH  17  20
ENDBRANCH  11  16
BRANCH  15  27
ATOM     27  C   UNL     1       3.393  -1.842  -3.214  1.00  0.00     0.128 A 
ATOM     28  N   UNL     1       2.738  -1.122  -4.151  1.00  0.00    -0.236 NA
ATOM     29  S   UNL     1       4.223  -3.189  -4.080  1.00  0.00    -0.114 S 
ATOM     30  C   UNL     1       2.499  -1.867  -5.336  1.00  0.00     0.082 A 
ATOM     31  C   UNL     1       3.221  -3.046  -5.433  1.00  0.00     0.055 A 
ATOM     32  C   UNL     1       1.468  -1.668  -6.289  1.00  0.00     0.030 A 
ATOM     33  C   UNL     1       2.987  -4.044  -6.396  1.00  0.00     0.021 A 
ATOM     34  C   UNL     1       1.112  -2.728  -7.151  1.00  0.00     0.002 A 
ATOM     35  C   UNL     1       1.855  -3.905  -7.191  1.00  0.00     0.002 A 
ENDBRANCH  15  27
ENDBRANCH   9  10
ENDBRANCH   8   9
ENDBRANCH   6   8
ENDBRANCH   5   6
ENDBRANCH   4   5
ENDBRANCH   3   4
ENDBRANCH   2   3
ENDBRANCH   1   2
BRANCH   1  36
ATOM     36  C   UNL     1       0.590  -2.512   1.325  1.00  0.00     0.188 C 
BRANCH  36  37
ATOM     37  O   UNL     1       1.068  -2.734   2.632  1.00  0.00    -0.376 OA
BRANCH  37  38
ATOM     38  C   UNL     1       1.222  -1.623   3.490  1.00  0.00     0.202 C 
BRANCH  38  39
ATOM     39  C   UNL     1       1.114  -0.219   2.869  1.00  0.00     0.261 C 
BRANCH  39  40
ATOM     40  O   UNL     1       2.213   0.298   1.983  1.00  0.00    -0.460 OA
BRANCH  40  41
ATOM     41  C   UNL     1       2.224   0.274   0.558  1.00  0.00     0.338 C 
ATOM     42  O   UNL     1       1.233  -0.004  -0.112  1.00  0.00    -0.246 OA
BRANCH  41  43
ATOM     43  C   UNL     1       3.716  -0.085  -0.007  1.00  0.00     0.060 A 
ATOM     44  C   UNL     1       4.958  -0.307  -1.629  1.00  0.00     0.016 A 
ATOM     45  C   UNL     1       3.174  -1.534   0.747  1.00  0.00     0.016 A 
ATOM     46  C   UNL     1       5.367  -2.152  -1.924  1.00  0.00     0.010 A 
ATOM     47  C   UNL     1       3.390  -2.978   0.099  1.00  0.00     0.010 A 
ATOM     48  C   UNL     1       4.387  -3.468  -1.081  1.00  0.00    -0.014 A 
BRANCH  48  49
ATOM     49  C   UNL     1       3.941  -5.224  -0.927  1.00  0.00     0.031 A 
ATOM     50  C   UNL     1       4.747  -6.480  -0.017  1.00  0.00     0.074 A 
ATOM     51  C   UNL     1       2.607  -5.630  -1.073  1.00  0.00     0.049 A 
ATOM     52  N   UNL     1       5.288  -7.583  -0.511  1.00  0.00    -0.248 NA
ATOM     53  C   UNL     1       5.133  -6.531   1.519  1.00  0.00     0.031 C 
ATOM     54  C   UNL     1       1.936  -6.858  -0.581  1.00  0.00     0.029 A 
ATOM     55  N   UNL     1       1.488  -4.999  -1.638  1.00  0.00    -0.354 N 
ATOM     56  C   UNL     1       5.831  -8.244   0.637  1.00  0.00     0.074 A 
ATOM     57  C   UNL     1       6.279  -7.191   1.444  1.00  0.00     0.031 C 
ATOM     58  C   UNL     1       0.686  -7.002  -1.080  1.00  0.00     0.029 A 
ATOM     59  C   UNL     1       0.490  -5.959  -2.056  1.00  0.00     0.049 A 
ATOM     60  H   UNL     1       1.393  -4.024  -1.738  1.00  0.00     0.167 HD
ATOM     61  C   UNL     1       5.212  -9.292   1.315  1.00  0.00     0.031 A 
ATOM     62  C   UNL     1       0.165  -6.161  -3.382  1.00  0.00     0.031 A 
ATOM     63  C   UNL     1       4.021  -9.728   0.590  1.00  0.00     0.049 A 
ATOM     64  C   UNL     1       0.972  -7.387  -3.871  1.00  0.00     0.074 A 
ATOM     65  C   UNL     1       2.683  -9.968   0.848  1.00  0.00     0.029 A 
ATOM     66  N   UNL     1       4.103  -9.661  -0.783  1.00  0.00    -0.354 N 
ATOM     67  N   UNL     1       1.579  -8.190  -3.031  1.00  0.00    -0.248 NA
ATOM     68  C   UNL     1       1.190  -7.851  -5.238  1.00  0.00     0.031 C 
ATOM     69  C   UNL     1       2.013 -10.114  -0.426  1.00  0.00     0.029 A 
ATOM     70  C   UNL     1       2.948  -9.964  -1.438  1.00  0.00     0.049 A 
ATOM     71  H   UNL     1       4.931  -9.413  -1.254  1.00  0.00     0.167 HD
ATOM     72  C   UNL     1       2.307  -9.158  -3.644  1.00  0.00     0.074 A 
ATOM     73  C   UNL     1       2.020  -8.904  -5.049  1.00  0.00     0.031 C 
ATOM     74  C   UNL     1       3.065 -10.035  -2.902  1.00  0.00     0.031 A 
BRANCH  61  75
ATOM     75  C   UNL     1       5.527  -9.694   2.812  1.00  0.00    -0.014 A 
ATOM     76  C   UNL     1       4.909 -10.831   3.353  1.00  0.00     0.009 A 
ATOM     77  C   UNL     1       6.400  -9.046   3.734  1.00  0.00     0.009 A 
ATOM     78  C   UNL     1       5.159 -11.287   4.670  1.00  0.00     0.001 A 
ATOM     79  C   UNL     1       6.643  -9.475   5.054  1.00  0.00     0.001 A 
ATOM     80  C   UNL     1       6.029 -10.614   5.521  1.00  0.00     0.000 A 
ENDBRANCH  61  75
BRANCH  62  81
ATOM     81  C   UNL     1      -0.139  -4.837  -4.078  1.00  0.00    -0.014 A 
ATOM     82  C   UNL     1      -1.423  -4.276  -4.246  1.00  0.00     0.009 A 
ATOM     83  C   UNL     1       0.837  -3.904  -3.822  1.00  0.00     0.009 A 
ATOM     84  C   UNL     1      -1.682  -2.895  -3.990  1.00  0.00     0.001 A 
ATOM     85  C   UNL     1       0.506  -2.681  -3.226  1.00  0.00     0.001 A 
ATOM     86  C   UNL     1      -0.721  -2.111  -3.387  1.00  0.00     0.000 A 
ENDBRANCH  62  81
BRANCH  74  87
ATOM     87  C   UNL     1       4.104 -11.034  -3.426  1.00  0.00    -0.014 A 
ATOM     88  C   UNL     1       4.257 -11.379  -4.763  1.00  0.00     0.009 A 
ATOM     89  C   UNL     1       5.003 -11.690  -2.532  1.00  0.00     0.009 A 
ATOM     90  C   UNL     1       5.233 -12.299  -5.178  1.00  0.00     0.001 A 
ATOM     91  C   UNL     1       6.011 -12.563  -2.936  1.00  0.00     0.001 A 
ATOM     92  C   UNL     1       6.114 -12.882  -4.271  1.00  0.00     0.000 A 
ENDBRANCH  74  87
ENDBRANCH  48  49
ENDBRANCH  41  43
ENDBRANCH  40  41
ENDBRANCH  39  40
ENDBRANCH  38  39
ENDBRANCH  37  38
ENDBRANCH  36  37
ENDBRANCH   1  36
TORSDOF 22
