REMARK SMILES CN(CCS(C)(=O)=O)S(=O)(=O)c1cc(C(=O)OCCOCCOCCOC(=O)c2ccc(-c3c4nc(c(-c5ccccc5)c5ccc([nH]5)c(-c5ccccc5)c5nc(c(-c6ccccc6)c6ccc3[nH]6)C=C5)C=C4)cc2)ccc1F
REMARK SMILES IDX 20 1 19 2 18 3 17 4 15 5 16 6 14 7 12 8 13 9 79 10 78 11
REMARK SMILES IDX 80 12 77 13 9 14 10 15 11 16 2 17 1 18 3 19 4 20 5 21 6 22
REMARK SMILES IDX 7 23 8 24 21 25 22 26 23 27 24 28 25 29 26 30 27 31 28 32
REMARK SMILES IDX 29 33 30 34 76 35 31 36 75 37 32 38 33 39 34 40 69 41 35 42
REMARK SMILES IDX 74 43 68 44 70 45 36 46 73 47 67 48 66 49 37 51 59 52 44 53
REMARK SMILES IDX 58 54 45 55 48 56 57 57 71 58 46 59 47 60 56 62 72 63 49 64
REMARK SMILES IDX 38 65 39 66 43 67 40 68 42 69 41 70 60 71 61 72 65 73 62 74
REMARK SMILES IDX 64 75 63 76 50 77 51 78 55 79 52 80 54 81 53 82
REMARK H PARENT 70 50 48 61
REMARK Flexibility Score: inf
ROOT
ATOM      1  O   UNL     1      -0.117  -2.986  -7.529  1.00  0.00    -0.376 OA
ENDROOT
BRANCH   1   2
ATOM      2  C   UNL     1      -1.160  -2.624  -8.425  1.00  0.00     0.202 C 
BRANCH   2   3
ATOM      3  C   UNL     1      -2.181  -1.529  -8.054  1.00  0.00     0.261 C 
BRANCH   3   4
ATOM      4  O   UNL     1      -1.635  -0.333  -7.477  1.00  0.00    -0.460 OA
BRANCH   4   5
ATOM      5  C   UNL     1      -1.899  -0.128  -6.166  1.00  0.00     0.338 C 
ATOM      6  O   UNL     1      -2.609  -0.792  -5.431  1.00  0.00    -0.246 OA
BRANCH   5   7
ATOM      7  C   UNL     1      -1.004   0.930  -5.643  1.00  0.00     0.061 A 
ATOM      8  C   UNL     1       0.565   1.615  -3.925  1.00  0.00     0.119 A 
ATOM      9  C   UNL     1      -0.264   0.639  -4.489  1.00  0.00     0.040 A 
ATOM     10  C   UNL     1       0.710   2.845  -4.551  1.00  0.00     0.143 A 
ATOM     11  C   UNL     1       0.003   3.123  -5.724  1.00  0.00     0.041 A 
ATOM     12  F   UNL     1       1.537   3.780  -4.072  1.00  0.00    -0.206 F 
ATOM     13  C   UNL     1      -0.865   2.170  -6.271  1.00  0.00     0.019 A 
BRANCH   8  14
ATOM     14  S   UNL     1       1.405   1.285  -2.416  1.00  0.00     0.245 S 
ATOM     15  O   UNL     1       1.575   2.501  -1.653  1.00  0.00    -0.207 OA
ATOM     16  O   UNL     1       2.536   0.466  -2.770  1.00  0.00    -0.207 OA
BRANCH  14  17
ATOM     17  N   UNL     1       0.334   0.309  -1.509  1.00  0.00    -0.200 NA
ATOM     18  C   UNL     1       0.958  -0.229  -0.269  1.00  0.00     0.124 C 
BRANCH  17  19
ATOM     19  C   UNL     1      -1.114   0.639  -1.353  1.00  0.00     0.118 C 
BRANCH  19  20
ATOM     20  C   UNL     1      -1.522   1.763  -0.425  1.00  0.00     0.153 C 
BRANCH  20  21
ATOM     21  S   UNL     1      -1.878   3.374  -1.123  1.00  0.00     0.148 S 
ATOM     22  C   UNL     1      -2.582   3.167  -2.741  1.00  0.00     0.158 C 
ATOM     23  O   UNL     1      -2.924   3.960  -0.303  1.00  0.00    -0.229 OA
ATOM     24  O   UNL     1      -0.635   4.088  -1.309  1.00  0.00    -0.229 OA
ENDBRANCH  20  21
ENDBRANCH  19  20
ENDBRANCH  17  19
ENDBRANCH  14  17
ENDBRANCH   8  14
ENDBRANCH   5   7
ENDBRANCH   4   5
ENDBRANCH   3   4
ENDBRANCH   2   3
ENDBRANCH   1   2
BRANCH   1  25
ATOM     25  C   UNL     1       0.671  -1.982  -6.905  1.00  0.00     0.188 C 
BRANCH  25  26
ATOM     26  C   UNL     1       1.216  -0.799  -7.734  1.00  0.00     0.188 C 
BRANCH  26  27
ATOM     27  O   UNL     1       0.821  -0.846  -9.086  1.00  0.00    -0.376 OA
BRANCH  27  28
ATOM     28  C   UNL     1       1.808  -1.211 -10.035  1.00  0.00     0.202 C 
BRANCH  28  29
ATOM     29  C   UNL     1       2.710  -2.444  -9.812  1.00  0.00     0.261 C 
BRANCH  29  30
ATOM     30  O   UNL     1       3.093  -2.774  -8.465  1.00  0.00    -0.460 OA
BRANCH  30  31
ATOM     31  C   UNL     1       4.170  -2.141  -7.945  1.00  0.00     0.338 C 
ATOM     32  O   UNL     1       4.836  -1.274  -8.482  1.00  0.00    -0.246 OA
BRANCH  31  33
ATOM     33  C   UNL     1       4.302  -2.533  -6.521  1.00  0.00     0.060 A 
ATOM     34  C   UNL     1       4.119  -1.559  -5.533  1.00  0.00     0.016 A 
ATOM     35  C   UNL     1       4.624  -3.845  -6.157  1.00  0.00     0.016 A 
ATOM     36  C   UNL     1       4.289  -1.889  -4.187  1.00  0.00     0.010 A 
ATOM     37  C   UNL     1       4.801  -4.168  -4.803  1.00  0.00     0.010 A 
ATOM     38  C   UNL     1       4.657  -3.185  -3.809  1.00  0.00    -0.014 A 
BRANCH  38  39
ATOM     39  C   UNL     1       5.066  -3.433  -2.400  1.00  0.00     0.031 A 
ATOM     40  C   UNL     1       6.533  -3.417  -2.064  1.00  0.00     0.074 A 
ATOM     41  C   UNL     1       4.162  -3.598  -1.417  1.00  0.00     0.049 A 
ATOM     42  N   UNL     1       7.127  -3.611  -0.913  1.00  0.00    -0.248 NA
ATOM     43  C   UNL     1       7.453  -3.144  -3.180  1.00  0.00     0.031 C 
ATOM     44  C   UNL     1       2.711  -3.567  -1.584  1.00  0.00     0.029 A 
ATOM     45  N   UNL     1       4.340  -3.821  -0.071  1.00  0.00    -0.354 N 
ATOM     46  C   UNL     1       8.488  -3.491  -1.169  1.00  0.00     0.074 A 
ATOM     47  C   UNL     1       8.633  -3.240  -2.586  1.00  0.00     0.031 C 
ATOM     48  C   UNL     1       2.130  -3.771  -0.388  1.00  0.00     0.029 A 
ATOM     49  C   UNL     1       3.165  -3.972   0.625  1.00  0.00     0.049 A 
ATOM     50  H   UNL     1       5.227  -3.869   0.353  1.00  0.00     0.167 HD
ATOM     51  C   UNL     1       9.527  -3.575  -0.303  1.00  0.00     0.031 A 
ATOM     52  C   UNL     1       2.949  -4.256   1.926  1.00  0.00     0.031 A 
ATOM     53  C   UNL     1       9.391  -3.836   1.105  1.00  0.00     0.049 A 
ATOM     54  C   UNL     1       4.126  -4.440   2.852  1.00  0.00     0.074 A 
ATOM     55  C   UNL     1      10.387  -3.939   2.061  1.00  0.00     0.029 A 
ATOM     56  N   UNL     1       8.187  -4.040   1.759  1.00  0.00    -0.354 N 
ATOM     57  N   UNL     1       5.407  -4.317   2.601  1.00  0.00    -0.248 NA
ATOM     58  C   UNL     1       3.822  -4.797   4.247  1.00  0.00     0.031 C 
ATOM     59  C   UNL     1       9.789  -4.275   3.280  1.00  0.00     0.029 A 
ATOM     60  C   UNL     1       8.416  -4.303   3.099  1.00  0.00     0.049 A 
ATOM     61  H   UNL     1       7.300  -4.003   1.333  1.00  0.00     0.167 HD
ATOM     62  C   UNL     1       6.057  -4.550   3.808  1.00  0.00     0.074 A 
ATOM     63  C   UNL     1       5.028  -4.801   4.796  1.00  0.00     0.031 C 
ATOM     64  C   UNL     1       7.386  -4.553   4.076  1.00  0.00     0.031 A 
BRANCH  51  65
ATOM     65  C   UNL     1      10.912  -3.434  -0.873  1.00  0.00    -0.014 A 
ATOM     66  C   UNL     1      11.389  -2.205  -1.355  1.00  0.00     0.009 A 
ATOM     67  C   UNL     1      11.764  -4.550  -0.903  1.00  0.00     0.009 A 
ATOM     68  C   UNL     1      12.675  -2.106  -1.890  1.00  0.00     0.001 A 
ATOM     69  C   UNL     1      13.061  -4.441  -1.406  1.00  0.00     0.001 A 
ATOM     70  C   UNL     1      13.512  -3.222  -1.909  1.00  0.00     0.000 A 
ENDBRANCH  51  65
BRANCH  52  71
ATOM     71  C   UNL     1       1.560  -4.415   2.440  1.00  0.00    -0.014 A 
ATOM     72  C   UNL     1       1.031  -3.517   3.380  1.00  0.00     0.009 A 
ATOM     73  C   UNL     1       0.770  -5.498   2.023  1.00  0.00     0.009 A 
ATOM     74  C   UNL     1      -0.246  -3.717   3.912  1.00  0.00     0.001 A 
ATOM     75  C   UNL     1      -0.519  -5.676   2.530  1.00  0.00     0.001 A 
ATOM     76  C   UNL     1      -1.022  -4.792   3.482  1.00  0.00     0.000 A 
ENDBRANCH  52  71
BRANCH  64  77
ATOM     77  C   UNL     1       7.808  -4.793   5.502  1.00  0.00    -0.014 A 
ATOM     78  C   UNL     1       7.657  -6.047   6.114  1.00  0.00     0.009 A 
ATOM     79  C   UNL     1       8.402  -3.751   6.233  1.00  0.00     0.009 A 
ATOM     80  C   UNL     1       8.051  -6.239   7.441  1.00  0.00     0.001 A 
ATOM     81  C   UNL     1       8.828  -3.955   7.546  1.00  0.00     0.001 A 
ATOM     82  C   UNL     1       8.640  -5.194   8.154  1.00  0.00     0.000 A 
ENDBRANCH  64  77
ENDBRANCH  38  39
ENDBRANCH  31  33
ENDBRANCH  30  31
ENDBRANCH  29  30
ENDBRANCH  28  29
ENDBRANCH  27  28
ENDBRANCH  26  27
ENDBRANCH  25  26
ENDBRANCH   1  25
TORSDOF 22
