REMARK SMILES O=C(Cc1c[nH]c(=O)n(Cc2ccccc2)c1=O)OCCOCCOCCOC(=O)c1ccc(-c2c3nc(c(-c4ccccc4)c4ccc([nH]4)c(-c4ccccc4)c4nc(c(-c5ccccc5)c5ccc2[nH]5)C=C4)C=C3)cc1
REMARK SMILES IDX 23 1 22 2 21 3 20 4 19 5 2 6 1 7 3 8 4 9 5 10 17 11 6 12
REMARK SMILES IDX 9 13 18 14 7 15 8 17 10 18 11 19 12 20 16 21 13 22 15 23
REMARK SMILES IDX 14 24 24 25 25 26 26 27 27 28 28 29 29 30 30 31 31 32 32 33
REMARK SMILES IDX 78 34 33 35 77 36 34 37 35 38 36 39 71 40 37 41 76 42 70 43
REMARK SMILES IDX 72 44 38 45 75 46 69 47 68 48 39 50 61 51 46 52 60 53 47 54
REMARK SMILES IDX 50 55 59 56 73 57 48 58 49 59 58 61 74 62 51 63 40 64 41 65
REMARK SMILES IDX 45 66 42 67 44 68 43 69 62 70 63 71 67 72 64 73 66 74 65 75
REMARK SMILES IDX 52 76 53 77 57 78 54 79 56 80 55 81
REMARK H PARENT 6 16 72 49 50 60
REMARK Flexibility Score: inf
ROOT
ATOM      1  C   UNL     1       2.535  -1.663  -0.588  1.00  0.00     0.188 C 
ENDROOT
BRANCH   1   2
ATOM      2  O   UNL     1       3.923  -1.594  -0.824  1.00  0.00    -0.376 OA
BRANCH   2   3
ATOM      3  C   UNL     1       4.780  -0.893   0.065  1.00  0.00     0.202 C 
BRANCH   3   4
ATOM      4  C   UNL     1       4.269  -0.085   1.262  1.00  0.00     0.261 C 
BRANCH   4   5
ATOM      5  O   UNL     1       3.063   0.720   1.213  1.00  0.00    -0.463 OA
BRANCH   5   6
ATOM      6  C   UNL     1       2.404   1.357   0.231  1.00  0.00     0.310 C 
ATOM      7  O   UNL     1       1.244   1.723   0.427  1.00  0.00    -0.252 OA
BRANCH   6   8
ATOM      8  C   UNL     1       3.105   1.727  -1.048  1.00  0.00     0.165 C 
BRANCH   8   9
ATOM      9  C   UNL     1       3.871   2.956  -0.710  1.00  0.00     0.045 A 
ATOM     10  C   UNL     1       3.364   4.189  -0.639  1.00  0.00     0.097 A 
ATOM     11  C   UNL     1       5.271   2.772  -0.284  1.00  0.00     0.260 A 
ATOM     12  N   UNL     1       4.047   5.166   0.021  1.00  0.00    -0.314 N 
ATOM     13  N   UNL     1       5.754   3.689   0.613  1.00  0.00    -0.256 N 
ATOM     14  O   UNL     1       5.909   1.815  -0.707  1.00  0.00    -0.269 OA
ATOM     15  C   UNL     1       5.183   4.938   0.761  1.00  0.00     0.328 A 
ATOM     16  H   UNL     1       3.708   6.088  -0.035  1.00  0.00     0.171 HD
ATOM     17  O   UNL     1       5.625   5.825   1.487  1.00  0.00    -0.248 OA
BRANCH  13  18
ATOM     18  C   UNL     1       7.011   3.375   1.275  1.00  0.00     0.166 C 
BRANCH  18  19
ATOM     19  C   UNL     1       8.193   3.677   0.381  1.00  0.00    -0.028 A 
ATOM     20  C   UNL     1       8.458   4.999   0.002  1.00  0.00     0.005 A 
ATOM     21  C   UNL     1       8.987   2.647  -0.144  1.00  0.00     0.005 A 
ATOM     22  C   UNL     1       9.463   5.286  -0.916  1.00  0.00     0.000 A 
ATOM     23  C   UNL     1      10.008   2.938  -1.049  1.00  0.00     0.000 A 
ATOM     24  C   UNL     1      10.237   4.256  -1.444  1.00  0.00     0.000 A 
ENDBRANCH  18  19
ENDBRANCH  13  18
ENDBRANCH   8   9
ENDBRANCH   6   8
ENDBRANCH   5   6
ENDBRANCH   4   5
ENDBRANCH   3   4
ENDBRANCH   2   3
ENDBRANCH   1   2
BRANCH   1  25
ATOM     25  C   UNL     1       1.959  -3.064  -0.401  1.00  0.00     0.188 C 
BRANCH  25  26
ATOM     26  O   UNL     1       2.691  -3.964   0.412  1.00  0.00    -0.376 OA
BRANCH  26  27
ATOM     27  C   UNL     1       4.000  -4.335  -0.014  1.00  0.00     0.202 C 
BRANCH  27  28
ATOM     28  C   UNL     1       4.229  -4.808  -1.462  1.00  0.00     0.261 C 
BRANCH  28  29
ATOM     29  O   UNL     1       3.966  -3.824  -2.483  1.00  0.00    -0.460 OA
BRANCH  29  30
ATOM     30  C   UNL     1       2.960  -4.100  -3.344  1.00  0.00     0.338 C 
ATOM     31  O   UNL     1       2.226  -5.083  -3.339  1.00  0.00    -0.246 OA
BRANCH  30  32
ATOM     32  C   UNL     1       2.755  -2.969  -4.266  1.00  0.00     0.060 A 
ATOM     33  C   UNL     1       3.670  -2.736  -5.293  1.00  0.00     0.016 A 
ATOM     34  C   UNL     1       1.581  -2.208  -4.182  1.00  0.00     0.016 A 
ATOM     35  C   UNL     1       3.405  -1.742  -6.242  1.00  0.00     0.010 A 
ATOM     36  C   UNL     1       1.325  -1.205  -5.123  1.00  0.00     0.010 A 
ATOM     37  C   UNL     1       2.227  -0.975  -6.172  1.00  0.00    -0.014 A 
BRANCH  37  38
ATOM     38  C   UNL     1       1.873  -0.052  -7.282  1.00  0.00     0.031 A 
ATOM     39  C   UNL     1       2.057   1.431  -7.173  1.00  0.00     0.074 A 
ATOM     40  C   UNL     1       1.360  -0.575  -8.413  1.00  0.00     0.049 A 
ATOM     41  N   UNL     1       1.879   2.348  -8.092  1.00  0.00    -0.248 NA
ATOM     42  C   UNL     1       2.488   1.959  -5.872  1.00  0.00     0.031 C 
ATOM     43  C   UNL     1       1.113  -1.999  -8.632  1.00  0.00     0.029 A 
ATOM     44  N   UNL     1       0.964   0.021  -9.585  1.00  0.00    -0.354 N 
ATOM     45  C   UNL     1       2.183   3.559  -7.488  1.00  0.00     0.074 A 
ATOM     46  C   UNL     1       2.523   3.265  -6.111  1.00  0.00     0.031 C 
ATOM     47  C   UNL     1       0.636  -2.171  -9.873  1.00  0.00     0.029 A 
ATOM     48  C   UNL     1       0.511  -0.870 -10.527  1.00  0.00     0.049 A 
ATOM     49  H   UNL     1       1.002   0.994  -9.736  1.00  0.00     0.167 HD
ATOM     50  C   UNL     1       2.185   4.797  -8.040  1.00  0.00     0.031 A 
ATOM     51  C   UNL     1       0.048  -0.676 -11.779  1.00  0.00     0.031 A 
ATOM     52  C   UNL     1       1.835   5.079  -9.411  1.00  0.00     0.049 A 
ATOM     53  C   UNL     1       0.021   0.710 -12.357  1.00  0.00     0.074 A 
ATOM     54  C   UNL     1       1.900   6.293 -10.075  1.00  0.00     0.029 A 
ATOM     55  N   UNL     1       1.334   4.157 -10.317  1.00  0.00    -0.354 N 
ATOM     56  N   UNL     1       0.419   1.833 -11.811  1.00  0.00    -0.248 NA
ATOM     57  C   UNL     1      -0.504   0.861 -13.723  1.00  0.00     0.031 C 
ATOM     58  C   UNL     1       1.343   6.128 -11.344  1.00  0.00     0.029 A 
ATOM     59  C   UNL     1       1.025   4.791 -11.511  1.00  0.00     0.049 A 
ATOM     60  H   UNL     1       1.216   3.196 -10.139  1.00  0.00     0.167 HD
ATOM     61  C   UNL     1       0.212   2.819 -12.768  1.00  0.00     0.074 A 
ATOM     62  C   UNL     1      -0.338   2.162 -13.935  1.00  0.00     0.031 C 
ATOM     63  C   UNL     1       0.465   4.147 -12.675  1.00  0.00     0.031 A 
BRANCH  50  64
ATOM     64  C   UNL     1       2.567   5.970  -7.175  1.00  0.00    -0.014 A 
ATOM     65  C   UNL     1       1.623   6.979  -6.918  1.00  0.00     0.009 A 
ATOM     66  C   UNL     1       3.886   6.152  -6.731  1.00  0.00     0.009 A 
ATOM     67  C   UNL     1       1.993   8.150  -6.254  1.00  0.00     0.001 A 
ATOM     68  C   UNL     1       4.246   7.310  -6.035  1.00  0.00     0.001 A 
ATOM     69  C   UNL     1       3.303   8.312  -5.809  1.00  0.00     0.000 A 
ENDBRANCH  50  64
BRANCH  51  70
ATOM     70  C   UNL     1      -0.381  -1.863 -12.566  1.00  0.00    -0.014 A 
ATOM     71  C   UNL     1      -1.520  -2.593 -12.185  1.00  0.00     0.009 A 
ATOM     72  C   UNL     1       0.409  -2.341 -13.620  1.00  0.00     0.009 A 
ATOM     73  C   UNL     1      -1.828  -3.804 -12.809  1.00  0.00     0.001 A 
ATOM     74  C   UNL     1       0.080  -3.537 -14.264  1.00  0.00     0.001 A 
ATOM     75  C   UNL     1      -1.026  -4.276 -13.846  1.00  0.00     0.000 A 
ENDBRANCH  51  70
BRANCH  63  76
ATOM     76  C   UNL     1       0.155   5.027 -13.858  1.00  0.00    -0.014 A 
ATOM     77  C   UNL     1       1.203   5.671 -14.541  1.00  0.00     0.009 A 
ATOM     78  C   UNL     1      -1.168   5.354 -14.189  1.00  0.00     0.009 A 
ATOM     79  C   UNL     1       0.933   6.652 -15.496  1.00  0.00     0.001 A 
ATOM     80  C   UNL     1      -1.435   6.314 -15.170  1.00  0.00     0.001 A 
ATOM     81  C   UNL     1      -0.386   6.974 -15.809  1.00  0.00     0.000 A 
ENDBRANCH  63  76
ENDBRANCH  37  38
ENDBRANCH  30  32
ENDBRANCH  29  30
ENDBRANCH  28  29
ENDBRANCH  27  28
ENDBRANCH  26  27
ENDBRANCH  25  26
ENDBRANCH   1  25
TORSDOF 20
