REMARK SMILES C[C@H](Sc1ccccn1)C(=O)N[C@H](C(=O)OCCOCCOCCOC(=O)c1ccc(-c2c3nc(c(-c4ccccc4)c4ccc([nH]4)c(-c4ccccc4)c4nc(c(-c5ccccc5)c5ccc2[nH]5)C=C4)C=C3)cc1)c1ccc(F)cc1
REMARK SMILES IDX 20 1 19 2 18 3 17 4 16 5 14 6 15 7 13 8 12 9 10 10 11 11
REMARK SMILES IDX 2 13 1 14 3 15 4 16 5 17 9 18 6 19 8 20 7 21 76 22 77 23
REMARK SMILES IDX 82 24 78 25 81 26 79 27 80 28 21 29 22 30 23 31 24 32 25 33
REMARK SMILES IDX 26 34 27 35 28 36 29 37 75 38 30 39 74 40 31 41 32 42 33 43
REMARK SMILES IDX 68 44 34 45 73 46 67 47 69 48 35 49 72 50 66 51 65 52 36 54
REMARK SMILES IDX 58 55 43 56 57 57 44 58 47 59 56 60 70 61 45 62 46 63 55 65
REMARK SMILES IDX 71 66 48 67 37 68 38 69 42 70 39 71 41 72 40 73 59 74 60 75
REMARK SMILES IDX 64 76 61 77 63 78 62 79 49 80 50 81 54 82 51 83 53 84 52 85
REMARK H PARENT 12 12 69 53 47 64
REMARK Flexibility Score: inf
ROOT
ATOM      1  C   UNL     1      -1.537  -3.291   0.083  1.00  0.00     0.188 C 
ENDROOT
BRANCH   1   2
ATOM      2  O   UNL     1      -2.101  -2.560  -1.003  1.00  0.00    -0.376 OA
BRANCH   2   3
ATOM      3  C   UNL     1      -1.275  -1.702  -1.771  1.00  0.00     0.202 C 
BRANCH   3   4
ATOM      4  C   UNL     1      -1.032  -0.294  -1.210  1.00  0.00     0.261 C 
BRANCH   4   5
ATOM      5  O   UNL     1      -0.299  -0.209   0.034  1.00  0.00    -0.461 OA
BRANCH   5   6
ATOM      6  C   UNL     1      -1.087  -0.247   1.154  1.00  0.00     0.333 C 
ATOM      7  O   UNL     1      -2.262  -0.503   1.119  1.00  0.00    -0.249 OA
BRANCH   6   8
ATOM      8  C   UNL     1      -0.362   0.224   2.424  1.00  0.00     0.223 C 
BRANCH   8   9
ATOM      9  N   UNL     1      -0.853   1.599   2.705  1.00  0.00    -0.338 N 
ATOM     10  C   UNL     1      -2.036   2.216   2.943  1.00  0.00     0.234 C 
ATOM     11  O   UNL     1      -2.095   3.328   2.379  1.00  0.00    -0.274 OA
ATOM     12  H   UNL     1      -0.109   2.243   2.724  1.00  0.00     0.164 HD
BRANCH  10  13
ATOM     13  C   UNL     1      -3.183   1.887   3.912  1.00  0.00     0.139 C 
ATOM     14  C   UNL     1      -2.791   2.150   5.375  1.00  0.00     0.030 C 
BRANCH  13  15
ATOM     15  S   UNL     1      -4.099   0.332   3.716  1.00  0.00    -0.093 SA
BRANCH  15  16
ATOM     16  C   UNL     1      -4.706   0.354   2.040  1.00  0.00     0.097 A 
ATOM     17  C   UNL     1      -4.711   1.476   1.217  1.00  0.00     0.035 A 
ATOM     18  N   UNL     1      -5.045  -0.875   1.576  1.00  0.00    -0.250 NA
ATOM     19  C   UNL     1      -4.928   1.310  -0.150  1.00  0.00     0.004 A 
ATOM     20  C   UNL     1      -5.225  -1.012   0.244  1.00  0.00     0.112 A 
ATOM     21  C   UNL     1      -5.159   0.038  -0.654  1.00  0.00     0.020 A 
ENDBRANCH  15  16
ENDBRANCH  13  15
ENDBRANCH  10  13
ENDBRANCH   8   9
BRANCH   8  22
ATOM     22  C   UNL     1      -0.260  -0.795   3.549  1.00  0.00    -0.014 A 
ATOM     23  C   UNL     1      -0.945  -0.658   4.753  1.00  0.00     0.009 A 
ATOM     24  C   UNL     1       0.580  -1.919   3.439  1.00  0.00     0.009 A 
ATOM     25  C   UNL     1      -0.901  -1.609   5.772  1.00  0.00     0.039 A 
ATOM     26  C   UNL     1       0.663  -2.873   4.467  1.00  0.00     0.039 A 
ATOM     27  C   UNL     1      -0.096  -2.717   5.619  1.00  0.00     0.123 A 
ATOM     28  F   UNL     1      -0.066  -3.651   6.576  1.00  0.00    -0.207 F 
ENDBRANCH   8  22
ENDBRANCH   6   8
ENDBRANCH   5   6
ENDBRANCH   4   5
ENDBRANCH   3   4
ENDBRANCH   2   3
ENDBRANCH   1   2
BRANCH   1  29
ATOM     29  C   UNL     1      -0.009  -3.376   0.228  1.00  0.00     0.188 C 
BRANCH  29  30
ATOM     30  O   UNL     1       0.733  -3.865  -0.881  1.00  0.00    -0.376 OA
BRANCH  30  31
ATOM     31  C   UNL     1       0.263  -5.063  -1.492  1.00  0.00     0.202 C 
BRANCH  31  32
ATOM     32  C   UNL     1       0.418  -6.309  -0.621  1.00  0.00     0.261 C 
BRANCH  32  33
ATOM     33  O   UNL     1      -0.640  -6.403   0.357  1.00  0.00    -0.460 OA
BRANCH  33  34
ATOM     34  C   UNL     1      -0.234  -6.393   1.645  1.00  0.00     0.338 C 
ATOM     35  O   UNL     1       0.910  -6.309   2.062  1.00  0.00    -0.246 OA
BRANCH  34  36
ATOM     36  C   UNL     1      -1.380  -6.376   2.567  1.00  0.00     0.060 A 
ATOM     37  C   UNL     1      -1.621  -5.200   3.276  1.00  0.00     0.016 A 
ATOM     38  C   UNL     1      -1.985  -7.570   2.954  1.00  0.00     0.016 A 
ATOM     39  C   UNL     1      -2.329  -5.245   4.473  1.00  0.00     0.010 A 
ATOM     40  C   UNL     1      -2.740  -7.600   4.134  1.00  0.00     0.010 A 
ATOM     41  C   UNL     1      -2.831  -6.459   4.955  1.00  0.00    -0.014 A 
BRANCH  41  42
ATOM     42  C   UNL     1      -3.226  -6.578   6.390  1.00  0.00     0.031 A 
ATOM     43  C   UNL     1      -2.433  -7.497   7.294  1.00  0.00     0.074 A 
ATOM     44  C   UNL     1      -4.194  -5.814   6.933  1.00  0.00     0.049 A 
ATOM     45  N   UNL     1      -2.691  -7.896   8.516  1.00  0.00    -0.248 NA
ATOM     46  C   UNL     1      -1.185  -8.050   6.741  1.00  0.00     0.031 C 
ATOM     47  C   UNL     1      -4.961  -4.783   6.235  1.00  0.00     0.029 A 
ATOM     48  N   UNL     1      -4.681  -5.779   8.218  1.00  0.00    -0.354 N 
ATOM     49  C   UNL     1      -1.680  -8.795   8.843  1.00  0.00     0.074 A 
ATOM     50  C   UNL     1      -0.810  -8.890   7.693  1.00  0.00     0.031 C 
ATOM     51  C   UNL     1      -5.794  -4.193   7.107  1.00  0.00     0.029 A 
ATOM     52  C   UNL     1      -5.689  -4.864   8.399  1.00  0.00     0.049 A 
ATOM     53  H   UNL     1      -4.339  -6.355   8.940  1.00  0.00     0.167 HD
ATOM     54  C   UNL     1      -1.492  -9.483   9.995  1.00  0.00     0.031 A 
ATOM     55  C   UNL     1      -6.471  -4.622   9.468  1.00  0.00     0.031 A 
ATOM     56  C   UNL     1      -2.319  -9.344  11.165  1.00  0.00     0.049 A 
ATOM     57  C   UNL     1      -6.291  -5.445  10.716  1.00  0.00     0.074 A 
ATOM     58  C   UNL     1      -2.228 -10.012  12.374  1.00  0.00     0.029 A 
ATOM     59  N   UNL     1      -3.373  -8.451  11.280  1.00  0.00    -0.354 N 
ATOM     60  N   UNL     1      -5.405  -6.376  10.977  1.00  0.00    -0.248 NA
ATOM     61  C   UNL     1      -7.232  -5.187  11.816  1.00  0.00     0.031 C 
ATOM     62  C   UNL     1      -3.257  -9.556  13.205  1.00  0.00     0.029 A 
ATOM     63  C   UNL     1      -3.947  -8.558  12.536  1.00  0.00     0.049 A 
ATOM     64  H   UNL     1      -3.669  -7.833  10.574  1.00  0.00     0.167 HD
ATOM     65  C   UNL     1      -5.667  -6.796  12.276  1.00  0.00     0.074 A 
ATOM     66  C   UNL     1      -6.777  -6.001  12.757  1.00  0.00     0.031 C 
ATOM     67  C   UNL     1      -5.048  -7.758  13.004  1.00  0.00     0.031 A 
BRANCH  54  68
ATOM     68  C   UNL     1      -0.381 -10.499  10.024  1.00  0.00    -0.014 A 
ATOM     69  C   UNL     1       0.972 -10.126  10.049  1.00  0.00     0.009 A 
ATOM     70  C   UNL     1      -0.706 -11.866  10.045  1.00  0.00     0.009 A 
ATOM     71  C   UNL     1       1.974 -11.101  10.052  1.00  0.00     0.001 A 
ATOM     72  C   UNL     1       0.295 -12.837  10.082  1.00  0.00     0.001 A 
ATOM     73  C   UNL     1       1.635 -12.454  10.073  1.00  0.00     0.000 A 
ENDBRANCH  54  68
BRANCH  55  74
ATOM     74  C   UNL     1      -7.550  -3.599   9.392  1.00  0.00    -0.014 A 
ATOM     75  C   UNL     1      -7.512  -2.448  10.194  1.00  0.00     0.009 A 
ATOM     76  C   UNL     1      -8.647  -3.788   8.535  1.00  0.00     0.009 A 
ATOM     77  C   UNL     1      -8.561  -1.525  10.160  1.00  0.00     0.001 A 
ATOM     78  C   UNL     1      -9.675  -2.845   8.475  1.00  0.00     0.001 A 
ATOM     79  C   UNL     1      -9.637  -1.721   9.296  1.00  0.00     0.000 A 
ENDBRANCH  55  74
BRANCH  67  80
ATOM     80  C   UNL     1      -5.523  -7.958  14.417  1.00  0.00    -0.014 A 
ATOM     81  C   UNL     1      -6.777  -8.523  14.700  1.00  0.00     0.009 A 
ATOM     82  C   UNL     1      -4.695  -7.578  15.485  1.00  0.00     0.009 A 
ATOM     83  C   UNL     1      -7.211  -8.654  16.021  1.00  0.00     0.001 A 
ATOM     84  C   UNL     1      -5.117  -7.741  16.805  1.00  0.00     0.001 A 
ATOM     85  C   UNL     1      -6.381  -8.265  17.071  1.00  0.00     0.000 A 
ENDBRANCH  67  80
ENDBRANCH  41  42
ENDBRANCH  34  36
ENDBRANCH  33  34
ENDBRANCH  32  33
ENDBRANCH  31  32
ENDBRANCH  30  31
ENDBRANCH  29  30
ENDBRANCH   1  29
TORSDOF 22
