REMARK SMILES CC1(C)[C@@H](C(=O)NCCc2ccc(S(N)(=O)=O)cc2)[C@@H]1C(=O)OCCOCCOCCOC(=O)c1ccc(-c2c3nc(c(-c4ccccc4)c4ccc([nH]4)c(-c4ccccc4)c4nc(c(-c5ccccc5)c5ccc2[nH]5)C=C4)C=C3)cc1
REMARK SMILES IDX 25 1 24 2 23 3 21 4 22 5 20 6 1 7 2 8 3 9 4 10 5 11 6 12
REMARK SMILES IDX 7 13 8 15 9 16 10 17 11 18 19 19 12 20 18 21 13 22 14 23
REMARK SMILES IDX 16 24 17 25 15 26 26 29 27 30 28 31 29 32 30 33 31 34 32 35
REMARK SMILES IDX 33 36 34 37 35 38 36 39 82 40 37 41 81 42 38 43 39 44 40 45
REMARK SMILES IDX 75 46 41 47 80 48 74 49 76 50 42 51 79 52 73 53 72 54 43 56
REMARK SMILES IDX 65 57 50 58 64 59 51 60 54 61 63 62 77 63 52 64 53 65 62 67
REMARK SMILES IDX 78 68 55 69 44 70 45 71 49 72 46 73 48 74 47 75 66 76 67 77
REMARK SMILES IDX 71 78 68 79 70 80 69 81 56 82 57 83 61 84 58 85 60 86 59 87
REMARK H PARENT 7 14 15 27 15 28 76 55 54 66
REMARK Flexibility Score: inf
ROOT
ATOM      1  C   UNL     1      -3.000   3.048   3.411  1.00  0.00     0.202 C 
ENDROOT
BRANCH   1   2
ATOM      2  C   UNL     1      -2.530   3.279   1.962  1.00  0.00     0.261 C 
BRANCH   2   3
ATOM      3  O   UNL     1      -2.241   2.097   1.198  1.00  0.00    -0.463 OA
BRANCH   3   4
ATOM      4  C   UNL     1      -0.921   1.858   0.973  1.00  0.00     0.310 C 
ATOM      5  O   UNL     1       0.003   2.571   1.334  1.00  0.00    -0.252 OA
BRANCH   4   6
ATOM      6  C   UNL     1      -0.694   0.513   0.377  1.00  0.00     0.118 C 
ATOM      7  C   UNL     1       1.226  -1.058  -0.244  1.00  0.00     0.013 C 
ATOM      8  C   UNL     1       0.501   0.245  -0.508  1.00  0.00    -0.009 C 
ATOM      9  C   UNL     1       1.427   1.368  -0.899  1.00  0.00     0.013 C 
ATOM     10  C   UNL     1      -0.927   0.237  -1.091  1.00  0.00     0.100 C 
BRANCH  10  11
ATOM     11  C   UNL     1      -1.383  -1.052  -1.676  1.00  0.00     0.224 C 
ATOM     12  O   UNL     1      -0.764  -1.531  -2.621  1.00  0.00    -0.275 OA
ATOM     13  N   UNL     1      -2.456  -1.736  -1.180  1.00  0.00    -0.355 N 
ATOM     14  H   UNL     1      -2.559  -2.646  -1.539  1.00  0.00     0.163 HD
BRANCH  13  15
ATOM     15  C   UNL     1      -3.470  -1.356  -0.217  1.00  0.00     0.120 C 
BRANCH  15  16
ATOM     16  C   UNL     1      -4.897  -1.234  -0.775  1.00  0.00     0.056 C 
BRANCH  16  17
ATOM     17  C   UNL     1      -5.599  -2.496  -1.237  1.00  0.00    -0.046 A 
ATOM     18  C   UNL     1      -6.872  -2.818  -0.730  1.00  0.00     0.005 A 
ATOM     19  C   UNL     1      -5.072  -3.294  -2.262  1.00  0.00     0.005 A 
ATOM     20  C   UNL     1      -7.593  -3.909  -1.231  1.00  0.00     0.022 A 
ATOM     21  C   UNL     1      -5.771  -4.403  -2.744  1.00  0.00     0.022 A 
ATOM     22  C   UNL     1      -7.034  -4.699  -2.235  1.00  0.00     0.082 A 
BRANCH  22  23
ATOM     23  S   UNL     1      -7.951  -6.045  -2.921  1.00  0.00     0.238 S 
ATOM     24  O   UNL     1      -9.246  -5.550  -3.346  1.00  0.00    -0.207 OA
ATOM     25  O   UNL     1      -7.098  -6.821  -3.780  1.00  0.00    -0.207 OA
BRANCH  23  26
ATOM     26  N   UNL     1      -8.242  -7.021  -1.586  1.00  0.00    -0.225 NA
ATOM     27  H   UNL     1      -8.847  -6.528  -0.929  1.00  0.00     0.137 HD
ATOM     28  H   UNL     1      -7.358  -7.247  -1.130  1.00  0.00     0.137 HD
ENDBRANCH  23  26
ENDBRANCH  22  23
ENDBRANCH  16  17
ENDBRANCH  15  16
ENDBRANCH  13  15
ENDBRANCH  10  11
ENDBRANCH   4   6
ENDBRANCH   3   4
ENDBRANCH   2   3
ENDBRANCH   1   2
BRANCH   1  29
ATOM     29  O   UNL     1      -2.326   2.134   4.266  1.00  0.00    -0.376 OA
BRANCH  29  30
ATOM     30  C   UNL     1      -2.037   0.816   3.827  1.00  0.00     0.188 C 
BRANCH  30  31
ATOM     31  C   UNL     1      -3.095   0.009   3.055  1.00  0.00     0.188 C 
BRANCH  31  32
ATOM     32  O   UNL     1      -4.277   0.704   2.751  1.00  0.00    -0.376 OA
BRANCH  32  33
ATOM     33  C   UNL     1      -5.434   0.439   3.528  1.00  0.00     0.202 C 
BRANCH  33  34
ATOM     34  C   UNL     1      -5.380   0.124   5.040  1.00  0.00     0.261 C 
BRANCH  34  35
ATOM     35  O   UNL     1      -4.179  -0.453   5.576  1.00  0.00    -0.460 OA
BRANCH  35  36
ATOM     36  C   UNL     1      -4.065  -1.802   5.524  1.00  0.00     0.338 C 
ATOM     37  O   UNL     1      -4.863  -2.584   5.040  1.00  0.00    -0.246 OA
BRANCH  36  38
ATOM     38  C   UNL     1      -2.693  -2.171   5.946  1.00  0.00     0.060 A 
ATOM     39  C   UNL     1      -1.838  -2.775   5.012  1.00  0.00     0.016 A 
ATOM     40  C   UNL     1      -2.256  -1.942   7.252  1.00  0.00     0.016 A 
ATOM     41  C   UNL     1      -0.559  -3.187   5.392  1.00  0.00     0.010 A 
ATOM     42  C   UNL     1      -0.982  -2.376   7.637  1.00  0.00     0.010 A 
ATOM     43  C   UNL     1      -0.140  -3.033   6.720  1.00  0.00    -0.014 A 
BRANCH  43  44
ATOM     44  C   UNL     1       1.087  -3.725   7.190  1.00  0.00     0.031 A 
ATOM     45  C   UNL     1       0.940  -5.033   7.924  1.00  0.00     0.074 A 
ATOM     46  C   UNL     1       2.314  -3.230   6.949  1.00  0.00     0.049 A 
ATOM     47  N   UNL     1       1.860  -5.803   8.446  1.00  0.00    -0.248 NA
ATOM     48  C   UNL     1      -0.434  -5.537   8.091  1.00  0.00     0.031 C 
ATOM     49  C   UNL     1       2.604  -2.003   6.211  1.00  0.00     0.029 A 
ATOM     50  N   UNL     1       3.551  -3.707   7.311  1.00  0.00    -0.354 N 
ATOM     51  C   UNL     1       1.178  -6.874   9.011  1.00  0.00     0.074 A 
ATOM     52  C   UNL     1      -0.233  -6.639   8.797  1.00  0.00     0.031 C 
ATOM     53  C   UNL     1       3.936  -1.820   6.177  1.00  0.00     0.029 A 
ATOM     54  C   UNL     1       4.590  -2.896   6.921  1.00  0.00     0.049 A 
ATOM     55  H   UNL     1       3.681  -4.550   7.802  1.00  0.00     0.167 HD
ATOM     56  C   UNL     1       1.678  -7.961   9.648  1.00  0.00     0.031 A 
ATOM     57  C   UNL     1       5.913  -3.000   7.155  1.00  0.00     0.031 A 
ATOM     58  C   UNL     1       3.079  -8.191   9.879  1.00  0.00     0.049 A 
ATOM     59  C   UNL     1       6.439  -4.176   7.939  1.00  0.00     0.074 A 
ATOM     60  C   UNL     1       3.683  -9.268  10.503  1.00  0.00     0.029 A 
ATOM     61  N   UNL     1       4.094  -7.324   9.505  1.00  0.00    -0.354 N 
ATOM     62  N   UNL     1       5.787  -5.195   8.444  1.00  0.00    -0.248 NA
ATOM     63  C   UNL     1       7.891  -4.218   8.173  1.00  0.00     0.031 C 
ATOM     64  C   UNL     1       5.058  -9.022  10.565  1.00  0.00     0.029 A 
ATOM     65  C   UNL     1       5.318  -7.828   9.912  1.00  0.00     0.049 A 
ATOM     66  H   UNL     1       3.964  -6.476   9.023  1.00  0.00     0.167 HD
ATOM     67  C   UNL     1       6.751  -6.016   9.021  1.00  0.00     0.074 A 
ATOM     68  C   UNL     1       8.032  -5.383   8.790  1.00  0.00     0.031 C 
ATOM     69  C   UNL     1       6.589  -7.192   9.676  1.00  0.00     0.031 A 
BRANCH  56  70
ATOM     70  C   UNL     1       0.692  -8.967  10.177  1.00  0.00    -0.014 A 
ATOM     71  C   UNL     1      -0.057  -9.784   9.315  1.00  0.00     0.009 A 
ATOM     72  C   UNL     1       0.535  -9.121  11.563  1.00  0.00     0.009 A 
ATOM     73  C   UNL     1      -0.970 -10.707   9.831  1.00  0.00     0.001 A 
ATOM     74  C   UNL     1      -0.353 -10.068  12.077  1.00  0.00     0.001 A 
ATOM     75  C   UNL     1      -1.113 -10.852  11.210  1.00  0.00     0.000 A 
ENDBRANCH  56  70
BRANCH  57  76
ATOM     76  C   UNL     1       6.846  -1.953   6.656  1.00  0.00    -0.014 A 
ATOM     77  C   UNL     1       7.786  -2.245   5.655  1.00  0.00     0.009 A 
ATOM     78  C   UNL     1       6.822  -0.660   7.203  1.00  0.00     0.009 A 
ATOM     79  C   UNL     1       8.699  -1.275   5.234  1.00  0.00     0.001 A 
ATOM     80  C   UNL     1       7.713   0.318   6.757  1.00  0.00     0.001 A 
ATOM     81  C   UNL     1       8.658   0.006   5.781  1.00  0.00     0.000 A 
ENDBRANCH  57  76
BRANCH  69  82
ATOM     82  C   UNL     1       7.830  -7.903  10.145  1.00  0.00    -0.014 A 
ATOM     83  C   UNL     1       8.613  -7.406  11.199  1.00  0.00     0.009 A 
ATOM     84  C   UNL     1       8.200  -9.117   9.542  1.00  0.00     0.009 A 
ATOM     85  C   UNL     1       9.761  -8.088  11.610  1.00  0.00     0.001 A 
ATOM     86  C   UNL     1       9.328  -9.814   9.977  1.00  0.00     0.001 A 
ATOM     87  C   UNL     1      10.114  -9.293  11.003  1.00  0.00     0.000 A 
ENDBRANCH  69  82
ENDBRANCH  43  44
ENDBRANCH  36  38
ENDBRANCH  35  36
ENDBRANCH  34  35
ENDBRANCH  33  34
ENDBRANCH  32  33
ENDBRANCH  31  32
ENDBRANCH  30  31
ENDBRANCH  29  30
ENDBRANCH   1  29
TORSDOF 23
