REMARK SMILES NC(=O)C1CC[NH+](Cc2ccc(C(=O)OCCOCCOCCOC(=O)c3ccc(-c4c5nc(c(-c6ccccc6)c6ccc([nH]6)c(-c6ccccc6)c6nc(c(-c7ccccc7)c7ccc4[nH]7)C=C6)C=C5)cc3)cc2)CC1
REMARK SMILES IDX 19 1 18 2 17 3 16 4 15 5 13 6 14 7 12 8 9 9 10 10 76 11
REMARK SMILES IDX 11 12 75 13 8 14 7 15 4 16 5 17 78 18 6 19 77 20 2 22 1 23
REMARK SMILES IDX 3 26 20 27 21 28 22 29 23 30 24 31 25 32 26 33 27 34 28 35
REMARK SMILES IDX 74 36 29 37 73 38 30 39 31 40 32 41 67 42 33 43 72 44 66 45
REMARK SMILES IDX 68 46 34 47 71 48 65 49 64 50 35 52 57 53 42 54 56 55 43 56
REMARK SMILES IDX 46 57 55 58 69 59 44 60 45 61 54 63 70 64 47 65 36 66 37 67
REMARK SMILES IDX 41 68 38 69 40 70 39 71 58 72 59 73 63 74 60 75 62 76 61 77
REMARK SMILES IDX 48 78 49 79 53 80 50 81 52 82 51 83
REMARK H PARENT 7 21 1 24 1 25 68 51 46 62
REMARK Flexibility Score: inf
ROOT
ATOM      1  C   UNL     1      -1.830   0.447  -7.337  1.00  0.00     0.188 C 
ENDROOT
BRANCH   1   2
ATOM      2  O   UNL     1      -3.012   1.179  -7.587  1.00  0.00    -0.376 OA
BRANCH   2   3
ATOM      3  C   UNL     1      -3.587   2.008  -6.591  1.00  0.00     0.202 C 
BRANCH   3   4
ATOM      4  C   UNL     1      -3.530   1.712  -5.083  1.00  0.00     0.261 C 
BRANCH   4   5
ATOM      5  O   UNL     1      -2.316   1.132  -4.606  1.00  0.00    -0.460 OA
BRANCH   5   6
ATOM      6  C   UNL     1      -2.420  -0.158  -4.197  1.00  0.00     0.338 C 
ATOM      7  O   UNL     1      -3.439  -0.826  -4.151  1.00  0.00    -0.246 OA
BRANCH   6   8
ATOM      8  C   UNL     1      -1.070  -0.733  -3.998  1.00  0.00     0.060 A 
ATOM      9  C   UNL     1       1.392  -1.968  -3.512  1.00  0.00     0.006 A 
ATOM     10  C   UNL     1       0.342  -2.693  -4.095  1.00  0.00     0.010 A 
ATOM     11  C   UNL     1       1.246  -0.583  -3.336  1.00  0.00     0.010 A 
ATOM     12  C   UNL     1      -0.886  -2.079  -4.329  1.00  0.00     0.016 A 
ATOM     13  C   UNL     1       0.009   0.029  -3.541  1.00  0.00     0.016 A 
BRANCH   9  14
ATOM     14  C   UNL     1       2.554  -2.724  -2.879  1.00  0.00     0.299 C 
BRANCH  14  15
ATOM     15  N   UNL     1       2.432  -2.914  -1.407  1.00  0.00    -0.331 N 
ATOM     16  C   UNL     1       1.120  -2.155   1.125  1.00  0.00     0.089 C 
ATOM     17  C   UNL     1       2.572  -1.780   0.833  1.00  0.00     0.075 C 
ATOM     18  C   UNL     1       0.880  -3.529   0.488  1.00  0.00     0.075 C 
ATOM     19  C   UNL     1       2.839  -1.716  -0.669  1.00  0.00     0.263 C 
ATOM     20  C   UNL     1       1.120  -3.466  -1.022  1.00  0.00     0.263 C 
ATOM     21  H   UNL     1       3.098  -3.633  -1.126  1.00  0.00     0.348 HD
BRANCH  16  22
ATOM     22  C   UNL     1       0.055  -1.158   0.648  1.00  0.00     0.220 C 
ATOM     23  N   UNL     1       0.397   0.155   0.555  1.00  0.00    -0.369 N 
ATOM     24  H   UNL     1      -0.266   0.816   0.251  1.00  0.00     0.159 HD
ATOM     25  H   UNL     1       1.308   0.444   0.791  1.00  0.00     0.159 HD
ATOM     26  O   UNL     1      -1.106  -1.483   0.411  1.00  0.00    -0.275 OA
ENDBRANCH  16  22
ENDBRANCH  14  15
ENDBRANCH   9  14
ENDBRANCH   6   8
ENDBRANCH   5   6
ENDBRANCH   4   5
ENDBRANCH   3   4
ENDBRANCH   2   3
ENDBRANCH   1   2
BRANCH   1  27
ATOM     27  C   UNL     1      -0.524   1.178  -6.968  1.00  0.00     0.188 C 
BRANCH  27  28
ATOM     28  O   UNL     1      -0.558   2.561  -6.714  1.00  0.00    -0.376 OA
BRANCH  28  29
ATOM     29  C   UNL     1      -0.728   3.480  -7.779  1.00  0.00     0.202 C 
BRANCH  29  30
ATOM     30  C   UNL     1      -0.539   3.168  -9.277  1.00  0.00     0.261 C 
BRANCH  30  31
ATOM     31  O   UNL     1      -0.624   1.806  -9.703  1.00  0.00    -0.460 OA
BRANCH  31  32
ATOM     32  C   UNL     1       0.550   1.224 -10.043  1.00  0.00     0.338 C 
ATOM     33  O   UNL     1       1.668   1.724 -10.004  1.00  0.00    -0.246 OA
BRANCH  32  34
ATOM     34  C   UNL     1       0.318  -0.203 -10.316  1.00  0.00     0.060 A 
ATOM     35  C   UNL     1       0.845  -1.157  -9.433  1.00  0.00     0.016 A 
ATOM     36  C   UNL     1      -0.382  -0.600 -11.456  1.00  0.00     0.016 A 
ATOM     37  C   UNL     1       0.681  -2.517  -9.696  1.00  0.00     0.010 A 
ATOM     38  C   UNL     1      -0.523  -1.963 -11.729  1.00  0.00     0.010 A 
ATOM     39  C   UNL     1       0.028  -2.927 -10.864  1.00  0.00    -0.014 A 
BRANCH  39  40
ATOM     40  C   UNL     1       0.054  -4.353 -11.269  1.00  0.00     0.031 A 
ATOM     41  C   UNL     1       1.068  -4.796 -12.288  1.00  0.00     0.074 A 
ATOM     42  C   UNL     1      -0.805  -5.244 -10.743  1.00  0.00     0.049 A 
ATOM     43  N   UNL     1       1.227  -5.968 -12.846  1.00  0.00    -0.248 NA
ATOM     44  C   UNL     1       2.030  -3.776 -12.739  1.00  0.00     0.031 C 
ATOM     45  C   UNL     1      -1.800  -4.956  -9.712  1.00  0.00     0.029 A 
ATOM     46  N   UNL     1      -0.981  -6.577 -11.021  1.00  0.00    -0.354 N 
ATOM     47  C   UNL     1       2.295  -5.825 -13.722  1.00  0.00     0.074 A 
ATOM     48  C   UNL     1       2.731  -4.448 -13.640  1.00  0.00     0.031 C 
ATOM     49  C   UNL     1      -2.495  -6.078  -9.454  1.00  0.00     0.029 A 
ATOM     50  C   UNL     1      -2.020  -7.149 -10.329  1.00  0.00     0.049 A 
ATOM     51  H   UNL     1      -0.417  -7.074 -11.655  1.00  0.00     0.167 HD
ATOM     52  C   UNL     1       2.864  -6.757 -14.524  1.00  0.00     0.031 A 
ATOM     53  C   UNL     1      -2.546  -8.386 -10.415  1.00  0.00     0.031 A 
ATOM     54  C   UNL     1       2.419  -8.122 -14.622  1.00  0.00     0.049 A 
ATOM     55  C   UNL     1      -1.955  -9.378 -11.383  1.00  0.00     0.074 A 
ATOM     56  C   UNL     1       2.941  -9.144 -15.396  1.00  0.00     0.029 A 
ATOM     57  N   UNL     1       1.340  -8.652 -13.933  1.00  0.00    -0.354 N 
ATOM     58  N   UNL     1      -0.928  -9.241 -12.188  1.00  0.00    -0.248 NA
ATOM     59  C   UNL     1      -2.596 -10.701 -11.450  1.00  0.00     0.031 C 
ATOM     60  C   UNL     1       2.137 -10.275 -15.224  1.00  0.00     0.029 A 
ATOM     61  C   UNL     1       1.159  -9.977 -14.289  1.00  0.00     0.049 A 
ATOM     62  H   UNL     1       0.784  -8.159 -13.287  1.00  0.00     0.167 HD
ATOM     63  C   UNL     1      -0.781 -10.466 -12.829  1.00  0.00     0.074 A 
ATOM     64  C   UNL     1      -1.813 -11.338 -12.310  1.00  0.00     0.031 C 
ATOM     65  C   UNL     1       0.129 -10.836 -13.764  1.00  0.00     0.031 A 
BRANCH  52  66
ATOM     66  C   UNL     1       4.008  -6.316 -15.394  1.00  0.00    -0.014 A 
ATOM     67  C   UNL     1       5.264  -6.006 -14.851  1.00  0.00     0.009 A 
ATOM     68  C   UNL     1       3.833  -6.247 -16.785  1.00  0.00     0.009 A 
ATOM     69  C   UNL     1       6.313  -5.603 -15.681  1.00  0.00     0.001 A 
ATOM     70  C   UNL     1       4.892  -5.873 -17.615  1.00  0.00     0.001 A 
ATOM     71  C   UNL     1       6.128  -5.543 -17.062  1.00  0.00     0.000 A 
ENDBRANCH  52  66
BRANCH  53  72
ATOM     72  C   UNL     1      -3.724  -8.759  -9.585  1.00  0.00    -0.014 A 
ATOM     73  C   UNL     1      -3.610  -9.724  -8.571  1.00  0.00     0.009 A 
ATOM     74  C   UNL     1      -4.978  -8.178  -9.828  1.00  0.00     0.009 A 
ATOM     75  C   UNL     1      -4.734 -10.119  -7.840  1.00  0.00     0.001 A 
ATOM     76  C   UNL     1      -6.093  -8.551  -9.073  1.00  0.00     0.001 A 
ATOM     77  C   UNL     1      -5.972  -9.529  -8.088  1.00  0.00     0.000 A 
ENDBRANCH  53  72
BRANCH  65  78
ATOM     78  C   UNL     1       0.081 -12.258 -14.255  1.00  0.00    -0.014 A 
ATOM     79  C   UNL     1      -0.957 -12.716 -15.081  1.00  0.00     0.009 A 
ATOM     80  C   UNL     1       1.119 -13.142 -13.918  1.00  0.00     0.009 A 
ATOM     81  C   UNL     1      -0.972 -14.039 -15.530  1.00  0.00     0.001 A 
ATOM     82  C   UNL     1       1.118 -14.454 -14.394  1.00  0.00     0.001 A 
ATOM     83  C   UNL     1       0.068 -14.904 -15.191  1.00  0.00     0.000 A 
ENDBRANCH  65  78
ENDBRANCH  39  40
ENDBRANCH  32  34
ENDBRANCH  31  32
ENDBRANCH  30  31
ENDBRANCH  29  30
ENDBRANCH  28  29
ENDBRANCH  27  28
ENDBRANCH   1  27
TORSDOF 20
