REMARK SMILES O=C(OCCOCCOCCOC(=O)c1ccc(-c2c3nc(c(-c4ccccc4)c4ccc([nH]4)c(-c4ccccc4)c4nc(c(-c5ccccc5)c5ccc2[nH]5)C=C4)C=C3)cc1)C1=Cc2cc(Cl)cc(-c3ccccc3)c2O[C@@H]1C(F)(F)F
REMARK SMILES IDX 8 1 7 2 6 3 5 4 4 5 3 6 2 7 1 8 63 9 64 10 79 11 65 12 78 13
REMARK SMILES IDX 66 14 77 15 67 16 70 17 68 18 69 19 80 20 81 21 82 22 83 23
REMARK SMILES IDX 71 24 72 25 76 26 73 27 75 28 74 29 9 30 10 31 11 32 12 33
REMARK SMILES IDX 13 34 14 35 15 36 16 37 62 38 17 39 61 40 18 41 19 42 20 43
REMARK SMILES IDX 55 44 21 45 60 46 54 47 56 48 22 49 59 50 53 51 52 52 23 54
REMARK SMILES IDX 45 55 30 56 44 57 31 58 34 59 43 60 57 61 32 62 33 63 42 65
REMARK SMILES IDX 58 66 35 67 24 68 25 69 29 70 26 71 28 72 27 73 46 74 47 75
REMARK SMILES IDX 51 76 48 77 50 78 49 79 36 80 37 81 41 82 38 83 40 84 39 85
REMARK H PARENT 56 53 34 64
REMARK Flexibility Score: inf
ROOT
ATOM      1  C   UNL     1       1.627  -0.819  -3.240  1.00  0.00     0.188 C 
ENDROOT
BRANCH   1   2
ATOM      2  C   UNL     1       2.172   0.083  -2.123  1.00  0.00     0.188 C 
BRANCH   2   3
ATOM      3  O   UNL     1       3.639   0.489  -1.987  1.00  0.00    -0.376 OA
BRANCH   3   4
ATOM      4  C   UNL     1       4.543   0.704  -0.469  1.00  0.00     0.202 C 
BRANCH   4   5
ATOM      5  C   UNL     1       3.895  -0.231   1.383  1.00  0.00     0.261 C 
BRANCH   5   6
ATOM      6  O   UNL     1       2.922   0.364   2.399  1.00  0.00    -0.460 OA
BRANCH   6   7
ATOM      7  C   UNL     1       3.078   1.690   2.525  1.00  0.00     0.338 C 
ATOM      8  O   UNL     1       2.361   2.475   3.096  1.00  0.00    -0.246 OA
BRANCH   7   9
ATOM      9  C   UNL     1       3.961   1.866   1.382  1.00  0.00     0.087 C 
ATOM     10  C   UNL     1       5.349   1.508   1.567  1.00  0.00     0.027 C 
ATOM     11  C   UNL     1       2.760   0.985   0.188  1.00  0.00     0.316 C 
ATOM     12  C   UNL     1       6.084  -0.004   0.972  1.00  0.00     0.019 A 
ATOM     13  O   UNL     1       3.480  -0.771  -0.349  1.00  0.00    -0.475 OA
ATOM     14  C   UNL     1       7.355  -0.281   1.403  1.00  0.00     0.032 A 
ATOM     15  C   UNL     1       5.211  -1.201   0.078  1.00  0.00     0.135 A 
ATOM     16  C   UNL     1       7.858  -1.525   1.017  1.00  0.00     0.042 A 
ATOM     17  C   UNL     1       5.821  -2.381  -0.320  1.00  0.00     0.026 A 
ATOM     18  Cl  UNL     1       9.447  -1.945   1.566  1.00  0.00    -0.084 Cl
ATOM     19  C   UNL     1       7.153  -2.486   0.202  1.00  0.00     0.033 A 
BRANCH  11  20
ATOM     20  C   UNL     1       2.538   2.479  -0.679  1.00  0.00     0.430 C 
ATOM     21  F   UNL     1       2.650   2.553  -2.013  1.00  0.00    -0.167 F 
ATOM     22  F   UNL     1       1.312   2.975  -0.363  1.00  0.00    -0.167 F 
ATOM     23  F   UNL     1       3.415   3.446  -0.253  1.00  0.00    -0.167 F 
ENDBRANCH  11  20
BRANCH  17  24
ATOM     24  C   UNL     1       5.404  -3.458  -1.212  1.00  0.00    -0.015 A 
ATOM     25  C   UNL     1       4.628  -4.530  -0.764  1.00  0.00     0.009 A 
ATOM     26  C   UNL     1       5.968  -3.550  -2.504  1.00  0.00     0.009 A 
ATOM     27  C   UNL     1       4.335  -5.604  -1.615  1.00  0.00     0.001 A 
ATOM     28  C   UNL     1       5.660  -4.612  -3.362  1.00  0.00     0.001 A 
ATOM     29  C   UNL     1       4.819  -5.627  -2.923  1.00  0.00     0.000 A 
ENDBRANCH  17  24
ENDBRANCH   7   9
ENDBRANCH   6   7
ENDBRANCH   5   6
ENDBRANCH   4   5
ENDBRANCH   3   4
ENDBRANCH   2   3
ENDBRANCH   1   2
BRANCH   1  30
ATOM     30  O   UNL     1       2.279  -2.022  -3.521  1.00  0.00    -0.376 OA
BRANCH  30  31
ATOM     31  C   UNL     1       3.667  -1.897  -3.729  1.00  0.00     0.202 C 
BRANCH  31  32
ATOM     32  C   UNL     1       4.198  -1.042  -4.883  1.00  0.00     0.261 C 
BRANCH  32  33
ATOM     33  O   UNL     1       3.836   0.344  -4.818  1.00  0.00    -0.460 OA
BRANCH  33  34
ATOM     34  C   UNL     1       2.863   0.745  -5.670  1.00  0.00     0.338 C 
ATOM     35  O   UNL     1       2.285   0.083  -6.513  1.00  0.00    -0.246 OA
BRANCH  34  36
ATOM     36  C   UNL     1       2.455   2.107  -5.289  1.00  0.00     0.060 A 
ATOM     37  C   UNL     1       1.180   2.330  -4.747  1.00  0.00     0.016 A 
ATOM     38  C   UNL     1       3.328   3.167  -5.523  1.00  0.00     0.016 A 
ATOM     39  C   UNL     1       0.776   3.620  -4.421  1.00  0.00     0.010 A 
ATOM     40  C   UNL     1       2.904   4.465  -5.249  1.00  0.00     0.010 A 
ATOM     41  C   UNL     1       1.620   4.693  -4.722  1.00  0.00    -0.014 A 
BRANCH  41  42
ATOM     42  C   UNL     1       1.063   6.058  -4.733  1.00  0.00     0.031 A 
ATOM     43  C   UNL     1       0.494   6.563  -6.028  1.00  0.00     0.074 A 
ATOM     44  C   UNL     1       1.057   6.819  -3.627  1.00  0.00     0.049 A 
ATOM     45  N   UNL     1       0.004   7.739  -6.315  1.00  0.00    -0.248 NA
ATOM     46  C   UNL     1       0.483   5.611  -7.154  1.00  0.00     0.031 C 
ATOM     47  C   UNL     1       1.530   6.403  -2.309  1.00  0.00     0.029 A 
ATOM     48  N   UNL     1       0.640   8.112  -3.447  1.00  0.00    -0.354 N 
ATOM     49  C   UNL     1      -0.362   7.671  -7.653  1.00  0.00     0.074 A 
ATOM     50  C   UNL     1      -0.015   6.352  -8.130  1.00  0.00     0.031 C 
ATOM     51  C   UNL     1       1.389   7.431  -1.454  1.00  0.00     0.029 A 
ATOM     52  C   UNL     1       0.854   8.584  -2.176  1.00  0.00     0.049 A 
ATOM     53  H   UNL     1       0.227   8.650  -4.161  1.00  0.00     0.167 HD
ATOM     54  C   UNL     1      -0.937   8.628  -8.415  1.00  0.00     0.031 A 
ATOM     55  C   UNL     1       0.663   9.819  -1.672  1.00  0.00     0.031 A 
ATOM     56  C   UNL     1      -1.245   9.948  -7.939  1.00  0.00     0.049 A 
ATOM     57  C   UNL     1       0.113  10.896  -2.573  1.00  0.00     0.074 A 
ATOM     58  C   UNL     1      -1.831  10.995  -8.625  1.00  0.00     0.029 A 
ATOM     59  N   UNL     1      -0.974  10.405  -6.658  1.00  0.00    -0.354 N 
ATOM     60  N   UNL     1      -0.261  10.818  -3.829  1.00  0.00    -0.248 NA
ATOM     61  C   UNL     1      -0.050  12.233  -1.983  1.00  0.00     0.031 C 
ATOM     62  C   UNL     1      -1.843  12.110  -7.783  1.00  0.00     0.029 A 
ATOM     63  C   UNL     1      -1.349  11.732  -6.545  1.00  0.00     0.049 A 
ATOM     64  H   UNL     1      -0.575   9.866  -5.937  1.00  0.00     0.167 HD
ATOM     65  C   UNL     1      -0.736  12.081  -4.165  1.00  0.00     0.074 A 
ATOM     66  C   UNL     1      -0.622  12.899  -2.976  1.00  0.00     0.031 C 
ATOM     67  C   UNL     1      -1.227  12.526  -5.348  1.00  0.00     0.031 A 
BRANCH  54  68
ATOM     68  C   UNL     1      -1.216   8.296  -9.854  1.00  0.00    -0.014 A 
ATOM     69  C   UNL     1      -2.202   7.364 -10.216  1.00  0.00     0.009 A 
ATOM     70  C   UNL     1      -0.502   8.956 -10.867  1.00  0.00     0.009 A 
ATOM     71  C   UNL     1      -2.445   7.078 -11.561  1.00  0.00     0.001 A 
ATOM     72  C   UNL     1      -0.771   8.694 -12.211  1.00  0.00     0.001 A 
ATOM     73  C   UNL     1      -1.736   7.750 -12.556  1.00  0.00     0.000 A 
ENDBRANCH  54  68
BRANCH  55  74
ATOM     74  C   UNL     1       1.023  10.123  -0.260  1.00  0.00    -0.014 A 
ATOM     75  C   UNL     1       0.040  10.502   0.668  1.00  0.00     0.009 A 
ATOM     76  C   UNL     1       2.363  10.085   0.158  1.00  0.00     0.009 A 
ATOM     77  C   UNL     1       0.395  10.875   1.967  1.00  0.00     0.001 A 
ATOM     78  C   UNL     1       2.712  10.420   1.468  1.00  0.00     0.001 A 
ATOM     79  C   UNL     1       1.730  10.830   2.367  1.00  0.00     0.000 A 
ENDBRANCH  55  74
BRANCH  67  80
ATOM     80  C   UNL     1      -1.729  13.944  -5.402  1.00  0.00    -0.014 A 
ATOM     81  C   UNL     1      -0.858  15.041  -5.312  1.00  0.00     0.009 A 
ATOM     82  C   UNL     1      -3.100  14.182  -5.596  1.00  0.00     0.009 A 
ATOM     83  C   UNL     1      -1.355  16.344  -5.371  1.00  0.00     0.001 A 
ATOM     84  C   UNL     1      -3.589  15.484  -5.697  1.00  0.00     0.001 A 
ATOM     85  C   UNL     1      -2.718  16.564  -5.571  1.00  0.00     0.000 A 
ENDBRANCH  67  80
ENDBRANCH  41  42
ENDBRANCH  34  36
ENDBRANCH  33  34
ENDBRANCH  32  33
ENDBRANCH  31  32
ENDBRANCH  30  31
ENDBRANCH   1  30
TORSDOF 19
