REMARK SMILES CNc1nccc(-c2cc(C(=O)OCCOCCOCCOC(=O)c3ccc(-c4c5nc(c(-c6ccccc6)c6ccc([nH]6)c(-c6ccccc6)c6nc(c(-c7ccccc7)c7ccc4[nH]7)C=C6)C=C5)cc3)ccn2)n1
REMARK SMILES IDX 17 1 16 2 15 3 14 4 13 5 11 6 12 7 10 8 8 9 9 10 75 11 74 12
REMARK SMILES IDX 73 13 7 14 3 15 4 16 76 17 5 18 6 19 2 20 1 21 18 23 19 24
REMARK SMILES IDX 20 25 21 26 22 27 23 28 24 29 25 30 26 31 72 32 27 33 71 34
REMARK SMILES IDX 28 35 29 36 30 37 65 38 31 39 70 40 64 41 66 42 32 43 69 44
REMARK SMILES IDX 63 45 62 46 33 48 55 49 40 50 54 51 41 52 44 53 53 54 67 55
REMARK SMILES IDX 42 56 43 57 52 59 68 60 45 61 34 62 35 63 39 64 36 65 38 66
REMARK SMILES IDX 37 67 56 68 57 69 61 70 58 71 60 72 59 73 46 74 47 75 51 76
REMARK SMILES IDX 48 77 50 78 49 79
REMARK H PARENT 2 22 66 47 44 58
REMARK Flexibility Score: inf
ROOT
ATOM      1  C   UNL     1      -4.771   0.456  -7.146  1.00  0.00     0.188 C 
ENDROOT
BRANCH   1   2
ATOM      2  O   UNL     1      -4.985   1.089  -8.398  1.00  0.00    -0.376 OA
BRANCH   2   3
ATOM      3  C   UNL     1      -4.409   2.360  -8.666  1.00  0.00     0.202 C 
BRANCH   3   4
ATOM      4  C   UNL     1      -4.471   3.506  -7.640  1.00  0.00     0.261 C 
BRANCH   4   5
ATOM      5  O   UNL     1      -4.139   3.151  -6.290  1.00  0.00    -0.460 OA
BRANCH   5   6
ATOM      6  C   UNL     1      -5.166   3.178  -5.404  1.00  0.00     0.338 C 
ATOM      7  O   UNL     1      -6.313   3.523  -5.614  1.00  0.00    -0.246 OA
BRANCH   6   8
ATOM      8  C   UNL     1      -4.745   2.519  -4.148  1.00  0.00     0.063 A 
ATOM      9  C   UNL     1      -3.209   2.178  -2.342  1.00  0.00     0.090 A 
ATOM     10  C   UNL     1      -3.524   2.811  -3.544  1.00  0.00     0.046 A 
ATOM     11  N   UNL     1      -4.022   1.229  -1.804  1.00  0.00    -0.255 NA
ATOM     12  C   UNL     1      -5.183   0.944  -2.432  1.00  0.00     0.112 A 
ATOM     13  C   UNL     1      -5.601   1.578  -3.582  1.00  0.00     0.036 A 
BRANCH   9  14
ATOM     14  C   UNL     1      -2.085   2.643  -1.502  1.00  0.00     0.094 A 
ATOM     15  C   UNL     1      -0.293   2.164  -0.139  1.00  0.00     0.222 A 
ATOM     16  N   UNL     1      -0.111   3.455   0.175  1.00  0.00    -0.222 NA
ATOM     17  N   UNL     1      -1.253   1.718  -0.963  1.00  0.00    -0.211 NA
ATOM     18  C   UNL     1      -0.930   4.347  -0.394  1.00  0.00     0.117 A 
ATOM     19  C   UNL     1      -1.938   3.995  -1.249  1.00  0.00     0.051 A 
BRANCH  15  20
ATOM     20  N   UNL     1       0.629   1.323   0.416  1.00  0.00    -0.357 N 
ATOM     21  C   UNL     1       0.852  -0.009  -0.057  1.00  0.00     0.143 C 
ATOM     22  H   UNL     1       1.164   1.648   1.176  1.00  0.00     0.163 HD
ENDBRANCH  15  20
ENDBRANCH   9  14
ENDBRANCH   6   8
ENDBRANCH   5   6
ENDBRANCH   4   5
ENDBRANCH   3   4
ENDBRANCH   2   3
ENDBRANCH   1   2
BRANCH   1  23
ATOM     23  C   UNL     1      -3.343   0.309  -6.577  1.00  0.00     0.188 C 
BRANCH  23  24
ATOM     24  O   UNL     1      -2.345   0.979  -7.305  1.00  0.00    -0.376 OA
BRANCH  24  25
ATOM     25  C   UNL     1      -1.622   0.288  -8.309  1.00  0.00     0.202 C 
BRANCH  25  26
ATOM     26  C   UNL     1      -2.067  -1.018  -9.003  1.00  0.00     0.261 C 
BRANCH  26  27
ATOM     27  O   UNL     1      -3.253  -1.675  -8.545  1.00  0.00    -0.460 OA
BRANCH  27  28
ATOM     28  C   UNL     1      -3.071  -2.731  -7.716  1.00  0.00     0.338 C 
ATOM     29  O   UNL     1      -2.019  -3.155  -7.278  1.00  0.00    -0.246 OA
BRANCH  28  30
ATOM     30  C   UNL     1      -4.395  -3.211  -7.271  1.00  0.00     0.060 A 
ATOM     31  C   UNL     1      -4.764  -3.034  -5.930  1.00  0.00     0.016 A 
ATOM     32  C   UNL     1      -5.246  -3.865  -8.161  1.00  0.00     0.016 A 
ATOM     33  C   UNL     1      -5.981  -3.538  -5.469  1.00  0.00     0.010 A 
ATOM     34  C   UNL     1      -6.456  -4.387  -7.692  1.00  0.00     0.010 A 
ATOM     35  C   UNL     1      -6.815  -4.254  -6.338  1.00  0.00    -0.014 A 
BRANCH  35  36
ATOM     36  C   UNL     1      -7.964  -5.021  -5.799  1.00  0.00     0.031 A 
ATOM     37  C   UNL     1      -7.796  -6.499  -5.567  1.00  0.00     0.074 A 
ATOM     38  C   UNL     1      -9.135  -4.426  -5.512  1.00  0.00     0.049 A 
ATOM     39  N   UNL     1      -8.673  -7.383  -5.166  1.00  0.00    -0.248 NA
ATOM     40  C   UNL     1      -6.456  -7.052  -5.827  1.00  0.00     0.031 C 
ATOM     41  C   UNL     1      -9.416  -2.998  -5.645  1.00  0.00     0.029 A 
ATOM     42  N   UNL     1     -10.315  -4.962  -5.056  1.00  0.00    -0.354 N 
ATOM     43  C   UNL     1      -7.997  -8.597  -5.141  1.00  0.00     0.074 A 
ATOM     44  C   UNL     1      -6.647  -8.341  -5.593  1.00  0.00     0.031 C 
ATOM     45  C   UNL     1     -10.693  -2.772  -5.287  1.00  0.00     0.029 A 
ATOM     46  C   UNL     1     -11.328  -4.042  -4.940  1.00  0.00     0.049 A 
ATOM     47  H   UNL     1     -10.423  -5.914  -4.833  1.00  0.00     0.167 HD
ATOM     48  C   UNL     1      -8.456  -9.816  -4.771  1.00  0.00     0.031 A 
ATOM     49  C   UNL     1     -12.625  -4.211  -4.617  1.00  0.00     0.031 A 
ATOM     50  C   UNL     1      -9.803 -10.076  -4.338  1.00  0.00     0.049 A 
ATOM     51  C   UNL     1     -13.136  -5.593  -4.292  1.00  0.00     0.074 A 
ATOM     52  C   UNL     1     -10.359 -11.276  -3.929  1.00  0.00     0.029 A 
ATOM     53  N   UNL     1     -10.807  -9.124  -4.268  1.00  0.00    -0.354 N 
ATOM     54  N   UNL     1     -12.482  -6.729  -4.247  1.00  0.00    -0.248 NA
ATOM     55  C   UNL     1     -14.565  -5.710  -3.965  1.00  0.00     0.031 C 
ATOM     56  C   UNL     1     -11.718 -11.062  -3.676  1.00  0.00     0.029 A 
ATOM     57  C   UNL     1     -11.988  -9.715  -3.852  1.00  0.00     0.049 A 
ATOM     58  H   UNL     1     -10.697  -8.169  -4.482  1.00  0.00     0.167 HD
ATOM     59  C   UNL     1     -13.410  -7.686  -3.850  1.00  0.00     0.074 A 
ATOM     60  C   UNL     1     -14.667  -6.995  -3.656  1.00  0.00     0.031 C 
ATOM     61  C   UNL     1     -13.234  -9.017  -3.657  1.00  0.00     0.031 A 
BRANCH  48  62
ATOM     62  C   UNL     1      -7.499 -10.973  -4.865  1.00  0.00    -0.014 A 
ATOM     63  C   UNL     1      -6.404 -11.093  -3.995  1.00  0.00     0.009 A 
ATOM     64  C   UNL     1      -7.717 -11.977  -5.822  1.00  0.00     0.009 A 
ATOM     65  C   UNL     1      -5.526 -12.174  -4.107  1.00  0.00     0.001 A 
ATOM     66  C   UNL     1      -6.858 -13.073  -5.910  1.00  0.00     0.001 A 
ATOM     67  C   UNL     1      -5.757 -13.165  -5.060  1.00  0.00     0.000 A 
ENDBRANCH  48  62
BRANCH  49  68
ATOM     68  C   UNL     1     -13.551  -3.046  -4.604  1.00  0.00    -0.014 A 
ATOM     69  C   UNL     1     -14.114  -2.590  -3.402  1.00  0.00     0.009 A 
ATOM     70  C   UNL     1     -13.902  -2.403  -5.801  1.00  0.00     0.009 A 
ATOM     71  C   UNL     1     -15.031  -1.535  -3.403  1.00  0.00     0.001 A 
ATOM     72  C   UNL     1     -14.793  -1.327  -5.796  1.00  0.00     0.001 A 
ATOM     73  C   UNL     1     -15.365  -0.902  -4.599  1.00  0.00     0.000 A 
ENDBRANCH  49  68
BRANCH  61  74
ATOM     74  C   UNL     1     -14.412  -9.810  -3.159  1.00  0.00    -0.014 A 
ATOM     75  C   UNL     1     -15.527 -10.067  -3.973  1.00  0.00     0.009 A 
ATOM     76  C   UNL     1     -14.382 -10.350  -1.863  1.00  0.00     0.009 A 
ATOM     77  C   UNL     1     -16.602 -10.814  -3.483  1.00  0.00     0.001 A 
ATOM     78  C   UNL     1     -15.441 -11.125  -1.389  1.00  0.00     0.001 A 
ATOM     79  C   UNL     1     -16.555 -11.347  -2.195  1.00  0.00     0.000 A 
ENDBRANCH  61  74
ENDBRANCH  35  36
ENDBRANCH  28  30
ENDBRANCH  27  28
ENDBRANCH  26  27
ENDBRANCH  25  26
ENDBRANCH  24  25
ENDBRANCH  23  24
ENDBRANCH   1  23
TORSDOF 19
