REMARK SMILES C[C@]([NH3+])(C(=O)N1[C@@H](C(=O)OCCOCCOCCOC(=O)c2ccc(-c3c4nc(c(-c5ccccc5)c5ccc([nH]5)c(-c5ccccc5)c5nc(c(-c6ccccc6)c6ccc3[nH]6)C=C5)C=C4)cc2)C[C@H]2CCCC[C@@H]21)C(F)(F)F
REMARK SMILES IDX 14 1 13 2 12 3 11 4 10 5 8 6 9 7 7 8 6 9 76 10 70 11 71 12
REMARK SMILES IDX 75 13 72 14 74 15 73 16 4 17 5 18 2 19 1 20 77 21 78 22
REMARK SMILES IDX 79 23 80 24 3 25 15 29 16 30 17 31 18 32 19 33 20 34 21 35
REMARK SMILES IDX 22 36 23 37 69 38 24 39 68 40 25 41 26 42 27 43 62 44 28 45
REMARK SMILES IDX 67 46 61 47 63 48 29 49 66 50 60 51 59 52 30 54 52 55 37 56
REMARK SMILES IDX 51 57 38 58 41 59 50 60 64 61 39 62 40 63 49 65 65 66 42 67
REMARK SMILES IDX 31 68 32 69 36 70 33 71 35 72 34 73 53 74 54 75 58 76 55 77
REMARK SMILES IDX 57 78 56 79 43 80 44 81 48 82 45 83 47 84 46 85
REMARK H PARENT 3 26 3 27 3 28 63 53 41 64
REMARK Flexibility Score: inf
ROOT
ATOM      1  C   UNL     1      -0.753   3.075  -0.822  1.00  0.00     0.188 C 
ENDROOT
BRANCH   1   2
ATOM      2  O   UNL     1      -1.484   3.793  -1.786  1.00  0.00    -0.376 OA
BRANCH   2   3
ATOM      3  C   UNL     1      -2.890   3.947  -1.694  1.00  0.00     0.202 C 
BRANCH   3   4
ATOM      4  C   UNL     1      -3.815   3.154  -0.753  1.00  0.00     0.261 C 
BRANCH   4   5
ATOM      5  O   UNL     1      -3.199   2.531   0.375  1.00  0.00    -0.462 OA
BRANCH   5   6
ATOM      6  C   UNL     1      -3.090   1.167   0.340  1.00  0.00     0.328 C 
ATOM      7  O   UNL     1      -3.488   0.463  -0.576  1.00  0.00    -0.250 OA
BRANCH   6   8
ATOM      8  C   UNL     1      -2.216   0.686   1.525  1.00  0.00     0.196 C 
ATOM      9  N   UNL     1      -2.209  -0.775   1.666  1.00  0.00    -0.320 N 
ATOM     10  C   UNL     1      -3.318  -1.123   2.522  1.00  0.00     0.089 C 
ATOM     11  C   UNL     1      -2.804   1.212   2.847  1.00  0.00     0.043 C 
ATOM     12  C   UNL     1      -3.155  -0.057   3.611  1.00  0.00     0.014 C 
ATOM     13  C   UNL     1      -3.353  -2.490   3.189  1.00  0.00     0.025 C 
ATOM     14  C   UNL     1      -4.375  -0.004   4.505  1.00  0.00     0.006 C 
ATOM     15  C   UNL     1      -4.540  -2.537   4.161  1.00  0.00     0.002 C 
ATOM     16  C   UNL     1      -4.560  -1.374   5.164  1.00  0.00     0.000 C 
BRANCH   9  17
ATOM     17  C   UNL     1      -1.571  -1.689   0.840  1.00  0.00     0.294 C 
ATOM     18  O   UNL     1      -2.201  -2.652   0.403  1.00  0.00    -0.267 OA
BRANCH  17  19
ATOM     19  C   UNL     1      -0.021  -1.605   0.697  1.00  0.00     0.267 C 
ATOM     20  C   UNL     1       0.608  -1.824   2.085  1.00  0.00     0.100 C 
BRANCH  19  21
ATOM     21  C   UNL     1       0.428  -2.761  -0.238  1.00  0.00     0.453 C 
ATOM     22  F   UNL     1      -0.087  -2.629  -1.481  1.00  0.00    -0.164 F 
ATOM     23  F   UNL     1       1.783  -2.748  -0.368  1.00  0.00    -0.164 F 
ATOM     24  F   UNL     1       0.108  -3.985   0.236  1.00  0.00    -0.164 F 
ENDBRANCH  19  21
BRANCH  19  25
ATOM     25  N   UNL     1       0.443  -0.271   0.203  1.00  0.00    -0.337 N 
ATOM     26  H   UNL     1       0.044  -0.092  -0.718  1.00  0.00     0.345 HD
ATOM     27  H   UNL     1       1.461  -0.268   0.139  1.00  0.00     0.345 HD
ATOM     28  H   UNL     1       0.141   0.456   0.852  1.00  0.00     0.345 HD
ENDBRANCH  19  25
ENDBRANCH  17  19
ENDBRANCH   9  17
ENDBRANCH   6   8
ENDBRANCH   5   6
ENDBRANCH   4   5
ENDBRANCH   3   4
ENDBRANCH   2   3
ENDBRANCH   1   2
BRANCH   1  29
ATOM     29  C   UNL     1      -0.531   3.709   0.569  1.00  0.00     0.188 C 
BRANCH  29  30
ATOM     30  O   UNL     1      -1.124   4.946   0.887  1.00  0.00    -0.376 OA
BRANCH  30  31
ATOM     31  C   UNL     1      -0.815   6.080   0.096  1.00  0.00     0.202 C 
BRANCH  31  32
ATOM     32  C   UNL     1       0.588   6.327  -0.496  1.00  0.00     0.261 C 
BRANCH  32  33
ATOM     33  O   UNL     1       1.289   5.187  -1.026  1.00  0.00    -0.460 OA
BRANCH  33  34
ATOM     34  C   UNL     1       2.406   4.808  -0.353  1.00  0.00     0.338 C 
ATOM     35  O   UNL     1       2.864   5.319   0.659  1.00  0.00    -0.246 OA
BRANCH  34  36
ATOM     36  C   UNL     1       2.905   3.524  -0.893  1.00  0.00     0.060 A 
ATOM     37  C   UNL     1       2.873   2.389  -0.070  1.00  0.00     0.016 A 
ATOM     38  C   UNL     1       3.411   3.433  -2.189  1.00  0.00     0.016 A 
ATOM     39  C   UNL     1       3.319   1.155  -0.553  1.00  0.00     0.010 A 
ATOM     40  C   UNL     1       3.887   2.200  -2.659  1.00  0.00     0.010 A 
ATOM     41  C   UNL     1       3.840   1.051  -1.849  1.00  0.00    -0.014 A 
BRANCH  41  42
ATOM     42  C   UNL     1       4.421  -0.229  -2.331  1.00  0.00     0.031 A 
ATOM     43  C   UNL     1       5.880  -0.506  -2.106  1.00  0.00     0.074 A 
ATOM     44  C   UNL     1       3.666  -1.137  -2.978  1.00  0.00     0.049 A 
ATOM     45  N   UNL     1       6.615  -1.491  -2.554  1.00  0.00    -0.248 NA
ATOM     46  C   UNL     1       6.608   0.457  -1.264  1.00  0.00     0.031 C 
ATOM     47  C   UNL     1       2.223  -1.045  -3.183  1.00  0.00     0.029 A 
ATOM     48  N   UNL     1       4.015  -2.323  -3.582  1.00  0.00    -0.354 N 
ATOM     49  C   UNL     1       7.897  -1.252  -2.077  1.00  0.00     0.074 A 
ATOM     50  C   UNL     1       7.838  -0.037  -1.294  1.00  0.00     0.031 C 
ATOM     51  C   UNL     1       1.809  -2.130  -3.863  1.00  0.00     0.029 A 
ATOM     52  C   UNL     1       2.963  -2.963  -4.194  1.00  0.00     0.049 A 
ATOM     53  H   UNL     1       4.933  -2.680  -3.576  1.00  0.00     0.167 HD
ATOM     54  C   UNL     1       9.025  -1.968  -2.293  1.00  0.00     0.031 A 
ATOM     55  C   UNL     1       2.939  -4.072  -4.962  1.00  0.00     0.031 A 
ATOM     56  C   UNL     1       9.092  -3.169  -3.082  1.00  0.00     0.049 A 
ATOM     57  C   UNL     1       4.235  -4.781  -5.277  1.00  0.00     0.074 A 
ATOM     58  C   UNL     1      10.197  -3.961  -3.347  1.00  0.00     0.029 A 
ATOM     59  N   UNL     1       8.020  -3.743  -3.745  1.00  0.00    -0.354 N 
ATOM     60  N   UNL     1       5.440  -4.555  -4.814  1.00  0.00    -0.248 NA
ATOM     61  C   UNL     1       4.169  -5.888  -6.247  1.00  0.00     0.031 C 
ATOM     62  C   UNL     1       9.810  -4.968  -4.234  1.00  0.00     0.029 A 
ATOM     63  C   UNL     1       8.449  -4.846  -4.464  1.00  0.00     0.049 A 
ATOM     64  H   UNL     1       7.092  -3.415  -3.711  1.00  0.00     0.167 HD
ATOM     65  C   UNL     1       6.264  -5.498  -5.418  1.00  0.00     0.074 A 
ATOM     66  C   UNL     1       5.422  -6.319  -6.259  1.00  0.00     0.031 C 
ATOM     67  C   UNL     1       7.604  -5.662  -5.295  1.00  0.00     0.031 A 
BRANCH  54  68
ATOM     68  C   UNL     1      10.310  -1.432  -1.731  1.00  0.00    -0.014 A 
ATOM     69  C   UNL     1      10.605  -1.505  -0.362  1.00  0.00     0.009 A 
ATOM     70  C   UNL     1      11.272  -0.905  -2.609  1.00  0.00     0.009 A 
ATOM     71  C   UNL     1      11.832  -1.040   0.118  1.00  0.00     0.001 A 
ATOM     72  C   UNL     1      12.506  -0.468  -2.130  1.00  0.00     0.001 A 
ATOM     73  C   UNL     1      12.783  -0.530  -0.766  1.00  0.00     0.000 A 
ENDBRANCH  54  68
BRANCH  55  74
ATOM     74  C   UNL     1       1.668  -4.559  -5.572  1.00  0.00    -0.014 A 
ATOM     75  C   UNL     1       1.169  -5.836  -5.267  1.00  0.00     0.009 A 
ATOM     76  C   UNL     1       0.995  -3.788  -6.533  1.00  0.00     0.009 A 
ATOM     77  C   UNL     1       0.054  -6.344  -5.940  1.00  0.00     0.001 A 
ATOM     78  C   UNL     1      -0.143  -4.282  -7.176  1.00  0.00     0.001 A 
ATOM     79  C   UNL     1      -0.602  -5.566  -6.892  1.00  0.00     0.000 A 
ENDBRANCH  55  74
BRANCH  67  80
ATOM     80  C   UNL     1       8.248  -6.779  -6.069  1.00  0.00    -0.014 A 
ATOM     81  C   UNL     1       8.400  -6.705  -7.462  1.00  0.00     0.009 A 
ATOM     82  C   UNL     1       8.777  -7.887  -5.387  1.00  0.00     0.009 A 
ATOM     83  C   UNL     1       9.049  -7.728  -8.158  1.00  0.00     0.001 A 
ATOM     84  C   UNL     1       9.453  -8.892  -6.081  1.00  0.00     0.001 A 
ATOM     85  C   UNL     1       9.582  -8.815  -7.467  1.00  0.00     0.000 A 
ENDBRANCH  67  80
ENDBRANCH  41  42
ENDBRANCH  34  36
ENDBRANCH  33  34
ENDBRANCH  32  33
ENDBRANCH  31  32
ENDBRANCH  30  31
ENDBRANCH  29  30
ENDBRANCH   1  29
TORSDOF 21
