REMARK SMILES CC[C@](NC(=O)c1cccc(CS(C)(=O)=O)c1)(C(=O)OCCOCCOCCOC(=O)c1ccc(-c2c3nc(c(-c4ccccc4)c4ccc([nH]4)c(-c4ccccc4)c4nc(c(-c5ccccc5)c5ccc2[nH]5)C=C4)C=C3)cc1)c1ccccc1
REMARK SMILES IDX 24 1 23 2 22 3 21 4 20 5 18 6 19 7 3 8 2 9 1 10 80 11 81 12
REMARK SMILES IDX 85 13 82 14 84 15 83 16 4 17 5 18 6 20 7 21 8 22 17 23 9 24
REMARK SMILES IDX 11 25 10 26 12 27 13 28 14 29 15 30 16 31 25 32 26 33 27 34
REMARK SMILES IDX 28 35 29 36 30 37 31 38 32 39 33 40 79 41 34 42 78 43 35 44
REMARK SMILES IDX 36 45 37 46 72 47 38 48 77 49 71 50 73 51 39 52 76 53 70 54
REMARK SMILES IDX 69 55 40 57 62 58 47 59 61 60 48 61 51 62 60 63 74 64 49 65
REMARK SMILES IDX 50 66 59 68 75 69 52 70 41 71 42 72 46 73 43 74 45 75 44 76
REMARK SMILES IDX 63 77 64 78 68 79 65 80 67 81 66 82 53 83 54 84 58 85 55 86
REMARK SMILES IDX 57 87 56 88
REMARK H PARENT 4 19 73 56 51 67
REMARK Flexibility Score: inf
ROOT
ATOM      1  C   UNL     1       0.968  -3.480  -4.018  1.00  0.00     0.188 C 
ENDROOT
BRANCH   1   2
ATOM      2  O   UNL     1       0.227  -4.643  -4.367  1.00  0.00    -0.376 OA
BRANCH   2   3
ATOM      3  C   UNL     1      -1.032  -4.872  -3.745  1.00  0.00     0.202 C 
BRANCH   3   4
ATOM      4  C   UNL     1      -1.107  -4.863  -2.209  1.00  0.00     0.261 C 
BRANCH   4   5
ATOM      5  O   UNL     1      -0.532  -3.702  -1.564  1.00  0.00    -0.461 OA
BRANCH   5   6
ATOM      6  C   UNL     1       0.300  -3.961  -0.509  1.00  0.00     0.336 C 
ATOM      7  O   UNL     1       0.499  -5.098  -0.083  1.00  0.00    -0.249 OA
BRANCH   6   8
ATOM      8  C   UNL     1       1.011  -2.652   0.106  1.00  0.00     0.163 C 
BRANCH   8   9
ATOM      9  C   UNL     1       0.487  -2.737   1.579  1.00  0.00     0.042 C 
ATOM     10  C   UNL     1       1.085  -1.834   2.640  1.00  0.00     0.007 C 
ENDBRANCH   8   9
BRANCH   8  11
ATOM     11  C   UNL     1       2.546  -2.784  -0.052  1.00  0.00    -0.011 A 
ATOM     12  C   UNL     1       3.153  -3.824  -0.789  1.00  0.00     0.007 A 
ATOM     13  C   UNL     1       3.433  -1.894   0.575  1.00  0.00     0.007 A 
ATOM     14  C   UNL     1       4.545  -3.949  -0.901  1.00  0.00     0.000 A 
ATOM     15  C   UNL     1       4.824  -1.998   0.449  1.00  0.00     0.000 A 
ATOM     16  C   UNL     1       5.382  -3.025  -0.294  1.00  0.00     0.000 A 
ENDBRANCH   8  11
BRANCH   8  17
ATOM     17  N   UNL     1       0.406  -1.447  -0.560  1.00  0.00    -0.332 N 
ATOM     18  C   UNL     1       0.557  -0.089  -0.647  1.00  0.00     0.252 C 
ATOM     19  H   UNL     1      -0.352  -1.728  -1.122  1.00  0.00     0.165 HD
ATOM     20  O   UNL     1      -0.420   0.575  -0.998  1.00  0.00    -0.269 OA
BRANCH  18  21
ATOM     21  C   UNL     1       1.806   0.656  -0.407  1.00  0.00     0.040 A 
ATOM     22  C   UNL     1       1.820   1.637   0.588  1.00  0.00     0.014 A 
ATOM     23  C   UNL     1       2.927   0.497  -1.234  1.00  0.00     0.018 A 
ATOM     24  C   UNL     1       2.980   2.378   0.821  1.00  0.00     0.001 A 
ATOM     25  C   UNL     1       4.121   1.211  -0.978  1.00  0.00    -0.032 A 
ATOM     26  C   UNL     1       4.129   2.148   0.062  1.00  0.00     0.005 A 
BRANCH  25  27
ATOM     27  C   UNL     1       5.397   0.823  -1.679  1.00  0.00     0.172 C 
BRANCH  27  28
ATOM     28  S   UNL     1       6.021   2.011  -2.848  1.00  0.00     0.151 S 
ATOM     29  C   UNL     1       6.817   3.257  -1.861  1.00  0.00     0.158 C 
ATOM     30  O   UNL     1       7.082   1.338  -3.575  1.00  0.00    -0.229 OA
ATOM     31  O   UNL     1       4.926   2.622  -3.574  1.00  0.00    -0.229 OA
ENDBRANCH  27  28
ENDBRANCH  25  27
ENDBRANCH  18  21
ENDBRANCH   8  17
ENDBRANCH   6   8
ENDBRANCH   5   6
ENDBRANCH   4   5
ENDBRANCH   3   4
ENDBRANCH   2   3
ENDBRANCH   1   2
BRANCH   1  32
ATOM     32  C   UNL     1       0.245  -2.129  -3.868  1.00  0.00     0.188 C 
BRANCH  32  33
ATOM     33  O   UNL     1      -1.128  -2.168  -4.146  1.00  0.00    -0.376 OA
BRANCH  33  34
ATOM     34  C   UNL     1      -1.589  -1.628  -5.369  1.00  0.00     0.202 C 
BRANCH  34  35
ATOM     35  C   UNL     1      -0.754  -1.614  -6.669  1.00  0.00     0.261 C 
BRANCH  35  36
ATOM     36  O   UNL     1       0.666  -1.799  -6.560  1.00  0.00    -0.460 OA
BRANCH  36  37
ATOM     37  C   UNL     1       1.439  -0.694  -6.646  1.00  0.00     0.338 C 
ATOM     38  O   UNL     1       1.065   0.465  -6.800  1.00  0.00    -0.246 OA
BRANCH  37  39
ATOM     39  C   UNL     1       2.842  -1.074  -6.401  1.00  0.00     0.060 A 
ATOM     40  C   UNL     1       3.346  -1.025  -5.099  1.00  0.00     0.016 A 
ATOM     41  C   UNL     1       3.681  -1.419  -7.461  1.00  0.00     0.016 A 
ATOM     42  C   UNL     1       4.681  -1.327  -4.852  1.00  0.00     0.010 A 
ATOM     43  C   UNL     1       5.037  -1.677  -7.212  1.00  0.00     0.010 A 
ATOM     44  C   UNL     1       5.555  -1.598  -5.907  1.00  0.00    -0.014 A 
BRANCH  44  45
ATOM     45  C   UNL     1       7.021  -1.579  -5.650  1.00  0.00     0.031 A 
ATOM     46  C   UNL     1       7.827  -0.411  -6.163  1.00  0.00     0.074 A 
ATOM     47  C   UNL     1       7.624  -2.505  -4.881  1.00  0.00     0.049 A 
ATOM     48  N   UNL     1       9.126  -0.245  -6.195  1.00  0.00    -0.248 NA
ATOM     49  C   UNL     1       7.060   0.718  -6.716  1.00  0.00     0.031 C 
ATOM     50  C   UNL     1       6.958  -3.614  -4.197  1.00  0.00     0.029 A 
ATOM     51  N   UNL     1       8.948  -2.651  -4.540  1.00  0.00    -0.354 N 
ATOM     52  C   UNL     1       9.326   0.999  -6.785  1.00  0.00     0.074 A 
ATOM     53  C   UNL     1       8.024   1.528  -7.123  1.00  0.00     0.031 C 
ATOM     54  C   UNL     1       7.877  -4.324  -3.520  1.00  0.00     0.029 A 
ATOM     55  C   UNL     1       9.202  -3.765  -3.779  1.00  0.00     0.049 A 
ATOM     56  H   UNL     1       9.648  -2.016  -4.816  1.00  0.00     0.167 HD
ATOM     57  C   UNL     1      10.491   1.649  -7.017  1.00  0.00     0.031 A 
ATOM     58  C   UNL     1      10.372  -4.303  -3.379  1.00  0.00     0.031 A 
ATOM     59  C   UNL     1      11.786   1.148  -6.646  1.00  0.00     0.049 A 
ATOM     60  C   UNL     1      11.665  -3.644  -3.782  1.00  0.00     0.074 A 
ATOM     61  C   UNL     1      13.028   1.717  -6.867  1.00  0.00     0.029 A 
ATOM     62  N   UNL     1      12.001  -0.036  -5.960  1.00  0.00    -0.354 N 
ATOM     63  N   UNL     1      11.856  -2.516  -4.420  1.00  0.00    -0.248 NA
ATOM     64  C   UNL     1      12.907  -4.347  -3.422  1.00  0.00     0.031 C 
ATOM     65  C   UNL     1      14.000   0.847  -6.363  1.00  0.00     0.029 A 
ATOM     66  C   UNL     1      13.359  -0.232  -5.776  1.00  0.00     0.049 A 
ATOM     67  H   UNL     1      11.294  -0.647  -5.651  1.00  0.00     0.167 HD
ATOM     68  C   UNL     1      13.234  -2.362  -4.520  1.00  0.00     0.074 A 
ATOM     69  C   UNL     1      13.832  -3.503  -3.858  1.00  0.00     0.031 C 
ATOM     70  C   UNL     1      13.941  -1.367  -5.109  1.00  0.00     0.031 A 
BRANCH  57  71
ATOM     71  C   UNL     1      10.418   2.950  -7.764  1.00  0.00    -0.014 A 
ATOM     72  C   UNL     1       9.944   4.125  -7.160  1.00  0.00     0.009 A 
ATOM     73  C   UNL     1      10.858   2.999  -9.096  1.00  0.00     0.009 A 
ATOM     74  C   UNL     1       9.884   5.316  -7.889  1.00  0.00     0.001 A 
ATOM     75  C   UNL     1      10.823   4.195  -9.813  1.00  0.00     0.001 A 
ATOM     76  C   UNL     1      10.328   5.351  -9.211  1.00  0.00     0.000 A 
ENDBRANCH  57  71
BRANCH  58  77
ATOM     77  C   UNL     1      10.387  -5.580  -2.615  1.00  0.00    -0.014 A 
ATOM     78  C   UNL     1      10.852  -5.625  -1.292  1.00  0.00     0.009 A 
ATOM     79  C   UNL     1       9.973  -6.775  -3.227  1.00  0.00     0.009 A 
ATOM     80  C   UNL     1      10.918  -6.841  -0.606  1.00  0.00     0.001 A 
ATOM     81  C   UNL     1      10.010  -7.983  -2.528  1.00  0.00     0.001 A 
ATOM     82  C   UNL     1      10.492  -8.017  -1.222  1.00  0.00     0.000 A 
ENDBRANCH  58  77
BRANCH  70  83
ATOM     83  C   UNL     1      15.440  -1.441  -5.026  1.00  0.00    -0.014 A 
ATOM     84  C   UNL     1      16.168  -2.367  -5.788  1.00  0.00     0.009 A 
ATOM     85  C   UNL     1      16.135  -0.537  -4.207  1.00  0.00     0.009 A 
ATOM     86  C   UNL     1      17.561  -2.407  -5.706  1.00  0.00     0.001 A 
ATOM     87  C   UNL     1      17.529  -0.560  -4.149  1.00  0.00     0.001 A 
ATOM     88  C   UNL     1      18.240  -1.501  -4.891  1.00  0.00     0.000 A 
ENDBRANCH  70  83
ENDBRANCH  44  45
ENDBRANCH  37  39
ENDBRANCH  36  37
ENDBRANCH  35  36
ENDBRANCH  34  35
ENDBRANCH  33  34
ENDBRANCH  32  33
ENDBRANCH   1  32
TORSDOF 23
