REMARK SMILES CC(C)[C@H](NC(=O)OCc1ccccc1)C(=O)NCC(=O)OCCOCCOCCOC(=O)c1ccc(-c2c3nc(c(-c4ccccc4)c4ccc([nH]4)c(-c4ccccc4)c4nc(c(-c5ccccc5)c5ccc2[nH]5)C=C4)C=C3)cc1
REMARK SMILES IDX 24 1 23 2 22 3 20 4 21 5 19 6 18 7 16 8 17 9 4 11 2 12 1 13
REMARK SMILES IDX 3 14 5 15 6 16 7 18 8 19 9 20 10 21 11 22 15 23 12 24 14 25
REMARK SMILES IDX 13 26 25 27 26 28 27 29 28 30 29 31 30 32 31 33 32 34 33 35
REMARK SMILES IDX 34 36 35 37 81 38 36 39 80 40 37 41 38 42 39 43 74 44 40 45
REMARK SMILES IDX 79 46 73 47 75 48 41 49 78 50 72 51 71 52 42 54 64 55 49 56
REMARK SMILES IDX 63 57 50 58 53 59 62 60 76 61 51 62 52 63 61 65 77 66 54 67
REMARK SMILES IDX 43 68 44 69 48 70 45 71 47 72 46 73 65 74 66 75 70 76 67 77
REMARK SMILES IDX 69 78 68 79 55 80 56 81 60 82 57 83 59 84 58 85
REMARK H PARENT 18 10 5 17 75 53 53 64
REMARK Flexibility Score: inf
ROOT
ATOM      1  C   UNL     1       3.516   6.490   0.914  1.00  0.00     0.202 C 
ENDROOT
BRANCH   1   2
ATOM      2  C   UNL     1       3.545   4.965   1.109  1.00  0.00     0.261 C 
BRANCH   2   3
ATOM      3  O   UNL     1       2.260   4.348   0.878  1.00  0.00    -0.462 OA
BRANCH   3   4
ATOM      4  C   UNL     1       1.764   3.612   1.905  1.00  0.00     0.325 C 
ATOM      5  O   UNL     1       2.364   3.358   2.944  1.00  0.00    -0.250 OA
BRANCH   4   6
ATOM      6  C   UNL     1       0.286   3.272   1.734  1.00  0.00     0.238 C 
BRANCH   6   7
ATOM      7  N   UNL     1      -0.372   3.426   0.426  1.00  0.00    -0.343 N 
ATOM      8  C   UNL     1      -1.214   2.540  -0.210  1.00  0.00     0.243 C 
ATOM      9  O   UNL     1      -2.100   2.982  -0.941  1.00  0.00    -0.273 OA
ATOM     10  H   UNL     1      -0.188   4.266  -0.053  1.00  0.00     0.164 HD
BRANCH   8  11
ATOM     11  C   UNL     1      -1.054   1.030   0.062  1.00  0.00     0.177 C 
BRANCH  11  12
ATOM     12  C   UNL     1      -1.892   0.467   1.250  1.00  0.00     0.015 C 
ATOM     13  C   UNL     1      -2.463   1.483   2.251  1.00  0.00     0.010 C 
ATOM     14  C   UNL     1      -3.070  -0.360   0.715  1.00  0.00     0.010 C 
ENDBRANCH  11  12
BRANCH  11  15
ATOM     15  N   UNL     1       0.393   0.865   0.222  1.00  0.00    -0.309 N 
ATOM     16  C   UNL     1       1.153  -0.238   0.319  1.00  0.00     0.408 C 
ATOM     17  H   UNL     1       0.895   1.710   0.265  1.00  0.00     0.167 HD
ATOM     18  O   UNL     1       2.333  -0.135   0.631  1.00  0.00    -0.225 OA
BRANCH  16  19
ATOM     19  O   UNL     1       0.517  -1.362  -0.060  1.00  0.00    -0.445 OA
BRANCH  19  20
ATOM     20  C   UNL     1       1.373  -2.508  -0.118  1.00  0.00     0.270 C 
BRANCH  20  21
ATOM     21  C   UNL     1       2.193  -2.635  -1.390  1.00  0.00    -0.011 A 
ATOM     22  C   UNL     1       2.678  -3.904  -1.742  1.00  0.00     0.007 A 
ATOM     23  C   UNL     1       2.583  -1.539  -2.178  1.00  0.00     0.007 A 
ATOM     24  C   UNL     1       3.522  -4.070  -2.843  1.00  0.00     0.000 A 
ATOM     25  C   UNL     1       3.436  -1.704  -3.272  1.00  0.00     0.000 A 
ATOM     26  C   UNL     1       3.906  -2.969  -3.603  1.00  0.00     0.000 A 
ENDBRANCH  20  21
ENDBRANCH  19  20
ENDBRANCH  16  19
ENDBRANCH  11  15
ENDBRANCH   8  11
ENDBRANCH   6   7
ENDBRANCH   4   6
ENDBRANCH   3   4
ENDBRANCH   2   3
ENDBRANCH   1   2
BRANCH   1  27
ATOM     27  O   UNL     1       2.767   7.280   1.842  1.00  0.00    -0.376 OA
BRANCH  27  28
ATOM     28  C   UNL     1       1.449   6.870   2.168  1.00  0.00     0.188 C 
BRANCH  28  29
ATOM     29  C   UNL     1       0.434   6.739   1.028  1.00  0.00     0.188 C 
BRANCH  29  30
ATOM     30  O   UNL     1       0.997   6.585  -0.257  1.00  0.00    -0.376 OA
BRANCH  30  31
ATOM     31  C   UNL     1       0.643   7.537  -1.263  1.00  0.00     0.202 C 
BRANCH  31  32
ATOM     32  C   UNL     1       0.782   9.042  -0.939  1.00  0.00     0.261 C 
BRANCH  32  33
ATOM     33  O   UNL     1       0.004   9.526   0.175  1.00  0.00    -0.460 OA
BRANCH  33  34
ATOM     34  C   UNL     1      -1.344   9.395   0.095  1.00  0.00     0.338 C 
ATOM     35  O   UNL     1      -1.986   9.058  -0.883  1.00  0.00    -0.246 OA
BRANCH  34  36
ATOM     36  C   UNL     1      -1.880   9.430   1.482  1.00  0.00     0.060 A 
ATOM     37  C   UNL     1      -2.686   8.363   1.911  1.00  0.00     0.016 A 
ATOM     38  C   UNL     1      -1.527  10.443   2.376  1.00  0.00     0.016 A 
ATOM     39  C   UNL     1      -3.168   8.327   3.222  1.00  0.00     0.010 A 
ATOM     40  C   UNL     1      -2.031  10.419   3.682  1.00  0.00     0.010 A 
ATOM     41  C   UNL     1      -2.879   9.378   4.103  1.00  0.00    -0.014 A 
BRANCH  41  42
ATOM     42  C   UNL     1      -3.640   9.510   5.372  1.00  0.00     0.031 A 
ATOM     43  C   UNL     1      -4.877  10.370   5.363  1.00  0.00     0.074 A 
ATOM     44  C   UNL     1      -3.278   8.874   6.501  1.00  0.00     0.049 A 
ATOM     45  N   UNL     1      -5.687  10.675   6.344  1.00  0.00    -0.248 NA
ATOM     46  C   UNL     1      -5.247  10.965   4.067  1.00  0.00     0.031 C 
ATOM     47  C   UNL     1      -2.143   7.965   6.642  1.00  0.00     0.029 A 
ATOM     48  N   UNL     1      -3.843   8.904   7.754  1.00  0.00    -0.354 N 
ATOM     49  C   UNL     1      -6.662  11.491   5.784  1.00  0.00     0.074 A 
ATOM     50  C   UNL     1      -6.326  11.662   4.388  1.00  0.00     0.031 C 
ATOM     51  C   UNL     1      -2.091   7.527   7.915  1.00  0.00     0.029 A 
ATOM     52  C   UNL     1      -3.169   8.149   8.683  1.00  0.00     0.049 A 
ATOM     53  H   UNL     1      -4.655   9.419   7.965  1.00  0.00     0.167 HD
ATOM     54  C   UNL     1      -7.748  12.044   6.371  1.00  0.00     0.031 A 
ATOM     55  C   UNL     1      -3.388   7.995  10.005  1.00  0.00     0.031 A 
ATOM     56  C   UNL     1      -8.080  11.905   7.762  1.00  0.00     0.049 A 
ATOM     57  C   UNL     1      -4.541   8.714  10.660  1.00  0.00     0.074 A 
ATOM     58  C   UNL     1      -9.152  12.445   8.450  1.00  0.00     0.029 A 
ATOM     59  N   UNL     1      -7.339  11.178   8.678  1.00  0.00    -0.354 N 
ATOM     60  N   UNL     1      -5.461   9.475  10.117  1.00  0.00    -0.248 NA
ATOM     61  C   UNL     1      -4.686   8.547  12.115  1.00  0.00     0.031 C 
ATOM     62  C   UNL     1      -9.033  12.083   9.796  1.00  0.00     0.029 A 
ATOM     63  C   UNL     1      -7.920  11.271   9.931  1.00  0.00     0.049 A 
ATOM     64  H   UNL     1      -6.522  10.671   8.469  1.00  0.00     0.167 HD
ATOM     65  C   UNL     1      -6.311   9.843  11.155  1.00  0.00     0.074 A 
ATOM     66  C   UNL     1      -5.806   9.214  12.356  1.00  0.00     0.031 C 
ATOM     67  C   UNL     1      -7.414  10.631  11.116  1.00  0.00     0.031 A 
BRANCH  54  68
ATOM     68  C   UNL     1      -8.645  12.881   5.504  1.00  0.00    -0.014 A 
ATOM     69  C   UNL     1      -9.482  12.290   4.545  1.00  0.00     0.009 A 
ATOM     70  C   UNL     1      -8.672  14.274   5.667  1.00  0.00     0.009 A 
ATOM     71  C   UNL     1     -10.310  13.081   3.747  1.00  0.00     0.001 A 
ATOM     72  C   UNL     1      -9.521  15.060   4.886  1.00  0.00     0.001 A 
ATOM     73  C   UNL     1     -10.332  14.465   3.922  1.00  0.00     0.000 A 
ENDBRANCH  54  68
BRANCH  55  74
ATOM     74  C   UNL     1      -2.487   7.143  10.829  1.00  0.00    -0.014 A 
ATOM     75  C   UNL     1      -2.959   5.955  11.410  1.00  0.00     0.009 A 
ATOM     76  C   UNL     1      -1.170   7.549  11.095  1.00  0.00     0.009 A 
ATOM     77  C   UNL     1      -2.143   5.212  12.267  1.00  0.00     0.001 A 
ATOM     78  C   UNL     1      -0.347   6.788  11.929  1.00  0.00     0.001 A 
ATOM     79  C   UNL     1      -0.838   5.627  12.524  1.00  0.00     0.000 A 
ENDBRANCH  55  74
BRANCH  67  80
ATOM     80  C   UNL     1      -8.181  10.815  12.397  1.00  0.00    -0.014 A 
ATOM     81  C   UNL     1      -7.681  11.601  13.445  1.00  0.00     0.009 A 
ATOM     82  C   UNL     1      -9.447  10.223  12.536  1.00  0.00     0.009 A 
ATOM     83  C   UNL     1      -8.417  11.761  14.621  1.00  0.00     0.001 A 
ATOM     84  C   UNL     1     -10.194  10.408  13.700  1.00  0.00     0.001 A 
ATOM     85  C   UNL     1      -9.674  11.169  14.746  1.00  0.00     0.000 A 
ENDBRANCH  67  80
ENDBRANCH  41  42
ENDBRANCH  34  36
ENDBRANCH  33  34
ENDBRANCH  32  33
ENDBRANCH  31  32
ENDBRANCH  30  31
ENDBRANCH  29  30
ENDBRANCH  28  29
ENDBRANCH  27  28
ENDBRANCH   1  27
TORSDOF 24
