REMARK SMILES Cc1nn(C)cc1-c1ccnc2nc(CCC(=O)OCCOCCOCCOC(=O)c3ccc(-c4c5nc(c(-c6ccccc6)c6ccc([nH]6)c(-c6ccccc6)c6nc(c(-c7ccccc7)c7ccc4[nH]7)C=C6)C=C5)cc3)nn12
REMARK SMILES IDX 23 1 22 2 21 3 20 4 19 5 17 6 18 7 16 8 15 9 14 10 8 11 9 12
REMARK SMILES IDX 80 13 10 14 12 15 79 16 11 17 13 18 7 19 1 20 2 21 3 22 4 23
REMARK SMILES IDX 6 24 5 25 24 26 25 27 26 28 27 29 28 30 29 31 30 32 31 33
REMARK SMILES IDX 32 34 78 35 33 36 77 37 34 38 35 39 36 40 71 41 37 42 76 43
REMARK SMILES IDX 70 44 72 45 38 46 75 47 69 48 68 49 39 51 61 52 46 53 60 54
REMARK SMILES IDX 47 55 50 56 59 57 73 58 48 59 49 60 58 62 74 63 51 64 40 65
REMARK SMILES IDX 41 66 45 67 42 68 44 69 43 70 62 71 63 72 67 73 64 74 66 75
REMARK SMILES IDX 65 76 52 77 53 78 57 79 54 80 56 81 55 82
REMARK H PARENT 72 50 50 61
REMARK Flexibility Score: inf
ROOT
ATOM      1  C   UNL     1       2.114  -2.423   4.990  1.00  0.00     0.188 C 
ENDROOT
BRANCH   1   2
ATOM      2  O   UNL     1       2.925  -1.452   4.334  1.00  0.00    -0.376 OA
BRANCH   2   3
ATOM      3  C   UNL     1       2.787  -1.374   2.911  1.00  0.00     0.202 C 
BRANCH   3   4
ATOM      4  C   UNL     1       2.902  -2.703   2.155  1.00  0.00     0.261 C 
BRANCH   4   5
ATOM      5  O   UNL     1       1.862  -3.641   2.507  1.00  0.00    -0.463 OA
BRANCH   5   6
ATOM      6  C   UNL     1       2.209  -4.947   2.507  1.00  0.00     0.306 C 
ATOM      7  O   UNL     1       3.332  -5.353   2.219  1.00  0.00    -0.252 OA
BRANCH   6   8
ATOM      8  C   UNL     1       1.155  -5.903   3.028  1.00  0.00     0.131 C 
BRANCH   8   9
ATOM      9  C   UNL     1      -0.316  -5.527   3.123  1.00  0.00     0.091 C 
BRANCH   9  10
ATOM     10  C   UNL     1      -0.960  -4.985   1.903  1.00  0.00     0.154 A 
ATOM     11  C   UNL     1      -1.757  -2.540  -0.460  1.00  0.00     0.081 A 
ATOM     12  C   UNL     1      -2.748  -2.633  -1.368  1.00  0.00     0.049 A 
ATOM     13  N   UNL     1      -1.570  -3.623   0.421  1.00  0.00    -0.196 N 
ATOM     14  C   UNL     1      -3.565  -3.873  -1.332  1.00  0.00     0.117 A 
ATOM     15  C   UNL     1      -2.394  -4.760   0.375  1.00  0.00     0.252 A 
ATOM     16  N   UNL     1      -0.662  -3.786   1.411  1.00  0.00    -0.149 NA
ATOM     17  N   UNL     1      -3.416  -4.872  -0.522  1.00  0.00    -0.220 NA
ATOM     18  N   UNL     1      -2.012  -5.611   1.304  1.00  0.00    -0.194 NA
BRANCH  11  19
ATOM     19  C   UNL     1      -0.924  -1.377  -0.381  1.00  0.00     0.041 A 
ATOM     20  C   UNL     1      -2.628   0.579   0.047  1.00  0.00     0.069 C 
ATOM     21  C   UNL     1      -1.287  -0.020  -0.167  1.00  0.00     0.069 A 
ATOM     22  N   UNL     1      -0.212   0.779  -0.156  1.00  0.00    -0.178 NA
ATOM     23  N   UNL     1       0.824  -0.060  -0.330  1.00  0.00    -0.275 N 
ATOM     24  C   UNL     1       0.447  -1.358  -0.506  1.00  0.00     0.119 A 
ATOM     25  C   UNL     1       2.167   0.467  -0.314  1.00  0.00     0.173 C 
ENDBRANCH  11  19
ENDBRANCH   9  10
ENDBRANCH   8   9
ENDBRANCH   6   8
ENDBRANCH   5   6
ENDBRANCH   4   5
ENDBRANCH   3   4
ENDBRANCH   2   3
ENDBRANCH   1   2
BRANCH   1  26
ATOM     26  C   UNL     1       0.599  -2.240   4.855  1.00  0.00     0.188 C 
BRANCH  26  27
ATOM     27  O   UNL     1       0.208  -1.465   3.747  1.00  0.00    -0.376 OA
BRANCH  27  28
ATOM     28  C   UNL     1      -0.908  -0.597   3.859  1.00  0.00     0.202 C 
BRANCH  28  29
ATOM     29  C   UNL     1      -0.872   0.530   4.919  1.00  0.00     0.261 C 
BRANCH  29  30
ATOM     30  O   UNL     1      -0.466   0.177   6.255  1.00  0.00    -0.460 OA
BRANCH  30  31
ATOM     31  C   UNL     1      -1.285  -0.638   6.963  1.00  0.00     0.338 C 
ATOM     32  O   UNL     1      -2.412  -0.988   6.646  1.00  0.00    -0.246 OA
BRANCH  31  33
ATOM     33  C   UNL     1      -0.472  -1.290   8.031  1.00  0.00     0.060 A 
ATOM     34  C   UNL     1      -0.516  -2.690   8.132  1.00  0.00     0.016 A 
ATOM     35  C   UNL     1       0.398  -0.564   8.849  1.00  0.00     0.016 A 
ATOM     36  C   UNL     1       0.265  -3.358   9.079  1.00  0.00     0.010 A 
ATOM     37  C   UNL     1       1.165  -1.233   9.814  1.00  0.00     0.010 A 
ATOM     38  C   UNL     1       1.073  -2.629   9.961  1.00  0.00    -0.014 A 
BRANCH  38  39
ATOM     39  C   UNL     1       1.625  -3.298  11.169  1.00  0.00     0.031 A 
ATOM     40  C   UNL     1       0.863  -3.160  12.462  1.00  0.00     0.074 A 
ATOM     41  C   UNL     1       2.739  -4.052  11.131  1.00  0.00     0.049 A 
ATOM     42  N   UNL     1       1.127  -3.655  13.645  1.00  0.00    -0.248 NA
ATOM     43  C   UNL     1      -0.366  -2.351  12.409  1.00  0.00     0.031 C 
ATOM     44  C   UNL     1       3.549  -4.315   9.944  1.00  0.00     0.029 A 
ATOM     45  N   UNL     1       3.377  -4.741  12.134  1.00  0.00    -0.354 N 
ATOM     46  C   UNL     1       0.101  -3.215  14.473  1.00  0.00     0.074 A 
ATOM     47  C   UNL     1      -0.765  -2.381  13.670  1.00  0.00     0.031 C 
ATOM     48  C   UNL     1       4.576  -5.113  10.287  1.00  0.00     0.029 A 
ATOM     49  C   UNL     1       4.514  -5.391  11.722  1.00  0.00     0.049 A 
ATOM     50  H   UNL     1       3.050  -4.766  13.062  1.00  0.00     0.167 HD
ATOM     51  C   UNL     1      -0.112  -3.484  15.784  1.00  0.00     0.031 A 
ATOM     52  C   UNL     1       5.408  -6.118  12.423  1.00  0.00     0.031 A 
ATOM     53  C   UNL     1       0.758  -4.290  16.598  1.00  0.00     0.049 A 
ATOM     54  C   UNL     1       5.199  -6.329  13.902  1.00  0.00     0.074 A 
ATOM     55  C   UNL     1       0.625  -4.621  17.935  1.00  0.00     0.029 A 
ATOM     56  N   UNL     1       1.929  -4.882  16.153  1.00  0.00    -0.354 N 
ATOM     57  N   UNL     1       4.214  -5.927  14.669  1.00  0.00    -0.248 NA
ATOM     58  C   UNL     1       6.226  -7.112  14.607  1.00  0.00     0.031 C 
ATOM     59  C   UNL     1       1.751  -5.359  18.316  1.00  0.00     0.029 A 
ATOM     60  C   UNL     1       2.545  -5.553  17.197  1.00  0.00     0.049 A 
ATOM     61  H   UNL     1       2.273  -4.832  15.232  1.00  0.00     0.167 HD
ATOM     62  C   UNL     1       4.484  -6.436  15.935  1.00  0.00     0.074 A 
ATOM     63  C   UNL     1       5.714  -7.193  15.827  1.00  0.00     0.031 C 
ATOM     64  C   UNL     1       3.775  -6.295  17.083  1.00  0.00     0.031 A 
BRANCH  51  65
ATOM     65  C   UNL     1      -1.321  -2.856  16.424  1.00  0.00    -0.014 A 
ATOM     66  C   UNL     1      -2.624  -3.256  16.081  1.00  0.00     0.009 A 
ATOM     67  C   UNL     1      -1.153  -1.853  17.391  1.00  0.00     0.009 A 
ATOM     68  C   UNL     1      -3.731  -2.634  16.663  1.00  0.00     0.001 A 
ATOM     69  C   UNL     1      -2.261  -1.258  17.997  1.00  0.00     0.001 A 
ATOM     70  C   UNL     1      -3.549  -1.640  17.623  1.00  0.00     0.000 A 
ENDBRANCH  51  65
BRANCH  52  71
ATOM     71  C   UNL     1       6.598  -6.703  11.745  1.00  0.00    -0.014 A 
ATOM     72  C   UNL     1       6.737  -8.094  11.613  1.00  0.00     0.009 A 
ATOM     73  C   UNL     1       7.621  -5.873  11.261  1.00  0.00     0.009 A 
ATOM     74  C   UNL     1       7.886  -8.641  11.035  1.00  0.00     0.001 A 
ATOM     75  C   UNL     1       8.753  -6.421  10.653  1.00  0.00     0.001 A 
ATOM     76  C   UNL     1       8.890  -7.804  10.550  1.00  0.00     0.000 A 
ENDBRANCH  52  71
BRANCH  64  77
ATOM     77  C   UNL     1       4.289  -7.014  18.304  1.00  0.00    -0.014 A 
ATOM     78  C   UNL     1       5.483  -6.634  18.938  1.00  0.00     0.009 A 
ATOM     79  C   UNL     1       3.554  -8.086  18.836  1.00  0.00     0.009 A 
ATOM     80  C   UNL     1       5.957  -7.348  20.041  1.00  0.00     0.001 A 
ATOM     81  C   UNL     1       4.011  -8.774  19.962  1.00  0.00     0.001 A 
ATOM     82  C   UNL     1       5.220  -8.415  20.553  1.00  0.00     0.000 A 
ENDBRANCH  64  77
ENDBRANCH  38  39
ENDBRANCH  31  33
ENDBRANCH  30  31
ENDBRANCH  29  30
ENDBRANCH  28  29
ENDBRANCH  27  28
ENDBRANCH  26  27
ENDBRANCH   1  26
TORSDOF 20
