REMARK SMILES Cc1cc(Cl)c(C)c2c1O[C@H](C(F)(F)F)C(C(=O)OCCOCCOCCOC(=O)c1ccc(-c3c4nc(c(-c5ccccc5)c5ccc([nH]5)c(-c5ccccc5)c5nc(c(-c6ccccc6)c6ccc3[nH]6)C=C5)C=C4)cc1)=C2
REMARK SMILES IDX 24 1 23 2 22 3 21 4 20 5 19 6 17 7 18 8 16 9 1 10 2 11 3 12
REMARK SMILES IDX 9 13 4 14 8 15 10 16 5 17 6 18 79 19 11 20 7 21 12 22 13 23
REMARK SMILES IDX 14 24 15 25 25 26 26 27 27 28 28 29 29 30 30 31 31 32 32 33
REMARK SMILES IDX 78 34 33 35 77 36 34 37 35 38 36 39 71 40 37 41 76 42 70 43
REMARK SMILES IDX 72 44 38 45 75 46 69 47 68 48 39 50 61 51 46 52 60 53 47 54
REMARK SMILES IDX 50 55 59 56 73 57 48 58 49 59 58 61 74 62 51 63 40 64 41 65
REMARK SMILES IDX 45 66 42 67 44 68 43 69 62 70 63 71 67 72 64 73 66 74 65 75
REMARK SMILES IDX 52 76 53 77 57 78 54 79 56 80 55 81
REMARK H PARENT 72 49 50 60
REMARK Flexibility Score: inf
ROOT
ATOM      1  C   UNL     1      -3.926  -1.018  -5.243  1.00  0.00     0.188 C 
ENDROOT
BRANCH   1   2
ATOM      2  C   UNL     1      -3.576  -0.403  -6.614  1.00  0.00     0.188 C 
BRANCH   2   3
ATOM      3  O   UNL     1      -3.834  -1.115  -7.806  1.00  0.00    -0.376 OA
BRANCH   3   4
ATOM      4  C   UNL     1      -3.279  -2.401  -8.022  1.00  0.00     0.202 C 
BRANCH   4   5
ATOM      5  C   UNL     1      -1.878  -2.806  -7.536  1.00  0.00     0.261 C 
BRANCH   5   6
ATOM      6  O   UNL     1      -1.497  -2.318  -6.244  1.00  0.00    -0.460 OA
BRANCH   6   7
ATOM      7  C   UNL     1      -0.498  -1.404  -6.243  1.00  0.00     0.338 C 
ATOM      8  O   UNL     1       0.109  -0.983  -7.213  1.00  0.00    -0.246 OA
BRANCH   7   9
ATOM      9  C   UNL     1      -0.334  -0.851  -4.883  1.00  0.00     0.087 C 
ATOM     10  C   UNL     1       0.886  -0.153   0.032  1.00  0.00     0.048 C 
ATOM     11  C   UNL     1       0.568   0.739  -1.136  1.00  0.00    -0.007 A 
ATOM     12  C   UNL     1       0.768   2.117  -1.001  1.00  0.00     0.028 A 
ATOM     13  C   UNL     1       0.175   0.232  -2.382  1.00  0.00     0.131 A 
ATOM     14  C   UNL     1       0.541   2.985  -2.072  1.00  0.00     0.045 A 
ATOM     15  C   UNL     1      -0.005   1.090  -3.483  1.00  0.00     0.022 A 
ATOM     16  O   UNL     1      -0.016  -1.121  -2.441  1.00  0.00    -0.475 OA
ATOM     17  Cl  UNL     1       0.816   4.667  -1.772  1.00  0.00    -0.084 Cl
ATOM     18  C   UNL     1       0.138   2.494  -3.327  1.00  0.00    -0.021 A 
ATOM     19  C   UNL     1      -0.260   0.483  -4.788  1.00  0.00     0.027 C 
ATOM     20  C   UNL     1      -0.261  -1.777  -3.708  1.00  0.00     0.316 C 
ATOM     21  C   UNL     1      -0.124   3.423  -4.489  1.00  0.00     0.047 C 
BRANCH  20  22
ATOM     22  C   UNL     1       0.796  -2.875  -3.884  1.00  0.00     0.430 C 
ATOM     23  F   UNL     1       0.872  -3.663  -2.784  1.00  0.00    -0.167 F 
ATOM     24  F   UNL     1       0.509  -3.690  -4.925  1.00  0.00    -0.167 F 
ATOM     25  F   UNL     1       2.027  -2.359  -4.100  1.00  0.00    -0.167 F 
ENDBRANCH  20  22
ENDBRANCH   7   9
ENDBRANCH   6   7
ENDBRANCH   5   6
ENDBRANCH   4   5
ENDBRANCH   3   4
ENDBRANCH   2   3
ENDBRANCH   1   2
BRANCH   1  26
ATOM     26  O   UNL     1      -4.397  -2.342  -5.192  1.00  0.00    -0.376 OA
BRANCH  26  27
ATOM     27  C   UNL     1      -5.715  -2.650  -5.616  1.00  0.00     0.202 C 
BRANCH  27  28
ATOM     28  C   UNL     1      -6.850  -1.632  -5.852  1.00  0.00     0.261 C 
BRANCH  28  29
ATOM     29  O   UNL     1      -6.490  -0.272  -6.115  1.00  0.00    -0.460 OA
BRANCH  29  30
ATOM     30  C   UNL     1      -6.754   0.606  -5.114  1.00  0.00     0.338 C 
ATOM     31  O   UNL     1      -7.243   0.367  -4.027  1.00  0.00    -0.246 OA
BRANCH  30  32
ATOM     32  C   UNL     1      -6.157   1.911  -5.461  1.00  0.00     0.060 A 
ATOM     33  C   UNL     1      -5.061   2.365  -4.714  1.00  0.00     0.016 A 
ATOM     34  C   UNL     1      -6.684   2.688  -6.493  1.00  0.00     0.016 A 
ATOM     35  C   UNL     1      -4.489   3.604  -4.995  1.00  0.00     0.010 A 
ATOM     36  C   UNL     1      -6.130   3.946  -6.752  1.00  0.00     0.010 A 
ATOM     37  C   UNL     1      -5.046   4.418  -5.989  1.00  0.00    -0.014 A 
BRANCH  37  38
ATOM     38  C   UNL     1      -4.622   5.835  -6.088  1.00  0.00     0.031 A 
ATOM     39  C   UNL     1      -5.418   6.869  -5.340  1.00  0.00     0.074 A 
ATOM     40  C   UNL     1      -3.531   6.199  -6.784  1.00  0.00     0.049 A 
ATOM     41  N   UNL     1      -5.256   8.166  -5.292  1.00  0.00    -0.248 NA
ATOM     42  C   UNL     1      -6.543   6.370  -4.530  1.00  0.00     0.031 C 
ATOM     43  C   UNL     1      -2.632   5.289  -7.491  1.00  0.00     0.029 A 
ATOM     44  N   UNL     1      -2.993   7.443  -7.003  1.00  0.00    -0.354 N 
ATOM     45  C   UNL     1      -6.253   8.636  -4.447  1.00  0.00     0.074 A 
ATOM     46  C   UNL     1      -7.035   7.494  -4.030  1.00  0.00     0.031 C 
ATOM     47  C   UNL     1      -1.653   6.008  -8.068  1.00  0.00     0.029 A 
ATOM     48  C   UNL     1      -1.877   7.429  -7.803  1.00  0.00     0.049 A 
ATOM     49  H   UNL     1      -3.372   8.268  -6.622  1.00  0.00     0.167 HD
ATOM     50  C   UNL     1      -6.492   9.906  -4.046  1.00  0.00     0.031 A 
ATOM     51  C   UNL     1      -1.135   8.448  -8.281  1.00  0.00     0.031 A 
ATOM     52  C   UNL     1      -5.733  11.048  -4.477  1.00  0.00     0.049 A 
ATOM     53  C   UNL     1      -1.499   9.867  -7.920  1.00  0.00     0.074 A 
ATOM     54  C   UNL     1      -5.910  12.376  -4.132  1.00  0.00     0.029 A 
ATOM     55  N   UNL     1      -4.659  10.998  -5.350  1.00  0.00    -0.354 N 
ATOM     56  N   UNL     1      -2.441  10.301  -7.118  1.00  0.00    -0.248 NA
ATOM     57  C   UNL     1      -0.694  10.937  -8.531  1.00  0.00     0.031 C 
ATOM     58  C   UNL     1      -4.983  13.138  -4.847  1.00  0.00     0.029 A 
ATOM     59  C   UNL     1      -4.183  12.277  -5.581  1.00  0.00     0.049 A 
ATOM     60  H   UNL     1      -4.289  10.176  -5.746  1.00  0.00     0.167 HD
ATOM     61  C   UNL     1      -2.325  11.687  -7.107  1.00  0.00     0.074 A 
ATOM     62  C   UNL     1      -1.211  12.021  -7.970  1.00  0.00     0.031 C 
ATOM     63  C   UNL     1      -3.074  12.600  -6.441  1.00  0.00     0.031 A 
BRANCH  50  64
ATOM     64  C   UNL     1      -7.646  10.134  -3.111  1.00  0.00    -0.014 A 
ATOM     65  C   UNL     1      -7.579   9.736  -1.767  1.00  0.00     0.009 A 
ATOM     66  C   UNL     1      -8.789  10.808  -3.567  1.00  0.00     0.009 A 
ATOM     67  C   UNL     1      -8.645   9.993  -0.902  1.00  0.00     0.001 A 
ATOM     68  C   UNL     1      -9.840  11.089  -2.693  1.00  0.00     0.001 A 
ATOM     69  C   UNL     1      -9.770  10.676  -1.363  1.00  0.00     0.000 A 
ENDBRANCH  50  64
BRANCH  51  70
ATOM     70  C   UNL     1       0.023   8.173  -9.174  1.00  0.00    -0.014 A 
ATOM     71  C   UNL     1       1.334   8.433  -8.745  1.00  0.00     0.009 A 
ATOM     72  C   UNL     1      -0.176   7.666 -10.468  1.00  0.00     0.009 A 
ATOM     73  C   UNL     1       2.417   8.207  -9.599  1.00  0.00     0.001 A 
ATOM     74  C   UNL     1       0.910   7.411 -11.308  1.00  0.00     0.001 A 
ATOM     75  C   UNL     1       2.206   7.689 -10.876  1.00  0.00     0.000 A 
ENDBRANCH  51  70
BRANCH  63  76
ATOM     76  C   UNL     1      -2.713  14.053  -6.590  1.00  0.00    -0.014 A 
ATOM     77  C   UNL     1      -2.966  14.747  -7.782  1.00  0.00     0.009 A 
ATOM     78  C   UNL     1      -2.196  14.758  -5.490  1.00  0.00     0.009 A 
ATOM     79  C   UNL     1      -2.691  16.113  -7.876  1.00  0.00     0.001 A 
ATOM     80  C   UNL     1      -1.952  16.129  -5.577  1.00  0.00     0.001 A 
ATOM     81  C   UNL     1      -2.194  16.805  -6.772  1.00  0.00     0.000 A 
ENDBRANCH  63  76
ENDBRANCH  37  38
ENDBRANCH  30  32
ENDBRANCH  29  30
ENDBRANCH  28  29
ENDBRANCH  27  28
ENDBRANCH  26  27
ENDBRANCH   1  26
TORSDOF 18
