REMARK SMILES O=C(OCCOCCOCCOC(=O)c1cc(-c2cccc(Cl)c2)oc1C(F)(F)F)c1ccc(-c2c3nc(c(-c4ccccc4)c4ccc([nH]4)c(-c4ccccc4)c4nc(c(-c5ccccc5)c5ccc2[nH]5)C=C4)C=C3)cc1
REMARK SMILES IDX 7 1 6 2 5 3 4 4 3 5 2 6 1 7 31 8 32 9 78 10 33 11 77 12
REMARK SMILES IDX 34 13 35 14 36 15 71 16 37 17 76 18 70 19 72 20 38 21 75 22
REMARK SMILES IDX 69 23 68 24 39 26 61 27 46 28 60 29 47 30 50 31 59 32 73 33
REMARK SMILES IDX 48 34 49 35 58 37 74 38 51 39 40 40 41 41 45 42 42 43 44 44
REMARK SMILES IDX 43 45 62 46 63 47 67 48 64 49 66 50 65 51 52 52 53 53 57 54
REMARK SMILES IDX 54 55 56 56 55 57 8 58 9 59 10 60 11 61 12 62 13 63 14 64
REMARK SMILES IDX 15 65 16 66 26 67 17 68 25 69 27 70 28 71 29 72 30 73 18 74
REMARK SMILES IDX 19 75 24 76 20 77 22 78 21 79 23 80
REMARK H PARENT 72 25 50 36
REMARK Flexibility Score: inf
ROOT
ATOM      1  C   UNL     1       2.927   0.893   2.616  1.00  0.00     0.188 C 
ENDROOT
BRANCH   1   2
ATOM      2  O   UNL     1       4.054   0.574   1.785  1.00  0.00    -0.376 OA
BRANCH   2   3
ATOM      3  C   UNL     1       4.527   1.722   1.070  1.00  0.00     0.202 C 
BRANCH   3   4
ATOM      4  C   UNL     1       4.273   1.577  -0.431  1.00  0.00     0.261 C 
BRANCH   4   5
ATOM      5  O   UNL     1       2.864   1.354  -0.648  1.00  0.00    -0.460 OA
BRANCH   5   6
ATOM      6  C   UNL     1       2.269   0.229  -1.107  1.00  0.00     0.338 C 
ATOM      7  O   UNL     1       1.044   0.148  -1.139  1.00  0.00    -0.246 OA
BRANCH   6   8
ATOM      8  C   UNL     1       3.064  -0.877  -1.700  1.00  0.00     0.060 A 
ATOM      9  C   UNL     1       4.102  -1.523  -1.022  1.00  0.00     0.016 A 
ATOM     10  C   UNL     1       2.650  -1.372  -2.944  1.00  0.00     0.016 A 
ATOM     11  C   UNL     1       4.790  -2.581  -1.629  1.00  0.00     0.010 A 
ATOM     12  C   UNL     1       3.299  -2.467  -3.525  1.00  0.00     0.010 A 
ATOM     13  C   UNL     1       4.394  -3.066  -2.886  1.00  0.00    -0.014 A 
BRANCH  13  14
ATOM     14  C   UNL     1       5.112  -4.194  -3.538  1.00  0.00     0.031 A 
ATOM     15  C   UNL     1       5.902  -3.966  -4.801  1.00  0.00     0.074 A 
ATOM     16  C   UNL     1       5.079  -5.429  -3.000  1.00  0.00     0.049 A 
ATOM     17  N   UNL     1       6.529  -4.837  -5.553  1.00  0.00    -0.248 NA
ATOM     18  C   UNL     1       6.012  -2.576  -5.273  1.00  0.00     0.031 C 
ATOM     19  C   UNL     1       4.412  -5.800  -1.751  1.00  0.00     0.029 A 
ATOM     20  N   UNL     1       5.642  -6.603  -3.438  1.00  0.00    -0.354 N 
ATOM     21  C   UNL     1       7.100  -4.106  -6.587  1.00  0.00     0.074 A 
ATOM     22  C   UNL     1       6.730  -2.722  -6.379  1.00  0.00     0.031 C 
ATOM     23  C   UNL     1       4.651  -7.097  -1.495  1.00  0.00     0.029 A 
ATOM     24  C   UNL     1       5.428  -7.663  -2.593  1.00  0.00     0.049 A 
ATOM     25  H   UNL     1       6.150  -6.676  -4.277  1.00  0.00     0.167 HD
ATOM     26  C   UNL     1       7.876  -4.538  -7.609  1.00  0.00     0.031 A 
ATOM     27  C   UNL     1       5.795  -8.953  -2.700  1.00  0.00     0.031 A 
ATOM     28  C   UNL     1       8.276  -5.901  -7.824  1.00  0.00     0.049 A 
ATOM     29  C   UNL     1       6.487  -9.433  -3.939  1.00  0.00     0.074 A 
ATOM     30  C   UNL     1       9.110  -6.416  -8.802  1.00  0.00     0.029 A 
ATOM     31  N   UNL     1       7.862  -6.969  -7.049  1.00  0.00    -0.354 N 
ATOM     32  N   UNL     1       6.981  -8.736  -4.929  1.00  0.00    -0.248 NA
ATOM     33  C   UNL     1       6.627 -10.890  -4.091  1.00  0.00     0.031 C 
ATOM     34  C   UNL     1       9.176  -7.806  -8.636  1.00  0.00     0.029 A 
ATOM     35  C   UNL     1       8.394  -8.146  -7.546  1.00  0.00     0.049 A 
ATOM     36  H   UNL     1       7.277  -6.902  -6.260  1.00  0.00     0.167 HD
ATOM     37  C   UNL     1       7.493  -9.666  -5.822  1.00  0.00     0.074 A 
ATOM     38  C   UNL     1       7.247 -10.978  -5.260  1.00  0.00     0.031 C 
ATOM     39  C   UNL     1       8.120  -9.446  -7.002  1.00  0.00     0.031 A 
BRANCH  26  40
ATOM     40  C   UNL     1       8.349  -3.505  -8.585  1.00  0.00    -0.014 A 
ATOM     41  C   UNL     1       9.496  -2.743  -8.318  1.00  0.00     0.009 A 
ATOM     42  C   UNL     1       7.660  -3.311  -9.791  1.00  0.00     0.009 A 
ATOM     43  C   UNL     1       9.935  -1.788  -9.237  1.00  0.00     0.001 A 
ATOM     44  C   UNL     1       8.106  -2.361 -10.711  1.00  0.00     0.001 A 
ATOM     45  C   UNL     1       9.240  -1.598 -10.431  1.00  0.00     0.000 A 
ENDBRANCH  26  40
BRANCH  27  46
ATOM     46  C   UNL     1       5.479  -9.911  -1.616  1.00  0.00    -0.014 A 
ATOM     47  C   UNL     1       6.471 -10.276  -0.696  1.00  0.00     0.009 A 
ATOM     48  C   UNL     1       4.205 -10.486  -1.517  1.00  0.00     0.009 A 
ATOM     49  C   UNL     1       6.194 -11.211   0.303  1.00  0.00     0.001 A 
ATOM     50  C   UNL     1       3.930 -11.416  -0.514  1.00  0.00     0.001 A 
ATOM     51  C   UNL     1       4.924 -11.779   0.393  1.00  0.00     0.000 A 
ENDBRANCH  27  46
BRANCH  39  52
ATOM     52  C   UNL     1       8.576 -10.653  -7.759  1.00  0.00    -0.014 A 
ATOM     53  C   UNL     1       7.698 -11.318  -8.628  1.00  0.00     0.009 A 
ATOM     54  C   UNL     1       9.884 -11.133  -7.603  1.00  0.00     0.009 A 
ATOM     55  C   UNL     1       8.120 -12.457  -9.315  1.00  0.00     0.001 A 
ATOM     56  C   UNL     1      10.304 -12.269  -8.297  1.00  0.00     0.001 A 
ATOM     57  C   UNL     1       9.421 -12.932  -9.148  1.00  0.00     0.000 A 
ENDBRANCH  39  52
ENDBRANCH  13  14
ENDBRANCH   6   8
ENDBRANCH   5   6
ENDBRANCH   4   5
ENDBRANCH   3   4
ENDBRANCH   2   3
ENDBRANCH   1   2
BRANCH   1  58
ATOM     58  C   UNL     1       2.425  -0.339   3.370  1.00  0.00     0.188 C 
BRANCH  58  59
ATOM     59  O   UNL     1       3.305  -0.704   4.436  1.00  0.00    -0.376 OA
BRANCH  59  60
ATOM     60  C   UNL     1       4.365  -1.583   4.050  1.00  0.00     0.202 C 
BRANCH  60  61
ATOM     61  C   UNL     1       3.926  -3.044   4.118  1.00  0.00     0.261 C 
BRANCH  61  62
ATOM     62  O   UNL     1       3.187  -3.418   2.936  1.00  0.00    -0.460 OA
BRANCH  62  63
ATOM     63  C   UNL     1       2.218  -4.351   3.146  1.00  0.00     0.342 C 
ATOM     64  O   UNL     1       1.848  -4.747   4.241  1.00  0.00    -0.246 OA
BRANCH  63  65
ATOM     65  C   UNL     1       1.786  -4.993   1.923  1.00  0.00     0.111 A 
ATOM     66  C   UNL     1       1.786  -6.397   1.685  1.00  0.00     0.067 A 
ATOM     67  C   UNL     1       1.228  -4.417   0.794  1.00  0.00     0.223 A 
ATOM     68  C   UNL     1       1.259  -6.596   0.430  1.00  0.00     0.135 A 
ATOM     69  O   UNL     1       0.941  -5.394  -0.126  1.00  0.00    -0.451 OA
BRANCH  67  70
ATOM     70  C   UNL     1       0.818  -3.037   0.444  1.00  0.00     0.450 C 
ATOM     71  F   UNL     1       0.539  -2.895  -0.875  1.00  0.00    -0.163 F 
ATOM     72  F   UNL     1      -0.291  -2.663   1.131  1.00  0.00    -0.163 F 
ATOM     73  F   UNL     1       1.786  -2.140   0.746  1.00  0.00    -0.163 F 
ENDBRANCH  67  70
BRANCH  68  74
ATOM     74  C   UNL     1       0.936  -7.780  -0.351  1.00  0.00     0.019 A 
ATOM     75  C   UNL     1       0.653  -8.989   0.303  1.00  0.00     0.012 A 
ATOM     76  C   UNL     1       0.888  -7.741  -1.750  1.00  0.00     0.032 A 
ATOM     77  C   UNL     1       0.308 -10.131  -0.421  1.00  0.00     0.002 A 
ATOM     78  C   UNL     1       0.555  -8.888  -2.470  1.00  0.00     0.041 A 
ATOM     79  C   UNL     1       0.259 -10.080  -1.812  1.00  0.00     0.020 A 
ATOM     80  Cl  UNL     1       0.515  -8.836  -4.189  1.00  0.00    -0.084 Cl
ENDBRANCH  68  74
ENDBRANCH  63  65
ENDBRANCH  62  63
ENDBRANCH  61  62
ENDBRANCH  60  61
ENDBRANCH  59  60
ENDBRANCH  58  59
ENDBRANCH   1  58
TORSDOF 19
