REMARK SMILES COc1ccc(C(=O)N[C@H](C(=O)OCCOCCOCCOC(=O)c2ccc(-c3c4nc(c(-c5ccccc5)c5ccc([nH]5)c(-c5ccccc5)c5nc(c(-c6ccccc6)c6ccc3[nH]6)C=C5)C=C4)cc2)C2=C(C)N=N[C@H]2C)c(F)c1F
REMARK SMILES IDX 17 1 16 2 15 3 14 4 13 5 11 6 12 7 10 8 9 9 7 10 8 11 6 13
REMARK SMILES IDX 3 14 4 15 82 16 5 17 80 18 83 19 81 20 2 21 1 22 73 23 74 24
REMARK SMILES IDX 78 25 75 26 76 27 77 28 79 29 18 30 19 31 20 32 21 33 22 34
REMARK SMILES IDX 23 35 24 36 25 37 26 38 72 39 27 40 71 41 28 42 29 43 30 44
REMARK SMILES IDX 65 45 31 46 70 47 64 48 66 49 32 50 69 51 63 52 62 53 33 55
REMARK SMILES IDX 55 56 40 57 54 58 41 59 44 60 53 61 67 62 42 63 43 64 52 66
REMARK SMILES IDX 68 67 45 68 34 69 35 70 39 71 36 72 38 73 37 74 56 75 57 76
REMARK SMILES IDX 61 77 58 78 60 79 59 80 46 81 47 82 51 83 48 84 50 85 49 86
REMARK H PARENT 9 12 66 54 44 65
REMARK Flexibility Score: inf
ROOT
ATOM      1  C   UNL     1       1.695  -4.117  -8.053  1.00  0.00     0.188 C 
ENDROOT
BRANCH   1   2
ATOM      2  O   UNL     1       3.106  -4.083  -8.083  1.00  0.00    -0.376 OA
BRANCH   2   3
ATOM      3  C   UNL     1       3.859  -4.959  -7.251  1.00  0.00     0.202 C 
BRANCH   3   4
ATOM      4  C   UNL     1       3.577  -5.006  -5.743  1.00  0.00     0.261 C 
BRANCH   4   5
ATOM      5  O   UNL     1       2.297  -5.590  -5.436  1.00  0.00    -0.461 OA
BRANCH   5   6
ATOM      6  C   UNL     1       1.401  -4.815  -4.778  1.00  0.00     0.333 C 
ATOM      7  O   UNL     1       1.632  -3.665  -4.416  1.00  0.00    -0.249 OA
BRANCH   6   8
ATOM      8  C   UNL     1      -0.027  -5.431  -4.711  1.00  0.00     0.223 C 
BRANCH   8   9
ATOM      9  N   UNL     1      -0.909  -4.694  -5.639  1.00  0.00    -0.335 N 
ATOM     10  C   UNL     1      -2.238  -4.375  -5.661  1.00  0.00     0.255 C 
ATOM     11  O   UNL     1      -2.675  -3.734  -6.615  1.00  0.00    -0.269 OA
ATOM     12  H   UNL     1      -0.427  -4.353  -6.426  1.00  0.00     0.165 HD
BRANCH  10  13
ATOM     13  C   UNL     1      -3.172  -4.834  -4.628  1.00  0.00     0.078 A 
ATOM     14  C   UNL     1      -4.881  -5.959  -2.719  1.00  0.00     0.157 A 
ATOM     15  C   UNL     1      -5.190  -6.063  -4.077  1.00  0.00     0.050 A 
ATOM     16  C   UNL     1      -3.777  -5.195  -2.330  1.00  0.00     0.201 A 
ATOM     17  C   UNL     1      -4.335  -5.503  -5.033  1.00  0.00     0.021 A 
ATOM     18  C   UNL     1      -2.942  -4.614  -3.277  1.00  0.00     0.175 A 
ATOM     19  F   UNL     1      -3.469  -5.069  -1.030  1.00  0.00    -0.200 F 
ATOM     20  F   UNL     1      -1.897  -3.882  -2.866  1.00  0.00    -0.203 F 
BRANCH  14  21
ATOM     21  O   UNL     1      -5.591  -6.546  -1.708  1.00  0.00    -0.494 OA
ATOM     22  C   UNL     1      -6.370  -7.684  -2.066  1.00  0.00     0.278 C 
ENDBRANCH  14  21
ENDBRANCH  10  13
ENDBRANCH   8   9
BRANCH   8  23
ATOM     23  C   UNL     1      -0.228  -6.919  -4.804  1.00  0.00     0.012 C 
ATOM     24  C   UNL     1       0.255  -7.953  -5.517  1.00  0.00     0.064 C 
ATOM     25  C   UNL     1      -1.125  -7.580  -3.793  1.00  0.00     0.156 C 
ATOM     26  C   UNL     1       1.255  -8.067  -6.614  1.00  0.00     0.069 C 
ATOM     27  N   UNL     1      -0.271  -9.161  -5.117  1.00  0.00    -0.160 NA
ATOM     28  N   UNL     1      -1.050  -9.013  -4.147  1.00  0.00    -0.181 NA
ATOM     29  C   UNL     1      -0.665  -7.421  -2.350  1.00  0.00     0.040 C 
ENDBRANCH   8  23
ENDBRANCH   6   8
ENDBRANCH   5   6
ENDBRANCH   4   5
ENDBRANCH   3   4
ENDBRANCH   2   3
ENDBRANCH   1   2
BRANCH   1  30
ATOM     30  C   UNL     1       0.898  -5.300  -8.649  1.00  0.00     0.188 C 
BRANCH  30  31
ATOM     31  O   UNL     1       1.550  -6.390  -9.270  1.00  0.00    -0.376 OA
BRANCH  31  32
ATOM     32  C   UNL     1       2.530  -6.134 -10.262  1.00  0.00     0.202 C 
BRANCH  32  33
ATOM     33  C   UNL     1       2.150  -5.287 -11.479  1.00  0.00     0.261 C 
BRANCH  33  34
ATOM     34  O   UNL     1       1.671  -3.977 -11.139  1.00  0.00    -0.460 OA
BRANCH  34  35
ATOM     35  C   UNL     1       0.380  -3.730 -11.473  1.00  0.00     0.338 C 
ATOM     36  O   UNL     1      -0.399  -4.478 -12.034  1.00  0.00    -0.246 OA
BRANCH  35  37
ATOM     37  C   UNL     1      -0.030  -2.431 -10.914  1.00  0.00     0.060 A 
ATOM     38  C   UNL     1      -1.048  -2.401  -9.950  1.00  0.00     0.016 A 
ATOM     39  C   UNL     1       0.518  -1.248 -11.410  1.00  0.00     0.016 A 
ATOM     40  C   UNL     1      -1.550  -1.181  -9.504  1.00  0.00     0.010 A 
ATOM     41  C   UNL     1      -0.007  -0.027 -10.985  1.00  0.00     0.010 A 
ATOM     42  C   UNL     1      -1.069   0.009 -10.061  1.00  0.00    -0.014 A 
BRANCH  42  43
ATOM     43  C   UNL     1      -1.816   1.271  -9.858  1.00  0.00     0.031 A 
ATOM     44  C   UNL     1      -2.797   1.693 -10.918  1.00  0.00     0.074 A 
ATOM     45  C   UNL     1      -1.638   2.022  -8.759  1.00  0.00     0.049 A 
ATOM     46  N   UNL     1      -3.494   2.796 -11.014  1.00  0.00    -0.248 NA
ATOM     47  C   UNL     1      -3.016   0.742 -12.021  1.00  0.00     0.031 C 
ATOM     48  C   UNL     1      -0.771   1.687  -7.632  1.00  0.00     0.029 A 
ATOM     49  N   UNL     1      -2.181   3.236  -8.421  1.00  0.00    -0.354 N 
ATOM     50  C   UNL     1      -4.221   2.677 -12.193  1.00  0.00     0.074 A 
ATOM     51  C   UNL     1      -3.864   1.409 -12.789  1.00  0.00     0.031 C 
ATOM     52  C   UNL     1      -0.829   2.683  -6.730  1.00  0.00     0.029 A 
ATOM     53  C   UNL     1      -1.704   3.738  -7.236  1.00  0.00     0.049 A 
ATOM     54  H   UNL     1      -2.847   3.702  -8.976  1.00  0.00     0.167 HD
ATOM     55  C   UNL     1      -5.109   3.546 -12.730  1.00  0.00     0.031 A 
ATOM     56  C   UNL     1      -1.930   4.927  -6.645  1.00  0.00     0.031 A 
ATOM     57  C   UNL     1      -5.452   4.813 -12.143  1.00  0.00     0.049 A 
ATOM     58  C   UNL     1      -2.850   5.918  -7.311  1.00  0.00     0.074 A 
ATOM     59  C   UNL     1      -6.338   5.768 -12.609  1.00  0.00     0.029 A 
ATOM     60  N   UNL     1      -4.917   5.303 -10.962  1.00  0.00    -0.354 N 
ATOM     61  N   UNL     1      -3.535   5.798  -8.423  1.00  0.00    -0.248 NA
ATOM     62  C   UNL     1      -3.031   7.210  -6.633  1.00  0.00     0.031 C 
ATOM     63  C   UNL     1      -6.296   6.861 -11.738  1.00  0.00     0.029 A 
ATOM     64  C   UNL     1      -5.435   6.558 -10.696  1.00  0.00     0.049 A 
ATOM     65  H   UNL     1      -4.265   4.828 -10.397  1.00  0.00     0.167 HD
ATOM     66  C   UNL     1      -4.253   6.981  -8.558  1.00  0.00     0.074 A 
ATOM     67  C   UNL     1      -3.930   7.800  -7.408  1.00  0.00     0.031 C 
ATOM     68  C   UNL     1      -5.105   7.357  -9.543  1.00  0.00     0.031 A 
BRANCH  55  69
ATOM     69  C   UNL     1      -5.736   3.168 -14.043  1.00  0.00    -0.014 A 
ATOM     70  C   UNL     1      -6.680   2.133 -14.133  1.00  0.00     0.009 A 
ATOM     71  C   UNL     1      -5.389   3.874 -15.206  1.00  0.00     0.009 A 
ATOM     72  C   UNL     1      -7.238   1.792 -15.367  1.00  0.00     0.001 A 
ATOM     73  C   UNL     1      -5.970   3.550 -16.432  1.00  0.00     0.001 A 
ATOM     74  C   UNL     1      -6.887   2.503 -16.514  1.00  0.00     0.000 A 
ENDBRANCH  55  69
BRANCH  56  75
ATOM     75  C   UNL     1      -1.253   5.271  -5.366  1.00  0.00    -0.014 A 
ATOM     76  C   UNL     1      -1.991   5.419  -4.182  1.00  0.00     0.009 A 
ATOM     77  C   UNL     1       0.133   5.490  -5.331  1.00  0.00     0.009 A 
ATOM     78  C   UNL     1      -1.361   5.810  -2.998  1.00  0.00     0.001 A 
ATOM     79  C   UNL     1       0.766   5.849  -4.139  1.00  0.00     0.001 A 
ATOM     80  C   UNL     1       0.017   6.021  -2.977  1.00  0.00     0.000 A 
ENDBRANCH  56  75
BRANCH  68  81
ATOM     81  C   UNL     1      -5.788   8.689  -9.396  1.00  0.00    -0.014 A 
ATOM     82  C   UNL     1      -5.086   9.895  -9.547  1.00  0.00     0.009 A 
ATOM     83  C   UNL     1      -7.168   8.734  -9.141  1.00  0.00     0.009 A 
ATOM     84  C   UNL     1      -5.746  11.118  -9.408  1.00  0.00     0.001 A 
ATOM     85  C   UNL     1      -7.831   9.957  -9.034  1.00  0.00     0.001 A 
ATOM     86  C   UNL     1      -7.118  11.148  -9.157  1.00  0.00     0.000 A 
ENDBRANCH  68  81
ENDBRANCH  42  43
ENDBRANCH  35  37
ENDBRANCH  34  35
ENDBRANCH  33  34
ENDBRANCH  32  33
ENDBRANCH  31  32
ENDBRANCH  30  31
ENDBRANCH   1  30
TORSDOF 21
