REMARK SMILES CCc1ccc(S(=O)(=O)c2nnn(-c3ccc(C(=O)OCCOCCOCCOC(=O)c4ccc(-c5c6nc(c(-c7ccccc7)c7ccc([nH]7)c(-c7ccccc7)c7nc(c(-c8ccccc8)c8ccc5[nH]8)C=C7)C=C6)cc4)cc3)c2C)cc1
REMARK SMILES IDX 24 1 23 2 22 3 21 4 20 5 18 6 19 7 17 8 14 9 15 10 81 11
REMARK SMILES IDX 16 12 80 13 13 14 10 15 11 16 82 17 12 18 83 19 7 20 8 21
REMARK SMILES IDX 9 22 6 23 3 24 4 25 85 26 5 27 84 28 2 29 1 30 25 31 26 32
REMARK SMILES IDX 27 33 28 34 29 35 30 36 31 37 32 38 33 39 79 40 34 41 78 42
REMARK SMILES IDX 35 43 36 44 37 45 72 46 38 47 77 48 71 49 73 50 39 51 76 52
REMARK SMILES IDX 70 53 69 54 40 56 62 57 47 58 61 59 48 60 51 61 60 62 74 63
REMARK SMILES IDX 49 64 50 65 59 67 75 68 52 69 41 70 42 71 46 72 43 73 45 74
REMARK SMILES IDX 44 75 63 76 64 77 68 78 65 79 67 80 66 81 53 82 54 83 58 84
REMARK SMILES IDX 55 85 57 86 56 87
REMARK H PARENT 73 55 51 66
REMARK Flexibility Score: inf
ROOT
ATOM      1  C   UNL     1      11.046   0.702  -9.931  1.00  0.00     0.188 C 
ENDROOT
BRANCH   1   2
ATOM      2  O   UNL     1      12.361   1.149  -9.704  1.00  0.00    -0.376 OA
BRANCH   2   3
ATOM      3  C   UNL     1      12.936   1.133  -8.408  1.00  0.00     0.202 C 
BRANCH   3   4
ATOM      4  C   UNL     1      12.247   0.679  -7.105  1.00  0.00     0.261 C 
BRANCH   4   5
ATOM      5  O   UNL     1      11.032  -0.059  -7.219  1.00  0.00    -0.460 OA
BRANCH   5   6
ATOM      6  C   UNL     1       9.902   0.632  -6.945  1.00  0.00     0.338 C 
ATOM      7  O   UNL     1       9.818   1.800  -6.598  1.00  0.00    -0.246 OA
BRANCH   6   8
ATOM      8  C   UNL     1       8.725  -0.187  -7.299  1.00  0.00     0.060 A 
ATOM      9  C   UNL     1       6.373  -1.572  -7.749  1.00  0.00     0.067 A 
ATOM     10  C   UNL     1       6.485  -0.265  -8.229  1.00  0.00     0.029 A 
ATOM     11  C   UNL     1       7.478  -2.238  -7.198  1.00  0.00     0.029 A 
ATOM     12  C   UNL     1       7.660   0.438  -7.968  1.00  0.00     0.018 A 
ATOM     13  C   UNL     1       8.664  -1.545  -6.979  1.00  0.00     0.018 A 
BRANCH   9  14
ATOM     14  N   UNL     1       5.089  -2.139  -7.614  1.00  0.00    -0.216 N 
ATOM     15  C   UNL     1       3.255  -2.984  -6.805  1.00  0.00     0.205 A 
ATOM     16  N   UNL     1       3.017  -2.571  -8.089  1.00  0.00    -0.117 NA
ATOM     17  C   UNL     1       4.548  -2.651  -6.444  1.00  0.00     0.081 A 
ATOM     18  N   UNL     1       4.117  -1.979  -8.539  1.00  0.00    -0.061 NA
ATOM     19  C   UNL     1       5.226  -2.621  -5.123  1.00  0.00     0.070 C 
BRANCH  15  20
ATOM     20  S   UNL     1       2.029  -3.666  -5.798  1.00  0.00     0.227 S 
ATOM     21  O   UNL     1       2.708  -4.755  -5.121  1.00  0.00    -0.217 OA
ATOM     22  O   UNL     1       0.878  -3.878  -6.650  1.00  0.00    -0.217 OA
BRANCH  20  23
ATOM     23  C   UNL     1       1.581  -2.472  -4.564  1.00  0.00     0.073 A 
ATOM     24  C   UNL     1       0.863  -0.693  -2.517  1.00  0.00    -0.048 A 
ATOM     25  C   UNL     1       0.458  -2.035  -2.468  1.00  0.00     0.005 A 
ATOM     26  C   UNL     1       1.632  -0.256  -3.605  1.00  0.00     0.005 A 
ATOM     27  C   UNL     1       0.824  -2.924  -3.480  1.00  0.00     0.021 A 
ATOM     28  C   UNL     1       1.984  -1.136  -4.633  1.00  0.00     0.021 A 
BRANCH  24  29
ATOM     29  C   UNL     1       0.438   0.278  -1.441  1.00  0.00     0.032 C 
ATOM     30  C   UNL     1       0.988  -0.068  -0.065  1.00  0.00     0.009 C 
ENDBRANCH  24  29
ENDBRANCH  20  23
ENDBRANCH  15  20
ENDBRANCH   9  14
ENDBRANCH   6   8
ENDBRANCH   5   6
ENDBRANCH   4   5
ENDBRANCH   3   4
ENDBRANCH   2   3
ENDBRANCH   1   2
BRANCH   1  31
ATOM     31  C   UNL     1      10.798  -0.817 -10.046  1.00  0.00     0.188 C 
BRANCH  31  32
ATOM     32  O   UNL     1      11.666  -1.769  -9.459  1.00  0.00    -0.376 OA
BRANCH  32  33
ATOM     33  C   UNL     1      13.032  -1.898  -9.818  1.00  0.00     0.202 C 
BRANCH  33  34
ATOM     34  C   UNL     1      13.583  -1.647 -11.219  1.00  0.00     0.261 C 
BRANCH  34  35
ATOM     35  O   UNL     1      12.989  -0.567 -11.908  1.00  0.00    -0.460 OA
BRANCH  35  36
ATOM     36  C   UNL     1      12.068  -0.953 -12.814  1.00  0.00     0.338 C 
ATOM     37  O   UNL     1      11.620  -2.073 -12.986  1.00  0.00    -0.246 OA
BRANCH  36  38
ATOM     38  C   UNL     1      11.712   0.194 -13.648  1.00  0.00     0.060 A 
ATOM     39  C   UNL     1      10.628   0.014 -14.508  1.00  0.00     0.016 A 
ATOM     40  C   UNL     1      12.632   1.241 -13.802  1.00  0.00     0.016 A 
ATOM     41  C   UNL     1      10.633   0.710 -15.691  1.00  0.00     0.010 A 
ATOM     42  C   UNL     1      12.635   1.935 -14.986  1.00  0.00     0.010 A 
ATOM     43  C   UNL     1      11.709   1.566 -15.954  1.00  0.00    -0.014 A 
BRANCH  43  44
ATOM     44  C   UNL     1      11.857   2.036 -17.310  1.00  0.00     0.031 A 
ATOM     45  C   UNL     1      10.836   3.018 -17.712  1.00  0.00     0.074 A 
ATOM     46  C   UNL     1      12.855   1.623 -18.111  1.00  0.00     0.049 A 
ATOM     47  N   UNL     1       9.877   2.846 -18.556  1.00  0.00    -0.248 NA
ATOM     48  C   UNL     1      10.788   4.286 -16.973  1.00  0.00     0.031 C 
ATOM     49  C   UNL     1      14.061   0.863 -17.769  1.00  0.00     0.029 A 
ATOM     50  N   UNL     1      13.035   1.906 -19.425  1.00  0.00    -0.354 N 
ATOM     51  C   UNL     1       9.194   4.052 -18.591  1.00  0.00     0.074 A 
ATOM     52  C   UNL     1       9.697   4.843 -17.495  1.00  0.00     0.031 C 
ATOM     53  C   UNL     1      14.950   0.965 -18.785  1.00  0.00     0.029 A 
ATOM     54  C   UNL     1      14.316   1.661 -19.892  1.00  0.00     0.049 A 
ATOM     55  H   UNL     1      12.316   2.255 -19.999  1.00  0.00     0.167 HD
ATOM     56  C   UNL     1       8.438   4.406 -19.663  1.00  0.00     0.031 A 
ATOM     57  C   UNL     1      14.819   2.078 -21.079  1.00  0.00     0.031 A 
ATOM     58  C   UNL     1       8.121   3.280 -20.500  1.00  0.00     0.049 A 
ATOM     59  C   UNL     1      13.672   2.386 -21.969  1.00  0.00     0.074 A 
ATOM     60  C   UNL     1       7.428   2.099 -20.318  1.00  0.00     0.029 A 
ATOM     61  N   UNL     1       8.880   3.099 -21.632  1.00  0.00    -0.354 N 
ATOM     62  N   UNL     1      12.866   1.475 -22.434  1.00  0.00    -0.248 NA
ATOM     63  C   UNL     1      13.144   3.742 -21.967  1.00  0.00     0.031 C 
ATOM     64  C   UNL     1       8.163   1.123 -21.053  1.00  0.00     0.029 A 
ATOM     65  C   UNL     1       9.225   1.773 -21.686  1.00  0.00     0.049 A 
ATOM     66  H   UNL     1       9.130   3.794 -22.284  1.00  0.00     0.167 HD
ATOM     67  C   UNL     1      11.605   2.050 -22.368  1.00  0.00     0.074 A 
ATOM     68  C   UNL     1      11.849   3.478 -22.166  1.00  0.00     0.031 C 
ATOM     69  C   UNL     1      10.487   1.284 -22.196  1.00  0.00     0.031 A 
BRANCH  56  70
ATOM     70  C   UNL     1       8.357   5.823 -20.155  1.00  0.00    -0.014 A 
ATOM     71  C   UNL     1       7.476   6.127 -21.204  1.00  0.00     0.009 A 
ATOM     72  C   UNL     1       9.315   6.801 -19.820  1.00  0.00     0.009 A 
ATOM     73  C   UNL     1       7.593   7.323 -21.921  1.00  0.00     0.001 A 
ATOM     74  C   UNL     1       9.407   8.012 -20.505  1.00  0.00     0.001 A 
ATOM     75  C   UNL     1       8.562   8.261 -21.576  1.00  0.00     0.000 A 
ENDBRANCH  56  70
BRANCH  57  76
ATOM     76  C   UNL     1      16.188   2.554 -21.367  1.00  0.00    -0.014 A 
ATOM     77  C   UNL     1      16.656   2.646 -22.686  1.00  0.00     0.009 A 
ATOM     78  C   UNL     1      16.938   3.188 -20.358  1.00  0.00     0.009 A 
ATOM     79  C   UNL     1      17.813   3.378 -22.988  1.00  0.00     0.001 A 
ATOM     80  C   UNL     1      18.092   3.918 -20.660  1.00  0.00     0.001 A 
ATOM     81  C   UNL     1      18.521   4.025 -21.978  1.00  0.00     0.000 A 
ENDBRANCH  57  76
BRANCH  69  82
ATOM     82  C   UNL     1      10.640  -0.215 -22.288  1.00  0.00    -0.014 A 
ATOM     83  C   UNL     1      11.447  -0.958 -21.407  1.00  0.00     0.009 A 
ATOM     84  C   UNL     1       9.827  -0.913 -23.192  1.00  0.00     0.009 A 
ATOM     85  C   UNL     1      11.459  -2.357 -21.452  1.00  0.00     0.001 A 
ATOM     86  C   UNL     1       9.825  -2.310 -23.224  1.00  0.00     0.001 A 
ATOM     87  C   UNL     1      10.645  -3.031 -22.359  1.00  0.00     0.000 A 
ENDBRANCH  69  82
ENDBRANCH  43  44
ENDBRANCH  36  38
ENDBRANCH  35  36
ENDBRANCH  34  35
ENDBRANCH  33  34
ENDBRANCH  32  33
ENDBRANCH  31  32
ENDBRANCH   1  31
TORSDOF 21
