REMARK SMILES O=C(COc1ccc(Br)cc1/C=C1\C(=O)Nc2ccc(Br)cc21)OCCOCCOCCOC(=O)c1ccc(-c2c3nc(c(-c4ccccc4)c4ccc([nH]4)c(-c4ccccc4)c4nc(c(-c5ccccc5)c5ccc2[nH]5)C=C4)C=C3)cc1
REMARK SMILES IDX 28 1 27 2 26 3 25 4 24 5 2 6 1 7 3 8 4 9 5 10 6 11 11 12
REMARK SMILES IDX 7 13 10 14 8 15 9 16 12 17 13 18 14 19 23 20 15 21 16 22
REMARK SMILES IDX 17 23 22 24 18 26 20 27 19 28 21 29 29 30 30 31 31 32 32 33
REMARK SMILES IDX 33 34 34 35 35 36 36 37 37 38 83 39 38 40 82 41 39 42 40 43
REMARK SMILES IDX 41 44 76 45 42 46 81 47 75 48 77 49 43 50 80 51 74 52 73 53
REMARK SMILES IDX 44 55 66 56 51 57 65 58 52 59 55 60 64 61 78 62 53 63 54 64
REMARK SMILES IDX 63 66 79 67 56 68 45 69 46 70 50 71 47 72 49 73 48 74 67 75
REMARK SMILES IDX 68 76 72 77 69 78 71 79 70 80 57 81 58 82 62 83 59 84 61 85
REMARK SMILES IDX 60 86
REMARK H PARENT 16 25 77 54 55 65
REMARK Flexibility Score: inf
ROOT
ATOM      1  C   UNL     1       3.750   2.152   0.248  1.00  0.00     0.188 C 
ENDROOT
BRANCH   1   2
ATOM      2  O   UNL     1       4.961   1.684  -0.334  1.00  0.00    -0.376 OA
BRANCH   2   3
ATOM      3  C   UNL     1       5.328   0.347  -0.051  1.00  0.00     0.202 C 
BRANCH   3   4
ATOM      4  C   UNL     1       4.497  -0.655  -0.846  1.00  0.00     0.261 C 
BRANCH   4   5
ATOM      5  O   UNL     1       3.091  -0.666  -0.509  1.00  0.00    -0.461 OA
BRANCH   5   6
ATOM      6  C   UNL     1       2.560  -0.941   0.703  1.00  0.00     0.344 C 
ATOM      7  O   UNL     1       1.379  -0.677   0.926  1.00  0.00    -0.248 OA
BRANCH   6   8
ATOM      8  C   UNL     1       3.456  -1.520   1.793  1.00  0.00     0.351 C 
BRANCH   8   9
ATOM      9  O   UNL     1       4.420  -2.505   1.401  1.00  0.00    -0.481 OA
BRANCH   9  10
ATOM     10  C   UNL     1       3.783  -3.729   1.371  1.00  0.00     0.127 A 
ATOM     11  C   UNL     1       2.893  -3.968   0.308  1.00  0.00     0.048 A 
ATOM     12  C   UNL     1       3.894  -4.600   2.470  1.00  0.00     0.018 A 
ATOM     13  C   UNL     1       1.948  -4.976   0.409  1.00  0.00     0.019 A 
ATOM     14  C   UNL     1       2.863  -5.543   2.575  1.00  0.00     0.027 A 
ATOM     15  C   UNL     1       1.909  -5.730   1.569  1.00  0.00     0.018 A 
ATOM     16  Br  UNL     1       0.534  -7.005   1.814  1.00  0.00    -0.051 Br
BRANCH  12  17
ATOM     17  C   UNL     1       4.963  -4.412   3.499  1.00  0.00     0.026 C 
ATOM     18  C   UNL     1       5.270  -5.163   4.577  1.00  0.00     0.050 C 
ATOM     19  C   UNL     1       4.547  -6.384   5.067  1.00  0.00     0.256 C 
ATOM     20  C   UNL     1       6.016  -4.665   5.745  1.00  0.00     0.012 A 
ATOM     21  O   UNL     1       4.201  -7.369   4.443  1.00  0.00    -0.269 OA
ATOM     22  N   UNL     1       4.441  -6.188   6.430  1.00  0.00    -0.321 N 
ATOM     23  C   UNL     1       5.333  -5.205   6.846  1.00  0.00     0.049 A 
ATOM     24  C   UNL     1       7.170  -3.932   5.945  1.00  0.00     0.026 A 
ATOM     25  H   UNL     1       3.822  -6.674   7.023  1.00  0.00     0.170 HD
ATOM     26  C   UNL     1       5.639  -4.897   8.151  1.00  0.00     0.028 A 
ATOM     27  C   UNL     1       7.552  -3.683   7.273  1.00  0.00     0.018 A 
ATOM     28  C   UNL     1       6.768  -4.110   8.364  1.00  0.00     0.018 A 
ATOM     29  Br  UNL     1       9.198  -2.817   7.629  1.00  0.00    -0.051 Br
ENDBRANCH  12  17
ENDBRANCH   9  10
ENDBRANCH   8   9
ENDBRANCH   6   8
ENDBRANCH   5   6
ENDBRANCH   4   5
ENDBRANCH   3   4
ENDBRANCH   2   3
ENDBRANCH   1   2
BRANCH   1  30
ATOM     30  C   UNL     1       2.703   2.551  -0.805  1.00  0.00     0.188 C 
BRANCH  30  31
ATOM     31  O   UNL     1       3.100   3.270  -1.971  1.00  0.00    -0.376 OA
BRANCH  31  32
ATOM     32  C   UNL     1       4.306   4.020  -1.971  1.00  0.00     0.202 C 
BRANCH  32  33
ATOM     33  C   UNL     1       4.270   5.355  -1.222  1.00  0.00     0.261 C 
BRANCH  33  34
ATOM     34  O   UNL     1       4.051   5.207   0.192  1.00  0.00    -0.460 OA
BRANCH  34  35
ATOM     35  C   UNL     1       2.817   5.550   0.636  1.00  0.00     0.338 C 
ATOM     36  O   UNL     1       1.912   6.040  -0.018  1.00  0.00    -0.246 OA
BRANCH  35  37
ATOM     37  C   UNL     1       2.637   5.104   2.040  1.00  0.00     0.060 A 
ATOM     38  C   UNL     1       3.626   5.277   3.013  1.00  0.00     0.016 A 
ATOM     39  C   UNL     1       1.409   4.526   2.391  1.00  0.00     0.016 A 
ATOM     40  C   UNL     1       3.360   4.923   4.344  1.00  0.00     0.010 A 
ATOM     41  C   UNL     1       1.148   4.167   3.717  1.00  0.00     0.010 A 
ATOM     42  C   UNL     1       2.108   4.394   4.713  1.00  0.00    -0.014 A 
BRANCH  42  43
ATOM     43  C   UNL     1       1.731   4.285   6.147  1.00  0.00     0.031 A 
ATOM     44  C   UNL     1       1.721   2.983   6.891  1.00  0.00     0.074 A 
ATOM     45  C   UNL     1       1.347   5.408   6.786  1.00  0.00     0.049 A 
ATOM     46  N   UNL     1       1.487   2.779   8.164  1.00  0.00    -0.248 NA
ATOM     47  C   UNL     1       2.001   1.760   6.126  1.00  0.00     0.031 C 
ATOM     48  C   UNL     1       1.259   6.734   6.171  1.00  0.00     0.029 A 
ATOM     49  N   UNL     1       0.960   5.616   8.088  1.00  0.00    -0.354 N 
ATOM     50  C   UNL     1       1.607   1.412   8.361  1.00  0.00     0.074 A 
ATOM     51  C   UNL     1       1.907   0.827   7.070  1.00  0.00     0.031 C 
ATOM     52  C   UNL     1       0.864   7.619   7.098  1.00  0.00     0.029 A 
ATOM     53  C   UNL     1       0.654   6.926   8.367  1.00  0.00     0.049 A 
ATOM     54  H   UNL     1       0.908   4.896   8.757  1.00  0.00     0.167 HD
ATOM     55  C   UNL     1       1.495   0.717   9.517  1.00  0.00     0.031 A 
ATOM     56  C   UNL     1       0.258   7.518   9.511  1.00  0.00     0.031 A 
ATOM     57  C   UNL     1       1.202   1.286  10.807  1.00  0.00     0.049 A 
ATOM     58  C   UNL     1       0.136   6.715  10.773  1.00  0.00     0.074 A 
ATOM     59  C   UNL     1       1.153   0.636  12.031  1.00  0.00     0.029 A 
ATOM     60  N   UNL     1       0.895   2.612  11.047  1.00  0.00    -0.354 N 
ATOM     61  N   UNL     1       0.373   5.441  10.962  1.00  0.00    -0.248 NA
ATOM     62  C   UNL     1      -0.286   7.434  11.985  1.00  0.00     0.031 C 
ATOM     63  C   UNL     1       0.774   1.560  13.005  1.00  0.00     0.029 A 
ATOM     64  C   UNL     1       0.630   2.794  12.396  1.00  0.00     0.049 A 
ATOM     65  H   UNL     1       0.868   3.321  10.364  1.00  0.00     0.167 HD
ATOM     66  C   UNL     1       0.154   5.212  12.315  1.00  0.00     0.074 A 
ATOM     67  C   UNL     1      -0.222   6.478  12.904  1.00  0.00     0.031 C 
ATOM     68  C   UNL     1       0.262   4.048  12.997  1.00  0.00     0.031 A 
BRANCH  55  69
ATOM     69  C   UNL     1       1.735  -0.763   9.496  1.00  0.00    -0.014 A 
ATOM     70  C   UNL     1       0.654  -1.653   9.602  1.00  0.00     0.009 A 
ATOM     71  C   UNL     1       3.043  -1.251   9.622  1.00  0.00     0.009 A 
ATOM     72  C   UNL     1       0.881  -3.005   9.865  1.00  0.00     0.001 A 
ATOM     73  C   UNL     1       3.264  -2.603   9.886  1.00  0.00     0.001 A 
ATOM     74  C   UNL     1       2.185  -3.477  10.016  1.00  0.00     0.000 A 
ENDBRANCH  55  69
BRANCH  56  75
ATOM     75  C   UNL     1      -0.006   8.979   9.511  1.00  0.00    -0.014 A 
ATOM     76  C   UNL     1      -1.135   9.499   8.859  1.00  0.00     0.009 A 
ATOM     77  C   UNL     1       0.897   9.861  10.122  1.00  0.00     0.009 A 
ATOM     78  C   UNL     1      -1.344  10.877   8.801  1.00  0.00     0.001 A 
ATOM     79  C   UNL     1       0.669  11.238  10.086  1.00  0.00     0.001 A 
ATOM     80  C   UNL     1      -0.445  11.745   9.419  1.00  0.00     0.000 A 
ENDBRANCH  56  75
BRANCH  68  81
ATOM     81  C   UNL     1      -0.015   4.057  14.474  1.00  0.00    -0.014 A 
ATOM     82  C   UNL     1       1.034   3.840  15.383  1.00  0.00     0.009 A 
ATOM     83  C   UNL     1      -1.325   4.165  14.964  1.00  0.00     0.009 A 
ATOM     84  C   UNL     1       0.775   3.715  16.750  1.00  0.00     0.001 A 
ATOM     85  C   UNL     1      -1.578   4.066  16.334  1.00  0.00     0.001 A 
ATOM     86  C   UNL     1      -0.530   3.831  17.224  1.00  0.00     0.000 A 
ENDBRANCH  68  81
ENDBRANCH  42  43
ENDBRANCH  35  37
ENDBRANCH  34  35
ENDBRANCH  33  34
ENDBRANCH  32  33
ENDBRANCH  31  32
ENDBRANCH  30  31
ENDBRANCH   1  30
TORSDOF 20
