REMARK SMILES CC1(C)O[C@](C)([C@H](O)C2CCCCC2)CC[C@H]1C(=O)OCCOCCOCCOC(=O)c1ccc(-c2c3nc(c(-c4ccccc4)c4ccc([nH]4)c(-c4ccccc4)c4nc(c(-c5ccccc5)c5ccc2[nH]5)C=C4)C=C3)cc1
REMARK SMILES IDX 24 1 23 2 22 3 21 4 20 5 18 6 19 7 17 8 1 9 2 10 3 11 4 12
REMARK SMILES IDX 5 13 16 14 6 15 15 16 7 17 9 18 10 19 14 20 11 21 13 22
REMARK SMILES IDX 12 23 8 24 25 26 26 27 27 28 28 29 29 30 30 31 31 32 32 33
REMARK SMILES IDX 33 34 79 35 34 36 78 37 35 38 36 39 37 40 72 41 38 42 77 43
REMARK SMILES IDX 71 44 73 45 39 46 76 47 70 48 69 49 40 51 62 52 47 53 61 54
REMARK SMILES IDX 48 55 51 56 60 57 74 58 49 59 50 60 59 62 75 63 52 64 41 65
REMARK SMILES IDX 42 66 46 67 43 68 45 69 44 70 63 71 64 72 68 73 65 74 67 75
REMARK SMILES IDX 66 76 53 77 54 78 58 79 55 80 57 81 56 82
REMARK H PARENT 8 25 73 50 51 61
REMARK Flexibility Score: inf
ROOT
ATOM      1  C   UNL     1      -2.195   9.159  -6.535  1.00  0.00     0.188 C 
ENDROOT
BRANCH   1   2
ATOM      2  O   UNL     1      -2.438   8.766  -7.875  1.00  0.00    -0.376 OA
BRANCH   2   3
ATOM      3  C   UNL     1      -2.998   7.490  -8.159  1.00  0.00     0.202 C 
BRANCH   3   4
ATOM      4  C   UNL     1      -2.248   6.230  -7.690  1.00  0.00     0.261 C 
BRANCH   4   5
ATOM      5  O   UNL     1      -2.157   6.005  -6.258  1.00  0.00    -0.463 OA
BRANCH   5   6
ATOM      6  C   UNL     1      -0.949   6.265  -5.705  1.00  0.00     0.311 C 
ATOM      7  O   UNL     1      -0.005   6.721  -6.350  1.00  0.00    -0.252 OA
BRANCH   6   8
ATOM      8  C   UNL     1      -0.762   5.924  -4.219  1.00  0.00     0.131 C 
ATOM      9  C   UNL     1      -3.136   4.885  -3.735  1.00  0.00     0.043 C 
ATOM     10  C   UNL     1      -1.918   5.637  -3.192  1.00  0.00     0.077 C 
ATOM     11  C   UNL     1      -2.440   6.927  -2.503  1.00  0.00     0.043 C 
ATOM     12  O   UNL     1      -1.455   4.954  -2.004  1.00  0.00    -0.366 OA
ATOM     13  C   UNL     1      -0.492   3.915  -2.059  1.00  0.00     0.092 C 
ATOM     14  C   UNL     1       0.311   4.826  -4.263  1.00  0.00     0.021 C 
ATOM     15  C   UNL     1      -1.082   2.643  -2.690  1.00  0.00     0.045 C 
ATOM     16  C   UNL     1       0.717   4.382  -2.880  1.00  0.00     0.039 C 
BRANCH  13  17
ATOM     17  C   UNL     1       0.018   3.712  -0.584  1.00  0.00     0.149 C 
BRANCH  17  18
ATOM     18  C   UNL     1      -1.024   3.572   0.576  1.00  0.00     0.021 C 
ATOM     19  C   UNL     1      -2.172   2.575   0.400  1.00  0.00     0.006 C 
ATOM     20  C   UNL     1      -0.351   3.266   1.933  1.00  0.00     0.006 C 
ATOM     21  C   UNL     1      -1.690   1.133   0.384  1.00  0.00     0.000 C 
ATOM     22  C   UNL     1       0.105   1.813   2.091  1.00  0.00     0.000 C 
ATOM     23  C   UNL     1      -0.942   0.782   1.667  1.00  0.00     0.000 C 
ENDBRANCH  17  18
BRANCH  17  24
ATOM     24  O   UNL     1       1.055   2.732  -0.542  1.00  0.00    -0.390 OA
ATOM     25  H   UNL     1       0.688   1.863  -0.769  1.00  0.00     0.211 HD
ENDBRANCH  17  24
ENDBRANCH  13  17
ENDBRANCH   6   8
ENDBRANCH   5   6
ENDBRANCH   4   5
ENDBRANCH   3   4
ENDBRANCH   2   3
ENDBRANCH   1   2
BRANCH   1  26
ATOM     26  C   UNL     1      -3.075   8.611  -5.414  1.00  0.00     0.188 C 
BRANCH  26  27
ATOM     27  O   UNL     1      -4.261   7.988  -5.849  1.00  0.00    -0.376 OA
BRANCH  27  28
ATOM     28  C   UNL     1      -5.463   8.248  -5.147  1.00  0.00     0.202 C 
BRANCH  28  29
ATOM     29  C   UNL     1      -5.965   9.685  -5.325  1.00  0.00     0.261 C 
BRANCH  29  30
ATOM     30  O   UNL     1      -5.098  10.704  -4.788  1.00  0.00    -0.460 OA
BRANCH  30  31
ATOM     31  C   UNL     1      -4.826  10.651  -3.462  1.00  0.00     0.338 C 
ATOM     32  O   UNL     1      -5.331   9.903  -2.639  1.00  0.00    -0.246 OA
BRANCH  31  33
ATOM     33  C   UNL     1      -3.606  11.458  -3.223  1.00  0.00     0.060 A 
ATOM     34  C   UNL     1      -2.523  10.864  -2.557  1.00  0.00     0.016 A 
ATOM     35  C   UNL     1      -3.495  12.757  -3.719  1.00  0.00     0.016 A 
ATOM     36  C   UNL     1      -1.333  11.571  -2.372  1.00  0.00     0.010 A 
ATOM     37  C   UNL     1      -2.314  13.473  -3.511  1.00  0.00     0.010 A 
ATOM     38  C   UNL     1      -1.234  12.894  -2.818  1.00  0.00    -0.014 A 
BRANCH  38  39
ATOM     39  C   UNL     1      -0.090  13.746  -2.413  1.00  0.00     0.031 A 
ATOM     40  C   UNL     1      -0.293  14.714  -1.280  1.00  0.00     0.074 A 
ATOM     41  C   UNL     1       1.098  13.687  -3.040  1.00  0.00     0.049 A 
ATOM     42  N   UNL     1       0.497  15.657  -0.838  1.00  0.00    -0.248 NA
ATOM     43  C   UNL     1      -1.568  14.603  -0.552  1.00  0.00     0.031 C 
ATOM     44  C   UNL     1       1.454  12.751  -4.104  1.00  0.00     0.029 A 
ATOM     45  N   UNL     1       2.227  14.453  -2.873  1.00  0.00    -0.354 N 
ATOM     46  C   UNL     1      -0.193  16.267   0.202  1.00  0.00     0.074 A 
ATOM     47  C   UNL     1      -1.473  15.602   0.312  1.00  0.00     0.031 C 
ATOM     48  C   UNL     1       2.711  13.009  -4.508  1.00  0.00     0.029 A 
ATOM     49  C   UNL     1       3.228  14.159  -3.767  1.00  0.00     0.049 A 
ATOM     50  H   UNL     1       2.310  15.146  -2.179  1.00  0.00     0.167 HD
ATOM     51  C   UNL     1       0.201  17.291   0.994  1.00  0.00     0.031 A 
ATOM     52  C   UNL     1       4.408  14.772  -3.988  1.00  0.00     0.031 A 
ATOM     53  C   UNL     1       1.468  17.961   0.877  1.00  0.00     0.049 A 
ATOM     54  C   UNL     1       4.783  15.978  -3.163  1.00  0.00     0.074 A 
ATOM     55  C   UNL     1       1.964  19.004   1.639  1.00  0.00     0.029 A 
ATOM     56  N   UNL     1       2.435  17.660  -0.070  1.00  0.00    -0.354 N 
ATOM     57  N   UNL     1       4.128  16.545  -2.178  1.00  0.00    -0.248 NA
ATOM     58  C   UNL     1       6.062  16.630  -3.484  1.00  0.00     0.031 C 
ATOM     59  C   UNL     1       3.203  19.379   1.110  1.00  0.00     0.029 A 
ATOM     60  C   UNL     1       3.511  18.520   0.066  1.00  0.00     0.049 A 
ATOM     61  H   UNL     1       2.367  16.941  -0.739  1.00  0.00     0.167 HD
ATOM     62  C   UNL     1       4.928  17.596  -1.743  1.00  0.00     0.074 A 
ATOM     63  C   UNL     1       6.122  17.581  -2.561  1.00  0.00     0.031 C 
ATOM     64  C   UNL     1       4.695  18.493  -0.753  1.00  0.00     0.031 A 
BRANCH  51  65
ATOM     65  C   UNL     1      -0.775  17.783   2.026  1.00  0.00    -0.014 A 
ATOM     66  C   UNL     1      -1.105  17.013   3.153  1.00  0.00     0.009 A 
ATOM     67  C   UNL     1      -1.355  19.052   1.879  1.00  0.00     0.009 A 
ATOM     68  C   UNL     1      -2.024  17.490   4.090  1.00  0.00     0.001 A 
ATOM     69  C   UNL     1      -2.248  19.541   2.834  1.00  0.00     0.001 A 
ATOM     70  C   UNL     1      -2.589  18.755   3.933  1.00  0.00     0.000 A 
ENDBRANCH  51  65
BRANCH  52  71
ATOM     71  C   UNL     1       5.313  14.291  -5.067  1.00  0.00    -0.014 A 
ATOM     72  C   UNL     1       6.562  13.728  -4.759  1.00  0.00     0.009 A 
ATOM     73  C   UNL     1       4.947  14.422  -6.417  1.00  0.00     0.009 A 
ATOM     74  C   UNL     1       7.432  13.331  -5.778  1.00  0.00     0.001 A 
ATOM     75  C   UNL     1       5.805  13.993  -7.432  1.00  0.00     0.001 A 
ATOM     76  C   UNL     1       7.051  13.459  -7.112  1.00  0.00     0.000 A 
ENDBRANCH  52  71
BRANCH  64  77
ATOM     77  C   UNL     1       5.769  19.507  -0.463  1.00  0.00    -0.014 A 
ATOM     78  C   UNL     1       6.035  20.566  -1.345  1.00  0.00     0.009 A 
ATOM     79  C   UNL     1       6.482  19.433   0.744  1.00  0.00     0.009 A 
ATOM     80  C   UNL     1       7.016  21.512  -1.036  1.00  0.00     0.001 A 
ATOM     81  C   UNL     1       7.438  20.398   1.065  1.00  0.00     0.001 A 
ATOM     82  C   UNL     1       7.710  21.432   0.171  1.00  0.00     0.000 A 
ENDBRANCH  64  77
ENDBRANCH  38  39
ENDBRANCH  31  33
ENDBRANCH  30  31
ENDBRANCH  29  30
ENDBRANCH  28  29
ENDBRANCH  27  28
ENDBRANCH  26  27
ENDBRANCH   1  26
TORSDOF 20
