REMARK SMILES O=C(C[C@H]1S/C(=[NH+]/N=C/c2cccc(Cl)c2)NC1=O)OCCOCCOCCOC(=O)c1ccc(-c2c3nc(c(-c4ccccc4)c4ccc([nH]4)c(-c4ccccc4)c4nc(c(-c5ccccc5)c5ccc2[nH]5)C=C4)C=C3)cc1
REMARK SMILES IDX 24 1 23 2 22 3 21 4 20 5 2 6 1 7 3 8 4 9 5 10 18 11 6 12
REMARK SMILES IDX 17 13 19 14 7 15 8 18 9 19 10 20 11 21 16 22 12 23 14 24
REMARK SMILES IDX 13 25 15 26 25 27 26 28 27 29 28 30 29 31 30 32 31 33 32 34
REMARK SMILES IDX 33 35 79 36 34 37 78 38 35 39 36 40 37 41 72 42 38 43 77 44
REMARK SMILES IDX 71 45 73 46 39 47 76 48 70 49 69 50 40 52 62 53 47 54 61 55
REMARK SMILES IDX 48 56 51 57 60 58 74 59 49 60 50 61 59 63 75 64 52 65 41 66
REMARK SMILES IDX 42 67 46 68 43 69 45 70 44 71 63 72 64 73 68 74 65 75 67 76
REMARK SMILES IDX 66 77 53 78 54 79 58 80 55 81 57 82 56 83
REMARK H PARENT 17 16 7 17 73 51 51 62
REMARK Flexibility Score: inf
ROOT
ATOM      1  C   UNL     1       2.763  -1.027  -1.483  1.00  0.00     0.188 C 
ENDROOT
BRANCH   1   2
ATOM      2  O   UNL     1       4.173  -1.072  -1.537  1.00  0.00    -0.376 OA
BRANCH   2   3
ATOM      3  C   UNL     1       4.941  -0.575  -0.455  1.00  0.00     0.202 C 
BRANCH   3   4
ATOM      4  C   UNL     1       4.496  -0.921   0.969  1.00  0.00     0.261 C 
BRANCH   4   5
ATOM      5  O   UNL     1       3.247  -0.400   1.502  1.00  0.00    -0.463 OA
BRANCH   5   6
ATOM      6  C   UNL     1       2.663   0.807   1.499  1.00  0.00     0.307 C 
ATOM      7  O   UNL     1       1.687   1.012   2.219  1.00  0.00    -0.252 OA
BRANCH   6   8
ATOM      8  C   UNL     1       3.153   1.897   0.604  1.00  0.00     0.150 C 
BRANCH   8   9
ATOM      9  C   UNL     1       4.037   2.874   1.357  1.00  0.00     0.184 C 
ATOM     10  S   UNL     1       5.788   2.341   1.359  1.00  0.00    -0.020 SA
ATOM     11  C   UNL     1       4.033   4.206   0.632  1.00  0.00     0.322 C 
ATOM     12  C   UNL     1       6.258   3.603   0.275  1.00  0.00     0.337 C 
ATOM     13  N   UNL     1       5.246   4.478   0.081  1.00  0.00    -0.202 N 
ATOM     14  O   UNL     1       3.051   4.921   0.487  1.00  0.00    -0.246 OA
ATOM     15  N   UNL     1       7.425   3.699  -0.265  1.00  0.00    -0.142 N 
ATOM     16  H   UNL     1       5.385   5.297  -0.448  1.00  0.00     0.316 HD
ATOM     17  H   UNL     1       8.121   3.005  -0.223  1.00  0.00     0.343 HD
BRANCH  15  18
ATOM     18  N   UNL     1       7.564   4.922  -0.917  1.00  0.00    -0.093 NA
ATOM     19  C   UNL     1       8.628   4.990  -1.648  1.00  0.00     0.166 C 
BRANCH  19  20
ATOM     20  C   UNL     1       9.025   6.293  -2.209  1.00  0.00    -0.002 A 
ATOM     21  C   UNL     1       8.585   7.462  -1.571  1.00  0.00     0.010 A 
ATOM     22  C   UNL     1       9.873   6.362  -3.313  1.00  0.00     0.030 A 
ATOM     23  C   UNL     1       8.998   8.708  -2.031  1.00  0.00     0.002 A 
ATOM     24  C   UNL     1      10.267   7.618  -3.776  1.00  0.00     0.041 A 
ATOM     25  C   UNL     1       9.840   8.787  -3.139  1.00  0.00     0.020 A 
ATOM     26  Cl  UNL     1      11.303   7.734  -5.145  1.00  0.00    -0.084 Cl
ENDBRANCH  19  20
ENDBRANCH  15  18
ENDBRANCH   8   9
ENDBRANCH   6   8
ENDBRANCH   5   6
ENDBRANCH   4   5
ENDBRANCH   3   4
ENDBRANCH   2   3
ENDBRANCH   1   2
BRANCH   1  27
ATOM     27  C   UNL     1       2.118  -2.277  -2.102  1.00  0.00     0.188 C 
BRANCH  27  28
ATOM     28  O   UNL     1       2.845  -3.498  -2.020  1.00  0.00    -0.376 OA
BRANCH  28  29
ATOM     29  C   UNL     1       4.121  -3.559  -2.665  1.00  0.00     0.202 C 
BRANCH  29  30
ATOM     30  C   UNL     1       4.218  -3.130  -4.140  1.00  0.00     0.261 C 
BRANCH  30  31
ATOM     31  O   UNL     1       3.870  -1.751  -4.394  1.00  0.00    -0.460 OA
BRANCH  31  32
ATOM     32  C   UNL     1       2.894  -1.557  -5.313  1.00  0.00     0.338 C 
ATOM     33  O   UNL     1       2.283  -2.410  -5.942  1.00  0.00    -0.246 OA
BRANCH  32  34
ATOM     34  C   UNL     1       2.550  -0.128  -5.417  1.00  0.00     0.060 A 
ATOM     35  C   UNL     1       1.342   0.326  -4.872  1.00  0.00     0.016 A 
ATOM     36  C   UNL     1       3.337   0.723  -6.194  1.00  0.00     0.016 A 
ATOM     37  C   UNL     1       0.913   1.635  -5.111  1.00  0.00     0.010 A 
ATOM     38  C   UNL     1       2.899   2.029  -6.444  1.00  0.00     0.010 A 
ATOM     39  C   UNL     1       1.675   2.487  -5.923  1.00  0.00    -0.014 A 
BRANCH  39  40
ATOM     40  C   UNL     1       1.163   3.826  -6.307  1.00  0.00     0.031 A 
ATOM     41  C   UNL     1       0.495   4.016  -7.643  1.00  0.00     0.074 A 
ATOM     42  C   UNL     1       1.313   4.878  -5.482  1.00  0.00     0.049 A 
ATOM     43  N   UNL     1       0.073   5.119  -8.207  1.00  0.00    -0.248 NA
ATOM     44  C   UNL     1       0.274   2.804  -8.447  1.00  0.00     0.031 C 
ATOM     45  C   UNL     1       1.896   4.828  -4.142  1.00  0.00     0.029 A 
ATOM     46  N   UNL     1       1.001   6.203  -5.664  1.00  0.00    -0.354 N 
ATOM     47  C   UNL     1      -0.457   4.738  -9.434  1.00  0.00     0.074 A 
ATOM     48  C   UNL     1      -0.290   3.304  -9.539  1.00  0.00     0.031 C 
ATOM     49  C   UNL     1       1.922   6.072  -3.632  1.00  0.00     0.029 A 
ATOM     50  C   UNL     1       1.396   7.008  -4.624  1.00  0.00     0.049 A 
ATOM     51  H   UNL     1       0.537   6.543  -6.464  1.00  0.00     0.167 HD
ATOM     52  C   UNL     1      -1.028   5.512 -10.388  1.00  0.00     0.031 A 
ATOM     53  C   UNL     1       1.372   8.350  -4.500  1.00  0.00     0.031 A 
ATOM     54  C   UNL     1      -1.189   6.939 -10.297  1.00  0.00     0.049 A 
ATOM     55  C   UNL     1       0.822   9.194  -5.620  1.00  0.00     0.074 A 
ATOM     56  C   UNL     1      -1.788   7.797 -11.204  1.00  0.00     0.029 A 
ATOM     57  N   UNL     1      -0.737   7.719  -9.247  1.00  0.00    -0.354 N 
ATOM     58  N   UNL     1       0.292   8.818  -6.758  1.00  0.00    -0.248 NA
ATOM     59  C   UNL     1       0.871  10.653  -5.435  1.00  0.00     0.031 C 
ATOM     60  C   UNL     1      -1.645   9.105 -10.729  1.00  0.00     0.029 A 
ATOM     61  C   UNL     1      -1.005   9.053  -9.502  1.00  0.00     0.049 A 
ATOM     62  H   UNL     1      -0.291   7.376  -8.438  1.00  0.00     0.167 HD
ATOM     63  C   UNL     1      -0.073   9.989  -7.412  1.00  0.00     0.074 A 
ATOM     64  C   UNL     1       0.278  11.087  -6.538  1.00  0.00     0.031 C 
ATOM     65  C   UNL     1      -0.646  10.140  -8.630  1.00  0.00     0.031 A 
BRANCH  52  66
ATOM     66  C   UNL     1      -1.500   4.838 -11.645  1.00  0.00    -0.014 A 
ATOM     67  C   UNL     1      -2.679   4.079 -11.665  1.00  0.00     0.009 A 
ATOM     68  C   UNL     1      -0.792   5.032 -12.842  1.00  0.00     0.009 A 
ATOM     69  C   UNL     1      -3.131   3.512 -12.859  1.00  0.00     0.001 A 
ATOM     70  C   UNL     1      -1.259   4.483 -14.037  1.00  0.00     0.001 A 
ATOM     71  C   UNL     1      -2.425   3.720 -14.044  1.00  0.00     0.000 A 
ENDBRANCH  52  66
BRANCH  53  72
ATOM     72  C   UNL     1       1.943   8.999  -3.291  1.00  0.00    -0.014 A 
ATOM     73  C   UNL     1       1.115   9.668  -2.378  1.00  0.00     0.009 A 
ATOM     74  C   UNL     1       3.330   8.998  -3.077  1.00  0.00     0.009 A 
ATOM     75  C   UNL     1       1.668  10.349  -1.291  1.00  0.00     0.001 A 
ATOM     76  C   UNL     1       3.878   9.656  -1.974  1.00  0.00     0.001 A 
ATOM     77  C   UNL     1       3.048  10.340  -1.089  1.00  0.00     0.000 A 
ENDBRANCH  53  72
BRANCH  65  78
ATOM     78  C   UNL     1      -0.948  11.540  -9.085  1.00  0.00    -0.014 A 
ATOM     79  C   UNL     1       0.077  12.405  -9.499  1.00  0.00     0.009 A 
ATOM     80  C   UNL     1      -2.278  11.986  -9.141  1.00  0.00     0.009 A 
ATOM     81  C   UNL     1      -0.221  13.698  -9.934  1.00  0.00     0.001 A 
ATOM     82  C   UNL     1      -2.575  13.270  -9.601  1.00  0.00     0.001 A 
ATOM     83  C   UNL     1      -1.547  14.127  -9.989  1.00  0.00     0.000 A 
ENDBRANCH  65  78
ENDBRANCH  39  40
ENDBRANCH  32  34
ENDBRANCH  31  32
ENDBRANCH  30  31
ENDBRANCH  29  30
ENDBRANCH  28  29
ENDBRANCH  27  28
ENDBRANCH   1  27
TORSDOF 20
