REMARK SMILES CCCc1cc2c(cc1Cl)C=C(C(=O)OCCOCCOCCOC(=O)c1ccc(-c3c4nc(c(-c5ccccc5)c5ccc([nH]5)c(-c5ccccc5)c5nc(c(-c6ccccc6)c6ccc3[nH]6)C=C5)C=C4)cc1)[C@@H](C(F)(F)F)O2
REMARK SMILES IDX 19 1 18 2 17 3 16 4 15 5 13 6 14 7 12 8 4 9 5 10 9 11 6 12
REMARK SMILES IDX 8 13 10 14 7 15 80 16 11 17 75 18 3 19 2 20 1 21 76 22 77 23
REMARK SMILES IDX 78 24 79 25 20 26 21 27 22 28 23 29 24 30 25 31 26 32 27 33
REMARK SMILES IDX 28 34 74 35 29 36 73 37 30 38 31 39 32 40 67 41 33 42 72 43
REMARK SMILES IDX 66 44 68 45 34 46 71 47 65 48 64 49 35 51 57 52 42 53 56 54
REMARK SMILES IDX 43 55 46 56 55 57 69 58 44 59 45 60 54 62 70 63 47 64 36 65
REMARK SMILES IDX 37 66 41 67 38 68 40 69 39 70 58 71 59 72 63 73 60 74 62 75
REMARK SMILES IDX 61 76 48 77 49 78 53 79 50 80 52 81 51 82
REMARK H PARENT 68 50 46 61
REMARK Flexibility Score: inf
ROOT
ATOM      1  C   UNL     1       0.063   5.720   7.864  1.00  0.00     0.188 C 
ENDROOT
BRANCH   1   2
ATOM      2  O   UNL     1      -0.631   6.732   8.561  1.00  0.00    -0.376 OA
BRANCH   2   3
ATOM      3  C   UNL     1      -1.971   6.561   8.991  1.00  0.00     0.202 C 
BRANCH   3   4
ATOM      4  C   UNL     1      -3.005   5.728   8.226  1.00  0.00     0.261 C 
BRANCH   4   5
ATOM      5  O   UNL     1      -2.508   4.524   7.635  1.00  0.00    -0.460 OA
BRANCH   5   6
ATOM      6  C   UNL     1      -2.624   4.464   6.287  1.00  0.00     0.338 C 
ATOM      7  O   UNL     1      -3.101   5.309   5.549  1.00  0.00    -0.246 OA
BRANCH   6   8
ATOM      8  C   UNL     1      -1.928   3.265   5.793  1.00  0.00     0.087 C 
ATOM      9  C   UNL     1       0.831   0.096   3.040  1.00  0.00    -0.026 A 
ATOM     10  C   UNL     1      -0.208  -0.054   3.979  1.00  0.00     0.052 A 
ATOM     11  C   UNL     1       1.364   1.378   2.840  1.00  0.00     0.045 A 
ATOM     12  C   UNL     1      -0.744   1.050   4.643  1.00  0.00     0.128 A 
ATOM     13  C   UNL     1       0.795   2.489   3.468  1.00  0.00     0.032 A 
ATOM     14  Cl  UNL     1       2.728   1.667   1.820  1.00  0.00    -0.084 Cl
ATOM     15  C   UNL     1      -0.282   2.329   4.342  1.00  0.00     0.019 A 
ATOM     16  O   UNL     1      -1.753   0.800   5.530  1.00  0.00    -0.475 OA
ATOM     17  C   UNL     1      -0.976   3.485   4.878  1.00  0.00     0.027 C 
ATOM     18  C   UNL     1      -2.278   1.903   6.326  1.00  0.00     0.316 C 
BRANCH   9  19
ATOM     19  C   UNL     1       1.271  -1.118   2.251  1.00  0.00     0.037 C 
BRANCH  19  20
ATOM     20  C   UNL     1       0.450  -1.342   0.971  1.00  0.00     0.001 C 
ATOM     21  C   UNL     1       0.745  -0.349  -0.146  1.00  0.00     0.004 C 
ENDBRANCH  19  20
ENDBRANCH   9  19
BRANCH  18  22
ATOM     22  C   UNL     1      -3.791   1.678   6.475  1.00  0.00     0.430 C 
ATOM     23  F   UNL     1      -4.055   0.444   6.968  1.00  0.00    -0.167 F 
ATOM     24  F   UNL     1      -4.356   2.562   7.330  1.00  0.00    -0.167 F 
ATOM     25  F   UNL     1      -4.436   1.791   5.292  1.00  0.00    -0.167 F 
ENDBRANCH  18  22
ENDBRANCH   6   8
ENDBRANCH   5   6
ENDBRANCH   4   5
ENDBRANCH   3   4
ENDBRANCH   2   3
ENDBRANCH   1   2
BRANCH   1  26
ATOM     26  C   UNL     1       0.339   4.346   8.511  1.00  0.00     0.188 C 
BRANCH  26  27
ATOM     27  O   UNL     1      -0.043   4.080   9.846  1.00  0.00    -0.376 OA
BRANCH  27  28
ATOM     28  C   UNL     1       0.406   4.944  10.881  1.00  0.00     0.202 C 
BRANCH  28  29
ATOM     29  C   UNL     1       1.897   5.261  11.025  1.00  0.00     0.261 C 
BRANCH  29  30
ATOM     30  O   UNL     1       2.473   5.850   9.850  1.00  0.00    -0.460 OA
BRANCH  30  31
ATOM     31  C   UNL     1       3.484   5.148   9.283  1.00  0.00     0.338 C 
ATOM     32  O   UNL     1       3.967   4.096   9.667  1.00  0.00    -0.246 OA
BRANCH  31  33
ATOM     33  C   UNL     1       3.803   5.748   7.975  1.00  0.00     0.060 A 
ATOM     34  C   UNL     1       4.216   7.077   7.874  1.00  0.00     0.016 A 
ATOM     35  C   UNL     1       3.686   4.947   6.831  1.00  0.00     0.016 A 
ATOM     36  C   UNL     1       4.530   7.603   6.618  1.00  0.00     0.010 A 
ATOM     37  C   UNL     1       3.981   5.479   5.576  1.00  0.00     0.010 A 
ATOM     38  C   UNL     1       4.420   6.806   5.464  1.00  0.00    -0.014 A 
BRANCH  38  39
ATOM     39  C   UNL     1       4.895   7.315   4.157  1.00  0.00     0.031 A 
ATOM     40  C   UNL     1       3.947   7.873   3.141  1.00  0.00     0.074 A 
ATOM     41  C   UNL     1       6.212   7.247   3.888  1.00  0.00     0.049 A 
ATOM     42  N   UNL     1       4.218   8.399   1.974  1.00  0.00    -0.248 NA
ATOM     43  C   UNL     1       2.514   7.837   3.471  1.00  0.00     0.031 C 
ATOM     44  C   UNL     1       7.225   6.716   4.801  1.00  0.00     0.029 A 
ATOM     45  N   UNL     1       6.923   7.625   2.778  1.00  0.00    -0.354 N 
ATOM     46  C   UNL     1       2.997   8.781   1.438  1.00  0.00     0.074 A 
ATOM     47  C   UNL     1       1.977   8.385   2.387  1.00  0.00     0.031 C 
ATOM     48  C   UNL     1       8.430   6.817   4.220  1.00  0.00     0.029 A 
ATOM     49  C   UNL     1       8.272   7.391   2.886  1.00  0.00     0.049 A 
ATOM     50  H   UNL     1       6.507   8.025   1.981  1.00  0.00     0.167 HD
ATOM     51  C   UNL     1       2.758   9.418   0.267  1.00  0.00     0.031 A 
ATOM     52  C   UNL     1       9.274   7.612   2.013  1.00  0.00     0.031 A 
ATOM     53  C   UNL     1       3.778   9.786  -0.682  1.00  0.00     0.049 A 
ATOM     54  C   UNL     1       8.970   8.250   0.688  1.00  0.00     0.074 A 
ATOM     55  C   UNL     1       3.628  10.474  -1.875  1.00  0.00     0.029 A 
ATOM     56  N   UNL     1       5.125   9.484  -0.561  1.00  0.00    -0.354 N 
ATOM     57  N   UNL     1       7.820   8.679   0.228  1.00  0.00    -0.248 NA
ATOM     58  C   UNL     1      10.097   8.446  -0.235  1.00  0.00     0.031 C 
ATOM     59  C   UNL     1       4.870  10.525  -2.509  1.00  0.00     0.029 A 
ATOM     60  C   UNL     1       5.809   9.935  -1.678  1.00  0.00     0.049 A 
ATOM     61  H   UNL     1       5.534   9.019   0.203  1.00  0.00     0.167 HD
ATOM     62  C   UNL     1       8.087   9.217  -1.024  1.00  0.00     0.074 A 
ATOM     63  C   UNL     1       9.510   9.069  -1.250  1.00  0.00     0.031 C 
ATOM     64  C   UNL     1       7.225   9.785  -1.901  1.00  0.00     0.031 A 
BRANCH  51  65
ATOM     65  C   UNL     1       1.338   9.779  -0.072  1.00  0.00    -0.014 A 
ATOM     66  C   UNL     1       0.699   9.164  -1.160  1.00  0.00     0.009 A 
ATOM     67  C   UNL     1       0.682  10.823   0.599  1.00  0.00     0.009 A 
ATOM     68  C   UNL     1      -0.559   9.598  -1.582  1.00  0.00     0.001 A 
ATOM     69  C   UNL     1      -0.588  11.237   0.192  1.00  0.00     0.001 A 
ATOM     70  C   UNL     1      -1.202  10.633  -0.904  1.00  0.00     0.000 A 
ENDBRANCH  51  65
BRANCH  52  71
ATOM     71  C   UNL     1      10.662   7.249   2.397  1.00  0.00    -0.014 A 
ATOM     72  C   UNL     1      11.034   5.902   2.541  1.00  0.00     0.009 A 
ATOM     73  C   UNL     1      11.604   8.247   2.686  1.00  0.00     0.009 A 
ATOM     74  C   UNL     1      12.312   5.563   2.990  1.00  0.00     0.001 A 
ATOM     75  C   UNL     1      12.891   7.904   3.107  1.00  0.00     0.001 A 
ATOM     76  C   UNL     1      13.240   6.564   3.269  1.00  0.00     0.000 A 
ENDBRANCH  52  71
BRANCH  64  77
ATOM     77  C   UNL     1       7.774  10.312  -3.198  1.00  0.00    -0.014 A 
ATOM     78  C   UNL     1       7.786  11.696  -3.437  1.00  0.00     0.009 A 
ATOM     79  C   UNL     1       8.147   9.441  -4.231  1.00  0.00     0.009 A 
ATOM     80  C   UNL     1       8.132  12.196  -4.693  1.00  0.00     0.001 A 
ATOM     81  C   UNL     1       8.521   9.945  -5.479  1.00  0.00     0.001 A 
ATOM     82  C   UNL     1       8.500  11.320  -5.713  1.00  0.00     0.000 A 
ENDBRANCH  64  77
ENDBRANCH  38  39
ENDBRANCH  31  33
ENDBRANCH  30  31
ENDBRANCH  29  30
ENDBRANCH  28  29
ENDBRANCH  27  28
ENDBRANCH  26  27
ENDBRANCH   1  26
TORSDOF 20
