REMARK SMILES CC[C@@H]([NH3+])C(=O)N1CC[C@H](C(=O)OCCOCCOCCOC(=O)c2ccc(-c3c4nc(c(-c5ccccc5)c5ccc([nH]5)c(-c5ccccc5)c5nc(c(-c6ccccc6)c6ccc3[nH]6)C=C5)C=C4)cc2)[C@@H]1C
REMARK SMILES IDX 17 1 16 2 15 3 14 4 13 5 11 6 12 7 10 8 7 9 8 10 73 11 9 12
REMARK SMILES IDX 74 13 5 14 6 15 3 16 2 17 1 18 4 19 18 23 19 24 20 25 21 26
REMARK SMILES IDX 22 27 23 28 24 29 25 30 26 31 72 32 27 33 71 34 28 35 29 36
REMARK SMILES IDX 30 37 65 38 31 39 70 40 64 41 66 42 32 43 69 44 63 45 62 46
REMARK SMILES IDX 33 48 55 49 40 50 54 51 41 52 44 53 53 54 67 55 42 56 43 57
REMARK SMILES IDX 52 59 68 60 45 61 34 62 35 63 39 64 36 65 38 66 37 67 56 68
REMARK SMILES IDX 57 69 61 70 58 71 60 72 59 73 46 74 47 75 51 76 48 77 50 78
REMARK SMILES IDX 49 79
REMARK H PARENT 4 20 4 21 4 22 66 47 44 58
REMARK Flexibility Score: inf
ROOT
ATOM      1  C   UNL     1      -6.046  -0.708   3.968  1.00  0.00     0.188 C 
ENDROOT
BRANCH   1   2
ATOM      2  O   UNL     1      -6.635  -1.276   5.128  1.00  0.00    -0.376 OA
BRANCH   2   3
ATOM      3  C   UNL     1      -5.755  -1.528   6.220  1.00  0.00     0.202 C 
BRANCH   3   4
ATOM      4  C   UNL     1      -5.156  -0.280   6.878  1.00  0.00     0.261 C 
BRANCH   4   5
ATOM      5  O   UNL     1      -4.444   0.545   5.940  1.00  0.00    -0.463 OA
BRANCH   5   6
ATOM      6  C   UNL     1      -3.154   0.220   5.651  1.00  0.00     0.311 C 
ATOM      7  O   UNL     1      -2.502  -0.614   6.258  1.00  0.00    -0.252 OA
BRANCH   6   8
ATOM      8  C   UNL     1      -2.722   1.032   4.433  1.00  0.00     0.123 C 
ATOM      9  N   UNL     1      -0.411   1.421   4.035  1.00  0.00    -0.334 N 
ATOM     10  C   UNL     1      -0.850   2.310   5.101  1.00  0.00     0.121 C 
ATOM     11  C   UNL     1      -1.514   0.561   3.602  1.00  0.00     0.096 C 
ATOM     12  C   UNL     1      -2.345   2.442   4.863  1.00  0.00     0.039 C 
ATOM     13  C   UNL     1      -1.239  -0.936   3.718  1.00  0.00     0.032 C 
BRANCH   9  14
ATOM     14  C   UNL     1       0.820   1.659   3.463  1.00  0.00     0.280 C 
ATOM     15  O   UNL     1       1.711   2.205   4.130  1.00  0.00    -0.268 OA
BRANCH  14  16
ATOM     16  C   UNL     1       1.043   1.518   1.928  1.00  0.00     0.270 C 
BRANCH  16  17
ATOM     17  C   UNL     1       0.749   0.177   1.261  1.00  0.00     0.072 C 
ATOM     18  C   UNL     1       1.315   0.065  -0.151  1.00  0.00     0.011 C 
ENDBRANCH  16  17
BRANCH  16  19
ATOM     19  N   UNL     1       0.323   2.627   1.258  1.00  0.00    -0.347 N 
ATOM     20  H   UNL     1      -0.680   2.523   1.412  1.00  0.00     0.345 HD
ATOM     21  H   UNL     1       0.518   2.603   0.257  1.00  0.00     0.345 HD
ATOM     22  H   UNL     1       0.636   3.518   1.644  1.00  0.00     0.345 HD
ENDBRANCH  16  19
ENDBRANCH  14  16
ENDBRANCH   9  14
ENDBRANCH   6   8
ENDBRANCH   5   6
ENDBRANCH   4   5
ENDBRANCH   3   4
ENDBRANCH   2   3
ENDBRANCH   1   2
BRANCH   1  23
ATOM     23  C   UNL     1      -6.428   0.769   3.705  1.00  0.00     0.188 C 
BRANCH  23  24
ATOM     24  O   UNL     1      -7.321   1.440   4.579  1.00  0.00    -0.376 OA
BRANCH  24  25
ATOM     25  C   UNL     1      -8.540   0.799   4.929  1.00  0.00     0.202 C 
BRANCH  25  26
ATOM     26  C   UNL     1      -9.460   0.309   3.802  1.00  0.00     0.261 C 
BRANCH  26  27
ATOM     27  O   UNL     1      -8.832  -0.579   2.855  1.00  0.00    -0.460 OA
BRANCH  27  28
ATOM     28  C   UNL     1      -8.780  -0.119   1.581  1.00  0.00     0.338 C 
ATOM     29  O   UNL     1      -9.248   0.923   1.152  1.00  0.00    -0.246 OA
BRANCH  28  30
ATOM     30  C   UNL     1      -7.906  -0.971   0.747  1.00  0.00     0.060 A 
ATOM     31  C   UNL     1      -6.796  -0.369   0.136  1.00  0.00     0.016 A 
ATOM     32  C   UNL     1      -8.244  -2.292   0.449  1.00  0.00     0.016 A 
ATOM     33  C   UNL     1      -6.064  -1.059  -0.829  1.00  0.00     0.010 A 
ATOM     34  C   UNL     1      -7.521  -2.977  -0.537  1.00  0.00     0.010 A 
ATOM     35  C   UNL     1      -6.465  -2.343  -1.219  1.00  0.00    -0.014 A 
BRANCH  35  36
ATOM     36  C   UNL     1      -5.958  -2.891  -2.504  1.00  0.00     0.031 A 
ATOM     37  C   UNL     1      -6.779  -2.657  -3.748  1.00  0.00     0.074 A 
ATOM     38  C   UNL     1      -4.771  -3.516  -2.595  1.00  0.00     0.049 A 
ATOM     39  N   UNL     1      -6.544  -3.023  -4.983  1.00  0.00    -0.248 NA
ATOM     40  C   UNL     1      -8.031  -1.899  -3.574  1.00  0.00     0.031 C 
ATOM     41  C   UNL     1      -3.845  -3.752  -1.490  1.00  0.00     0.029 A 
ATOM     42  N   UNL     1      -4.141  -4.063  -3.687  1.00  0.00    -0.354 N 
ATOM     43  C   UNL     1      -7.613  -2.538  -5.729  1.00  0.00     0.074 A 
ATOM     44  C   UNL     1      -8.514  -1.885  -4.806  1.00  0.00     0.031 C 
ATOM     45  C   UNL     1      -2.763  -4.399  -1.961  1.00  0.00     0.029 A 
ATOM     46  C   UNL     1      -2.933  -4.644  -3.393  1.00  0.00     0.049 A 
ATOM     47  H   UNL     1      -4.521  -4.040  -4.595  1.00  0.00     0.167 HD
ATOM     48  C   UNL     1      -7.826  -2.616  -7.064  1.00  0.00     0.031 A 
ATOM     49  C   UNL     1      -2.070  -5.306  -4.188  1.00  0.00     0.031 A 
ATOM     50  C   UNL     1      -6.952  -3.282  -7.990  1.00  0.00     0.049 A 
ATOM     51  C   UNL     1      -2.380  -5.465  -5.655  1.00  0.00     0.074 A 
ATOM     52  C   UNL     1      -7.099  -3.439  -9.357  1.00  0.00     0.029 A 
ATOM     53  N   UNL     1      -5.764  -3.902  -7.641  1.00  0.00    -0.354 N 
ATOM     54  N   UNL     1      -3.393  -5.002  -6.346  1.00  0.00    -0.248 NA
ATOM     55  C   UNL     1      -1.410  -6.230  -6.455  1.00  0.00     0.031 C 
ATOM     56  C   UNL     1      -6.018  -4.191  -9.830  1.00  0.00     0.029 A 
ATOM     57  C   UNL     1      -5.172  -4.452  -8.764  1.00  0.00     0.049 A 
ATOM     58  H   UNL     1      -5.396  -3.946  -6.729  1.00  0.00     0.167 HD
ATOM     59  C   UNL     1      -3.160  -5.382  -7.663  1.00  0.00     0.074 A 
ATOM     60  C   UNL     1      -1.905  -6.103  -7.677  1.00  0.00     0.031 C 
ATOM     61  C   UNL     1      -3.915  -5.153  -8.766  1.00  0.00     0.031 A 
BRANCH  48  62
ATOM     62  C   UNL     1      -9.078  -1.976  -7.596  1.00  0.00    -0.014 A 
ATOM     63  C   UNL     1      -9.202  -0.579  -7.670  1.00  0.00     0.009 A 
ATOM     64  C   UNL     1     -10.136  -2.778  -8.048  1.00  0.00     0.009 A 
ATOM     65  C   UNL     1     -10.374   0.001  -8.157  1.00  0.00     0.001 A 
ATOM     66  C   UNL     1     -11.297  -2.195  -8.559  1.00  0.00     0.001 A 
ATOM     67  C   UNL     1     -11.419  -0.807  -8.605  1.00  0.00     0.000 A 
ENDBRANCH  48  62
BRANCH  49  68
ATOM     68  C   UNL     1      -0.822  -5.892  -3.630  1.00  0.00    -0.014 A 
ATOM     69  C   UNL     1       0.434  -5.384  -3.998  1.00  0.00     0.009 A 
ATOM     70  C   UNL     1      -0.878  -7.010  -2.783  1.00  0.00     0.009 A 
ATOM     71  C   UNL     1       1.606  -6.007  -3.562  1.00  0.00     0.001 A 
ATOM     72  C   UNL     1       0.295  -7.612  -2.324  1.00  0.00     0.001 A 
ATOM     73  C   UNL     1       1.536  -7.119  -2.725  1.00  0.00     0.000 A 
ENDBRANCH  49  68
BRANCH  61  74
ATOM     74  C   UNL     1      -3.372  -5.629 -10.085  1.00  0.00    -0.014 A 
ATOM     75  C   UNL     1      -3.315  -6.993 -10.410  1.00  0.00     0.009 A 
ATOM     76  C   UNL     1      -2.925  -4.688 -11.027  1.00  0.00     0.009 A 
ATOM     77  C   UNL     1      -2.778  -7.406 -11.631  1.00  0.00     0.001 A 
ATOM     78  C   UNL     1      -2.418  -5.102 -12.259  1.00  0.00     0.001 A 
ATOM     79  C   UNL     1      -2.333  -6.461 -12.555  1.00  0.00     0.000 A 
ENDBRANCH  61  74
ENDBRANCH  35  36
ENDBRANCH  28  30
ENDBRANCH  27  28
ENDBRANCH  26  27
ENDBRANCH  25  26
ENDBRANCH  24  25
ENDBRANCH  23  24
ENDBRANCH   1  23
TORSDOF 21
