REMARK SMILES O=C(OCCOCCOCCOC(=O)c1ccc(-n2cc(CSc3nc4ccccc4c(=O)n3-c3ccc(Br)cc3)nn2)cc1)c1ccc(-c2c3nc(c(-c4ccccc4)c4ccc([nH]4)c(-c4ccccc4)c4nc(c(-c5ccccc5)c5ccc2[nH]5)C=C4)C=C3)cc1
REMARK SMILES IDX 9 1 8 2 7 3 6 4 5 5 4 6 3 7 2 8 1 9 46 10 47 11 93 12 48 13
REMARK SMILES IDX 92 14 49 15 50 16 51 17 86 18 52 19 91 20 85 21 87 22 53 23
REMARK SMILES IDX 90 24 84 25 83 26 54 28 76 29 61 30 75 31 62 32 65 33 74 34
REMARK SMILES IDX 88 35 63 36 64 37 73 39 89 40 66 41 55 42 56 43 60 44 57 45
REMARK SMILES IDX 59 46 58 47 77 48 78 49 82 50 79 51 81 52 80 53 67 54 68 55
REMARK SMILES IDX 72 56 69 57 71 58 70 59 10 60 11 61 12 62 13 63 14 64 15 65
REMARK SMILES IDX 16 66 45 67 17 68 44 69 18 70 19 71 20 72 43 73 21 74 42 75
REMARK SMILES IDX 22 76 23 77 24 78 25 79 34 80 26 81 32 82 27 83 31 84 33 85
REMARK SMILES IDX 28 86 30 87 29 88 35 89 36 90 41 91 37 92 40 93 38 94 39 95
REMARK H PARENT 87 27 65 38
REMARK Flexibility Score: inf
ROOT
ATOM      1  O   UNL     1       2.939  -3.404  -0.508  1.00  0.00    -0.376 OA
ENDROOT
BRANCH   1   2
ATOM      2  C   UNL     1       2.427  -2.166  -0.989  1.00  0.00     0.188 C 
BRANCH   2   3
ATOM      3  C   UNL     1       3.391  -0.995  -1.288  1.00  0.00     0.188 C 
BRANCH   3   4
ATOM      4  O   UNL     1       4.724  -1.242  -0.886  1.00  0.00    -0.376 OA
BRANCH   4   5
ATOM      5  C   UNL     1       5.293  -0.433   0.123  1.00  0.00     0.202 C 
BRANCH   5   6
ATOM      6  C   UNL     1       4.633  -0.408   1.508  1.00  0.00     0.261 C 
BRANCH   6   7
ATOM      7  O   UNL     1       3.221  -0.660   1.536  1.00  0.00    -0.460 OA
BRANCH   7   8
ATOM      8  C   UNL     1       2.160   0.165   1.567  1.00  0.00     0.338 C 
ATOM      9  O   UNL     1       1.085  -0.270   1.977  1.00  0.00    -0.246 OA
BRANCH   8  10
ATOM     10  C   UNL     1       2.162   1.536   0.984  1.00  0.00     0.060 A 
ATOM     11  C   UNL     1       3.280   2.348   0.786  1.00  0.00     0.016 A 
ATOM     12  C   UNL     1       0.889   2.049   0.654  1.00  0.00     0.016 A 
ATOM     13  C   UNL     1       3.120   3.677   0.413  1.00  0.00     0.010 A 
ATOM     14  C   UNL     1       0.725   3.371   0.272  1.00  0.00     0.010 A 
ATOM     15  C   UNL     1       1.840   4.199   0.232  1.00  0.00    -0.014 A 
BRANCH  15  16
ATOM     16  C   UNL     1       1.711   5.641   0.091  1.00  0.00     0.031 A 
ATOM     17  C   UNL     1       2.211   6.249  -1.166  1.00  0.00     0.074 A 
ATOM     18  C   UNL     1       1.123   6.391   1.043  1.00  0.00     0.049 A 
ATOM     19  N   UNL     1       3.162   7.115  -1.304  1.00  0.00    -0.248 NA
ATOM     20  C   UNL     1       1.611   5.801  -2.429  1.00  0.00     0.031 C 
ATOM     21  C   UNL     1       0.348   5.929   2.199  1.00  0.00     0.029 A 
ATOM     22  N   UNL     1       1.005   7.747   1.110  1.00  0.00    -0.354 N 
ATOM     23  C   UNL     1       3.185   7.447  -2.656  1.00  0.00     0.074 A 
ATOM     24  C   UNL     1       2.286   6.531  -3.317  1.00  0.00     0.031 C 
ATOM     25  C   UNL     1      -0.349   6.969   2.707  1.00  0.00     0.029 A 
ATOM     26  C   UNL     1       0.039   8.180   2.004  1.00  0.00     0.049 A 
ATOM     27  H   UNL     1       1.554   8.362   0.573  1.00  0.00     0.167 HD
ATOM     28  C   UNL     1       3.791   8.576  -3.117  1.00  0.00     0.031 A 
ATOM     29  C   UNL     1      -0.463   9.432   2.112  1.00  0.00     0.031 A 
ATOM     30  C   UNL     1       4.698   9.146  -2.160  1.00  0.00     0.049 A 
ATOM     31  C   UNL     1       0.493  10.368   1.479  1.00  0.00     0.074 A 
ATOM     32  C   UNL     1       5.849   8.722  -1.529  1.00  0.00     0.029 A 
ATOM     33  N   UNL     1       4.278  10.258  -1.472  1.00  0.00    -0.354 N 
ATOM     34  N   UNL     1       1.659  10.656   1.979  1.00  0.00    -0.248 NA
ATOM     35  C   UNL     1       0.320  10.696   0.073  1.00  0.00     0.031 C 
ATOM     36  C   UNL     1       5.797   9.308  -0.231  1.00  0.00     0.029 A 
ATOM     37  C   UNL     1       4.634  10.078  -0.161  1.00  0.00     0.049 A 
ATOM     38  H   UNL     1       3.810  11.037  -1.849  1.00  0.00     0.167 HD
ATOM     39  C   UNL     1       2.492  10.791   0.878  1.00  0.00     0.074 A 
ATOM     40  C   UNL     1       1.592  10.931  -0.262  1.00  0.00     0.031 C 
ATOM     41  C   UNL     1       3.823  10.492   0.961  1.00  0.00     0.031 A 
BRANCH  28  42
ATOM     42  C   UNL     1       3.288   9.368  -4.297  1.00  0.00    -0.014 A 
ATOM     43  C   UNL     1       4.052  10.451  -4.769  1.00  0.00     0.009 A 
ATOM     44  C   UNL     1       1.966   9.269  -4.770  1.00  0.00     0.009 A 
ATOM     45  C   UNL     1       3.499  11.416  -5.620  1.00  0.00     0.001 A 
ATOM     46  C   UNL     1       1.425  10.207  -5.653  1.00  0.00     0.001 A 
ATOM     47  C   UNL     1       2.183  11.297  -6.056  1.00  0.00     0.000 A 
ENDBRANCH  28  42
BRANCH  29  48
ATOM     48  C   UNL     1      -1.830   9.830   2.502  1.00  0.00    -0.014 A 
ATOM     49  C   UNL     1      -2.115  11.146   2.895  1.00  0.00     0.009 A 
ATOM     50  C   UNL     1      -2.917   8.971   2.249  1.00  0.00     0.009 A 
ATOM     51  C   UNL     1      -3.439  11.592   2.998  1.00  0.00     0.001 A 
ATOM     52  C   UNL     1      -4.237   9.413   2.360  1.00  0.00     0.001 A 
ATOM     53  C   UNL     1      -4.498  10.730   2.720  1.00  0.00     0.000 A 
ENDBRANCH  29  48
BRANCH  41  54
ATOM     54  C   UNL     1       4.415  10.276   2.332  1.00  0.00    -0.014 A 
ATOM     55  C   UNL     1       3.967   9.265   3.201  1.00  0.00     0.009 A 
ATOM     56  C   UNL     1       5.553  11.010   2.695  1.00  0.00     0.009 A 
ATOM     57  C   UNL     1       4.617   9.024   4.415  1.00  0.00     0.001 A 
ATOM     58  C   UNL     1       6.217  10.753   3.897  1.00  0.00     0.001 A 
ATOM     59  C   UNL     1       5.745   9.765   4.759  1.00  0.00     0.000 A 
ENDBRANCH  41  54
ENDBRANCH  15  16
ENDBRANCH   8  10
ENDBRANCH   7   8
ENDBRANCH   6   7
ENDBRANCH   5   6
ENDBRANCH   4   5
ENDBRANCH   3   4
ENDBRANCH   2   3
ENDBRANCH   1   2
BRANCH   1  60
ATOM     60  C   UNL     1       4.144  -3.925  -1.050  1.00  0.00     0.202 C 
BRANCH  60  61
ATOM     61  C   UNL     1       4.210  -4.183  -2.562  1.00  0.00     0.261 C 
BRANCH  61  62
ATOM     62  O   UNL     1       3.908  -3.041  -3.384  1.00  0.00    -0.460 OA
BRANCH  62  63
ATOM     63  C   UNL     1       2.807  -3.148  -4.173  1.00  0.00     0.338 C 
ATOM     64  O   UNL     1       2.060  -4.101  -4.283  1.00  0.00    -0.246 OA
BRANCH  63  65
ATOM     65  C   UNL     1       2.533  -1.838  -4.803  1.00  0.00     0.060 A 
ATOM     66  C   UNL     1       1.324  -1.189  -4.510  1.00  0.00     0.018 A 
ATOM     67  C   UNL     1       3.450  -1.261  -5.683  1.00  0.00     0.018 A 
ATOM     68  C   UNL     1       1.023   0.043  -5.099  1.00  0.00     0.029 A 
ATOM     69  C   UNL     1       3.168  -0.013  -6.249  1.00  0.00     0.029 A 
ATOM     70  C   UNL     1       1.952   0.632  -5.961  1.00  0.00     0.066 A 
BRANCH  70  71
ATOM     71  N   UNL     1       1.651   1.845  -6.620  1.00  0.00    -0.220 N 
ATOM     72  C   UNL     1       0.466   2.183  -7.251  1.00  0.00     0.141 A 
ATOM     73  N   UNL     1       2.601   2.750  -6.922  1.00  0.00    -0.062 NA
ATOM     74  C   UNL     1       0.822   3.178  -8.139  1.00  0.00     0.093 A 
ATOM     75  N   UNL     1       2.094   3.593  -7.804  1.00  0.00    -0.134 NA
BRANCH  74  76
ATOM     76  C   UNL     1       0.334   3.643  -9.464  1.00  0.00     0.138 C 
BRANCH  76  77
ATOM     77  S   UNL     1      -1.322   3.882 -10.045  1.00  0.00    -0.081 SA
BRANCH  77  78
ATOM     78  C   UNL     1      -2.541   2.971  -9.219  1.00  0.00     0.176 A 
ATOM     79  N   UNL     1      -3.623   3.680  -9.083  1.00  0.00    -0.223 NA
ATOM     80  N   UNL     1      -2.445   1.672  -8.743  1.00  0.00    -0.255 N 
ATOM     81  C   UNL     1      -4.686   3.162  -8.346  1.00  0.00     0.079 A 
ATOM     82  C   UNL     1      -3.165   1.456  -7.556  1.00  0.00     0.266 A 
ATOM     83  C   UNL     1      -5.950   3.747  -8.405  1.00  0.00     0.029 A 
ATOM     84  C   UNL     1      -4.464   2.132  -7.449  1.00  0.00     0.066 A 
ATOM     85  O   UNL     1      -2.777   0.809  -6.584  1.00  0.00    -0.268 OA
ATOM     86  C   UNL     1      -6.955   3.335  -7.524  1.00  0.00     0.002 A 
ATOM     87  C   UNL     1      -5.438   1.742  -6.528  1.00  0.00     0.016 A 
ATOM     88  C   UNL     1      -6.689   2.356  -6.564  1.00  0.00     0.001 A 
BRANCH  80  89
ATOM     89  C   UNL     1      -1.628   0.584  -9.262  1.00  0.00     0.051 A 
ATOM     90  C   UNL     1      -1.715  -0.702  -8.685  1.00  0.00     0.028 A 
ATOM     91  C   UNL     1      -0.742   0.697 -10.339  1.00  0.00     0.028 A 
ATOM     92  C   UNL     1      -0.821  -1.732  -8.999  1.00  0.00     0.018 A 
ATOM     93  C   UNL     1       0.195  -0.309 -10.632  1.00  0.00     0.018 A 
ATOM     94  C   UNL     1       0.175  -1.506  -9.931  1.00  0.00     0.018 A 
ATOM     95  Br  UNL     1       1.486  -2.823 -10.252  1.00  0.00    -0.051 Br
ENDBRANCH  80  89
ENDBRANCH  77  78
ENDBRANCH  76  77
ENDBRANCH  74  76
ENDBRANCH  70  71
ENDBRANCH  63  65
ENDBRANCH  62  63
ENDBRANCH  61  62
ENDBRANCH  60  61
ENDBRANCH   1  60
TORSDOF 22
