REMARK SMILES CC(C)[C@H](NS(=O)(=O)N1C[C@@H](C)O[C@H](C)C1)C(=O)OCCOCCOCCOC(=O)c1ccc(-c2c3nc(c(-c4ccccc4)c4ccc([nH]4)c(-c4ccccc4)c4nc(c(-c5ccccc5)c5ccc2[nH]5)C=C4)C=C3)cc1
REMARK SMILES IDX 23 1 22 2 21 3 20 4 19 5 17 6 18 7 4 8 2 9 1 10 3 11 5 12
REMARK SMILES IDX 6 14 7 15 8 16 9 17 10 18 16 19 11 20 14 21 12 22 13 23
REMARK SMILES IDX 15 24 24 25 25 26 26 27 27 28 28 29 29 30 30 31 31 32 32 33
REMARK SMILES IDX 78 34 33 35 77 36 34 37 35 38 36 39 71 40 37 41 76 42 70 43
REMARK SMILES IDX 72 44 38 45 75 46 69 47 68 48 39 50 61 51 46 52 60 53 47 54
REMARK SMILES IDX 50 55 59 56 73 57 48 58 49 59 58 61 74 62 51 63 40 64 41 65
REMARK SMILES IDX 45 66 42 67 44 68 43 69 62 70 63 71 67 72 64 73 66 74 65 75
REMARK SMILES IDX 52 76 53 77 57 78 54 79 56 80 55 81
REMARK H PARENT 5 13 72 49 50 60
REMARK Flexibility Score: inf
ROOT
ATOM      1  C   UNL     1      -1.539   0.597   5.027  1.00  0.00     0.188 C 
ENDROOT
BRANCH   1   2
ATOM      2  O   UNL     1      -2.238  -0.207   5.950  1.00  0.00    -0.376 OA
BRANCH   2   3
ATOM      3  C   UNL     1      -2.236  -1.608   5.754  1.00  0.00     0.202 C 
BRANCH   3   4
ATOM      4  C   UNL     1      -2.544  -2.170   4.361  1.00  0.00     0.261 C 
BRANCH   4   5
ATOM      5  O   UNL     1      -1.668  -1.730   3.297  1.00  0.00    -0.462 OA
BRANCH   5   6
ATOM      6  C   UNL     1      -2.249  -1.024   2.278  1.00  0.00     0.324 C 
ATOM      7  O   UNL     1      -3.429  -0.682   2.268  1.00  0.00    -0.250 OA
BRANCH   6   8
ATOM      8  C   UNL     1      -1.323  -0.794   1.073  1.00  0.00     0.183 C 
BRANCH   8   9
ATOM      9  C   UNL     1      -1.558  -1.935   0.038  1.00  0.00     0.012 C 
ATOM     10  C   UNL     1      -0.413  -2.161  -0.952  1.00  0.00     0.009 C 
ATOM     11  C   UNL     1      -1.925  -3.295   0.655  1.00  0.00     0.009 C 
ENDBRANCH   8   9
BRANCH   8  12
ATOM     12  N   UNL     1       0.102  -0.593   1.416  1.00  0.00    -0.188 NA
ATOM     13  H   UNL     1       0.566  -1.485   1.243  1.00  0.00     0.143 HD
BRANCH  12  14
ATOM     14  S   UNL     1       1.038   0.574   0.667  1.00  0.00     0.280 S 
ATOM     15  O   UNL     1       2.398   0.153   0.857  1.00  0.00    -0.195 OA
ATOM     16  O   UNL     1       0.494   0.849  -0.644  1.00  0.00    -0.195 OA
BRANCH  14  17
ATOM     17  N   UNL     1       0.740   1.900   1.635  1.00  0.00    -0.184 NA
ATOM     18  C   UNL     1       1.831   2.445   2.490  1.00  0.00     0.135 C 
ATOM     19  C   UNL     1      -0.281   2.894   1.213  1.00  0.00     0.135 C 
ATOM     20  C   UNL     1       2.339   3.822   2.043  1.00  0.00     0.130 C 
ATOM     21  C   UNL     1       0.364   4.215   0.754  1.00  0.00     0.130 C 
ATOM     22  C   UNL     1       3.342   3.739   0.900  1.00  0.00     0.040 C 
ATOM     23  O   UNL     1       1.259   4.724   1.756  1.00  0.00    -0.373 OA
ATOM     24  C   UNL     1      -0.680   5.296   0.482  1.00  0.00     0.040 C 
ENDBRANCH  14  17
ENDBRANCH  12  14
ENDBRANCH   8  12
ENDBRANCH   6   8
ENDBRANCH   5   6
ENDBRANCH   4   5
ENDBRANCH   3   4
ENDBRANCH   2   3
ENDBRANCH   1   2
BRANCH   1  25
ATOM     25  C   UNL     1      -0.064   0.293   4.688  1.00  0.00     0.188 C 
BRANCH  25  26
ATOM     26  O   UNL     1       0.600  -0.788   5.292  1.00  0.00    -0.376 OA
BRANCH  26  27
ATOM     27  C   UNL     1       1.010  -0.649   6.642  1.00  0.00     0.202 C 
BRANCH  27  28
ATOM     28  C   UNL     1       1.321   0.719   7.297  1.00  0.00     0.261 C 
BRANCH  28  29
ATOM     29  O   UNL     1       0.540   1.851   6.858  1.00  0.00    -0.460 OA
BRANCH  29  30
ATOM     30  C   UNL     1       1.217   3.031   6.756  1.00  0.00     0.338 C 
ATOM     31  O   UNL     1       2.378   3.224   7.082  1.00  0.00    -0.246 OA
BRANCH  30  32
ATOM     32  C   UNL     1       0.394   4.103   6.127  1.00  0.00     0.060 A 
ATOM     33  C   UNL     1      -0.327   3.853   4.969  1.00  0.00     0.016 A 
ATOM     34  C   UNL     1       0.458   5.424   6.574  1.00  0.00     0.016 A 
ATOM     35  C   UNL     1      -0.963   4.868   4.266  1.00  0.00     0.010 A 
ATOM     36  C   UNL     1      -0.225   6.452   5.879  1.00  0.00     0.010 A 
ATOM     37  C   UNL     1      -0.944   6.187   4.699  1.00  0.00    -0.014 A 
BRANCH  37  38
ATOM     38  C   UNL     1      -1.568   7.234   3.826  1.00  0.00     0.031 A 
ATOM     39  C   UNL     1      -0.740   8.392   3.334  1.00  0.00     0.074 A 
ATOM     40  C   UNL     1      -2.813   7.107   3.308  1.00  0.00     0.049 A 
ATOM     41  N   UNL     1      -1.132   9.519   2.794  1.00  0.00    -0.248 NA
ATOM     42  C   UNL     1       0.719   8.254   3.446  1.00  0.00     0.031 C 
ATOM     43  C   UNL     1      -3.703   5.954   3.469  1.00  0.00     0.029 A 
ATOM     44  N   UNL     1      -3.530   7.951   2.485  1.00  0.00    -0.354 N 
ATOM     45  C   UNL     1       0.024  10.263   2.593  1.00  0.00     0.074 A 
ATOM     46  C   UNL     1       1.134   9.443   3.029  1.00  0.00     0.031 C 
ATOM     47  C   UNL     1      -4.796   6.128   2.711  1.00  0.00     0.029 A 
ATOM     48  C   UNL     1      -4.779   7.476   2.158  1.00  0.00     0.049 A 
ATOM     49  H   UNL     1      -3.180   8.812   2.162  1.00  0.00     0.167 HD
ATOM     50  C   UNL     1       0.140  11.525   2.114  1.00  0.00     0.031 A 
ATOM     51  C   UNL     1      -5.836   8.075   1.572  1.00  0.00     0.031 A 
ATOM     52  C   UNL     1      -0.959  12.313   1.615  1.00  0.00     0.049 A 
ATOM     53  C   UNL     1      -5.741   9.531   1.205  1.00  0.00     0.074 A 
ATOM     54  C   UNL     1      -0.950  13.625   1.171  1.00  0.00     0.029 A 
ATOM     55  N   UNL     1      -2.257  11.854   1.466  1.00  0.00    -0.354 N 
ATOM     56  N   UNL     1      -4.694  10.318   1.209  1.00  0.00    -0.248 NA
ATOM     57  C   UNL     1      -6.991  10.195   0.802  1.00  0.00     0.031 C 
ATOM     58  C   UNL     1      -2.256  13.980   0.818  1.00  0.00     0.029 A 
ATOM     59  C   UNL     1      -3.064  12.867   0.972  1.00  0.00     0.049 A 
ATOM     60  H   UNL     1      -2.562  10.942   1.679  1.00  0.00     0.167 HD
ATOM     61  C   UNL     1      -5.158  11.566   0.812  1.00  0.00     0.074 A 
ATOM     62  C   UNL     1      -6.571  11.424   0.536  1.00  0.00     0.031 C 
ATOM     63  C   UNL     1      -4.471  12.730   0.703  1.00  0.00     0.031 A 
BRANCH  50  64
ATOM     64  C   UNL     1       1.486  12.188   2.218  1.00  0.00    -0.014 A 
ATOM     65  C   UNL     1       2.561  11.855   1.383  1.00  0.00     0.009 A 
ATOM     66  C   UNL     1       1.652  13.215   3.163  1.00  0.00     0.009 A 
ATOM     67  C   UNL     1       3.783  12.522   1.512  1.00  0.00     0.001 A 
ATOM     68  C   UNL     1       2.861  13.901   3.268  1.00  0.00     0.001 A 
ATOM     69  C   UNL     1       3.929  13.548   2.448  1.00  0.00     0.000 A 
ENDBRANCH  50  64
BRANCH  51  70
ATOM     70  C   UNL     1      -7.139   7.357   1.448  1.00  0.00    -0.014 A 
ATOM     71  C   UNL     1      -7.739   7.145   0.197  1.00  0.00     0.009 A 
ATOM     72  C   UNL     1      -7.817   6.919   2.599  1.00  0.00     0.009 A 
ATOM     73  C   UNL     1      -8.989   6.522   0.108  1.00  0.00     0.001 A 
ATOM     74  C   UNL     1      -9.040   6.255   2.504  1.00  0.00     0.001 A 
ATOM     75  C   UNL     1      -9.631   6.068   1.259  1.00  0.00     0.000 A 
ENDBRANCH  51  70
BRANCH  63  76
ATOM     76  C   UNL     1      -5.233  13.941   0.238  1.00  0.00    -0.014 A 
ATOM     77  C   UNL     1      -6.185  14.564   1.061  1.00  0.00     0.009 A 
ATOM     78  C   UNL     1      -4.976  14.484  -1.031  1.00  0.00     0.009 A 
ATOM     79  C   UNL     1      -6.889  15.682   0.608  1.00  0.00     0.001 A 
ATOM     80  C   UNL     1      -5.657  15.621  -1.469  1.00  0.00     0.001 A 
ATOM     81  C   UNL     1      -6.621  16.212  -0.654  1.00  0.00     0.000 A 
ENDBRANCH  63  76
ENDBRANCH  37  38
ENDBRANCH  30  32
ENDBRANCH  29  30
ENDBRANCH  28  29
ENDBRANCH  27  28
ENDBRANCH  26  27
ENDBRANCH  25  26
ENDBRANCH   1  25
TORSDOF 21
