REMARK SMILES O=C(OCCOCCOCCOC(=O)c1ccccc1C(=O)N1CCCc2ccccc21)c1ccc(-c2c3nc(c(-c4ccccc4)c4ccc([nH]4)c(-c4ccccc4)c4nc(c(-c5ccccc5)c5ccc2[nH]5)C=C4)C=C3)cc1
REMARK SMILES IDX 7 1 6 2 5 3 4 4 3 5 2 6 1 7 33 8 34 9 80 10 35 11 79 12
REMARK SMILES IDX 36 13 37 14 38 15 73 16 39 17 78 18 72 19 74 20 40 21 77 22
REMARK SMILES IDX 71 23 70 24 41 26 63 27 48 28 62 29 49 30 52 31 61 32 75 33
REMARK SMILES IDX 50 34 51 35 60 37 76 38 53 39 42 40 43 41 47 42 44 43 46 44
REMARK SMILES IDX 45 45 64 46 65 47 69 48 66 49 68 50 67 51 54 52 55 53 59 54
REMARK SMILES IDX 56 55 58 56 57 57 8 58 9 59 10 60 11 61 12 62 13 63 14 64
REMARK SMILES IDX 15 65 16 66 20 67 17 68 19 69 18 70 21 71 22 72 23 73 24 74
REMARK SMILES IDX 32 75 25 76 27 77 31 78 26 79 28 80 30 81 29 82
REMARK H PARENT 74 25 52 36
REMARK Flexibility Score: inf
ROOT
ATOM      1  C   UNL     1       2.528  -0.478  -1.786  1.00  0.00     0.188 C 
ENDROOT
BRANCH   1   2
ATOM      2  O   UNL     1       3.901  -0.084  -1.658  1.00  0.00    -0.376 OA
BRANCH   2   3
ATOM      3  C   UNL     1       4.730  -1.122  -1.111  1.00  0.00     0.202 C 
BRANCH   3   4
ATOM      4  C   UNL     1       4.555  -1.413   0.394  1.00  0.00     0.261 C 
BRANCH   4   5
ATOM      5  O   UNL     1       3.208  -1.245   0.865  1.00  0.00    -0.460 OA
BRANCH   5   6
ATOM      6  C   UNL     1       2.615  -0.155   1.411  1.00  0.00     0.338 C 
ATOM      7  O   UNL     1       1.467  -0.279   1.839  1.00  0.00    -0.246 OA
BRANCH   6   8
ATOM      8  C   UNL     1       3.249   1.201   1.512  1.00  0.00     0.060 A 
ATOM      9  C   UNL     1       4.442   1.594   0.904  1.00  0.00     0.016 A 
ATOM     10  C   UNL     1       2.562   2.167   2.275  1.00  0.00     0.016 A 
ATOM     11  C   UNL     1       5.004   2.843   1.142  1.00  0.00     0.010 A 
ATOM     12  C   UNL     1       3.097   3.442   2.489  1.00  0.00     0.010 A 
ATOM     13  C   UNL     1       4.354   3.756   1.968  1.00  0.00    -0.014 A 
BRANCH  13  14
ATOM     14  C   UNL     1       5.122   4.928   2.430  1.00  0.00     0.031 A 
ATOM     15  C   UNL     1       5.766   4.852   3.782  1.00  0.00     0.074 A 
ATOM     16  C   UNL     1       5.356   5.958   1.600  1.00  0.00     0.049 A 
ATOM     17  N   UNL     1       6.559   5.705   4.370  1.00  0.00    -0.248 NA
ATOM     18  C   UNL     1       5.496   3.635   4.569  1.00  0.00     0.031 C 
ATOM     19  C   UNL     1       4.856   6.058   0.231  1.00  0.00     0.029 A 
ATOM     20  N   UNL     1       6.097   7.096   1.772  1.00  0.00    -0.354 N 
ATOM     21  C   UNL     1       6.866   5.139   5.600  1.00  0.00     0.074 A 
ATOM     22  C   UNL     1       6.167   3.878   5.682  1.00  0.00     0.031 C 
ATOM     23  C   UNL     1       5.319   7.192  -0.320  1.00  0.00     0.029 A 
ATOM     24  C   UNL     1       6.119   7.911   0.665  1.00  0.00     0.049 A 
ATOM     25  H   UNL     1       6.570   7.311   2.608  1.00  0.00     0.167 HD
ATOM     26  C   UNL     1       7.658   5.633   6.579  1.00  0.00     0.031 A 
ATOM     27  C   UNL     1       6.717   9.105   0.483  1.00  0.00     0.031 A 
ATOM     28  C   UNL     1       8.324   6.902   6.491  1.00  0.00     0.049 A 
ATOM     29  C   UNL     1       7.522   9.669   1.625  1.00  0.00     0.074 A 
ATOM     30  C   UNL     1       9.107   7.538   7.435  1.00  0.00     0.029 A 
ATOM     31  N   UNL     1       8.271   7.733   5.380  1.00  0.00    -0.354 N 
ATOM     32  N   UNL     1       7.808   9.124   2.784  1.00  0.00    -0.248 NA
ATOM     33  C   UNL     1       8.090  11.010   1.434  1.00  0.00     0.031 C 
ATOM     34  C   UNL     1       9.486   8.780   6.913  1.00  0.00     0.029 A 
ATOM     35  C   UNL     1       8.987   8.889   5.623  1.00  0.00     0.049 A 
ATOM     36  H   UNL     1       7.794   7.528   4.543  1.00  0.00     0.167 HD
ATOM     37  C   UNL     1       8.613  10.041   3.447  1.00  0.00     0.074 A 
ATOM     38  C   UNL     1       8.791  11.164   2.547  1.00  0.00     0.031 C 
ATOM     39  C   UNL     1       9.153   9.973   4.689  1.00  0.00     0.031 A 
BRANCH  26  40
ATOM     40  C   UNL     1       7.750   4.826   7.842  1.00  0.00    -0.014 A 
ATOM     41  C   UNL     1       8.446   3.607   7.891  1.00  0.00     0.009 A 
ATOM     42  C   UNL     1       7.068   5.266   8.987  1.00  0.00     0.009 A 
ATOM     43  C   UNL     1       8.413   2.822   9.047  1.00  0.00     0.001 A 
ATOM     44  C   UNL     1       7.060   4.493  10.149  1.00  0.00     0.001 A 
ATOM     45  C   UNL     1       7.720   3.265  10.173  1.00  0.00     0.000 A 
ENDBRANCH  26  40
BRANCH  27  46
ATOM     46  C   UNL     1       6.587   9.845  -0.805  1.00  0.00    -0.014 A 
ATOM     47  C   UNL     1       7.719  10.161  -1.572  1.00  0.00     0.009 A 
ATOM     48  C   UNL     1       5.330  10.257  -1.276  1.00  0.00     0.009 A 
ATOM     49  C   UNL     1       7.599  10.868  -2.773  1.00  0.00     0.001 A 
ATOM     50  C   UNL     1       5.207  10.931  -2.495  1.00  0.00     0.001 A 
ATOM     51  C   UNL     1       6.341  11.240  -3.240  1.00  0.00     0.000 A 
ENDBRANCH  27  46
BRANCH  39  52
ATOM     52  C   UNL     1      10.020  11.123   5.112  1.00  0.00    -0.014 A 
ATOM     53  C   UNL     1       9.470  12.373   5.430  1.00  0.00     0.009 A 
ATOM     54  C   UNL     1      11.406  10.935   5.224  1.00  0.00     0.009 A 
ATOM     55  C   UNL     1      10.298  13.427   5.817  1.00  0.00     0.001 A 
ATOM     56  C   UNL     1      12.228  11.981   5.642  1.00  0.00     0.001 A 
ATOM     57  C   UNL     1      11.675  13.228   5.928  1.00  0.00     0.000 A 
ENDBRANCH  39  52
ENDBRANCH  13  14
ENDBRANCH   6   8
ENDBRANCH   5   6
ENDBRANCH   4   5
ENDBRANCH   3   4
ENDBRANCH   2   3
ENDBRANCH   1   2
BRANCH   1  58
ATOM     58  C   UNL     1       1.871  -0.197  -3.140  1.00  0.00     0.188 C 
BRANCH  58  59
ATOM     59  O   UNL     1       2.483  -0.734  -4.303  1.00  0.00    -0.376 OA
BRANCH  59  60
ATOM     60  C   UNL     1       3.827  -0.354  -4.556  1.00  0.00     0.202 C 
BRANCH  60  61
ATOM     61  C   UNL     1       4.156   1.134  -4.743  1.00  0.00     0.261 C 
BRANCH  61  62
ATOM     62  O   UNL     1       3.447   2.065  -3.903  1.00  0.00    -0.460 OA
BRANCH  62  63
ATOM     63  C   UNL     1       2.954   3.181  -4.507  1.00  0.00     0.339 C 
ATOM     64  O   UNL     1       2.910   3.414  -5.709  1.00  0.00    -0.246 OA
BRANCH  63  65
ATOM     65  C   UNL     1       2.592   4.173  -3.483  1.00  0.00     0.072 A 
ATOM     66  C   UNL     1       1.570   3.775  -2.588  1.00  0.00     0.016 A 
ATOM     67  C   UNL     1       3.093   5.485  -3.445  1.00  0.00     0.054 A 
ATOM     68  C   UNL     1       1.012   4.666  -1.675  1.00  0.00     0.001 A 
ATOM     69  C   UNL     1       2.470   6.374  -2.529  1.00  0.00     0.015 A 
ATOM     70  C   UNL     1       1.450   5.978  -1.659  1.00  0.00     0.001 A 
BRANCH  67  71
ATOM     71  C   UNL     1       4.181   6.156  -4.248  1.00  0.00     0.259 C 
ATOM     72  O   UNL     1       3.961   7.343  -4.524  1.00  0.00    -0.269 OA
BRANCH  71  73
ATOM     73  N   UNL     1       5.410   5.576  -4.562  1.00  0.00    -0.308 N 
ATOM     74  C   UNL     1       5.821   4.173  -4.611  1.00  0.00     0.126 C 
ATOM     75  C   UNL     1       6.557   6.377  -4.880  1.00  0.00     0.047 A 
ATOM     76  C   UNL     1       6.117   3.753  -6.058  1.00  0.00     0.027 C 
ATOM     77  C   UNL     1       7.408   5.870  -5.886  1.00  0.00    -0.024 A 
ATOM     78  C   UNL     1       7.038   7.304  -3.963  1.00  0.00     0.026 A 
ATOM     79  C   UNL     1       6.802   4.880  -6.843  1.00  0.00     0.039 C 
ATOM     80  C   UNL     1       8.759   6.210  -5.906  1.00  0.00     0.006 A 
ATOM     81  C   UNL     1       8.403   7.596  -3.959  1.00  0.00     0.002 A 
ATOM     82  C   UNL     1       9.262   7.041  -4.910  1.00  0.00     0.000 A 
ENDBRANCH  71  73
ENDBRANCH  67  71
ENDBRANCH  63  65
ENDBRANCH  62  63
ENDBRANCH  61  62
ENDBRANCH  60  61
ENDBRANCH  59  60
ENDBRANCH  58  59
ENDBRANCH   1  58
TORSDOF 19
