REMARK SMILES O=C(OCCOCCOCCOC(=O)[C@]12COc3ccccc3[C@H]1C[N@H+](CCO)C2)c1ccc(-c2c3nc(c(-c4ccccc4)c4ccc([nH]4)c(-c4ccccc4)c4nc(c(-c5ccccc5)c5ccc2[nH]5)C=C4)C=C3)cc1
REMARK SMILES IDX 8 1 7 2 6 3 5 4 4 5 3 6 2 7 1 8 31 9 32 10 78 11 33 12 77 13
REMARK SMILES IDX 34 14 35 15 36 16 71 17 37 18 76 19 70 20 72 21 38 22 75 23
REMARK SMILES IDX 69 24 68 25 39 27 61 28 46 29 60 30 47 31 50 32 59 33 73 34
REMARK SMILES IDX 48 35 49 36 58 38 74 39 51 40 40 41 41 42 45 43 42 44 44 45
REMARK SMILES IDX 43 46 62 47 63 48 67 49 64 50 66 51 65 52 52 53 53 54 57 55
REMARK SMILES IDX 54 56 56 57 55 58 9 59 10 60 11 61 12 62 13 63 14 64 15 65
REMARK SMILES IDX 16 66 24 67 30 68 17 69 23 70 25 71 26 72 18 73 22 74 19 76
REMARK SMILES IDX 21 77 20 78 27 79 28 80 29 81
REMARK H PARENT 72 26 50 37 26 75 29 82
REMARK Flexibility Score: inf
ROOT
ATOM      1  C   UNL     1       2.186   3.165   0.314  1.00  0.00     0.188 C 
ENDROOT
BRANCH   1   2
ATOM      2  C   UNL     1       2.795   1.954  -0.407  1.00  0.00     0.188 C 
BRANCH   2   3
ATOM      3  O   UNL     1       4.096   1.585   0.064  1.00  0.00    -0.376 OA
BRANCH   3   4
ATOM      4  C   UNL     1       5.085   1.596  -0.970  1.00  0.00     0.202 C 
BRANCH   4   5
ATOM      5  C   UNL     1       5.008   0.452  -1.988  1.00  0.00     0.261 C 
BRANCH   5   6
ATOM      6  O   UNL     1       3.793  -0.303  -1.954  1.00  0.00    -0.460 OA
BRANCH   6   7
ATOM      7  C   UNL     1       3.480  -1.374  -1.196  1.00  0.00     0.338 C 
ATOM      8  O   UNL     1       2.484  -2.026  -1.521  1.00  0.00    -0.246 OA
BRANCH   7   9
ATOM      9  C   UNL     1       4.193  -1.767   0.067  1.00  0.00     0.060 A 
ATOM     10  C   UNL     1       3.559  -2.756   0.825  1.00  0.00     0.016 A 
ATOM     11  C   UNL     1       5.387  -1.249   0.583  1.00  0.00     0.016 A 
ATOM     12  C   UNL     1       4.046  -3.119   2.082  1.00  0.00     0.010 A 
ATOM     13  C   UNL     1       5.872  -1.604   1.855  1.00  0.00     0.010 A 
ATOM     14  C   UNL     1       5.184  -2.517   2.643  1.00  0.00    -0.014 A 
BRANCH  14  15
ATOM     15  C   UNL     1       5.704  -3.002   3.950  1.00  0.00     0.031 A 
ATOM     16  C   UNL     1       5.840  -2.147   5.184  1.00  0.00     0.074 A 
ATOM     17  C   UNL     1       6.042  -4.304   4.013  1.00  0.00     0.049 A 
ATOM     18  N   UNL     1       6.138  -2.524   6.407  1.00  0.00    -0.248 NA
ATOM     19  C   UNL     1       5.651  -0.695   5.046  1.00  0.00     0.031 C 
ATOM     20  C   UNL     1       6.004  -5.224   2.874  1.00  0.00     0.029 A 
ATOM     21  N   UNL     1       6.445  -5.084   5.063  1.00  0.00    -0.354 N 
ATOM     22  C   UNL     1       6.112  -1.374   7.190  1.00  0.00     0.074 A 
ATOM     23  C   UNL     1       5.861  -0.271   6.290  1.00  0.00     0.031 C 
ATOM     24  C   UNL     1       6.279  -6.457   3.303  1.00  0.00     0.029 A 
ATOM     25  C   UNL     1       6.627  -6.398   4.717  1.00  0.00     0.049 A 
ATOM     26  H   UNL     1       6.589  -4.737   5.973  1.00  0.00     0.167 HD
ATOM     27  C   UNL     1       6.271  -1.262   8.533  1.00  0.00     0.031 A 
ATOM     28  C   UNL     1       7.059  -7.452   5.431  1.00  0.00     0.031 A 
ATOM     29  C   UNL     1       6.636  -2.354   9.402  1.00  0.00     0.049 A 
ATOM     30  C   UNL     1       7.379  -7.269   6.876  1.00  0.00     0.074 A 
ATOM     31  C   UNL     1       6.820  -2.328  10.775  1.00  0.00     0.029 A 
ATOM     32  N   UNL     1       6.927  -3.641   8.985  1.00  0.00    -0.354 N 
ATOM     33  N   UNL     1       7.245  -6.194   7.612  1.00  0.00    -0.248 NA
ATOM     34  C   UNL     1       7.911  -8.435   7.587  1.00  0.00     0.031 C 
ATOM     35  C   UNL     1       7.327  -3.567  11.170  1.00  0.00     0.029 A 
ATOM     36  C   UNL     1       7.368  -4.396  10.061  1.00  0.00     0.049 A 
ATOM     37  H   UNL     1       6.835  -3.971   8.062  1.00  0.00     0.167 HD
ATOM     38  C   UNL     1       7.692  -6.546   8.876  1.00  0.00     0.074 A 
ATOM     39  C   UNL     1       8.060  -7.947   8.812  1.00  0.00     0.031 C 
ATOM     40  C   UNL     1       7.793  -5.770   9.983  1.00  0.00     0.031 A 
BRANCH  27  41
ATOM     41  C   UNL     1       6.053   0.070   9.204  1.00  0.00    -0.014 A 
ATOM     42  C   UNL     1       7.136   0.804   9.713  1.00  0.00     0.009 A 
ATOM     43  C   UNL     1       4.754   0.487   9.529  1.00  0.00     0.009 A 
ATOM     44  C   UNL     1       6.920   1.925  10.523  1.00  0.00     0.001 A 
ATOM     45  C   UNL     1       4.538   1.632  10.302  1.00  0.00     0.001 A 
ATOM     46  C   UNL     1       5.622   2.344  10.808  1.00  0.00     0.000 A 
ENDBRANCH  27  41
BRANCH  28  47
ATOM     47  C   UNL     1       7.215  -8.744   4.716  1.00  0.00    -0.014 A 
ATOM     48  C   UNL     1       8.163  -8.852   3.680  1.00  0.00     0.009 A 
ATOM     49  C   UNL     1       6.292  -9.779   4.907  1.00  0.00     0.009 A 
ATOM     50  C   UNL     1       8.120  -9.925   2.791  1.00  0.00     0.001 A 
ATOM     51  C   UNL     1       6.282 -10.874   4.040  1.00  0.00     0.001 A 
ATOM     52  C   UNL     1       7.174 -10.932   2.968  1.00  0.00     0.000 A 
ENDBRANCH  28  47
BRANCH  40  53
ATOM     53  C   UNL     1       8.371  -6.408  11.215  1.00  0.00    -0.014 A 
ATOM     54  C   UNL     1       7.569  -6.612  12.348  1.00  0.00     0.009 A 
ATOM     55  C   UNL     1       9.726  -6.771  11.267  1.00  0.00     0.009 A 
ATOM     56  C   UNL     1       8.111  -7.168  13.508  1.00  0.00     0.001 A 
ATOM     57  C   UNL     1      10.256  -7.364  12.414  1.00  0.00     0.001 A 
ATOM     58  C   UNL     1       9.449  -7.556  13.535  1.00  0.00     0.000 A 
ENDBRANCH  40  53
ENDBRANCH  14  15
ENDBRANCH   7   9
ENDBRANCH   6   7
ENDBRANCH   5   6
ENDBRANCH   4   5
ENDBRANCH   3   4
ENDBRANCH   2   3
ENDBRANCH   1   2
BRANCH   1  59
ATOM     59  O   UNL     1       2.875   4.406   0.234  1.00  0.00    -0.376 OA
BRANCH  59  60
ATOM     60  C   UNL     1       4.201   4.497   0.742  1.00  0.00     0.202 C 
BRANCH  60  61
ATOM     61  C   UNL     1       4.458   4.586   2.261  1.00  0.00     0.261 C 
BRANCH  61  62
ATOM     62  O   UNL     1       4.267   3.386   3.053  1.00  0.00    -0.463 OA
BRANCH  62  63
ATOM     63  C   UNL     1       3.046   3.302   3.670  1.00  0.00     0.322 C 
ATOM     64  O   UNL     1       2.140   4.098   3.419  1.00  0.00    -0.251 OA
BRANCH  63  65
ATOM     65  C   UNL     1       2.927   2.016   4.624  1.00  0.00     0.162 C 
ATOM     66  C   UNL     1       2.209   1.372   3.327  1.00  0.00     0.255 C 
ATOM     67  C   UNL     1       2.169   1.042   5.621  1.00  0.00     0.105 C 
ATOM     68  C   UNL     1       2.466   3.228   5.697  1.00  0.00     0.285 C 
ATOM     69  O   UNL     1       2.207  -0.029   3.054  1.00  0.00    -0.492 OA
ATOM     70  C   UNL     1       2.186  -0.451   5.388  1.00  0.00     0.004 A 
ATOM     71  C   UNL     1       2.649   1.371   7.021  1.00  0.00     0.272 C 
ATOM     72  N   UNL     1       2.510   2.796   7.098  1.00  0.00    -0.331 N 
ATOM     73  C   UNL     1       2.030  -0.867   4.088  1.00  0.00     0.123 A 
ATOM     74  C   UNL     1       2.134  -1.435   6.393  1.00  0.00     0.008 A 
ATOM     75  H   UNL     1       3.284   3.231   7.600  1.00  0.00     0.348 HD
ATOM     76  C   UNL     1       1.708  -2.184   3.780  1.00  0.00     0.047 A 
ATOM     77  C   UNL     1       1.919  -2.782   6.082  1.00  0.00     0.001 A 
ATOM     78  C   UNL     1       1.677  -3.156   4.770  1.00  0.00     0.004 A 
BRANCH  72  79
ATOM     79  C   UNL     1       1.350   3.235   7.907  1.00  0.00     0.290 C 
BRANCH  79  80
ATOM     80  C   UNL     1      -0.074   2.761   7.526  1.00  0.00     0.217 C 
BRANCH  80  81
ATOM     81  O   UNL     1      -0.272   1.381   7.820  1.00  0.00    -0.391 OA
ATOM     82  H   UNL     1       0.356   0.848   7.308  1.00  0.00     0.210 HD
ENDBRANCH  80  81
ENDBRANCH  79  80
ENDBRANCH  72  79
ENDBRANCH  63  65
ENDBRANCH  62  63
ENDBRANCH  61  62
ENDBRANCH  60  61
ENDBRANCH  59  60
ENDBRANCH   1  59
TORSDOF 20
