REMARK SMILES Cc1ccc(C(=O)OCCOCCOCCOC(=O)c2ccc(-c3c4nc(c(-c5ccccc5)c5ccc([nH]5)c(-c5ccccc5)c5nc(c(-c6ccccc6)c6ccc3[nH]6)C=C5)C=C4)cc2)c2c1N[C@H](c1ccccc1F)[C@H]1CC=C[C@@H]21
REMARK SMILES IDX 13 1 12 2 11 3 10 4 9 5 8 6 6 7 7 8 5 9 1 10 2 11 3 12 69 13
REMARK SMILES IDX 4 14 68 15 70 16 83 17 71 18 79 20 82 21 80 22 81 23 72 24
REMARK SMILES IDX 73 25 77 26 74 27 76 28 78 29 75 30 14 31 15 32 16 33 17 34
REMARK SMILES IDX 18 35 19 36 20 37 21 38 67 39 22 40 66 41 23 42 24 43 25 44
REMARK SMILES IDX 60 45 26 46 65 47 59 48 61 49 27 50 64 51 58 52 57 53 28 55
REMARK SMILES IDX 50 56 35 57 49 58 36 59 39 60 48 61 62 62 37 63 38 64 47 66
REMARK SMILES IDX 63 67 40 68 29 69 30 70 34 71 31 72 33 73 32 74 51 75 52 76
REMARK SMILES IDX 56 77 53 78 55 79 54 80 41 81 42 82 46 83 43 84 45 85 44 86
REMARK H PARENT 70 19 61 54 39 65
REMARK Flexibility Score: inf
ROOT
ATOM      1  C   UNL     1       1.429  -1.414   6.188  1.00  0.00     0.188 C 
ENDROOT
BRANCH   1   2
ATOM      2  C   UNL     1       0.188  -1.114   7.057  1.00  0.00     0.188 C 
BRANCH   2   3
ATOM      3  O   UNL     1      -0.121  -2.136   7.988  1.00  0.00    -0.376 OA
BRANCH   3   4
ATOM      4  C   UNL     1      -1.281  -2.904   7.705  1.00  0.00     0.202 C 
BRANCH   4   5
ATOM      5  C   UNL     1      -1.290  -3.711   6.397  1.00  0.00     0.261 C 
BRANCH   5   6
ATOM      6  O   UNL     1      -0.838  -2.999   5.231  1.00  0.00    -0.460 OA
BRANCH   6   7
ATOM      7  C   UNL     1      -1.752  -2.310   4.503  1.00  0.00     0.338 C 
ATOM      8  O   UNL     1      -2.939  -2.241   4.744  1.00  0.00    -0.246 OA
BRANCH   7   9
ATOM      9  C   UNL     1      -1.040  -1.623   3.378  1.00  0.00     0.065 A 
ATOM     10  C   UNL     1       1.097  -0.002  -0.011  1.00  0.00     0.046 C 
ATOM     11  C   UNL     1       0.353  -0.498   1.203  1.00  0.00    -0.028 A 
ATOM     12  C   UNL     1       0.476  -1.863   1.507  1.00  0.00     0.006 A 
ATOM     13  C   UNL     1      -0.415   0.342   2.042  1.00  0.00     0.042 A 
ATOM     14  C   UNL     1      -0.215  -2.422   2.576  1.00  0.00     0.016 A 
ATOM     15  C   UNL     1      -1.131  -0.226   3.133  1.00  0.00    -0.003 A 
ATOM     16  N   UNL     1      -0.464   1.713   1.807  1.00  0.00    -0.377 N 
ATOM     17  C   UNL     1      -1.840   0.694   4.104  1.00  0.00     0.050 C 
ATOM     18  C   UNL     1      -1.520   2.524   2.397  1.00  0.00     0.117 C 
ATOM     19  H   UNL     1       0.219   2.137   1.239  1.00  0.00     0.161 HD
ATOM     20  C   UNL     1      -1.579   2.203   3.900  1.00  0.00     0.031 C 
ATOM     21  C   UNL     1      -3.341   0.658   4.133  1.00  0.00    -0.023 C 
ATOM     22  C   UNL     1      -2.768   2.872   4.609  1.00  0.00     0.034 C 
ATOM     23  C   UNL     1      -3.848   1.854   4.455  1.00  0.00    -0.030 C 
BRANCH  18  24
ATOM     24  C   UNL     1      -1.338   3.983   1.996  1.00  0.00     0.010 A 
ATOM     25  C   UNL     1      -1.719   4.377   0.698  1.00  0.00     0.009 A 
ATOM     26  C   UNL     1      -0.870   4.985   2.856  1.00  0.00     0.128 A 
ATOM     27  C   UNL     1      -1.679   5.720   0.306  1.00  0.00     0.001 A 
ATOM     28  C   UNL     1      -0.837   6.326   2.476  1.00  0.00     0.039 A 
ATOM     29  F   UNL     1      -0.469   4.691   4.098  1.00  0.00    -0.207 F 
ATOM     30  C   UNL     1      -1.251   6.697   1.201  1.00  0.00     0.003 A 
ENDBRANCH  18  24
ENDBRANCH   7   9
ENDBRANCH   6   7
ENDBRANCH   5   6
ENDBRANCH   4   5
ENDBRANCH   3   4
ENDBRANCH   2   3
ENDBRANCH   1   2
BRANCH   1  31
ATOM     31  O   UNL     1       2.232  -2.551   6.471  1.00  0.00    -0.376 OA
BRANCH  31  32
ATOM     32  C   UNL     1       2.567  -2.826   7.825  1.00  0.00     0.202 C 
BRANCH  32  33
ATOM     33  C   UNL     1       3.239  -1.729   8.669  1.00  0.00     0.261 C 
BRANCH  33  34
ATOM     34  O   UNL     1       2.601  -0.439   8.635  1.00  0.00    -0.460 OA
BRANCH  34  35
ATOM     35  C   UNL     1       3.325   0.561   8.072  1.00  0.00     0.338 C 
ATOM     36  O   UNL     1       4.452   0.499   7.616  1.00  0.00    -0.246 OA
BRANCH  35  37
ATOM     37  C   UNL     1       2.492   1.774   7.952  1.00  0.00     0.060 A 
ATOM     38  C   UNL     1       2.017   2.143   6.689  1.00  0.00     0.016 A 
ATOM     39  C   UNL     1       2.278   2.605   9.054  1.00  0.00     0.016 A 
ATOM     40  C   UNL     1       1.320   3.338   6.527  1.00  0.00     0.010 A 
ATOM     41  C   UNL     1       1.604   3.822   8.882  1.00  0.00     0.010 A 
ATOM     42  C   UNL     1       1.136   4.201   7.613  1.00  0.00    -0.014 A 
BRANCH  42  43
ATOM     43  C   UNL     1       0.621   5.567   7.358  1.00  0.00     0.031 A 
ATOM     44  C   UNL     1       1.594   6.641   6.966  1.00  0.00     0.074 A 
ATOM     45  C   UNL     1      -0.696   5.839   7.393  1.00  0.00     0.049 A 
ATOM     46  N   UNL     1       1.372   7.906   6.718  1.00  0.00    -0.248 NA
ATOM     47  C   UNL     1       3.003   6.235   6.826  1.00  0.00     0.031 C 
ATOM     48  C   UNL     1      -1.751   4.867   7.661  1.00  0.00     0.029 A 
ATOM     49  N   UNL     1      -1.369   7.017   7.175  1.00  0.00    -0.354 N 
ATOM     50  C   UNL     1       2.612   8.448   6.407  1.00  0.00     0.074 A 
ATOM     51  C   UNL     1       3.582   7.379   6.491  1.00  0.00     0.031 C 
ATOM     52  C   UNL     1      -2.943   5.481   7.560  1.00  0.00     0.029 A 
ATOM     53  C   UNL     1      -2.733   6.900   7.278  1.00  0.00     0.049 A 
ATOM     54  H   UNL     1      -0.915   7.865   6.965  1.00  0.00     0.167 HD
ATOM     55  C   UNL     1       2.916   9.726   6.091  1.00  0.00     0.031 A 
ATOM     56  C   UNL     1      -3.701   7.834   7.178  1.00  0.00     0.031 A 
ATOM     57  C   UNL     1       1.962  10.796   6.025  1.00  0.00     0.049 A 
ATOM     58  C   UNL     1      -3.326   9.271   6.931  1.00  0.00     0.074 A 
ATOM     59  C   UNL     1       2.192  12.132   5.746  1.00  0.00     0.029 A 
ATOM     60  N   UNL     1       0.602  10.656   6.244  1.00  0.00    -0.354 N 
ATOM     61  N   UNL     1      -2.145   9.783   6.685  1.00  0.00    -0.248 NA
ATOM     62  C   UNL     1      -4.413  10.263   6.969  1.00  0.00     0.031 C 
ATOM     63  C   UNL     1       0.975  12.810   5.842  1.00  0.00     0.029 A 
ATOM     64  C   UNL     1      -0.018  11.887   6.125  1.00  0.00     0.049 A 
ATOM     65  H   UNL     1       0.146   9.809   6.452  1.00  0.00     0.167 HD
ATOM     66  C   UNL     1      -2.345  11.150   6.537  1.00  0.00     0.074 A 
ATOM     67  C   UNL     1      -3.763  11.389   6.701  1.00  0.00     0.031 C 
ATOM     68  C   UNL     1      -1.429  12.117   6.290  1.00  0.00     0.031 A 
BRANCH  55  69
ATOM     69  C   UNL     1       4.355  10.057   5.833  1.00  0.00    -0.014 A 
ATOM     70  C   UNL     1       4.963   9.738   4.611  1.00  0.00     0.009 A 
ATOM     71  C   UNL     1       5.082  10.775   6.796  1.00  0.00     0.009 A 
ATOM     72  C   UNL     1       6.279  10.129   4.359  1.00  0.00     0.001 A 
ATOM     73  C   UNL     1       6.390  11.181   6.533  1.00  0.00     0.001 A 
ATOM     74  C   UNL     1       6.987  10.858   5.316  1.00  0.00     0.000 A 
ENDBRANCH  55  69
BRANCH  56  75
ATOM     75  C   UNL     1      -5.124   7.440   7.350  1.00  0.00    -0.014 A 
ATOM     76  C   UNL     1      -6.001   7.436   6.255  1.00  0.00     0.009 A 
ATOM     77  C   UNL     1      -5.608   7.046   8.608  1.00  0.00     0.009 A 
ATOM     78  C   UNL     1      -7.332   7.043   6.417  1.00  0.00     0.001 A 
ATOM     79  C   UNL     1      -6.932   6.631   8.762  1.00  0.00     0.001 A 
ATOM     80  C   UNL     1      -7.794   6.633   7.667  1.00  0.00     0.000 A 
ENDBRANCH  56  75
BRANCH  68  81
ATOM     81  C   UNL     1      -1.904  13.536   6.169  1.00  0.00    -0.014 A 
ATOM     82  C   UNL     1      -2.211  14.291   7.309  1.00  0.00     0.009 A 
ATOM     83  C   UNL     1      -1.903  14.164   4.912  1.00  0.00     0.009 A 
ATOM     84  C   UNL     1      -2.508  15.651   7.194  1.00  0.00     0.001 A 
ATOM     85  C   UNL     1      -2.179  15.527   4.803  1.00  0.00     0.001 A 
ATOM     86  C   UNL     1      -2.481  16.270   5.943  1.00  0.00     0.000 A 
ENDBRANCH  68  81
ENDBRANCH  42  43
ENDBRANCH  35  37
ENDBRANCH  34  35
ENDBRANCH  33  34
ENDBRANCH  32  33
ENDBRANCH  31  32
ENDBRANCH   1  31
TORSDOF 18
