REMARK SMILES Cc1ccc(-c2c(C)sc(NC(=O)[C@H]3CC=CC[C@H]3C(=O)OCCOCCOCCOC(=O)c3ccc(-c4c5nc(c(-c6ccccc6)c6ccc([nH]6)c(-c6ccccc6)c6nc(c(-c7ccccc7)c7ccc4[nH]7)C=C6)C=C5)cc3)c2C(N)=O)cc1
REMARK SMILES IDX 26 1 25 2 24 3 23 4 22 5 20 6 21 7 19 8 14 9 15 10 16 11
REMARK SMILES IDX 18 12 17 13 12 14 11 15 13 17 10 18 6 19 7 20 82 21 8 22
REMARK SMILES IDX 9 23 5 24 1 25 2 26 3 27 87 28 4 29 86 30 83 31 84 32 85 33
REMARK SMILES IDX 27 36 28 37 29 38 30 39 31 40 32 41 33 42 34 43 35 44 81 45
REMARK SMILES IDX 36 46 80 47 37 48 38 49 39 50 74 51 40 52 79 53 73 54 75 55
REMARK SMILES IDX 41 56 78 57 72 58 71 59 42 61 64 62 49 63 63 64 50 65 53 66
REMARK SMILES IDX 62 67 76 68 51 69 52 70 61 72 77 73 54 74 43 75 44 76 48 77
REMARK SMILES IDX 45 78 47 79 46 80 65 81 66 82 70 83 67 84 69 85 68 86 55 87
REMARK SMILES IDX 56 88 60 89 57 90 59 91 58 92
REMARK H PARENT 11 16 84 34 84 35 75 60 53 71
REMARK Flexibility Score: inf
ROOT
ATOM      1  C   UNL     1     -13.948  -2.568  -0.966  1.00  0.00     0.188 C 
ENDROOT
BRANCH   1   2
ATOM      2  O   UNL     1     -13.731  -3.954  -0.816  1.00  0.00    -0.376 OA
BRANCH   2   3
ATOM      3  C   UNL     1     -12.347  -4.288  -0.776  1.00  0.00     0.202 C 
BRANCH   3   4
ATOM      4  C   UNL     1     -11.291  -3.139  -0.593  1.00  0.00     0.261 C 
BRANCH   4   5
ATOM      5  O   UNL     1     -10.622  -2.095  -1.741  1.00  0.00    -0.463 OA
BRANCH   5   6
ATOM      6  C   UNL     1      -9.309  -1.763  -2.259  1.00  0.00     0.310 C 
ATOM      7  O   UNL     1      -9.025  -2.294  -3.338  1.00  0.00    -0.252 OA
BRANCH   6   8
ATOM      8  C   UNL     1      -8.194  -0.608  -1.854  1.00  0.00     0.116 C 
ATOM      9  C   UNL     1      -7.979   0.626  -0.848  1.00  0.00     0.097 C 
ATOM     10  C   UNL     1      -7.373   1.805  -1.644  1.00  0.00     0.041 C 
ATOM     11  C   UNL     1      -6.310   1.396  -2.624  1.00  0.00    -0.030 C 
ATOM     12  C   UNL     1      -6.768  -1.049  -2.303  1.00  0.00     0.043 C 
ATOM     13  C   UNL     1      -6.001   0.116  -2.882  1.00  0.00    -0.030 C 
BRANCH   9  14
ATOM     14  C   UNL     1      -7.381   0.540   0.641  1.00  0.00     0.229 C 
ATOM     15  N   UNL     1      -6.233  -0.057   1.093  1.00  0.00    -0.317 N 
ATOM     16  H   UNL     1      -6.359  -0.828   1.692  1.00  0.00     0.170 HD
ATOM     17  O   UNL     1      -8.066   1.022   1.563  1.00  0.00    -0.274 OA
BRANCH  15  18
ATOM     18  C   UNL     1      -4.914   0.284   0.818  1.00  0.00     0.109 A 
ATOM     19  C   UNL     1      -2.650   0.329   0.318  1.00  0.00     0.010 A 
ATOM     20  C   UNL     1      -3.212   1.174  -0.627  1.00  0.00     0.012 A 
ATOM     21  C   UNL     1      -3.660  -0.141   1.283  1.00  0.00     0.082 A 
ATOM     22  C   UNL     1      -2.717   1.711  -1.924  1.00  0.00     0.057 C 
ATOM     23  S   UNL     1      -4.664   1.760   0.013  1.00  0.00    -0.122 S 
BRANCH  19  24
ATOM     24  C   UNL     1      -1.207   0.117   0.282  1.00  0.00    -0.016 A 
ATOM     25  C   UNL     1       3.069  -0.246  -0.085  1.00  0.00     0.044 C 
ATOM     26  C   UNL     1       1.581  -0.121   0.034  1.00  0.00    -0.051 A 
ATOM     27  C   UNL     1       0.757  -1.255  -0.038  1.00  0.00     0.004 A 
ATOM     28  C   UNL     1       1.001   1.131   0.248  1.00  0.00     0.004 A 
ATOM     29  C   UNL     1      -0.634  -1.138   0.073  1.00  0.00     0.009 A 
ATOM     30  C   UNL     1      -0.377   1.244   0.388  1.00  0.00     0.009 A 
ENDBRANCH  19  24
BRANCH  21  31
ATOM     31  C   UNL     1      -3.308  -0.962   2.454  1.00  0.00     0.252 C 
ATOM     32  N   UNL     1      -4.243  -1.138   3.445  1.00  0.00    -0.365 N 
ATOM     33  O   UNL     1      -2.217  -1.461   2.641  1.00  0.00    -0.269 OA
ATOM     34  H   UNL     1      -5.144  -0.754   3.345  1.00  0.00     0.159 HD
ATOM     35  H   UNL     1      -4.012  -1.648   4.255  1.00  0.00     0.159 HD
ENDBRANCH  21  31
ENDBRANCH  15  18
ENDBRANCH   9  14
ENDBRANCH   6   8
ENDBRANCH   5   6
ENDBRANCH   4   5
ENDBRANCH   3   4
ENDBRANCH   2   3
ENDBRANCH   1   2
BRANCH   1  36
ATOM     36  C   UNL     1     -13.957  -1.795   0.368  1.00  0.00     0.188 C 
BRANCH  36  37
ATOM     37  O   UNL     1     -13.039  -2.307   1.327  1.00  0.00    -0.376 OA
BRANCH  37  38
ATOM     38  C   UNL     1     -13.470  -2.740   2.596  1.00  0.00     0.202 C 
BRANCH  38  39
ATOM     39  C   UNL     1     -13.880  -1.561   3.474  1.00  0.00     0.261 C 
BRANCH  39  40
ATOM     40  O   UNL     1     -12.702  -0.850   3.914  1.00  0.00    -0.460 OA
BRANCH  40  41
ATOM     41  C   UNL     1     -12.222   0.024   2.997  1.00  0.00     0.338 C 
ATOM     42  O   UNL     1     -12.870   0.913   2.465  1.00  0.00    -0.246 OA
BRANCH  41  43
ATOM     43  C   UNL     1     -10.932  -0.517   2.480  1.00  0.00     0.060 A 
ATOM     44  C   UNL     1     -10.670  -0.200   1.187  1.00  0.00     0.016 A 
ATOM     45  C   UNL     1     -10.200  -1.575   3.036  1.00  0.00     0.016 A 
ATOM     46  C   UNL     1      -9.814  -1.048   0.462  1.00  0.00     0.010 A 
ATOM     47  C   UNL     1      -9.359  -2.427   2.241  1.00  0.00     0.010 A 
ATOM     48  C   UNL     1      -9.141  -2.232   0.869  1.00  0.00    -0.014 A 
BRANCH  48  49
ATOM     49  C   UNL     1      -8.407  -3.426  -0.026  1.00  0.00     0.031 A 
ATOM     50  C   UNL     1      -6.969  -3.618   0.306  1.00  0.00     0.074 A 
ATOM     51  C   UNL     1      -8.797  -4.346  -1.047  1.00  0.00     0.049 A 
ATOM     52  N   UNL     1      -6.078  -4.035  -0.538  1.00  0.00    -0.248 NA
ATOM     53  C   UNL     1      -6.412  -3.268   1.607  1.00  0.00     0.031 C 
ATOM     54  C   UNL     1      -8.278  -5.713  -1.276  1.00  0.00     0.029 A 
ATOM     55  N   UNL     1      -9.822  -4.385  -2.032  1.00  0.00    -0.354 N 
ATOM     56  C   UNL     1      -4.971  -4.341   0.209  1.00  0.00     0.074 A 
ATOM     57  C   UNL     1      -5.156  -3.686   1.476  1.00  0.00     0.031 C 
ATOM     58  C   UNL     1      -8.864  -6.297  -2.353  1.00  0.00     0.029 A 
ATOM     59  C   UNL     1      -9.737  -5.344  -3.011  1.00  0.00     0.049 A 
ATOM     60  H   UNL     1     -10.569  -3.744  -2.013  1.00  0.00     0.167 HD
ATOM     61  C   UNL     1      -4.128  -5.351  -0.130  1.00  0.00     0.031 A 
ATOM     62  C   UNL     1     -10.023  -5.115  -4.339  1.00  0.00     0.031 A 
ATOM     63  C   UNL     1      -4.623  -6.130  -1.256  1.00  0.00     0.049 A 
ATOM     64  C   UNL     1      -8.763  -5.425  -5.092  1.00  0.00     0.074 A 
ATOM     65  C   UNL     1      -5.294  -7.344  -1.298  1.00  0.00     0.029 A 
ATOM     66  N   UNL     1      -4.754  -5.568  -2.521  1.00  0.00    -0.354 N 
ATOM     67  N   UNL     1      -7.616  -5.457  -4.480  1.00  0.00    -0.248 NA
ATOM     68  C   UNL     1      -8.645  -5.724  -6.513  1.00  0.00     0.031 C 
ATOM     69  C   UNL     1      -5.768  -7.545  -2.614  1.00  0.00     0.029 A 
ATOM     70  C   UNL     1      -5.381  -6.457  -3.376  1.00  0.00     0.049 A 
ATOM     71  H   UNL     1      -4.446  -4.668  -2.772  1.00  0.00     0.167 HD
ATOM     72  C   UNL     1      -6.662  -5.927  -5.318  1.00  0.00     0.074 A 
ATOM     73  C   UNL     1      -7.331  -6.013  -6.605  1.00  0.00     0.031 C 
ATOM     74  C   UNL     1      -5.434  -6.229  -4.818  1.00  0.00     0.031 A 
BRANCH  61  75
ATOM     75  C   UNL     1      -3.142  -5.855   0.894  1.00  0.00    -0.014 A 
ATOM     76  C   UNL     1      -2.967  -7.232   1.093  1.00  0.00     0.009 A 
ATOM     77  C   UNL     1      -2.423  -4.998   1.749  1.00  0.00     0.009 A 
ATOM     78  C   UNL     1      -2.226  -7.730   2.170  1.00  0.00     0.001 A 
ATOM     79  C   UNL     1      -1.723  -5.488   2.858  1.00  0.00     0.001 A 
ATOM     80  C   UNL     1      -1.637  -6.857   3.076  1.00  0.00     0.000 A 
ENDBRANCH  61  75
BRANCH  62  81
ATOM     81  C   UNL     1     -11.010  -4.035  -4.764  1.00  0.00    -0.014 A 
ATOM     82  C   UNL     1     -12.364  -4.135  -4.390  1.00  0.00     0.009 A 
ATOM     83  C   UNL     1     -10.610  -2.793  -5.292  1.00  0.00     0.009 A 
ATOM     84  C   UNL     1     -13.207  -3.006  -4.347  1.00  0.00     0.001 A 
ATOM     85  C   UNL     1     -11.422  -1.645  -5.164  1.00  0.00     0.001 A 
ATOM     86  C   UNL     1     -12.710  -1.745  -4.654  1.00  0.00     0.000 A 
ENDBRANCH  62  81
BRANCH  74  87
ATOM     87  C   UNL     1      -4.183  -6.495  -5.594  1.00  0.00    -0.014 A 
ATOM     88  C   UNL     1      -4.051  -6.328  -6.972  1.00  0.00     0.009 A 
ATOM     89  C   UNL     1      -3.010  -6.828  -4.875  1.00  0.00     0.009 A 
ATOM     90  C   UNL     1      -2.813  -6.499  -7.600  1.00  0.00     0.001 A 
ATOM     91  C   UNL     1      -1.768  -6.949  -5.486  1.00  0.00     0.001 A 
ATOM     92  C   UNL     1      -1.673  -6.792  -6.857  1.00  0.00     0.000 A 
ENDBRANCH  74  87
ENDBRANCH  48  49
ENDBRANCH  41  43
ENDBRANCH  40  41
ENDBRANCH  39  40
ENDBRANCH  38  39
ENDBRANCH  37  38
ENDBRANCH  36  37
ENDBRANCH   1  36
TORSDOF 21
