REMARK SMILES Cc1ccc(-c2ncc(C(=O)OCCOCCOCCOC(=O)c3ccc(-c4c5nc(c(-c6ccccc6)c6ccc([nH]6)c(-c6ccccc6)c6nc(c(-c7ccccc7)c7ccc4[nH]7)C=C6)C=C5)cc3)c(Nc3ccccc3)n2)cc1
REMARK SMILES IDX 16 1 15 2 14 3 13 4 12 5 10 6 11 7 9 8 6 9 7 10 80 11 8 12
REMARK SMILES IDX 72 13 5 14 1 15 2 16 3 17 82 18 4 19 81 20 73 21 74 23 75 24
REMARK SMILES IDX 79 25 76 26 78 27 77 28 17 29 18 30 19 31 20 32 21 33 22 34
REMARK SMILES IDX 23 35 24 36 25 37 71 38 26 39 70 40 27 41 28 42 29 43 64 44
REMARK SMILES IDX 30 45 69 46 63 47 65 48 31 49 68 50 62 51 61 52 32 54 54 55
REMARK SMILES IDX 39 56 53 57 40 58 43 59 52 60 66 61 41 62 42 63 51 65 67 66
REMARK SMILES IDX 44 67 33 68 34 69 38 70 35 71 37 72 36 73 55 74 56 75 60 76
REMARK SMILES IDX 57 77 59 78 58 79 45 80 46 81 50 82 47 83 49 84 48 85
REMARK H PARENT 73 22 65 53 43 64
REMARK Flexibility Score: inf
ROOT
ATOM      1  C   UNL     1     -10.917   2.256   0.453  1.00  0.00     0.188 C 
ENDROOT
BRANCH   1   2
ATOM      2  O   UNL     1     -10.748   0.906   0.916  1.00  0.00    -0.376 OA
BRANCH   2   3
ATOM      3  C   UNL     1     -10.277   0.530   2.212  1.00  0.00     0.202 C 
BRANCH   3   4
ATOM      4  C   UNL     1      -8.911  -0.366   2.638  1.00  0.00     0.261 C 
BRANCH   4   5
ATOM      5  O   UNL     1      -7.181  -0.312   2.195  1.00  0.00    -0.460 OA
BRANCH   5   6
ATOM      6  C   UNL     1      -6.241  -0.609   1.119  1.00  0.00     0.343 C 
ATOM      7  O   UNL     1      -6.355  -1.340   0.133  1.00  0.00    -0.246 OA
BRANCH   6   8
ATOM      8  C   UNL     1      -4.915  -0.027   0.993  1.00  0.00     0.121 A 
ATOM      9  C   UNL     1      -2.260   0.128   0.659  1.00  0.00     0.161 A 
ATOM     10  N   UNL     1      -2.706  -0.368   1.829  1.00  0.00    -0.236 NA
ATOM     11  N   UNL     1      -3.017   0.564  -0.353  1.00  0.00    -0.210 NA
ATOM     12  C   UNL     1      -4.039  -0.421   1.972  1.00  0.00     0.133 A 
ATOM     13  C   UNL     1      -4.343   0.391  -0.247  1.00  0.00     0.149 A 
BRANCH   9  14
ATOM     14  C   UNL     1      -0.831   0.100   0.414  1.00  0.00     0.019 A 
ATOM     15  C   UNL     1       3.439   0.048  -0.104  1.00  0.00     0.044 C 
ATOM     16  C   UNL     1       1.948   0.070   0.030  1.00  0.00    -0.051 A 
ATOM     17  C   UNL     1       1.244  -1.133   0.166  1.00  0.00     0.004 A 
ATOM     18  C   UNL     1       1.249   1.281   0.026  1.00  0.00     0.004 A 
ATOM     19  C   UNL     1      -0.135  -1.117   0.361  1.00  0.00     0.012 A 
ATOM     20  C   UNL     1      -0.131   1.294   0.204  1.00  0.00     0.012 A 
ENDBRANCH   9  14
BRANCH  13  21
ATOM     21  N   UNL     1      -5.059   0.554  -1.469  1.00  0.00    -0.339 N 
ATOM     22  H   UNL     1      -5.989   0.230  -1.480  1.00  0.00     0.168 HD
BRANCH  21  23
ATOM     23  C   UNL     1      -4.572   1.136  -2.678  1.00  0.00     0.040 A 
ATOM     24  C   UNL     1      -4.525   2.531  -2.823  1.00  0.00     0.026 A 
ATOM     25  C   UNL     1      -4.098   0.365  -3.754  1.00  0.00     0.026 A 
ATOM     26  C   UNL     1      -4.088   3.138  -4.015  1.00  0.00     0.002 A 
ATOM     27  C   UNL     1      -3.628   0.971  -4.939  1.00  0.00     0.002 A 
ATOM     28  C   UNL     1      -3.639   2.357  -5.076  1.00  0.00     0.000 A 
ENDBRANCH  21  23
ENDBRANCH  13  21
ENDBRANCH   6   8
ENDBRANCH   5   6
ENDBRANCH   4   5
ENDBRANCH   3   4
ENDBRANCH   2   3
ENDBRANCH   1   2
BRANCH   1  29
ATOM     29  C   UNL     1     -10.887   3.444   1.404  1.00  0.00     0.188 C 
BRANCH  29  30
ATOM     30  O   UNL     1      -9.897   3.220   2.384  1.00  0.00    -0.376 OA
BRANCH  30  31
ATOM     31  C   UNL     1      -9.851   4.151   3.442  1.00  0.00     0.202 C 
BRANCH  31  32
ATOM     32  C   UNL     1      -9.100   5.422   3.027  1.00  0.00     0.261 C 
BRANCH  32  33
ATOM     33  O   UNL     1      -7.810   5.086   2.454  1.00  0.00    -0.460 OA
BRANCH  33  34
ATOM     34  C   UNL     1      -7.686   5.150   1.071  1.00  0.00     0.338 C 
ATOM     35  O   UNL     1      -8.036   6.063   0.395  1.00  0.00    -0.246 OA
BRANCH  34  36
ATOM     36  C   UNL     1      -7.288   3.781   0.545  1.00  0.00     0.060 A 
ATOM     37  C   UNL     1      -7.560   3.287  -0.744  1.00  0.00     0.016 A 
ATOM     38  C   UNL     1      -7.080   2.847   1.489  1.00  0.00     0.016 A 
ATOM     39  C   UNL     1      -7.851   1.868  -0.995  1.00  0.00     0.010 A 
ATOM     40  C   UNL     1      -7.749   1.655   1.243  1.00  0.00     0.010 A 
ATOM     41  C   UNL     1      -8.076   0.950   0.035  1.00  0.00    -0.014 A 
BRANCH  41  42
ATOM     42  C   UNL     1      -8.767  -0.644  -0.134  1.00  0.00     0.031 A 
ATOM     43  C   UNL     1      -8.395  -2.238   0.541  1.00  0.00     0.074 A 
ATOM     44  C   UNL     1      -9.760  -0.772  -1.044  1.00  0.00     0.049 A 
ATOM     45  N   UNL     1      -8.389  -3.364  -0.158  1.00  0.00    -0.248 NA
ATOM     46  C   UNL     1      -7.842  -2.634   1.906  1.00  0.00     0.031 C 
ATOM     47  C   UNL     1     -10.639  -1.921  -1.250  1.00  0.00     0.029 A 
ATOM     48  N   UNL     1     -10.154   0.132  -2.027  1.00  0.00    -0.354 N 
ATOM     49  C   UNL     1      -7.983  -4.432   0.675  1.00  0.00     0.074 A 
ATOM     50  C   UNL     1      -7.473  -3.889   1.859  1.00  0.00     0.031 C 
ATOM     51  C   UNL     1     -11.279  -1.773  -2.420  1.00  0.00     0.029 A 
ATOM     52  C   UNL     1     -10.741  -0.593  -3.068  1.00  0.00     0.049 A 
ATOM     53  H   UNL     1     -10.039   1.109  -1.995  1.00  0.00     0.167 HD
ATOM     54  C   UNL     1      -8.267  -5.750   0.499  1.00  0.00     0.031 A 
ATOM     55  C   UNL     1     -10.237  -0.530  -4.330  1.00  0.00     0.031 A 
ATOM     56  C   UNL     1      -9.019  -5.905  -0.706  1.00  0.00     0.049 A 
ATOM     57  C   UNL     1      -9.742  -1.870  -4.823  1.00  0.00     0.074 A 
ATOM     58  C   UNL     1     -10.377  -5.858  -0.954  1.00  0.00     0.029 A 
ATOM     59  N   UNL     1      -8.368  -5.654  -1.893  1.00  0.00    -0.354 N 
ATOM     60  N   UNL     1      -9.579  -2.915  -4.056  1.00  0.00    -0.248 NA
ATOM     61  C   UNL     1      -9.385  -2.150  -6.211  1.00  0.00     0.031 C 
ATOM     62  C   UNL     1     -10.539  -5.497  -2.315  1.00  0.00     0.029 A 
ATOM     63  C   UNL     1      -9.284  -5.396  -2.887  1.00  0.00     0.049 A 
ATOM     64  H   UNL     1      -7.391  -5.660  -2.013  1.00  0.00     0.167 HD
ATOM     65  C   UNL     1      -9.094  -3.961  -4.792  1.00  0.00     0.074 A 
ATOM     66  C   UNL     1      -9.003  -3.438  -6.140  1.00  0.00     0.031 C 
ATOM     67  C   UNL     1      -8.793  -5.167  -4.231  1.00  0.00     0.031 A 
BRANCH  54  68
ATOM     68  C   UNL     1      -8.195  -6.740   1.659  1.00  0.00    -0.014 A 
ATOM     69  C   UNL     1      -9.261  -7.628   1.865  1.00  0.00     0.009 A 
ATOM     70  C   UNL     1      -7.184  -6.760   2.649  1.00  0.00     0.009 A 
ATOM     71  C   UNL     1      -9.385  -8.380   3.046  1.00  0.00     0.001 A 
ATOM     72  C   UNL     1      -7.339  -7.449   3.865  1.00  0.00     0.001 A 
ATOM     73  C   UNL     1      -8.451  -8.252   4.068  1.00  0.00     0.000 A 
ENDBRANCH  54  68
BRANCH  55  74
ATOM     74  C   UNL     1      -9.720   0.824  -4.691  1.00  0.00    -0.014 A 
ATOM     75  C   UNL     1     -10.660   1.879  -4.748  1.00  0.00     0.009 A 
ATOM     76  C   UNL     1      -8.365   1.161  -4.588  1.00  0.00     0.009 A 
ATOM     77  C   UNL     1     -10.275   3.213  -4.569  1.00  0.00     0.001 A 
ATOM     78  C   UNL     1      -7.982   2.506  -4.437  1.00  0.00     0.001 A 
ATOM     79  C   UNL     1      -8.935   3.523  -4.382  1.00  0.00     0.000 A 
ENDBRANCH  55  74
BRANCH  67  80
ATOM     80  C   UNL     1      -8.003  -6.285  -4.867  1.00  0.00    -0.014 A 
ATOM     81  C   UNL     1      -7.095  -6.101  -5.912  1.00  0.00     0.009 A 
ATOM     82  C   UNL     1      -8.030  -7.568  -4.264  1.00  0.00     0.009 A 
ATOM     83  C   UNL     1      -6.282  -7.154  -6.356  1.00  0.00     0.001 A 
ATOM     84  C   UNL     1      -7.176  -8.597  -4.658  1.00  0.00     0.001 A 
ATOM     85  C   UNL     1      -6.310  -8.393  -5.719  1.00  0.00     0.000 A 
ENDBRANCH  67  80
ENDBRANCH  41  42
ENDBRANCH  34  36
ENDBRANCH  33  34
ENDBRANCH  32  33
ENDBRANCH  31  32
ENDBRANCH  30  31
ENDBRANCH  29  30
ENDBRANCH   1  29
TORSDOF 20
