REMARK SMILES COc1ccc(-n2ccnc2C[N@@H+]2CCn3nc(C(=O)OCCOCCOCCOC(=O)c4ccc(-c5c6nc(c(-c7ccccc7)c7ccc([nH]7)c(-c7ccccc7)c7nc(c(-c8ccccc8)c8ccc5[nH]8)C=C7)C=C6)cc4)cc3C2)cc1
REMARK SMILES IDX 25 1 24 2 23 3 22 4 21 5 19 6 20 7 18 8 13 9 14 10 83 11
REMARK SMILES IDX 15 13 82 14 16 15 81 16 17 17 12 18 11 19 7 20 8 21 9 22
REMARK SMILES IDX 10 23 6 24 3 25 4 26 85 27 5 28 84 29 2 30 1 31 26 32 27 33
REMARK SMILES IDX 28 34 29 35 30 36 31 37 32 38 33 39 34 40 80 41 35 42 79 43
REMARK SMILES IDX 36 44 37 45 38 46 73 47 39 48 78 49 72 50 74 51 40 52 77 53
REMARK SMILES IDX 71 54 70 55 41 57 63 58 48 59 62 60 49 61 52 62 61 63 75 64
REMARK SMILES IDX 50 65 51 66 60 68 76 69 53 70 42 71 43 72 47 73 44 74 46 75
REMARK SMILES IDX 45 76 64 77 65 78 69 79 66 80 68 81 67 82 54 83 55 84 59 85
REMARK SMILES IDX 56 86 58 87 57 88
REMARK H PARENT 13 12 74 56 52 67
REMARK Flexibility Score: inf
ROOT
ATOM      1  C   UNL     1       0.085  -5.896  -6.059  1.00  0.00     0.188 C 
ENDROOT
BRANCH   1   2
ATOM      2  O   UNL     1      -0.100  -6.991  -5.192  1.00  0.00    -0.376 OA
BRANCH   2   3
ATOM      3  C   UNL     1       0.564  -6.914  -3.947  1.00  0.00     0.202 C 
BRANCH   3   4
ATOM      4  C   UNL     1       0.149  -5.929  -2.802  1.00  0.00     0.261 C 
BRANCH   4   5
ATOM      5  O   UNL     1      -0.691  -4.752  -2.955  1.00  0.00    -0.458 OA
BRANCH   5   6
ATOM      6  C   UNL     1      -0.052  -3.701  -3.546  1.00  0.00     0.358 C 
ATOM      7  O   UNL     1       0.975  -3.914  -4.184  1.00  0.00    -0.244 OA
BRANCH   6   8
ATOM      8  C   UNL     1      -0.650  -2.321  -3.517  1.00  0.00     0.170 A 
ATOM      9  N   UNL     1       0.986  -0.374  -6.570  1.00  0.00    -0.322 N 
ATOM     10  C   UNL     1       1.640   0.561  -5.655  1.00  0.00     0.286 C 
ATOM     11  C   UNL     1      -0.504  -0.262  -6.396  1.00  0.00     0.319 C 
ATOM     12  H   UNL     1       1.262  -0.111  -7.516  1.00  0.00     0.348 HD
ATOM     13  C   UNL     1       1.037   0.653  -4.237  1.00  0.00     0.206 C 
ATOM     14  C   UNL     1      -0.848  -0.721  -5.012  1.00  0.00     0.094 A 
ATOM     15  N   UNL     1      -0.009  -0.336  -4.005  1.00  0.00    -0.257 N 
ATOM     16  C   UNL     1      -1.552  -1.814  -4.524  1.00  0.00     0.067 A 
ATOM     17  N   UNL     1       0.088  -1.280  -3.045  1.00  0.00    -0.165 NA
BRANCH   9  18
ATOM     18  C   UNL     1       1.429  -1.788  -6.418  1.00  0.00     0.339 C 
BRANCH  18  19
ATOM     19  C   UNL     1       2.857  -2.232  -6.051  1.00  0.00     0.168 A 
ATOM     20  N   UNL     1       3.384  -2.606  -4.777  1.00  0.00    -0.299 N 
ATOM     21  C   UNL     1       4.218  -3.680  -5.022  1.00  0.00     0.113 A 
ATOM     22  C   UNL     1       4.326  -3.788  -6.379  1.00  0.00     0.132 A 
ATOM     23  N   UNL     1       3.567  -2.843  -7.000  1.00  0.00    -0.236 NA
BRANCH  20  24
ATOM     24  C   UNL     1       3.225  -2.112  -3.442  1.00  0.00     0.047 A 
ATOM     25  C   UNL     1       2.750  -1.147  -0.843  1.00  0.00     0.119 A 
ATOM     26  C   UNL     1       2.417  -2.453  -1.160  1.00  0.00     0.048 A 
ATOM     27  C   UNL     1       3.526  -0.411  -1.741  1.00  0.00     0.048 A 
ATOM     28  C   UNL     1       2.752  -2.955  -2.422  1.00  0.00     0.030 A 
ATOM     29  C   UNL     1       3.747  -0.882  -3.054  1.00  0.00     0.030 A 
BRANCH  25  30
ATOM     30  O   UNL     1       2.342  -0.676   0.375  1.00  0.00    -0.497 OA
ATOM     31  C   UNL     1       1.686   0.591   0.280  1.00  0.00     0.278 C 
ENDBRANCH  25  30
ENDBRANCH  20  24
ENDBRANCH  18  19
ENDBRANCH   9  18
ENDBRANCH   6   8
ENDBRANCH   5   6
ENDBRANCH   4   5
ENDBRANCH   3   4
ENDBRANCH   2   3
ENDBRANCH   1   2
BRANCH   1  32
ATOM     32  C   UNL     1      -1.106  -4.936  -6.049  1.00  0.00     0.188 C 
BRANCH  32  33
ATOM     33  O   UNL     1      -2.264  -5.146  -5.239  1.00  0.00    -0.376 OA
BRANCH  33  34
ATOM     34  C   UNL     1      -2.725  -6.445  -4.860  1.00  0.00     0.202 C 
BRANCH  34  35
ATOM     35  C   UNL     1      -3.166  -7.442  -5.933  1.00  0.00     0.261 C 
BRANCH  35  36
ATOM     36  O   UNL     1      -2.450  -7.286  -7.135  1.00  0.00    -0.460 OA
BRANCH  36  37
ATOM     37  C   UNL     1      -2.917  -6.253  -7.870  1.00  0.00     0.338 C 
ATOM     38  O   UNL     1      -3.908  -5.585  -7.687  1.00  0.00    -0.246 OA
BRANCH  37  39
ATOM     39  C   UNL     1      -1.965  -6.029  -8.964  1.00  0.00     0.060 A 
ATOM     40  C   UNL     1      -2.178  -4.877  -9.721  1.00  0.00     0.016 A 
ATOM     41  C   UNL     1      -1.164  -7.093  -9.385  1.00  0.00     0.016 A 
ATOM     42  C   UNL     1      -1.983  -4.993 -11.065  1.00  0.00     0.010 A 
ATOM     43  C   UNL     1      -0.988  -7.220 -10.725  1.00  0.00     0.010 A 
ATOM     44  C   UNL     1      -1.564  -6.240 -11.525  1.00  0.00    -0.014 A 
BRANCH  44  45
ATOM     45  C   UNL     1      -1.865  -6.577 -12.885  1.00  0.00     0.031 A 
ATOM     46  C   UNL     1      -0.804  -6.148 -13.794  1.00  0.00     0.074 A 
ATOM     47  C   UNL     1      -2.973  -7.275 -13.193  1.00  0.00     0.049 A 
ATOM     48  N   UNL     1      -0.823  -5.111 -14.556  1.00  0.00    -0.248 NA
ATOM     49  C   UNL     1       0.513  -6.785 -13.642  1.00  0.00     0.031 C 
ATOM     50  C   UNL     1      -3.915  -7.963 -12.302  1.00  0.00     0.029 A 
ATOM     51  N   UNL     1      -3.421  -7.616 -14.421  1.00  0.00    -0.354 N 
ATOM     52  C   UNL     1       0.424  -5.102 -15.155  1.00  0.00     0.074 A 
ATOM     53  C   UNL     1       1.268  -5.954 -14.358  1.00  0.00     0.031 C 
ATOM     54  C   UNL     1      -4.647  -8.841 -13.030  1.00  0.00     0.029 A 
ATOM     55  C   UNL     1      -4.309  -8.678 -14.435  1.00  0.00     0.049 A 
ATOM     56  H   UNL     1      -3.138  -7.147 -15.240  1.00  0.00     0.167 HD
ATOM     57  C   UNL     1       0.573  -4.696 -16.441  1.00  0.00     0.031 A 
ATOM     58  C   UNL     1      -4.636  -9.412 -15.529  1.00  0.00     0.031 A 
ATOM     59  C   UNL     1      -0.589  -3.985 -16.913  1.00  0.00     0.049 A 
ATOM     60  C   UNL     1      -4.231  -8.625 -16.726  1.00  0.00     0.074 A 
ATOM     61  C   UNL     1      -1.246  -2.837 -16.515  1.00  0.00     0.029 A 
ATOM     62  N   UNL     1      -1.487  -4.699 -17.674  1.00  0.00    -0.354 N 
ATOM     63  N   UNL     1      -4.813  -7.513 -17.079  1.00  0.00    -0.248 NA
ATOM     64  C   UNL     1      -2.875  -8.799 -17.232  1.00  0.00     0.031 C 
ATOM     65  C   UNL     1      -2.631  -3.124 -16.683  1.00  0.00     0.029 A 
ATOM     66  C   UNL     1      -2.752  -4.401 -17.236  1.00  0.00     0.049 A 
ATOM     67  H   UNL     1      -1.260  -5.317 -18.407  1.00  0.00     0.167 HD
ATOM     68  C   UNL     1      -3.775  -6.670 -17.457  1.00  0.00     0.074 A 
ATOM     69  C   UNL     1      -2.616  -7.547 -17.626  1.00  0.00     0.031 C 
ATOM     70  C   UNL     1      -3.873  -5.317 -17.295  1.00  0.00     0.031 A 
BRANCH  57  71
ATOM     71  C   UNL     1       1.561  -5.340 -17.371  1.00  0.00    -0.014 A 
ATOM     72  C   UNL     1       1.750  -4.774 -18.638  1.00  0.00     0.009 A 
ATOM     73  C   UNL     1       2.118  -6.618 -17.153  1.00  0.00     0.009 A 
ATOM     74  C   UNL     1       2.420  -5.475 -19.646  1.00  0.00     0.001 A 
ATOM     75  C   UNL     1       2.826  -7.300 -18.139  1.00  0.00     0.001 A 
ATOM     76  C   UNL     1       2.954  -6.737 -19.398  1.00  0.00     0.000 A 
ENDBRANCH  57  71
BRANCH  58  77
ATOM     77  C   UNL     1      -4.944 -10.858 -15.603  1.00  0.00    -0.014 A 
ATOM     78  C   UNL     1      -5.523 -11.410 -16.757  1.00  0.00     0.009 A 
ATOM     79  C   UNL     1      -4.425 -11.749 -14.645  1.00  0.00     0.009 A 
ATOM     80  C   UNL     1      -5.546 -12.798 -16.960  1.00  0.00     0.001 A 
ATOM     81  C   UNL     1      -4.451 -13.134 -14.845  1.00  0.00     0.001 A 
ATOM     82  C   UNL     1      -4.998 -13.658 -16.011  1.00  0.00     0.000 A 
ENDBRANCH  58  77
BRANCH  70  83
ATOM     83  C   UNL     1      -5.219  -4.752 -16.904  1.00  0.00    -0.014 A 
ATOM     84  C   UNL     1      -5.867  -5.069 -15.695  1.00  0.00     0.009 A 
ATOM     85  C   UNL     1      -5.774  -3.748 -17.709  1.00  0.00     0.009 A 
ATOM     86  C   UNL     1      -7.050  -4.419 -15.323  1.00  0.00     0.001 A 
ATOM     87  C   UNL     1      -6.942  -3.084 -17.327  1.00  0.00     0.001 A 
ATOM     88  C   UNL     1      -7.583  -3.423 -16.138  1.00  0.00     0.000 A 
ENDBRANCH  70  83
ENDBRANCH  44  45
ENDBRANCH  37  39
ENDBRANCH  36  37
ENDBRANCH  35  36
ENDBRANCH  34  35
ENDBRANCH  33  34
ENDBRANCH  32  33
ENDBRANCH   1  32
TORSDOF 21
