REMARK SMILES Cc1cscc1C(=O)N1C[C@@H](C(=O)OCCOCCOCCOC(=O)c2ccc(-c3c4nc(c(-c5ccccc5)c5ccc([nH]5)c(-c5ccccc5)c5nc(c(-c6ccccc6)c6ccc3[nH]6)C=C5)C=C4)cc2)Oc2ccccc21
REMARK SMILES IDX 18 1 17 2 16 3 15 4 14 5 12 6 13 7 11 8 9 9 10 10 80 11
REMARK SMILES IDX 75 12 79 13 74 14 76 15 78 16 77 17 7 18 8 19 6 20 1 21 2 22
REMARK SMILES IDX 3 23 4 24 5 25 19 26 20 27 21 28 22 29 23 30 24 31 25 32
REMARK SMILES IDX 26 33 27 34 73 35 28 36 72 37 29 38 30 39 31 40 66 41 32 42
REMARK SMILES IDX 71 43 65 44 67 45 33 46 70 47 64 48 63 49 34 51 56 52 41 53
REMARK SMILES IDX 55 54 42 55 45 56 54 57 68 58 43 59 44 60 53 62 69 63 46 64
REMARK SMILES IDX 35 65 36 66 40 67 37 68 39 69 38 70 57 71 58 72 62 73 59 74
REMARK SMILES IDX 61 75 60 76 47 77 48 78 52 79 49 80 51 81 50 82
REMARK H PARENT 67 50 45 61
REMARK Flexibility Score: inf
ROOT
ATOM      1  C   UNL     1       3.908   5.231  -4.092  1.00  0.00     0.188 C 
ENDROOT
BRANCH   1   2
ATOM      2  O   UNL     1       3.048   6.349  -3.951  1.00  0.00    -0.376 OA
BRANCH   2   3
ATOM      3  C   UNL     1       2.013   6.240  -2.984  1.00  0.00     0.202 C 
BRANCH   3   4
ATOM      4  C   UNL     1       2.495   6.242  -1.528  1.00  0.00     0.261 C 
BRANCH   4   5
ATOM      5  O   UNL     1       3.387   5.167  -1.193  1.00  0.00    -0.460 OA
BRANCH   5   6
ATOM      6  C   UNL     1       2.902   3.907  -1.317  1.00  0.00     0.349 C 
ATOM      7  O   UNL     1       1.769   3.630  -1.693  1.00  0.00    -0.248 OA
BRANCH   6   8
ATOM      8  C   UNL     1       3.989   2.857  -1.049  1.00  0.00     0.302 C 
ATOM      9  N   UNL     1       2.701   1.980   0.805  1.00  0.00    -0.300 N 
ATOM     10  C   UNL     1       3.311   1.622  -0.480  1.00  0.00     0.183 C 
ATOM     11  C   UNL     1       3.554   2.766   1.648  1.00  0.00     0.086 A 
ATOM     12  C   UNL     1       4.745   3.302   1.119  1.00  0.00     0.144 A 
ATOM     13  C   UNL     1       3.261   2.993   2.996  1.00  0.00     0.030 A 
ATOM     14  O   UNL     1       5.081   3.237  -0.214  1.00  0.00    -0.475 OA
ATOM     15  C   UNL     1       5.648   3.983   1.936  1.00  0.00     0.049 A 
ATOM     16  C   UNL     1       4.151   3.703   3.806  1.00  0.00     0.002 A 
ATOM     17  C   UNL     1       5.350   4.182   3.282  1.00  0.00     0.004 A 
BRANCH   9  18
ATOM     18  C   UNL     1       1.324   1.883   1.037  1.00  0.00     0.259 C 
ATOM     19  O   UNL     1       0.713   2.705   1.720  1.00  0.00    -0.269 OA
BRANCH  18  20
ATOM     20  C   UNL     1       0.579   0.776   0.413  1.00  0.00     0.053 A 
ATOM     21  C   UNL     1       2.303  -1.220   0.480  1.00  0.00     0.046 C 
ATOM     22  C   UNL     1       0.973  -0.604   0.186  1.00  0.00    -0.028 A 
ATOM     23  C   UNL     1      -0.079  -1.345  -0.326  1.00  0.00     0.069 A 
ATOM     24  S   UNL     1      -1.498  -0.432  -0.555  1.00  0.00    -0.151 S 
ATOM     25  C   UNL     1      -0.744   0.972   0.041  1.00  0.00     0.079 A 
ENDBRANCH  18  20
ENDBRANCH   9  18
ENDBRANCH   6   8
ENDBRANCH   5   6
ENDBRANCH   4   5
ENDBRANCH   3   4
ENDBRANCH   2   3
ENDBRANCH   1   2
BRANCH   1  26
ATOM     26  C   UNL     1       5.318   5.410  -3.485  1.00  0.00     0.188 C 
BRANCH  26  27
ATOM     27  O   UNL     1       5.809   6.697  -3.139  1.00  0.00    -0.376 OA
BRANCH  27  28
ATOM     28  C   UNL     1       5.452   7.820  -3.928  1.00  0.00     0.202 C 
BRANCH  28  29
ATOM     29  C   UNL     1       5.859   7.830  -5.408  1.00  0.00     0.261 C 
BRANCH  29  30
ATOM     30  O   UNL     1       5.492   6.652  -6.150  1.00  0.00    -0.460 OA
BRANCH  30  31
ATOM     31  C   UNL     1       6.518   5.849  -6.529  1.00  0.00     0.338 C 
ATOM     32  O   UNL     1       7.708   6.036  -6.351  1.00  0.00    -0.246 OA
BRANCH  31  33
ATOM     33  C   UNL     1       5.988   4.574  -7.063  1.00  0.00     0.060 A 
ATOM     34  C   UNL     1       6.385   3.381  -6.441  1.00  0.00     0.016 A 
ATOM     35  C   UNL     1       5.156   4.536  -8.183  1.00  0.00     0.016 A 
ATOM     36  C   UNL     1       5.965   2.148  -6.944  1.00  0.00     0.010 A 
ATOM     37  C   UNL     1       4.758   3.298  -8.703  1.00  0.00     0.010 A 
ATOM     38  C   UNL     1       5.176   2.097  -8.100  1.00  0.00    -0.014 A 
BRANCH  38  39
ATOM     39  C   UNL     1       4.913   0.793  -8.760  1.00  0.00     0.031 A 
ATOM     40  C   UNL     1       5.806   0.353  -9.888  1.00  0.00     0.074 A 
ATOM     41  C   UNL     1       3.904  -0.001  -8.361  1.00  0.00     0.049 A 
ATOM     42  N   UNL     1       5.730  -0.718 -10.637  1.00  0.00    -0.248 NA
ATOM     43  C   UNL     1       6.937   1.237 -10.212  1.00  0.00     0.031 C 
ATOM     44  C   UNL     1       2.996   0.275  -7.249  1.00  0.00     0.029 A 
ATOM     45  N   UNL     1       3.471  -1.206  -8.860  1.00  0.00    -0.354 N 
ATOM     46  C   UNL     1       6.796  -0.634 -11.524  1.00  0.00     0.074 A 
ATOM     47  C   UNL     1       7.491   0.602 -11.233  1.00  0.00     0.031 C 
ATOM     48  C   UNL     1       2.102  -0.726  -7.160  1.00  0.00     0.029 A 
ATOM     49  C   UNL     1       2.352  -1.693  -8.228  1.00  0.00     0.049 A 
ATOM     50  H   UNL     1       3.920  -1.676  -9.599  1.00  0.00     0.167 HD
ATOM     51  C   UNL     1       7.166  -1.505 -12.493  1.00  0.00     0.031 A 
ATOM     52  C   UNL     1       1.599  -2.777  -8.499  1.00  0.00     0.031 A 
ATOM     53  C   UNL     1       6.467  -2.722 -12.806  1.00  0.00     0.049 A 
ATOM     54  C   UNL     1       1.968  -3.673  -9.653  1.00  0.00     0.074 A 
ATOM     55  C   UNL     1       6.778  -3.674 -13.762  1.00  0.00     0.029 A 
ATOM     56  N   UNL     1       5.306  -3.148 -12.181  1.00  0.00    -0.354 N 
ATOM     57  N   UNL     1       2.995  -3.599 -10.464  1.00  0.00    -0.248 NA
ATOM     58  C   UNL     1       1.067  -4.804  -9.928  1.00  0.00     0.031 C 
ATOM     59  C   UNL     1       5.771  -4.645 -13.757  1.00  0.00     0.029 A 
ATOM     60  C   UNL     1       4.866  -4.329 -12.757  1.00  0.00     0.049 A 
ATOM     61  H   UNL     1       4.859  -2.681 -11.439  1.00  0.00     0.167 HD
ATOM     62  C   UNL     1       2.875  -4.681 -11.329  1.00  0.00     0.074 A 
ATOM     63  C   UNL     1       1.688  -5.407 -10.933  1.00  0.00     0.031 C 
ATOM     64  C   UNL     1       3.678  -5.040 -12.361  1.00  0.00     0.031 A 
BRANCH  51  65
ATOM     65  C   UNL     1       8.368  -1.145 -13.320  1.00  0.00    -0.014 A 
ATOM     66  C   UNL     1       9.666  -1.212 -12.788  1.00  0.00     0.009 A 
ATOM     67  C   UNL     1       8.201  -0.766 -14.661  1.00  0.00     0.009 A 
ATOM     68  C   UNL     1      10.769  -0.875 -13.575  1.00  0.00     0.001 A 
ATOM     69  C   UNL     1       9.308  -0.455 -15.452  1.00  0.00     0.001 A 
ATOM     70  C   UNL     1      10.590  -0.501 -14.907  1.00  0.00     0.000 A 
ENDBRANCH  51  65
BRANCH  52  71
ATOM     71  C   UNL     1       0.385  -3.064  -7.689  1.00  0.00    -0.014 A 
ATOM     72  C   UNL     1       0.337  -4.182  -6.843  1.00  0.00     0.009 A 
ATOM     73  C   UNL     1      -0.746  -2.238  -7.787  1.00  0.00     0.009 A 
ATOM     74  C   UNL     1      -0.827  -4.479  -6.128  1.00  0.00     0.001 A 
ATOM     75  C   UNL     1      -1.897  -2.521  -7.049  1.00  0.00     0.001 A 
ATOM     76  C   UNL     1      -1.940  -3.646  -6.228  1.00  0.00     0.000 A 
ENDBRANCH  52  71
BRANCH  64  77
ATOM     77  C   UNL     1       3.314  -6.284 -13.123  1.00  0.00    -0.014 A 
ATOM     78  C   UNL     1       2.215  -6.308 -13.995  1.00  0.00     0.009 A 
ATOM     79  C   UNL     1       4.107  -7.436 -12.998  1.00  0.00     0.009 A 
ATOM     80  C   UNL     1       1.901  -7.470 -14.705  1.00  0.00     0.001 A 
ATOM     81  C   UNL     1       3.808  -8.587 -13.730  1.00  0.00     0.001 A 
ATOM     82  C   UNL     1       2.700  -8.606 -14.576  1.00  0.00     0.000 A 
ENDBRANCH  64  77
ENDBRANCH  38  39
ENDBRANCH  31  33
ENDBRANCH  30  31
ENDBRANCH  29  30
ENDBRANCH  28  29
ENDBRANCH  27  28
ENDBRANCH  26  27
ENDBRANCH   1  26
TORSDOF 19
