REMARK SMILES Cc1c(CC(=O)OCCOCCOCCOC(=O)c2ccc(-c3c4nc(c(-c5ccccc5)c5ccc([nH]5)c(-c5ccccc5)c5nc(c(-c6ccccc6)c6ccc3[nH]6)C=C5)C=C4)cc2)cc(-c2ccc(S(C)(=O)=O)cc2)n1-c1ccccc1
REMARK SMILES IDX 11 1 10 2 9 3 8 4 7 5 5 6 6 7 4 8 3 9 1 10 2 11 79 12 67 13
REMARK SMILES IDX 68 14 80 15 81 16 85 17 82 18 84 19 83 20 69 21 70 22 78 23
REMARK SMILES IDX 71 24 77 25 72 26 73 27 74 28 75 29 76 30 12 31 13 32 14 33
REMARK SMILES IDX 15 34 16 35 17 36 18 37 19 38 20 39 66 40 21 41 65 42 22 43
REMARK SMILES IDX 23 44 24 45 59 46 25 47 64 48 58 49 60 50 26 51 63 52 57 53
REMARK SMILES IDX 56 54 27 56 49 57 34 58 48 59 35 60 38 61 47 62 61 63 36 64
REMARK SMILES IDX 37 65 46 67 62 68 39 69 28 70 29 71 33 72 30 73 32 74 31 75
REMARK SMILES IDX 50 76 51 77 55 78 52 79 54 80 53 81 40 82 41 83 45 84 42 85
REMARK SMILES IDX 44 86 43 87
REMARK H PARENT 60 55 38 66
REMARK Flexibility Score: inf
ROOT
ATOM      1  C   UNL     1      -1.111  -2.368  -0.512  1.00  0.00     0.188 C 
ENDROOT
BRANCH   1   2
ATOM      2  O   UNL     1      -2.410  -2.459  -1.083  1.00  0.00    -0.376 OA
BRANCH   2   3
ATOM      3  C   UNL     1      -3.214  -1.287  -1.181  1.00  0.00     0.202 C 
BRANCH   3   4
ATOM      4  C   UNL     1      -3.623  -0.616   0.135  1.00  0.00     0.261 C 
BRANCH   4   5
ATOM      5  O   UNL     1      -2.516   0.101   0.719  1.00  0.00    -0.463 OA
BRANCH   5   6
ATOM      6  C   UNL     1      -2.350  -0.033   2.058  1.00  0.00     0.310 C 
ATOM      7  O   UNL     1      -3.093  -0.700   2.776  1.00  0.00    -0.252 OA
BRANCH   6   8
ATOM      8  C   UNL     1      -1.119   0.645   2.627  1.00  0.00     0.160 C 
BRANCH   8   9
ATOM      9  C   UNL     1      -0.347   1.603   1.760  1.00  0.00    -0.015 A 
ATOM     10  C   UNL     1       1.825   0.251   1.167  1.00  0.00     0.065 C 
ATOM     11  C   UNL     1       0.872   1.398   1.117  1.00  0.00     0.024 A 
ATOM     12  N   UNL     1       1.176   2.548   0.404  1.00  0.00    -0.314 N 
ATOM     13  C   UNL     1      -0.622   2.997   1.624  1.00  0.00     0.033 A 
ATOM     14  C   UNL     1       0.405   3.583   0.902  1.00  0.00     0.053 A 
BRANCH  12  15
ATOM     15  C   UNL     1       2.115   2.649  -0.648  1.00  0.00     0.046 A 
ATOM     16  C   UNL     1       3.325   3.317  -0.457  1.00  0.00     0.026 A 
ATOM     17  C   UNL     1       1.757   2.144  -1.903  1.00  0.00     0.026 A 
ATOM     18  C   UNL     1       4.191   3.471  -1.540  1.00  0.00     0.002 A 
ATOM     19  C   UNL     1       2.620   2.324  -2.983  1.00  0.00     0.002 A 
ATOM     20  C   UNL     1       3.837   2.983  -2.800  1.00  0.00     0.000 A 
ENDBRANCH  12  15
BRANCH  14  21
ATOM     21  C   UNL     1       0.703   4.997   0.696  1.00  0.00    -0.001 A 
ATOM     22  C   UNL     1       0.535   5.611  -0.551  1.00  0.00     0.011 A 
ATOM     23  C   UNL     1       1.228   5.736   1.766  1.00  0.00     0.011 A 
ATOM     24  C   UNL     1       0.897   6.948  -0.730  1.00  0.00     0.021 A 
ATOM     25  C   UNL     1       1.598   7.069   1.594  1.00  0.00     0.021 A 
ATOM     26  C   UNL     1       1.438   7.666   0.343  1.00  0.00     0.067 A 
BRANCH  26  27
ATOM     27  S   UNL     1       1.881   9.370   0.111  1.00  0.00     0.175 S 
ATOM     28  C   UNL     1       3.237   9.316  -1.029  1.00  0.00     0.163 C 
ATOM     29  O   UNL     1       0.761  10.017  -0.536  1.00  0.00    -0.224 OA
ATOM     30  O   UNL     1       2.402   9.866   1.378  1.00  0.00    -0.224 OA
ENDBRANCH  26  27
ENDBRANCH  14  21
ENDBRANCH   8   9
ENDBRANCH   6   8
ENDBRANCH   5   6
ENDBRANCH   4   5
ENDBRANCH   3   4
ENDBRANCH   2   3
ENDBRANCH   1   2
BRANCH   1  31
ATOM     31  C   UNL     1      -0.176  -1.228  -0.937  1.00  0.00     0.188 C 
BRANCH  31  32
ATOM     32  O   UNL     1      -0.098  -0.889  -2.308  1.00  0.00    -0.376 OA
BRANCH  32  33
ATOM     33  C   UNL     1       0.498  -1.859  -3.162  1.00  0.00     0.202 C 
BRANCH  33  34
ATOM     34  C   UNL     1       2.070  -1.918  -3.208  1.00  0.00     0.261 C 
BRANCH  34  35
ATOM     35  O   UNL     1       2.851  -2.829  -2.324  1.00  0.00    -0.460 OA
BRANCH  35  36
ATOM     36  C   UNL     1       4.037  -2.357  -1.742  1.00  0.00     0.338 C 
ATOM     37  O   UNL     1       4.228  -1.174  -1.503  1.00  0.00    -0.246 OA
BRANCH  36  38
ATOM     38  C   UNL     1       5.170  -3.407  -1.494  1.00  0.00     0.060 A 
ATOM     39  C   UNL     1       6.286  -3.391  -0.597  1.00  0.00     0.016 A 
ATOM     40  C   UNL     1       5.221  -4.502  -2.284  1.00  0.00     0.016 A 
ATOM     41  C   UNL     1       7.412  -4.475  -0.489  1.00  0.00     0.010 A 
ATOM     42  C   UNL     1       6.285  -5.480  -2.111  1.00  0.00     0.010 A 
ATOM     43  C   UNL     1       7.494  -5.622  -1.303  1.00  0.00    -0.014 A 
BRANCH  43  44
ATOM     44  C   UNL     1       8.421  -7.186  -1.150  1.00  0.00     0.031 A 
ATOM     45  C   UNL     1       7.440  -8.249  -0.647  1.00  0.00     0.074 A 
ATOM     46  C   UNL     1       9.485  -8.042  -1.709  1.00  0.00     0.049 A 
ATOM     47  N   UNL     1       7.088  -9.218  -1.465  1.00  0.00    -0.248 NA
ATOM     48  C   UNL     1       6.269  -7.726   0.040  1.00  0.00     0.031 C 
ATOM     49  C   UNL     1      10.441  -7.785  -2.813  1.00  0.00     0.029 A 
ATOM     50  N   UNL     1       9.814  -9.533  -1.530  1.00  0.00    -0.354 N 
ATOM     51  C   UNL     1       6.059  -8.559  -2.152  1.00  0.00     0.074 A 
ATOM     52  C   UNL     1       5.437  -7.851  -1.008  1.00  0.00     0.031 C 
ATOM     53  C   UNL     1      10.963  -8.933  -3.331  1.00  0.00     0.029 A 
ATOM     54  C   UNL     1      10.582 -10.167  -2.582  1.00  0.00     0.049 A 
ATOM     55  H   UNL     1       9.517 -10.034  -0.737  1.00  0.00     0.167 HD
ATOM     56  C   UNL     1       6.405  -8.235  -3.463  1.00  0.00     0.031 A 
ATOM     57  C   UNL     1      11.098 -11.405  -3.067  1.00  0.00     0.031 A 
ATOM     58  C   UNL     1       6.334  -9.408  -4.221  1.00  0.00     0.049 A 
ATOM     59  C   UNL     1      10.139 -11.559  -4.228  1.00  0.00     0.074 A 
ATOM     60  C   UNL     1       5.482 -10.453  -4.437  1.00  0.00     0.029 A 
ATOM     61  N   UNL     1       7.467  -9.666  -4.881  1.00  0.00    -0.354 N 
ATOM     62  N   UNL     1      10.371 -11.398  -5.498  1.00  0.00    -0.248 NA
ATOM     63  C   UNL     1       8.857 -12.242  -3.891  1.00  0.00     0.031 C 
ATOM     64  C   UNL     1       6.012 -11.123  -5.577  1.00  0.00     0.029 A 
ATOM     65  C   UNL     1       7.215 -10.502  -5.924  1.00  0.00     0.049 A 
ATOM     66  H   UNL     1       8.353  -9.305  -4.647  1.00  0.00     0.167 HD
ATOM     67  C   UNL     1       9.154 -11.743  -6.073  1.00  0.00     0.074 A 
ATOM     68  C   UNL     1       8.510 -12.634  -5.118  1.00  0.00     0.031 C 
ATOM     69  C   UNL     1       8.419 -10.755  -6.676  1.00  0.00     0.031 A 
BRANCH  56  70
ATOM     70  C   UNL     1       6.922  -6.964  -4.375  1.00  0.00    -0.014 A 
ATOM     71  C   UNL     1       8.066  -6.146  -4.152  1.00  0.00     0.009 A 
ATOM     72  C   UNL     1       6.243  -6.620  -5.547  1.00  0.00     0.009 A 
ATOM     73  C   UNL     1       8.428  -5.002  -4.893  1.00  0.00     0.001 A 
ATOM     74  C   UNL     1       6.614  -5.498  -6.335  1.00  0.00     0.001 A 
ATOM     75  C   UNL     1       7.680  -4.668  -5.993  1.00  0.00     0.000 A 
ENDBRANCH  56  70
BRANCH  57  76
ATOM     76  C   UNL     1      11.643 -12.983  -2.982  1.00  0.00    -0.014 A 
ATOM     77  C   UNL     1      13.022 -13.259  -2.853  1.00  0.00     0.009 A 
ATOM     78  C   UNL     1      10.962 -14.138  -3.532  1.00  0.00     0.009 A 
ATOM     79  C   UNL     1      13.617 -14.524  -3.225  1.00  0.00     0.001 A 
ATOM     80  C   UNL     1      11.541 -15.364  -3.954  1.00  0.00     0.001 A 
ATOM     81  C   UNL     1      12.886 -15.566  -3.792  1.00  0.00     0.000 A 
ENDBRANCH  57  76
BRANCH  69  82
ATOM     82  C   UNL     1       9.268  -9.669  -7.311  1.00  0.00    -0.014 A 
ATOM     83  C   UNL     1       9.980  -9.979  -8.470  1.00  0.00     0.009 A 
ATOM     84  C   UNL     1       9.528  -8.414  -6.718  1.00  0.00     0.009 A 
ATOM     85  C   UNL     1      10.940  -9.096  -8.980  1.00  0.00     0.001 A 
ATOM     86  C   UNL     1      10.497  -7.539  -7.208  1.00  0.00     0.001 A 
ATOM     87  C   UNL     1      11.211  -7.887  -8.341  1.00  0.00     0.000 A 
ENDBRANCH  69  82
ENDBRANCH  43  44
ENDBRANCH  36  38
ENDBRANCH  35  36
ENDBRANCH  34  35
ENDBRANCH  33  34
ENDBRANCH  32  33
ENDBRANCH  31  32
ENDBRANCH   1  31
TORSDOF 21
