REMARK SMILES C=CCSc1ccccc1C(=O)OCCOCCOCCOC(=O)c1ccc(-c2c3nc(c(-c4ccccc4)c4ccc([nH]4)c(-c4ccccc4)c4nc(c(-c5ccccc5)c5ccc2[nH]5)C=C4)C=C3)cc1
REMARK SMILES IDX 17 1 16 2 15 3 14 4 13 5 11 6 12 7 10 8 5 9 6 10 7 11 9 12
REMARK SMILES IDX 8 13 4 14 3 15 2 16 1 17 18 18 19 19 20 20 21 21 22 22 23 23
REMARK SMILES IDX 24 24 25 25 26 26 72 27 27 28 71 29 28 30 29 31 30 32 65 33
REMARK SMILES IDX 31 34 70 35 64 36 66 37 32 38 69 39 63 40 62 41 33 43 55 44
REMARK SMILES IDX 40 45 54 46 41 47 44 48 53 49 67 50 42 51 43 52 52 54 68 55
REMARK SMILES IDX 45 56 34 57 35 58 39 59 36 60 38 61 37 62 56 63 57 64 61 65
REMARK SMILES IDX 58 66 60 67 59 68 46 69 47 70 51 71 48 72 50 73 49 74
REMARK H PARENT 66 42 44 53
REMARK Flexibility Score: inf
ROOT
ATOM      1  C   UNL     1       2.800  -1.218   0.343  1.00  0.00     0.188 C 
ENDROOT
BRANCH   1   2
ATOM      2  O   UNL     1       2.919   0.116  -0.121  1.00  0.00    -0.376 OA
BRANCH   2   3
ATOM      3  C   UNL     1       1.763   0.941  -0.244  1.00  0.00     0.202 C 
BRANCH   3   4
ATOM      4  C   UNL     1       0.693   0.475  -1.234  1.00  0.00     0.261 C 
BRANCH   4   5
ATOM      5  O   UNL     1      -0.120  -0.510  -0.582  1.00  0.00    -0.460 OA
BRANCH   5   6
ATOM      6  C   UNL     1      -0.686  -1.457  -1.357  1.00  0.00     0.339 C 
ATOM      7  O   UNL     1      -0.633  -1.540  -2.571  1.00  0.00    -0.246 OA
BRANCH   6   8
ATOM      8  C   UNL     1      -1.062  -2.560  -0.455  1.00  0.00     0.073 A 
ATOM      9  C   UNL     1      -2.010  -2.501   0.583  1.00  0.00     0.022 A 
ATOM     10  C   UNL     1      -2.160  -3.667   1.369  1.00  0.00     0.016 A 
ATOM     11  C   UNL     1      -1.423  -4.835   1.134  1.00  0.00     0.001 A 
ATOM     12  C   UNL     1      -0.328  -3.747  -0.695  1.00  0.00     0.017 A 
ATOM     13  C   UNL     1      -0.512  -4.880   0.091  1.00  0.00     0.001 A 
BRANCH   9  14
ATOM     14  S   UNL     1      -3.300  -1.294   0.924  1.00  0.00    -0.121 SA
BRANCH  14  15
ATOM     15  C   UNL     1      -2.614   0.383   1.036  1.00  0.00     0.101 C 
BRANCH  15  16
ATOM     16  C   UNL     1      -1.716   0.676   2.194  1.00  0.00    -0.024 C 
ATOM     17  C   UNL     1      -0.548   0.084   2.435  1.00  0.00     0.005 C 
ENDBRANCH  15  16
ENDBRANCH  14  15
ENDBRANCH   9  14
ENDBRANCH   6   8
ENDBRANCH   5   6
ENDBRANCH   4   5
ENDBRANCH   3   4
ENDBRANCH   2   3
ENDBRANCH   1   2
BRANCH   1  18
ATOM     18  C   UNL     1       2.336  -1.541   1.776  1.00  0.00     0.188 C 
BRANCH  18  19
ATOM     19  O   UNL     1       2.322  -0.593   2.830  1.00  0.00    -0.376 OA
BRANCH  19  20
ATOM     20  C   UNL     1       3.342   0.382   2.942  1.00  0.00     0.202 C 
BRANCH  20  21
ATOM     21  C   UNL     1       4.646  -0.055   3.608  1.00  0.00     0.261 C 
BRANCH  21  22
ATOM     22  O   UNL     1       5.216  -1.191   2.957  1.00  0.00    -0.460 OA
BRANCH  22  23
ATOM     23  C   UNL     1       5.009  -2.374   3.582  1.00  0.00     0.338 C 
ATOM     24  O   UNL     1       4.474  -2.577   4.660  1.00  0.00    -0.246 OA
BRANCH  23  25
ATOM     25  C   UNL     1       5.367  -3.437   2.630  1.00  0.00     0.060 A 
ATOM     26  C   UNL     1       4.431  -4.449   2.378  1.00  0.00     0.016 A 
ATOM     27  C   UNL     1       6.586  -3.397   1.951  1.00  0.00     0.016 A 
ATOM     28  C   UNL     1       4.700  -5.415   1.417  1.00  0.00     0.010 A 
ATOM     29  C   UNL     1       6.871  -4.386   1.018  1.00  0.00     0.010 A 
ATOM     30  C   UNL     1       5.933  -5.400   0.757  1.00  0.00    -0.014 A 
BRANCH  30  31
ATOM     31  C   UNL     1       6.338  -6.542  -0.081  1.00  0.00     0.031 A 
ATOM     32  C   UNL     1       7.162  -7.619   0.553  1.00  0.00     0.074 A 
ATOM     33  C   UNL     1       6.009  -6.590  -1.381  1.00  0.00     0.049 A 
ATOM     34  N   UNL     1       7.745  -8.649   0.001  1.00  0.00    -0.248 NA
ATOM     35  C   UNL     1       7.360  -7.514   2.008  1.00  0.00     0.031 C 
ATOM     36  C   UNL     1       5.161  -5.626  -2.080  1.00  0.00     0.029 A 
ATOM     37  N   UNL     1       6.373  -7.489  -2.349  1.00  0.00    -0.354 N 
ATOM     38  C   UNL     1       8.391  -9.307   1.038  1.00  0.00     0.074 A 
ATOM     39  C   UNL     1       8.149  -8.549   2.245  1.00  0.00     0.031 C 
ATOM     40  C   UNL     1       5.082  -5.979  -3.375  1.00  0.00     0.029 A 
ATOM     41  C   UNL     1       5.913  -7.160  -3.598  1.00  0.00     0.049 A 
ATOM     42  H   UNL     1       6.911  -8.293  -2.165  1.00  0.00     0.167 HD
ATOM     43  C   UNL     1       9.125 -10.442   0.984  1.00  0.00     0.031 A 
ATOM     44  C   UNL     1       6.169  -7.733  -4.790  1.00  0.00     0.031 A 
ATOM     45  C   UNL     1       9.391 -11.162  -0.231  1.00  0.00     0.049 A 
ATOM     46  C   UNL     1       7.091  -8.922  -4.844  1.00  0.00     0.074 A 
ATOM     47  C   UNL     1      10.114 -12.328  -0.404  1.00  0.00     0.029 A 
ATOM     48  N   UNL     1       8.958 -10.766  -1.489  1.00  0.00    -0.354 N 
ATOM     49  N   UNL     1       7.681  -9.558  -3.860  1.00  0.00    -0.248 NA
ATOM     50  C   UNL     1       7.390  -9.465  -6.176  1.00  0.00     0.031 C 
ATOM     51  C   UNL     1      10.178 -12.598  -1.775  1.00  0.00     0.029 A 
ATOM     52  C   UNL     1       9.437 -11.639  -2.450  1.00  0.00     0.049 A 
ATOM     53  H   UNL     1       8.393  -9.980  -1.671  1.00  0.00     0.167 HD
ATOM     54  C   UNL     1       8.405 -10.587  -4.450  1.00  0.00     0.074 A 
ATOM     55  C   UNL     1       8.164 -10.500  -5.877  1.00  0.00     0.031 C 
ATOM     56  C   UNL     1       9.197 -11.520  -3.866  1.00  0.00     0.031 A 
BRANCH  43  57
ATOM     57  C   UNL     1       9.735 -10.922   2.271  1.00  0.00    -0.014 A 
ATOM     58  C   UNL     1       8.943 -11.419   3.319  1.00  0.00     0.009 A 
ATOM     59  C   UNL     1      11.126 -10.859   2.443  1.00  0.00     0.009 A 
ATOM     60  C   UNL     1       9.528 -11.799   4.529  1.00  0.00     0.001 A 
ATOM     61  C   UNL     1      11.712 -11.270   3.642  1.00  0.00     0.001 A 
ATOM     62  C   UNL     1      10.912 -11.726   4.688  1.00  0.00     0.000 A 
ENDBRANCH  43  57
BRANCH  44  63
ATOM     63  C   UNL     1       5.568  -7.171  -6.027  1.00  0.00    -0.014 A 
ATOM     64  C   UNL     1       4.582  -7.885  -6.724  1.00  0.00     0.009 A 
ATOM     65  C   UNL     1       5.968  -5.916  -6.513  1.00  0.00     0.009 A 
ATOM     66  C   UNL     1       4.017  -7.358  -7.888  1.00  0.00     0.001 A 
ATOM     67  C   UNL     1       5.381  -5.379  -7.661  1.00  0.00     0.001 A 
ATOM     68  C   UNL     1       4.411  -6.104  -8.351  1.00  0.00     0.000 A 
ENDBRANCH  44  63
BRANCH  56  69
ATOM     69  C   UNL     1       9.853 -12.528  -4.770  1.00  0.00    -0.014 A 
ATOM     70  C   UNL     1      10.916 -12.166  -5.611  1.00  0.00     0.009 A 
ATOM     71  C   UNL     1       9.438 -13.869  -4.736  1.00  0.00     0.009 A 
ATOM     72  C   UNL     1      11.533 -13.122  -6.420  1.00  0.00     0.001 A 
ATOM     73  C   UNL     1      10.077 -14.828  -5.522  1.00  0.00     0.001 A 
ATOM     74  C   UNL     1      11.118 -14.453  -6.369  1.00  0.00     0.000 A 
ENDBRANCH  56  69
ENDBRANCH  30  31
ENDBRANCH  23  25
ENDBRANCH  22  23
ENDBRANCH  21  22
ENDBRANCH  20  21
ENDBRANCH  19  20
ENDBRANCH  18  19
ENDBRANCH   1  18
TORSDOF 20
