REMARK SMILES Cc1ccc(OCCC[N@H+]2CCCC[C@@H]2C(=O)OCCOCCOCCOC(=O)c2ccc(-c3c4nc(c(-c5ccccc5)c5ccc([nH]5)c(-c5ccccc5)c5nc(c(-c6ccccc6)c6ccc3[nH]6)C=C5)C=C4)cc2)cc1C
REMARK SMILES IDX 21 1 20 2 19 3 18 4 16 5 17 6 15 7 10 8 11 9 12 11 14 12
REMARK SMILES IDX 13 13 9 14 8 15 7 16 6 17 5 18 1 19 2 20 3 21 79 22 4 23
REMARK SMILES IDX 78 24 80 25 22 26 23 27 24 28 25 29 26 30 27 31 28 32 29 33
REMARK SMILES IDX 30 34 31 35 77 36 32 37 76 38 33 39 34 40 35 41 70 42 36 43
REMARK SMILES IDX 75 44 69 45 71 46 37 47 74 48 68 49 67 50 38 52 60 53 45 54
REMARK SMILES IDX 59 55 46 56 49 57 58 58 72 59 47 60 48 61 57 63 73 64 50 65
REMARK SMILES IDX 39 66 40 67 44 68 41 69 43 70 42 71 61 72 62 73 66 74 63 75
REMARK SMILES IDX 65 76 64 77 51 78 52 79 56 80 53 81 55 82 54 83
REMARK H PARENT 10 10 71 51 49 62
REMARK Flexibility Score: inf
ROOT
ATOM      1  O   UNL     1       1.150   0.227  -2.413  1.00  0.00    -0.376 OA
ENDROOT
BRANCH   1   2
ATOM      2  C   UNL     1       0.041  -0.422  -1.802  1.00  0.00     0.202 C 
BRANCH   2   3
ATOM      3  C   UNL     1      -1.315  -0.046  -2.396  1.00  0.00     0.261 C 
BRANCH   3   4
ATOM      4  O   UNL     1      -2.102   1.038  -1.835  1.00  0.00    -0.459 OA
BRANCH   4   5
ATOM      5  C   UNL     1      -1.838   1.710  -0.684  1.00  0.00     0.364 C 
ATOM      6  O   UNL     1      -0.874   1.562   0.037  1.00  0.00    -0.245 OA
BRANCH   5   7
ATOM      7  C   UNL     1      -2.906   2.765  -0.388  1.00  0.00     0.295 C 
ATOM      8  N   UNL     1      -4.226   2.138  -0.062  1.00  0.00    -0.323 N 
ATOM      9  C   UNL     1      -5.255   3.199   0.054  1.00  0.00     0.262 C 
ATOM     10  H   UNL     1      -4.466   1.485  -0.807  1.00  0.00     0.348 HD
ATOM     11  C   UNL     1      -5.333   4.124  -1.163  1.00  0.00     0.062 C 
ATOM     12  C   UNL     1      -2.929   3.731  -1.585  1.00  0.00     0.078 C 
ATOM     13  C   UNL     1      -3.994   4.795  -1.424  1.00  0.00     0.013 C 
BRANCH   8  14
ATOM     14  C   UNL     1      -4.157   1.397   1.230  1.00  0.00     0.266 C 
BRANCH  14  15
ATOM     15  C   UNL     1      -4.599  -0.081   1.180  1.00  0.00     0.103 C 
BRANCH  15  16
ATOM     16  C   UNL     1      -3.643  -1.062   0.489  1.00  0.00     0.235 C 
BRANCH  16  17
ATOM     17  O   UNL     1      -2.949  -1.927   1.418  1.00  0.00    -0.493 OA
BRANCH  17  18
ATOM     18  C   UNL     1      -1.669  -1.509   1.671  1.00  0.00     0.119 A 
ATOM     19  C   UNL     1       2.266   0.180   2.075  1.00  0.00     0.044 C 
ATOM     20  C   UNL     1       0.932  -0.513   2.011  1.00  0.00    -0.048 A 
ATOM     21  C   UNL     1      -0.162   0.097   2.642  1.00  0.00     0.007 A 
ATOM     22  C   UNL     1       0.735  -1.733   1.330  1.00  0.00    -0.045 A 
ATOM     23  C   UNL     1      -1.448  -0.417   2.496  1.00  0.00     0.047 A 
ATOM     24  C   UNL     1      -0.582  -2.216   1.155  1.00  0.00     0.050 A 
ATOM     25  C   UNL     1       1.895  -2.510   0.769  1.00  0.00     0.045 C 
ENDBRANCH  17  18
ENDBRANCH  16  17
ENDBRANCH  15  16
ENDBRANCH  14  15
ENDBRANCH   8  14
ENDBRANCH   5   7
ENDBRANCH   4   5
ENDBRANCH   3   4
ENDBRANCH   2   3
ENDBRANCH   1   2
BRANCH   1  26
ATOM     26  C   UNL     1       1.447   1.519  -1.891  1.00  0.00     0.188 C 
BRANCH  26  27
ATOM     27  C   UNL     1       0.758   2.625  -2.697  1.00  0.00     0.188 C 
BRANCH  27  28
ATOM     28  O   UNL     1       1.037   2.728  -4.094  1.00  0.00    -0.376 OA
BRANCH  28  29
ATOM     29  C   UNL     1       2.234   2.140  -4.584  1.00  0.00     0.202 C 
BRANCH  29  30
ATOM     30  C   UNL     1       3.515   2.953  -4.354  1.00  0.00     0.261 C 
BRANCH  30  31
ATOM     31  O   UNL     1       3.710   3.373  -2.990  1.00  0.00    -0.460 OA
BRANCH  31  32
ATOM     32  C   UNL     1       3.279   4.628  -2.723  1.00  0.00     0.338 C 
ATOM     33  O   UNL     1       2.810   5.428  -3.517  1.00  0.00    -0.246 OA
BRANCH  32  34
ATOM     34  C   UNL     1       3.336   4.919  -1.273  1.00  0.00     0.060 A 
ATOM     35  C   UNL     1       2.232   5.569  -0.704  1.00  0.00     0.016 A 
ATOM     36  C   UNL     1       4.498   4.723  -0.522  1.00  0.00     0.016 A 
ATOM     37  C   UNL     1       2.318   6.115   0.575  1.00  0.00     0.010 A 
ATOM     38  C   UNL     1       4.591   5.288   0.758  1.00  0.00     0.010 A 
ATOM     39  C   UNL     1       3.526   6.048   1.279  1.00  0.00    -0.014 A 
BRANCH  39  40
ATOM     40  C   UNL     1       3.748   7.017   2.386  1.00  0.00     0.031 A 
ATOM     41  C   UNL     1       4.451   8.314   2.063  1.00  0.00     0.074 A 
ATOM     42  C   UNL     1       3.273   6.811   3.627  1.00  0.00     0.049 A 
ATOM     43  N   UNL     1       4.728   9.328   2.844  1.00  0.00    -0.248 NA
ATOM     44  C   UNL     1       4.899   8.492   0.670  1.00  0.00     0.031 C 
ATOM     45  C   UNL     1       2.532   5.633   4.073  1.00  0.00     0.029 A 
ATOM     46  N   UNL     1       3.346   7.608   4.744  1.00  0.00    -0.354 N 
ATOM     47  C   UNL     1       5.390  10.251   2.043  1.00  0.00     0.074 A 
ATOM     48  C   UNL     1       5.498   9.671   0.724  1.00  0.00     0.031 C 
ATOM     49  C   UNL     1       2.229   5.780   5.376  1.00  0.00     0.029 A 
ATOM     50  C   UNL     1       2.767   7.052   5.858  1.00  0.00     0.049 A 
ATOM     51  H   UNL     1       3.774   8.494   4.746  1.00  0.00     0.167 HD
ATOM     52  C   UNL     1       5.862  11.478   2.366  1.00  0.00     0.031 A 
ATOM     53  C   UNL     1       2.692   7.511   7.123  1.00  0.00     0.031 A 
ATOM     54  C   UNL     1       5.754  12.077   3.667  1.00  0.00     0.049 A 
ATOM     55  C   UNL     1       3.271   8.861   7.468  1.00  0.00     0.074 A 
ATOM     56  C   UNL     1       6.180  13.330   4.075  1.00  0.00     0.029 A 
ATOM     57  N   UNL     1       5.184  11.468   4.771  1.00  0.00    -0.354 N 
ATOM     58  N   UNL     1       3.856   9.738   6.690  1.00  0.00    -0.248 NA
ATOM     59  C   UNL     1       3.160   9.288   8.873  1.00  0.00     0.031 C 
ATOM     60  C   UNL     1       5.912  13.459   5.441  1.00  0.00     0.029 A 
ATOM     61  C   UNL     1       5.269  12.308   5.867  1.00  0.00     0.049 A 
ATOM     62  H   UNL     1       4.778  10.571   4.775  1.00  0.00     0.167 HD
ATOM     63  C   UNL     1       4.152  10.828   7.502  1.00  0.00     0.074 A 
ATOM     64  C   UNL     1       3.665  10.512   8.826  1.00  0.00     0.031 C 
ATOM     65  C   UNL     1       4.773  11.989   7.179  1.00  0.00     0.031 A 
BRANCH  52  66
ATOM     66  C   UNL     1       6.573  12.252   1.294  1.00  0.00    -0.014 A 
ATOM     67  C   UNL     1       5.868  12.860   0.244  1.00  0.00     0.009 A 
ATOM     68  C   UNL     1       7.965  12.416   1.367  1.00  0.00     0.009 A 
ATOM     69  C   UNL     1       6.548  13.601  -0.725  1.00  0.00     0.001 A 
ATOM     70  C   UNL     1       8.638  13.177   0.411  1.00  0.00     0.001 A 
ATOM     71  C   UNL     1       7.931  13.764  -0.637  1.00  0.00     0.000 A 
ENDBRANCH  52  66
BRANCH  53  72
ATOM     72  C   UNL     1       2.068   6.683   8.189  1.00  0.00    -0.014 A 
ATOM     73  C   UNL     1       0.866   7.077   8.798  1.00  0.00     0.009 A 
ATOM     74  C   UNL     1       2.718   5.530   8.655  1.00  0.00     0.009 A 
ATOM     75  C   UNL     1       0.351   6.357   9.879  1.00  0.00     0.001 A 
ATOM     76  C   UNL     1       2.185   4.795   9.716  1.00  0.00     0.001 A 
ATOM     77  C   UNL     1       1.011   5.217  10.336  1.00  0.00     0.000 A 
ENDBRANCH  53  72
BRANCH  65  78
ATOM     78  C   UNL     1       4.921  13.022   8.262  1.00  0.00    -0.014 A 
ATOM     79  C   UNL     1       5.818  12.843   9.327  1.00  0.00     0.009 A 
ATOM     80  C   UNL     1       4.171  14.207   8.198  1.00  0.00     0.009 A 
ATOM     81  C   UNL     1       5.928  13.811  10.328  1.00  0.00     0.001 A 
ATOM     82  C   UNL     1       4.306  15.186   9.183  1.00  0.00     0.001 A 
ATOM     83  C   UNL     1       5.175  14.983  10.253  1.00  0.00     0.000 A 
ENDBRANCH  65  78
ENDBRANCH  39  40
ENDBRANCH  32  34
ENDBRANCH  31  32
ENDBRANCH  30  31
ENDBRANCH  29  30
ENDBRANCH  28  29
ENDBRANCH  27  28
ENDBRANCH  26  27
ENDBRANCH   1  26
TORSDOF 22
