REMARK SMILES Cc1cc(NC(=O)[C@@H]2[C@@H](C(=O)OCCOCCOCCOC(=O)c3ccc(-c4c5nc(c(-c6ccccc6)c6ccc([nH]6)c(-c6ccccc6)c6nc(c(-c7ccccc7)c7ccc4[nH]7)C=C6)C=C5)cc3)C2(C)C)on1
REMARK SMILES IDX 16 1 15 2 14 3 13 4 12 5 10 6 11 7 9 8 8 9 72 10 73 11 74 12
REMARK SMILES IDX 6 13 5 14 7 16 4 17 1 18 2 19 3 20 76 21 75 22 17 23 18 24
REMARK SMILES IDX 19 25 20 26 21 27 22 28 23 29 24 30 25 31 71 32 26 33 70 34
REMARK SMILES IDX 27 35 28 36 29 37 64 38 30 39 69 40 63 41 65 42 31 43 68 44
REMARK SMILES IDX 62 45 61 46 32 48 54 49 39 50 53 51 40 52 43 53 52 54 66 55
REMARK SMILES IDX 41 56 42 57 51 59 67 60 44 61 33 62 34 63 38 64 35 65 37 66
REMARK SMILES IDX 36 67 55 68 56 69 60 70 57 71 59 72 58 73 45 74 46 75 50 76
REMARK SMILES IDX 47 77 49 78 48 79
REMARK H PARENT 5 15 65 47 43 58
REMARK Flexibility Score: inf
ROOT
ATOM      1  C   UNL     1      -8.469  -0.528   1.179  1.00  0.00     0.188 C 
ENDROOT
BRANCH   1   2
ATOM      2  O   UNL     1      -8.977  -1.815   0.830  1.00  0.00    -0.376 OA
BRANCH   2   3
ATOM      3  C   UNL     1      -8.097  -2.939   0.872  1.00  0.00     0.202 C 
BRANCH   3   4
ATOM      4  C   UNL     1      -6.841  -2.842   0.005  1.00  0.00     0.261 C 
BRANCH   4   5
ATOM      5  O   UNL     1      -5.994  -1.776   0.458  1.00  0.00    -0.463 OA
BRANCH   5   6
ATOM      6  C   UNL     1      -5.319  -1.115  -0.509  1.00  0.00     0.310 C 
ATOM      7  O   UNL     1      -5.195  -1.474  -1.671  1.00  0.00    -0.252 OA
BRANCH   6   8
ATOM      8  C   UNL     1      -4.847   0.224  -0.067  1.00  0.00     0.118 C 
ATOM      9  C   UNL     1      -3.364   0.449  -0.132  1.00  0.00     0.100 C 
ATOM     10  C   UNL     1      -4.060   0.569   1.210  1.00  0.00    -0.009 C 
ATOM     11  C   UNL     1      -3.731  -0.511   2.224  1.00  0.00     0.013 C 
ATOM     12  C   UNL     1      -4.304   1.898   1.883  1.00  0.00     0.013 C 
BRANCH   9  13
ATOM     13  C   UNL     1      -2.721   1.400  -1.074  1.00  0.00     0.231 C 
ATOM     14  N   UNL     1      -2.849   2.757  -1.158  1.00  0.00    -0.294 N 
ATOM     15  H   UNL     1      -2.069   3.198  -1.565  1.00  0.00     0.173 HD
ATOM     16  O   UNL     1      -1.847   0.919  -1.803  1.00  0.00    -0.274 OA
BRANCH  14  17
ATOM     17  C   UNL     1      -3.832   3.626  -0.795  1.00  0.00     0.231 A 
ATOM     18  C   UNL     1      -5.527   6.708   0.174  1.00  0.00     0.070 C 
ATOM     19  C   UNL     1      -5.061   5.365  -0.238  1.00  0.00     0.083 A 
ATOM     20  C   UNL     1      -3.771   4.992  -0.675  1.00  0.00     0.096 A 
ATOM     21  N   UNL     1      -5.879   4.307  -0.187  1.00  0.00    -0.083 NA
ATOM     22  O   UNL     1      -5.102   3.221  -0.566  1.00  0.00    -0.338 OA
ENDBRANCH  14  17
ENDBRANCH   9  13
ENDBRANCH   6   8
ENDBRANCH   5   6
ENDBRANCH   4   5
ENDBRANCH   3   4
ENDBRANCH   2   3
ENDBRANCH   1   2
BRANCH   1  23
ATOM     23  C   UNL     1      -7.592  -0.392   2.436  1.00  0.00     0.188 C 
BRANCH  23  24
ATOM     24  O   UNL     1      -7.691  -1.498   3.317  1.00  0.00    -0.376 OA
BRANCH  24  25
ATOM     25  C   UNL     1      -8.166  -1.213   4.623  1.00  0.00     0.202 C 
BRANCH  25  26
ATOM     26  C   UNL     1      -9.669  -0.923   4.681  1.00  0.00     0.261 C 
BRANCH  26  27
ATOM     27  O   UNL     1     -10.103   0.198   3.892  1.00  0.00    -0.460 OA
BRANCH  27  28
ATOM     28  C   UNL     1      -9.681   1.428   4.266  1.00  0.00     0.338 C 
ATOM     29  O   UNL     1      -8.973   1.711   5.214  1.00  0.00    -0.246 OA
BRANCH  28  30
ATOM     30  C   UNL     1     -10.083   2.364   3.196  1.00  0.00     0.060 A 
ATOM     31  C   UNL     1      -9.102   3.102   2.519  1.00  0.00     0.016 A 
ATOM     32  C   UNL     1     -11.427   2.470   2.832  1.00  0.00     0.016 A 
ATOM     33  C   UNL     1      -9.469   3.947   1.468  1.00  0.00     0.010 A 
ATOM     34  C   UNL     1     -11.793   3.331   1.797  1.00  0.00     0.010 A 
ATOM     35  C   UNL     1     -10.819   4.081   1.116  1.00  0.00    -0.014 A 
BRANCH  35  36
ATOM     36  C   UNL     1     -11.256   5.077   0.111  1.00  0.00     0.031 A 
ATOM     37  C   UNL     1     -11.734   6.421   0.579  1.00  0.00     0.074 A 
ATOM     38  C   UNL     1     -11.287   4.770  -1.198  1.00  0.00     0.049 A 
ATOM     39  N   UNL     1     -12.270   7.396  -0.109  1.00  0.00    -0.248 NA
ATOM     40  C   UNL     1     -11.591   6.699   2.016  1.00  0.00     0.031 C 
ATOM     41  C   UNL     1     -10.809   3.521  -1.788  1.00  0.00     0.029 A 
ATOM     42  N   UNL     1     -11.763   5.489  -2.266  1.00  0.00    -0.354 N 
ATOM     43  C   UNL     1     -12.539   8.400   0.811  1.00  0.00     0.074 A 
ATOM     44  C   UNL     1     -12.120   7.911   2.108  1.00  0.00     0.031 C 
ATOM     45  C   UNL     1     -11.030   3.556  -3.114  1.00  0.00     0.029 A 
ATOM     46  C   UNL     1     -11.702   4.808  -3.457  1.00  0.00     0.049 A 
ATOM     47  H   UNL     1     -12.116   6.405  -2.186  1.00  0.00     0.167 HD
ATOM     48  C   UNL     1     -13.089   9.618   0.598  1.00  0.00     0.031 A 
ATOM     49  C   UNL     1     -12.165   5.144  -4.676  1.00  0.00     0.031 A 
ATOM     50  C   UNL     1     -13.531  10.096  -0.684  1.00  0.00     0.049 A 
ATOM     51  C   UNL     1     -12.887   6.451  -4.864  1.00  0.00     0.074 A 
ATOM     52  C   UNL     1     -14.062  11.332  -1.008  1.00  0.00     0.029 A 
ATOM     53  N   UNL     1     -13.518   9.347  -1.850  1.00  0.00    -0.354 N 
ATOM     54  N   UNL     1     -13.097   7.412  -3.997  1.00  0.00    -0.248 NA
ATOM     55  C   UNL     1     -13.448   6.713  -6.198  1.00  0.00     0.031 C 
ATOM     56  C   UNL     1     -14.428  11.309  -2.358  1.00  0.00     0.029 A 
ATOM     57  C   UNL     1     -14.077  10.077  -2.885  1.00  0.00     0.049 A 
ATOM     58  H   UNL     1     -13.163   8.433  -1.931  1.00  0.00     0.167 HD
ATOM     59  C   UNL     1     -13.797   8.396  -4.683  1.00  0.00     0.074 A 
ATOM     60  C   UNL     1     -13.967   7.923  -6.041  1.00  0.00     0.031 C 
ATOM     61  C   UNL     1     -14.256   9.588  -4.228  1.00  0.00     0.031 A 
BRANCH  48  62
ATOM     62  C   UNL     1     -13.289  10.498   1.797  1.00  0.00    -0.014 A 
ATOM     63  C   UNL     1     -12.206  11.128   2.429  1.00  0.00     0.009 A 
ATOM     64  C   UNL     1     -14.585  10.709   2.292  1.00  0.00     0.009 A 
ATOM     65  C   UNL     1     -12.415  11.925   3.557  1.00  0.00     0.001 A 
ATOM     66  C   UNL     1     -14.793  11.525   3.405  1.00  0.00     0.001 A 
ATOM     67  C   UNL     1     -13.707  12.124   4.042  1.00  0.00     0.000 A 
ENDBRANCH  48  62
BRANCH  49  68
ATOM     68  C   UNL     1     -11.995   4.211  -5.819  1.00  0.00    -0.014 A 
ATOM     69  C   UNL     1     -11.097   4.513  -6.854  1.00  0.00     0.009 A 
ATOM     70  C   UNL     1     -12.738   3.022  -5.889  1.00  0.00     0.009 A 
ATOM     71  C   UNL     1     -10.956   3.649  -7.942  1.00  0.00     0.001 A 
ATOM     72  C   UNL     1     -12.578   2.149  -6.967  1.00  0.00     0.001 A 
ATOM     73  C   UNL     1     -11.692   2.466  -7.995  1.00  0.00     0.000 A 
ENDBRANCH  49  68
BRANCH  61  74
ATOM     74  C   UNL     1     -14.976  10.471  -5.207  1.00  0.00    -0.014 A 
ATOM     75  C   UNL     1     -16.291  10.186  -5.606  1.00  0.00     0.009 A 
ATOM     76  C   UNL     1     -14.351  11.628  -5.696  1.00  0.00     0.009 A 
ATOM     77  C   UNL     1     -16.957  11.034  -6.493  1.00  0.00     0.001 A 
ATOM     78  C   UNL     1     -15.028  12.487  -6.563  1.00  0.00     0.001 A 
ATOM     79  C   UNL     1     -16.328  12.186  -6.966  1.00  0.00     0.000 A 
ENDBRANCH  61  74
ENDBRANCH  35  36
ENDBRANCH  28  30
ENDBRANCH  27  28
ENDBRANCH  26  27
ENDBRANCH  25  26
ENDBRANCH  24  25
ENDBRANCH  23  24
ENDBRANCH   1  23
TORSDOF 19
