REMARK SMILES Cc1ccc(NC(=O)c2cnn3c2NC2=C(C(=O)CCC2)[C@H]3c2ccc(C(=O)OCCOCCOCCOC(=O)c3ccc(-c4c5nc(c(-c6ccccc6)c6ccc([nH]6)c(-c6ccccc6)c6nc(c(-c7ccccc7)c7ccc4[nH]7)C=C6)C=C5)cc3)cc2)cc1
REMARK SMILES IDX 33 1 32 2 31 3 30 4 29 5 27 6 28 7 26 8 23 9 24 10 90 11
REMARK SMILES IDX 25 12 89 13 22 14 9 15 10 16 13 17 11 18 12 19 14 20 15 21
REMARK SMILES IDX 16 23 21 24 17 25 20 26 18 27 19 28 7 29 6 30 8 32 5 33 1 34
REMARK SMILES IDX 2 35 3 36 92 37 4 38 91 39 34 40 35 41 36 42 37 43 38 44
REMARK SMILES IDX 39 45 40 46 41 47 42 48 88 49 43 50 87 51 44 52 45 53 46 54
REMARK SMILES IDX 81 55 47 56 86 57 80 58 82 59 48 60 85 61 79 62 78 63 49 65
REMARK SMILES IDX 71 66 56 67 70 68 57 69 60 70 69 71 83 72 58 73 59 74 68 76
REMARK SMILES IDX 84 77 61 78 50 79 51 80 55 81 52 82 54 83 53 84 72 85 73 86
REMARK SMILES IDX 77 87 74 88 76 89 75 90 62 91 63 92 67 93 64 94 66 95 65 96
REMARK H PARENT 14 22 6 31 82 64 60 75
REMARK Flexibility Score: inf
ROOT
ATOM      1  C   UNL     1       0.688  -4.596  -9.832  1.00  0.00     0.188 C 
ENDROOT
BRANCH   1   2
ATOM      2  O   UNL     1      -0.239  -3.721  -9.145  1.00  0.00    -0.376 OA
BRANCH   2   3
ATOM      3  C   UNL     1       0.242  -2.370  -9.013  1.00  0.00     0.202 C 
BRANCH   3   4
ATOM      4  C   UNL     1      -0.537  -1.368  -8.056  1.00  0.00     0.261 C 
BRANCH   4   5
ATOM      5  O   UNL     1      -0.682  -1.429  -6.551  1.00  0.00    -0.460 OA
BRANCH   5   6
ATOM      6  C   UNL     1      -0.507  -2.601  -5.885  1.00  0.00     0.338 C 
ATOM      7  O   UNL     1      -0.004  -3.532  -6.490  1.00  0.00    -0.246 OA
BRANCH   6   8
ATOM      8  C   UNL     1      -1.075  -2.866  -4.431  1.00  0.00     0.060 A 
ATOM      9  C   UNL     1      -1.692  -4.710  -2.131  1.00  0.00    -0.019 A 
ATOM     10  C   UNL     1      -2.463  -4.638  -3.273  1.00  0.00     0.007 A 
ATOM     11  C   UNL     1      -0.550  -3.871  -2.187  1.00  0.00     0.007 A 
ATOM     12  C   UNL     1      -2.219  -3.677  -4.288  1.00  0.00     0.016 A 
ATOM     13  C   UNL     1      -0.232  -2.997  -3.323  1.00  0.00     0.016 A 
BRANCH   9  14
ATOM     14  C   UNL     1      -2.262  -5.439  -0.833  1.00  0.00     0.175 C 
ATOM     15  C   UNL     1      -3.790  -2.449   0.071  1.00  0.00     0.102 A 
ATOM     16  C   UNL     1      -2.924  -2.684   1.184  1.00  0.00     0.151 A 
ATOM     17  C   UNL     1      -3.976  -3.710  -0.449  1.00  0.00     0.142 A 
ATOM     18  N   UNL     1      -2.308  -3.871   1.113  1.00  0.00    -0.178 NA
ATOM     19  N   UNL     1      -2.829  -4.361  -0.019  1.00  0.00    -0.237 N 
ATOM     20  N   UNL     1      -4.798  -4.382  -1.316  1.00  0.00    -0.343 N 
ATOM     21  C   UNL     1      -4.666  -5.778  -1.437  1.00  0.00     0.026 C 
ATOM     22  H   UNL     1      -5.471  -3.896  -1.845  1.00  0.00     0.168 HD
ATOM     23  C   UNL     1      -3.502  -6.342  -1.014  1.00  0.00     0.044 C 
ATOM     24  C   UNL     1      -5.870  -6.648  -1.692  1.00  0.00     0.055 C 
ATOM     25  C   UNL     1      -3.821  -7.324   0.087  1.00  0.00     0.163 C 
ATOM     26  C   UNL     1      -6.304  -7.363  -0.415  1.00  0.00     0.014 C 
ATOM     27  O   UNL     1      -2.936  -8.012   0.589  1.00  0.00    -0.294 OA
ATOM     28  C   UNL     1      -5.243  -7.266   0.678  1.00  0.00     0.081 C 
BRANCH  15  29
ATOM     29  C   UNL     1      -4.303  -1.197  -0.422  1.00  0.00     0.261 C 
ATOM     30  N   UNL     1      -3.462  -0.091  -0.430  1.00  0.00    -0.322 N 
ATOM     31  H   UNL     1      -3.934   0.770  -0.510  1.00  0.00     0.170 HD
ATOM     32  O   UNL     1      -5.461  -1.081  -0.821  1.00  0.00    -0.269 OA
BRANCH  30  33
ATOM     33  C   UNL     1      -2.051   0.031  -0.344  1.00  0.00     0.041 A 
ATOM     34  C   UNL     1       2.247   0.491   0.079  1.00  0.00     0.044 C 
ATOM     35  C   UNL     1       0.762   0.364  -0.088  1.00  0.00    -0.051 A 
ATOM     36  C   UNL     1       0.219  -0.875  -0.398  1.00  0.00     0.005 A 
ATOM     37  C   UNL     1      -0.109   1.445   0.070  1.00  0.00     0.005 A 
ATOM     38  C   UNL     1      -1.163  -1.018  -0.559  1.00  0.00     0.026 A 
ATOM     39  C   UNL     1      -1.501   1.281  -0.063  1.00  0.00     0.026 A 
ENDBRANCH  30  33
ENDBRANCH  15  29
ENDBRANCH   9  14
ENDBRANCH   6   8
ENDBRANCH   5   6
ENDBRANCH   4   5
ENDBRANCH   3   4
ENDBRANCH   2   3
ENDBRANCH   1   2
BRANCH   1  40
ATOM     40  C   UNL     1       1.803  -5.177  -8.941  1.00  0.00     0.188 C 
BRANCH  40  41
ATOM     41  O   UNL     1       2.324  -4.186  -8.072  1.00  0.00    -0.376 OA
BRANCH  41  42
ATOM     42  C   UNL     1       3.723  -4.130  -7.876  1.00  0.00     0.202 C 
BRANCH  42  43
ATOM     43  C   UNL     1       4.350  -5.386  -7.255  1.00  0.00     0.261 C 
BRANCH  43  44
ATOM     44  O   UNL     1       3.520  -5.871  -6.188  1.00  0.00    -0.460 OA
BRANCH  44  45
ATOM     45  C   UNL     1       3.057  -7.170  -6.333  1.00  0.00     0.338 C 
ATOM     46  O   UNL     1       3.620  -8.048  -6.888  1.00  0.00    -0.246 OA
BRANCH  45  47
ATOM     47  C   UNL     1       1.598  -7.181  -5.963  1.00  0.00     0.060 A 
ATOM     48  C   UNL     1       0.727  -8.093  -6.550  1.00  0.00     0.016 A 
ATOM     49  C   UNL     1       1.004  -6.141  -5.301  1.00  0.00     0.016 A 
ATOM     50  C   UNL     1      -0.648  -7.750  -6.751  1.00  0.00     0.010 A 
ATOM     51  C   UNL     1      -0.369  -5.877  -5.530  1.00  0.00     0.010 A 
ATOM     52  C   UNL     1      -1.202  -6.502  -6.444  1.00  0.00    -0.014 A 
BRANCH  52  53
ATOM     53  C   UNL     1      -2.382  -5.848  -7.271  1.00  0.00     0.031 A 
ATOM     54  C   UNL     1      -3.422  -4.722  -7.006  1.00  0.00     0.074 A 
ATOM     55  C   UNL     1      -2.511  -6.207  -8.569  1.00  0.00     0.049 A 
ATOM     56  N   UNL     1      -4.696  -4.748  -6.667  1.00  0.00    -0.248 NA
ATOM     57  C   UNL     1      -3.026  -3.339  -7.296  1.00  0.00     0.031 C 
ATOM     58  C   UNL     1      -3.374  -5.620  -9.594  1.00  0.00     0.029 A 
ATOM     59  N   UNL     1      -2.020  -7.341  -9.181  1.00  0.00    -0.354 N 
ATOM     60  C   UNL     1      -5.170  -3.399  -6.694  1.00  0.00     0.074 A 
ATOM     61  C   UNL     1      -3.991  -2.574  -6.784  1.00  0.00     0.031 C 
ATOM     62  C   UNL     1      -3.564  -6.531 -10.561  1.00  0.00     0.029 A 
ATOM     63  C   UNL     1      -2.931  -7.766 -10.136  1.00  0.00     0.049 A 
ATOM     64  H   UNL     1      -1.163  -7.778  -8.973  1.00  0.00     0.167 HD
ATOM     65  C   UNL     1      -6.298  -2.900  -7.310  1.00  0.00     0.031 A 
ATOM     66  C   UNL     1      -3.538  -8.982  -9.991  1.00  0.00     0.031 A 
ATOM     67  C   UNL     1      -6.709  -3.758  -8.388  1.00  0.00     0.049 A 
ATOM     68  C   UNL     1      -5.042  -8.901  -9.839  1.00  0.00     0.074 A 
ATOM     69  C   UNL     1      -6.525  -3.672  -9.759  1.00  0.00     0.029 A 
ATOM     70  N   UNL     1      -7.196  -5.003  -8.115  1.00  0.00    -0.354 N 
ATOM     71  N   UNL     1      -5.699  -7.783  -9.714  1.00  0.00    -0.248 NA
ATOM     72  C   UNL     1      -5.933 -10.059  -9.775  1.00  0.00     0.031 C 
ATOM     73  C   UNL     1      -6.914  -4.905 -10.323  1.00  0.00     0.029 A 
ATOM     74  C   UNL     1      -7.339  -5.710  -9.285  1.00  0.00     0.049 A 
ATOM     75  H   UNL     1      -7.413  -5.343  -7.217  1.00  0.00     0.167 HD
ATOM     76  C   UNL     1      -7.025  -8.041  -9.486  1.00  0.00     0.074 A 
ATOM     77  C   UNL     1      -7.132  -9.479  -9.578  1.00  0.00     0.031 C 
ATOM     78  C   UNL     1      -7.896  -7.037  -9.190  1.00  0.00     0.031 A 
BRANCH  65  79
ATOM     79  C   UNL     1      -6.685  -1.403  -7.325  1.00  0.00    -0.014 A 
ATOM     80  C   UNL     1      -7.389  -0.837  -8.413  1.00  0.00     0.009 A 
ATOM     81  C   UNL     1      -6.388  -0.516  -6.272  1.00  0.00     0.009 A 
ATOM     82  C   UNL     1      -7.651   0.539  -8.516  1.00  0.00     0.001 A 
ATOM     83  C   UNL     1      -6.637   0.869  -6.375  1.00  0.00     0.001 A 
ATOM     84  C   UNL     1      -7.246   1.400  -7.508  1.00  0.00     0.000 A 
ENDBRANCH  65  79
BRANCH  66  85
ATOM     85  C   UNL     1      -2.634 -10.025  -9.412  1.00  0.00    -0.014 A 
ATOM     86  C   UNL     1      -1.465 -10.328 -10.148  1.00  0.00     0.009 A 
ATOM     87  C   UNL     1      -2.682 -10.419  -8.065  1.00  0.00     0.009 A 
ATOM     88  C   UNL     1      -0.339 -10.882  -9.535  1.00  0.00     0.001 A 
ATOM     89  C   UNL     1      -1.554 -11.008  -7.458  1.00  0.00     0.001 A 
ATOM     90  C   UNL     1      -0.376 -11.205  -8.184  1.00  0.00     0.000 A 
ENDBRANCH  66  85
BRANCH  78  91
ATOM     91  C   UNL     1      -9.315  -7.125  -8.684  1.00  0.00    -0.014 A 
ATOM     92  C   UNL     1      -9.826  -8.221  -7.989  1.00  0.00     0.009 A 
ATOM     93  C   UNL     1     -10.114  -5.950  -8.706  1.00  0.00     0.009 A 
ATOM     94  C   UNL     1     -11.068  -8.145  -7.341  1.00  0.00     0.001 A 
ATOM     95  C   UNL     1     -11.324  -5.855  -8.019  1.00  0.00     0.001 A 
ATOM     96  C   UNL     1     -11.804  -6.960  -7.336  1.00  0.00     0.000 A 
ENDBRANCH  78  91
ENDBRANCH  52  53
ENDBRANCH  45  47
ENDBRANCH  44  45
ENDBRANCH  43  44
ENDBRANCH  42  43
ENDBRANCH  41  42
ENDBRANCH  40  41
ENDBRANCH   1  40
TORSDOF 20
