REMARK SMILES COC(=O)c1ccc2c(c1)=N[C@H](c1cn(CCC(=O)OCCOCCOCCOC(=O)c3ccc(-c4c5nc(c(-c6ccccc6)c6ccc([nH]6)c(-c6ccccc6)c6nc(c(-c7ccccc7)c7ccc4[nH]7)C=C6)C=C5)cc3)c3ccccc13)N=2
REMARK SMILES IDX 23 1 22 2 21 3 20 4 18 5 19 6 17 7 16 8 15 9 13 10 14 11
REMARK SMILES IDX 85 12 80 13 84 14 81 15 83 16 82 17 12 18 5 19 6 20 10 21
REMARK SMILES IDX 7 22 9 23 8 24 11 25 86 26 3 27 4 28 2 29 1 30 24 31 25 32
REMARK SMILES IDX 26 33 27 34 28 35 29 36 30 37 31 38 32 39 33 40 79 41 34 42
REMARK SMILES IDX 78 43 35 44 36 45 37 46 72 47 38 48 77 49 71 50 73 51 39 52
REMARK SMILES IDX 76 53 70 54 69 55 40 57 62 58 47 59 61 60 48 61 51 62 60 63
REMARK SMILES IDX 74 64 49 65 50 66 59 68 75 69 52 70 41 71 42 72 46 73 43 74
REMARK SMILES IDX 45 75 44 76 63 77 64 78 68 79 65 80 67 81 66 82 53 83 54 84
REMARK SMILES IDX 58 85 55 86 57 87 56 88
REMARK H PARENT 73 56 51 67
REMARK Flexibility Score: inf
ROOT
ATOM      1  O   UNL     1      -3.782   0.454 -13.582  1.00  0.00    -0.376 OA
ENDROOT
BRANCH   1   2
ATOM      2  C   UNL     1      -4.147  -0.469 -12.555  1.00  0.00     0.202 C 
BRANCH   2   3
ATOM      3  C   UNL     1      -3.717  -1.934 -12.735  1.00  0.00     0.261 C 
BRANCH   3   4
ATOM      4  O   UNL     1      -2.456  -2.259 -12.085  1.00  0.00    -0.463 OA
BRANCH   4   5
ATOM      5  C   UNL     1      -1.395  -2.320 -12.916  1.00  0.00     0.307 C 
ATOM      6  O   UNL     1      -1.508  -2.119 -14.123  1.00  0.00    -0.252 OA
BRANCH   5   7
ATOM      7  C   UNL     1      -0.047  -2.666 -12.298  1.00  0.00     0.144 C 
BRANCH   7   8
ATOM      8  C   UNL     1       0.718  -1.829 -11.292  1.00  0.00     0.134 C 
BRANCH   8   9
ATOM      9  N   UNL     1       0.367  -2.206  -9.952  1.00  0.00    -0.346 N 
ATOM     10  C   UNL     1      -0.260  -3.640  -8.426  1.00  0.00     0.024 A 
ATOM     11  C   UNL     1       0.753  -3.359  -9.331  1.00  0.00     0.094 A 
ATOM     12  C   UNL     1      -1.343  -2.767  -8.770  1.00  0.00     0.007 A 
ATOM     13  C   UNL     1      -0.695  -1.662  -9.292  1.00  0.00     0.048 A 
ATOM     14  C   UNL     1      -2.705  -2.646  -8.456  1.00  0.00     0.011 A 
ATOM     15  C   UNL     1      -1.191  -0.369  -9.196  1.00  0.00     0.027 A 
ATOM     16  C   UNL     1      -3.281  -1.373  -8.479  1.00  0.00     0.001 A 
ATOM     17  C   UNL     1      -2.504  -0.245  -8.746  1.00  0.00     0.002 A 
BRANCH  10  18
ATOM     18  C   UNL     1      -0.105  -4.394  -7.132  1.00  0.00     0.255 C 
ATOM     19  C   UNL     1       0.207  -1.431  -3.752  1.00  0.00     0.062 A 
ATOM     20  C   UNL     1      -1.222  -1.717  -3.699  1.00  0.00     0.018 A 
ATOM     21  C   UNL     1       1.023  -1.979  -4.669  1.00  0.00     0.046 A 
ATOM     22  C   UNL     1      -1.831  -2.588  -4.517  1.00  0.00     0.031 A 
ATOM     23  C   UNL     1       0.443  -2.974  -5.577  1.00  0.00     0.087 A 
ATOM     24  C   UNL     1      -0.999  -3.289  -5.496  1.00  0.00     0.086 A 
ATOM     25  N   UNL     1       1.044  -3.728  -6.431  1.00  0.00    -0.252 NA
ATOM     26  N   UNL     1      -1.334  -4.234  -6.305  1.00  0.00    -0.252 NA
BRANCH  19  27
ATOM     27  C   UNL     1       0.856  -0.549  -2.741  1.00  0.00     0.337 C 
ATOM     28  O   UNL     1       1.806   0.189  -2.966  1.00  0.00    -0.246 OA
BRANCH  27  29
ATOM     29  O   UNL     1       0.282  -0.773  -1.532  1.00  0.00    -0.465 OA
ATOM     30  C   UNL     1       0.908  -0.106  -0.435  1.00  0.00     0.282 C 
ENDBRANCH  27  29
ENDBRANCH  19  27
ENDBRANCH  10  18
ENDBRANCH   8   9
ENDBRANCH   7   8
ENDBRANCH   5   7
ENDBRANCH   4   5
ENDBRANCH   3   4
ENDBRANCH   2   3
ENDBRANCH   1   2
BRANCH   1  31
ATOM     31  C   UNL     1      -2.406   0.745 -13.782  1.00  0.00     0.188 C 
BRANCH  31  32
ATOM     32  C   UNL     1      -1.505   0.738 -12.547  1.00  0.00     0.188 C 
BRANCH  32  33
ATOM     33  O   UNL     1      -1.884   1.467 -11.399  1.00  0.00    -0.376 OA
BRANCH  33  34
ATOM     34  C   UNL     1      -2.289   2.804 -11.587  1.00  0.00     0.202 C 
BRANCH  34  35
ATOM     35  C   UNL     1      -1.155   3.744 -12.010  1.00  0.00     0.261 C 
BRANCH  35  36
ATOM     36  O   UNL     1      -0.559   3.317 -13.255  1.00  0.00    -0.460 OA
BRANCH  36  37
ATOM     37  C   UNL     1       0.801   3.234 -13.267  1.00  0.00     0.338 C 
ATOM     38  O   UNL     1       1.569   3.815 -12.520  1.00  0.00    -0.246 OA
BRANCH  37  39
ATOM     39  C   UNL     1       1.187   2.053 -14.096  1.00  0.00     0.060 A 
ATOM     40  C   UNL     1       0.528   1.723 -15.285  1.00  0.00     0.016 A 
ATOM     41  C   UNL     1       2.063   1.124 -13.514  1.00  0.00     0.016 A 
ATOM     42  C   UNL     1       0.704   0.449 -15.854  1.00  0.00     0.010 A 
ATOM     43  C   UNL     1       2.219  -0.152 -14.077  1.00  0.00     0.010 A 
ATOM     44  C   UNL     1       1.526  -0.515 -15.243  1.00  0.00    -0.014 A 
BRANCH  44  45
ATOM     45  C   UNL     1       1.967  -1.710 -16.003  1.00  0.00     0.031 A 
ATOM     46  C   UNL     1       2.819  -1.373 -17.158  1.00  0.00     0.074 A 
ATOM     47  C   UNL     1       1.814  -3.039 -15.796  1.00  0.00     0.049 A 
ATOM     48  N   UNL     1       2.515  -1.662 -18.379  1.00  0.00    -0.248 NA
ATOM     49  C   UNL     1       4.036  -0.579 -16.993  1.00  0.00     0.031 C 
ATOM     50  C   UNL     1       0.941  -3.743 -14.896  1.00  0.00     0.029 A 
ATOM     51  N   UNL     1       2.511  -4.093 -16.330  1.00  0.00    -0.354 N 
ATOM     52  C   UNL     1       3.579  -1.236 -19.144  1.00  0.00     0.074 A 
ATOM     53  C   UNL     1       4.434  -0.477 -18.262  1.00  0.00     0.031 C 
ATOM     54  C   UNL     1       1.376  -4.982 -14.612  1.00  0.00     0.029 A 
ATOM     55  C   UNL     1       2.419  -5.257 -15.574  1.00  0.00     0.049 A 
ATOM     56  H   UNL     1       3.025  -4.032 -17.167  1.00  0.00     0.167 HD
ATOM     57  C   UNL     1       3.759  -1.707 -20.405  1.00  0.00     0.031 A 
ATOM     58  C   UNL     1       2.794  -6.527 -15.833  1.00  0.00     0.031 A 
ATOM     59  C   UNL     1       2.566  -2.310 -20.946  1.00  0.00     0.049 A 
ATOM     60  C   UNL     1       2.760  -6.684 -17.293  1.00  0.00     0.074 A 
ATOM     61  C   UNL     1       1.282  -1.860 -21.189  1.00  0.00     0.029 A 
ATOM     62  N   UNL     1       2.493  -3.681 -21.010  1.00  0.00    -0.354 N 
ATOM     63  N   UNL     1       1.651  -6.696 -17.980  1.00  0.00    -0.248 NA
ATOM     64  C   UNL     1       3.960  -6.351 -18.035  1.00  0.00     0.031 C 
ATOM     65  C   UNL     1       0.434  -2.973 -20.922  1.00  0.00     0.029 A 
ATOM     66  C   UNL     1       1.247  -4.052 -20.568  1.00  0.00     0.049 A 
ATOM     67  H   UNL     1       3.205  -4.287 -21.317  1.00  0.00     0.167 HD
ATOM     68  C   UNL     1       1.936  -5.943 -19.110  1.00  0.00     0.074 A 
ATOM     69  C   UNL     1       3.395  -5.850 -19.136  1.00  0.00     0.031 C 
ATOM     70  C   UNL     1       0.971  -5.238 -19.775  1.00  0.00     0.031 A 
BRANCH  57  71
ATOM     71  C   UNL     1       5.116  -1.877 -21.013  1.00  0.00    -0.014 A 
ATOM     72  C   UNL     1       6.296  -1.930 -20.246  1.00  0.00     0.009 A 
ATOM     73  C   UNL     1       5.219  -2.219 -22.369  1.00  0.00     0.009 A 
ATOM     74  C   UNL     1       7.526  -2.276 -20.806  1.00  0.00     0.001 A 
ATOM     75  C   UNL     1       6.441  -2.613 -22.923  1.00  0.00     0.001 A 
ATOM     76  C   UNL     1       7.594  -2.636 -22.143  1.00  0.00     0.000 A 
ENDBRANCH  57  71
BRANCH  58  77
ATOM     77  C   UNL     1       3.456  -7.409 -14.848  1.00  0.00    -0.014 A 
ATOM     78  C   UNL     1       3.999  -6.872 -13.660  1.00  0.00     0.009 A 
ATOM     79  C   UNL     1       3.729  -8.751 -15.137  1.00  0.00     0.009 A 
ATOM     80  C   UNL     1       4.823  -7.628 -12.822  1.00  0.00     0.001 A 
ATOM     81  C   UNL     1       4.557  -9.511 -14.296  1.00  0.00     0.001 A 
ATOM     82  C   UNL     1       5.116  -8.945 -13.151  1.00  0.00     0.000 A 
ENDBRANCH  58  77
BRANCH  70  83
ATOM     83  C   UNL     1      -0.490  -5.489 -19.456  1.00  0.00    -0.014 A 
ATOM     84  C   UNL     1      -1.374  -5.726 -20.523  1.00  0.00     0.009 A 
ATOM     85  C   UNL     1      -1.043  -5.276 -18.181  1.00  0.00     0.009 A 
ATOM     86  C   UNL     1      -2.760  -5.724 -20.332  1.00  0.00     0.001 A 
ATOM     87  C   UNL     1      -2.431  -5.295 -17.985  1.00  0.00     0.001 A 
ATOM     88  C   UNL     1      -3.289  -5.505 -19.063  1.00  0.00     0.000 A 
ENDBRANCH  70  83
ENDBRANCH  44  45
ENDBRANCH  37  39
ENDBRANCH  36  37
ENDBRANCH  35  36
ENDBRANCH  34  35
ENDBRANCH  33  34
ENDBRANCH  32  33
ENDBRANCH  31  32
ENDBRANCH   1  31
TORSDOF 22
