REMARK SMILES Cc1ccc(C(=O)N2CCCC[C@@H]2C(=O)OCCOCCOCCOC(=O)c2ccc(-c3c4nc(c(-c5ccccc5)c5ccc([nH]5)c(-c5ccccc5)c5nc(c(-c6ccccc6)c6ccc3[nH]6)C=C5)C=C4)cc2)cc1S(=O)(=O)N1CCCCC1
REMARK SMILES IDX 20 1 19 2 18 3 17 4 16 5 14 6 15 7 13 8 8 9 9 10 10 11 12 12
REMARK SMILES IDX 11 13 6 14 7 15 5 16 1 17 2 18 3 19 77 20 4 21 76 22 78 23
REMARK SMILES IDX 79 24 80 25 81 26 82 27 86 28 83 29 85 30 84 31 21 32 22 33
REMARK SMILES IDX 23 34 24 35 25 36 26 37 27 38 28 39 29 40 75 41 30 42 74 43
REMARK SMILES IDX 31 44 32 45 33 46 68 47 34 48 73 49 67 50 69 51 35 52 72 53
REMARK SMILES IDX 66 54 65 55 36 57 58 58 43 59 57 60 44 61 47 62 56 63 70 64
REMARK SMILES IDX 45 65 46 66 55 68 71 69 48 70 37 71 38 72 42 73 39 74 41 75
REMARK SMILES IDX 40 76 59 77 60 78 64 79 61 80 63 81 62 82 49 83 50 84 54 85
REMARK SMILES IDX 51 86 53 87 52 88
REMARK H PARENT 69 56 47 67
REMARK Flexibility Score: inf
ROOT
ATOM      1  C   UNL     1      -1.276   1.415  -5.993  1.00  0.00     0.188 C 
ENDROOT
BRANCH   1   2
ATOM      2  O   UNL     1      -1.483   0.004  -5.728  1.00  0.00    -0.376 OA
BRANCH   2   3
ATOM      3  C   UNL     1      -2.707  -0.734  -5.335  1.00  0.00     0.202 C 
BRANCH   3   4
ATOM      4  C   UNL     1      -3.976  -0.805  -4.005  1.00  0.00     0.261 C 
BRANCH   4   5
ATOM      5  O   UNL     1      -4.466   0.373  -2.632  1.00  0.00    -0.462 OA
BRANCH   5   6
ATOM      6  C   UNL     1      -3.805   1.206  -1.436  1.00  0.00     0.328 C 
ATOM      7  O   UNL     1      -2.592   1.299  -1.189  1.00  0.00    -0.250 OA
BRANCH   6   8
ATOM      8  C   UNL     1      -4.518   2.060  -0.420  1.00  0.00     0.195 C 
ATOM      9  N   UNL     1      -4.442   1.609   1.029  1.00  0.00    -0.325 N 
ATOM     10  C   UNL     1      -5.485   2.094   1.920  1.00  0.00     0.121 C 
ATOM     11  C   UNL     1      -6.803   2.441   1.262  1.00  0.00     0.022 C 
ATOM     12  C   UNL     1      -5.800   2.619  -0.983  1.00  0.00     0.037 C 
ATOM     13  C   UNL     1      -6.578   3.361   0.077  1.00  0.00     0.005 C 
BRANCH   9  14
ATOM     14  C   UNL     1      -3.262   1.325   1.824  1.00  0.00     0.254 C 
ATOM     15  O   UNL     1      -3.387   0.934   2.995  1.00  0.00    -0.269 OA
BRANCH  14  16
ATOM     16  C   UNL     1      -1.859   1.239   1.333  1.00  0.00     0.041 A 
ATOM     17  C   UNL     1       2.915  -0.714   0.089  1.00  0.00     0.046 C 
ATOM     18  C   UNL     1       0.996   0.356   0.514  1.00  0.00    -0.031 A 
ATOM     19  C   UNL     1      -0.393  -0.333   0.351  1.00  0.00     0.005 A 
ATOM     20  C   UNL     1       0.642   1.810   1.002  1.00  0.00     0.086 A 
ATOM     21  C   UNL     1      -1.625  -0.018   0.880  1.00  0.00     0.014 A 
ATOM     22  C   UNL     1      -0.765   2.157   1.386  1.00  0.00     0.035 A 
BRANCH  20  23
ATOM     23  S   UNL     1       1.764   3.511   1.177  1.00  0.00     0.243 S 
ATOM     24  O   UNL     1       1.208   4.430   0.207  1.00  0.00    -0.207 OA
ATOM     25  O   UNL     1       1.636   3.816   2.591  1.00  0.00    -0.207 OA
BRANCH  23  26
ATOM     26  N   UNL     1       3.528   3.467   0.860  1.00  0.00    -0.198 NA
ATOM     27  C   UNL     1       4.388   3.114   2.024  1.00  0.00     0.102 C 
ATOM     28  C   UNL     1       4.084   3.424  -0.538  1.00  0.00     0.102 C 
ATOM     29  C   UNL     1       5.752   2.462   1.737  1.00  0.00     0.017 C 
ATOM     30  C   UNL     1       5.456   2.709  -0.738  1.00  0.00     0.017 C 
ATOM     31  C   UNL     1       5.985   1.818   0.382  1.00  0.00     0.003 C 
ENDBRANCH  23  26
ENDBRANCH  20  23
ENDBRANCH  14  16
ENDBRANCH   9  14
ENDBRANCH   6   8
ENDBRANCH   5   6
ENDBRANCH   4   5
ENDBRANCH   3   4
ENDBRANCH   2   3
ENDBRANCH   1   2
BRANCH   1  32
ATOM     32  C   UNL     1      -2.255   2.076  -6.879  1.00  0.00     0.188 C 
BRANCH  32  33
ATOM     33  O   UNL     1      -3.425   1.352  -6.646  1.00  0.00    -0.376 OA
BRANCH  33  34
ATOM     34  C   UNL     1      -4.334   1.133  -7.669  1.00  0.00     0.202 C 
BRANCH  34  35
ATOM     35  C   UNL     1      -4.624   2.448  -8.362  1.00  0.00     0.261 C 
BRANCH  35  36
ATOM     36  O   UNL     1      -5.295   3.403  -7.456  1.00  0.00    -0.460 OA
BRANCH  36  37
ATOM     37  C   UNL     1      -4.604   4.259  -6.613  1.00  0.00     0.338 C 
ATOM     38  O   UNL     1      -4.073   5.294  -6.976  1.00  0.00    -0.246 OA
BRANCH  37  39
ATOM     39  C   UNL     1      -4.538   3.767  -5.184  1.00  0.00     0.060 A 
ATOM     40  C   UNL     1      -3.505   4.035  -4.261  1.00  0.00     0.016 A 
ATOM     41  C   UNL     1      -5.204   2.631  -4.950  1.00  0.00     0.016 A 
ATOM     42  C   UNL     1      -2.826   2.969  -3.502  1.00  0.00     0.010 A 
ATOM     43  C   UNL     1      -4.399   1.631  -4.401  1.00  0.00     0.010 A 
ATOM     44  C   UNL     1      -3.040   1.607  -3.726  1.00  0.00    -0.014 A 
BRANCH  44  45
ATOM     45  C   UNL     1      -2.165   0.120  -2.941  1.00  0.00     0.031 A 
ATOM     46  C   UNL     1      -2.933  -1.173  -1.800  1.00  0.00     0.074 A 
ATOM     47  C   UNL     1      -0.859  -0.171  -3.194  1.00  0.00     0.049 A 
ATOM     48  N   UNL     1      -2.388  -2.272  -1.317  1.00  0.00    -0.248 NA
ATOM     49  C   UNL     1      -4.444  -1.289  -1.292  1.00  0.00     0.031 C 
ATOM     50  C   UNL     1      -0.105  -1.433  -3.061  1.00  0.00     0.029 A 
ATOM     51  N   UNL     1       0.090   0.623  -3.825  1.00  0.00    -0.354 N 
ATOM     52  C   UNL     1      -3.361  -3.049  -0.617  1.00  0.00     0.074 A 
ATOM     53  C   UNL     1      -4.615  -2.440  -0.699  1.00  0.00     0.031 C 
ATOM     54  C   UNL     1       1.209  -1.181  -3.276  1.00  0.00     0.029 A 
ATOM     55  C   UNL     1       1.338   0.255  -3.355  1.00  0.00     0.049 A 
ATOM     56  H   UNL     1      -0.093   1.325  -4.490  1.00  0.00     0.167 HD
ATOM     57  C   UNL     1      -3.134  -4.157   0.122  1.00  0.00     0.031 A 
ATOM     58  C   UNL     1       1.893   1.098  -2.457  1.00  0.00     0.031 A 
ATOM     59  C   UNL     1      -1.741  -4.257   0.382  1.00  0.00     0.049 A 
ATOM     60  C   UNL     1       1.963   0.365  -1.111  1.00  0.00     0.074 A 
ATOM     61  C   UNL     1      -0.721  -4.688  -0.429  1.00  0.00     0.029 A 
ATOM     62  N   UNL     1      -1.210  -3.515   1.412  1.00  0.00    -0.354 N 
ATOM     63  N   UNL     1       1.348  -1.144  -0.684  1.00  0.00    -0.248 NA
ATOM     64  C   UNL     1       2.836   1.087   0.566  1.00  0.00     0.031 C 
ATOM     65  C   UNL     1       0.455  -4.080   0.052  1.00  0.00     0.029 A 
ATOM     66  C   UNL     1       0.140  -3.340   1.182  1.00  0.00     0.049 A 
ATOM     67  H   UNL     1      -1.710  -3.167   2.185  1.00  0.00     0.167 HD
ATOM     68  C   UNL     1       1.532  -1.441   1.172  1.00  0.00     0.074 A 
ATOM     69  C   UNL     1       2.494   0.094   1.842  1.00  0.00     0.031 C 
ATOM     70  C   UNL     1       0.849  -2.344   1.943  1.00  0.00     0.031 A 
BRANCH  57  71
ATOM     71  C   UNL     1      -4.130  -5.263   0.432  1.00  0.00    -0.014 A 
ATOM     72  C   UNL     1      -3.546  -6.505   0.738  1.00  0.00     0.009 A 
ATOM     73  C   UNL     1      -5.534  -5.278   0.276  1.00  0.00     0.009 A 
ATOM     74  C   UNL     1      -4.273  -7.696   0.754  1.00  0.00     0.001 A 
ATOM     75  C   UNL     1      -6.277  -6.473   0.311  1.00  0.00     0.001 A 
ATOM     76  C   UNL     1      -5.638  -7.685   0.517  1.00  0.00     0.000 A 
ENDBRANCH  57  71
BRANCH  58  77
ATOM     77  C   UNL     1       1.470   2.550  -2.768  1.00  0.00    -0.014 A 
ATOM     78  C   UNL     1       1.840   3.155  -3.998  1.00  0.00     0.009 A 
ATOM     79  C   UNL     1       0.402   3.174  -2.114  1.00  0.00     0.009 A 
ATOM     80  C   UNL     1       1.101   4.218  -4.573  1.00  0.00     0.001 A 
ATOM     81  C   UNL     1      -0.211   4.351  -2.598  1.00  0.00     0.001 A 
ATOM     82  C   UNL     1       0.060   4.809  -3.876  1.00  0.00     0.000 A 
ENDBRANCH  58  77
BRANCH  70  83
ATOM     83  C   UNL     1       0.755  -2.215   3.453  1.00  0.00    -0.014 A 
ATOM     84  C   UNL     1       1.151  -1.088   4.192  1.00  0.00     0.009 A 
ATOM     85  C   UNL     1       0.217  -3.261   4.218  1.00  0.00     0.009 A 
ATOM     86  C   UNL     1       1.317  -1.113   5.580  1.00  0.00     0.001 A 
ATOM     87  C   UNL     1       0.258  -3.250   5.620  1.00  0.00     0.001 A 
ATOM     88  C   UNL     1       0.890  -2.215   6.296  1.00  0.00     0.000 A 
ENDBRANCH  70  83
ENDBRANCH  44  45
ENDBRANCH  37  39
ENDBRANCH  36  37
ENDBRANCH  35  36
ENDBRANCH  34  35
ENDBRANCH  33  34
ENDBRANCH  32  33
ENDBRANCH   1  32
TORSDOF 21
