REMARK SMILES C[C@H]1CCN1c1cc(C(=O)OCCOCCOCCOC(=O)c2ccc(-c3c4nc(c(-c5ccccc5)c5ccc([nH]5)c(-c5ccccc5)c5nc(c(-c6ccccc6)c6ccc3[nH]6)C=C5)C=C4)cc2)ccc1Cl
REMARK SMILES IDX 16 1 15 2 14 3 13 4 12 5 11 6 9 7 10 8 8 9 6 10 7 11 73 12
REMARK SMILES IDX 72 13 74 14 71 15 5 16 1 17 2 18 3 19 4 20 17 21 18 22 19 23
REMARK SMILES IDX 20 24 21 25 22 26 23 27 24 28 70 29 25 30 69 31 26 32 27 33
REMARK SMILES IDX 28 34 63 35 29 36 68 37 62 38 64 39 30 40 67 41 61 42 60 43
REMARK SMILES IDX 31 45 53 46 38 47 52 48 39 49 42 50 51 51 65 52 40 53 41 54
REMARK SMILES IDX 50 56 66 57 43 58 32 59 33 60 37 61 34 62 36 63 35 64 54 65
REMARK SMILES IDX 55 66 59 67 56 68 58 69 57 70 44 71 45 72 49 73 46 74 48 75
REMARK SMILES IDX 47 76
REMARK H PARENT 64 44 42 55
REMARK Flexibility Score: inf
ROOT
ATOM      1  C   UNL     1       0.808  -7.582   2.887  1.00  0.00     0.188 C 
ENDROOT
BRANCH   1   2
ATOM      2  C   UNL     1      -0.532  -7.132   3.506  1.00  0.00     0.188 C 
BRANCH   2   3
ATOM      3  O   UNL     1      -1.630  -8.038   3.564  1.00  0.00    -0.376 OA
BRANCH   3   4
ATOM      4  C   UNL     1      -1.926  -8.867   2.446  1.00  0.00     0.202 C 
BRANCH   4   5
ATOM      5  C   UNL     1      -2.206  -8.205   1.090  1.00  0.00     0.261 C 
BRANCH   5   6
ATOM      6  O   UNL     1      -1.196  -7.273   0.671  1.00  0.00    -0.460 OA
BRANCH   6   7
ATOM      7  C   UNL     1      -1.617  -5.994   0.508  1.00  0.00     0.338 C 
ATOM      8  O   UNL     1      -2.759  -5.579   0.593  1.00  0.00    -0.246 OA
BRANCH   7   9
ATOM      9  C   UNL     1      -0.447  -5.093   0.395  1.00  0.00     0.062 A 
ATOM     10  C   UNL     1       0.591  -3.001   1.114  1.00  0.00     0.057 A 
ATOM     11  C   UNL     1      -0.490  -3.895   1.118  1.00  0.00     0.043 A 
ATOM     12  C   UNL     1       1.726  -3.333   0.352  1.00  0.00     0.064 A 
ATOM     13  C   UNL     1       1.766  -4.530  -0.381  1.00  0.00     0.023 A 
ATOM     14  Cl  UNL     1       3.120  -2.314   0.278  1.00  0.00    -0.082 Cl
ATOM     15  C   UNL     1       0.684  -5.414  -0.358  1.00  0.00     0.017 A 
BRANCH  10  16
ATOM     16  N   UNL     1       0.430  -1.822   1.872  1.00  0.00    -0.367 N 
ATOM     17  C   UNL     1      -1.053   0.006   1.254  1.00  0.00     0.031 C 
ATOM     18  C   UNL     1       0.381  -0.485   1.340  1.00  0.00     0.081 C 
ATOM     19  C   UNL     1       1.209  -0.015   2.539  1.00  0.00     0.046 C 
ATOM     20  C   UNL     1       1.161  -1.451   3.048  1.00  0.00     0.119 C 
ENDBRANCH  10  16
ENDBRANCH   7   9
ENDBRANCH   6   7
ENDBRANCH   5   6
ENDBRANCH   4   5
ENDBRANCH   3   4
ENDBRANCH   2   3
ENDBRANCH   1   2
BRANCH   1  21
ATOM     21  O   UNL     1       0.832  -8.945   2.523  1.00  0.00    -0.376 OA
BRANCH  21  22
ATOM     22  C   UNL     1       1.617  -9.834   3.299  1.00  0.00     0.202 C 
BRANCH  22  23
ATOM     23  C   UNL     1       1.407  -9.919   4.821  1.00  0.00     0.261 C 
BRANCH  23  24
ATOM     24  O   UNL     1       1.174  -8.687   5.517  1.00  0.00    -0.460 OA
BRANCH  24  25
ATOM     25  C   UNL     1       2.259  -7.951   5.845  1.00  0.00     0.338 C 
ATOM     26  O   UNL     1       3.419  -8.188   5.573  1.00  0.00    -0.246 OA
BRANCH  25  27
ATOM     27  C   UNL     1       1.785  -6.695   6.468  1.00  0.00     0.060 A 
ATOM     28  C   UNL     1       2.105  -5.478   5.854  1.00  0.00     0.016 A 
ATOM     29  C   UNL     1       1.057  -6.717   7.660  1.00  0.00     0.016 A 
ATOM     30  C   UNL     1       1.735  -4.275   6.459  1.00  0.00     0.010 A 
ATOM     31  C   UNL     1       0.699  -5.511   8.272  1.00  0.00     0.010 A 
ATOM     32  C   UNL     1       1.070  -4.284   7.693  1.00  0.00    -0.014 A 
BRANCH  32  33
ATOM     33  C   UNL     1       0.937  -3.022   8.462  1.00  0.00     0.031 A 
ATOM     34  C   UNL     1       1.959  -2.716   9.524  1.00  0.00     0.074 A 
ATOM     35  C   UNL     1      -0.048  -2.143   8.206  1.00  0.00     0.049 A 
ATOM     36  N   UNL     1       2.055  -1.674  10.310  1.00  0.00    -0.248 NA
ATOM     37  C   UNL     1       3.017  -3.721   9.723  1.00  0.00     0.031 C 
ATOM     38  C   UNL     1      -1.078  -2.297   7.181  1.00  0.00     0.029 A 
ATOM     39  N   UNL     1      -0.336  -0.938   8.798  1.00  0.00    -0.354 N 
ATOM     40  C   UNL     1       3.181  -1.897  11.094  1.00  0.00     0.074 A 
ATOM     41  C   UNL     1       3.715  -3.187  10.713  1.00  0.00     0.031 C 
ATOM     42  C   UNL     1      -1.891  -1.225   7.218  1.00  0.00     0.029 A 
ATOM     43  C   UNL     1      -1.453  -0.326   8.284  1.00  0.00     0.049 A 
ATOM     44  H   UNL     1       0.206  -0.549   9.522  1.00  0.00     0.167 HD
ATOM     45  C   UNL     1       3.731  -1.099  12.039  1.00  0.00     0.031 A 
ATOM     46  C   UNL     1      -2.059   0.823   8.644  1.00  0.00     0.031 A 
ATOM     47  C   UNL     1       3.194   0.174  12.438  1.00  0.00     0.049 A 
ATOM     48  C   UNL     1      -1.478   1.655   9.758  1.00  0.00     0.074 A 
ATOM     49  C   UNL     1       3.686   1.060  13.381  1.00  0.00     0.029 A 
ATOM     50  N   UNL     1       2.036   0.735  11.925  1.00  0.00    -0.354 N 
ATOM     51  N   UNL     1      -0.393   1.450  10.465  1.00  0.00    -0.248 NA
ATOM     52  C   UNL     1      -2.203   2.884  10.114  1.00  0.00     0.031 C 
ATOM     53  C   UNL     1       2.795   2.135  13.475  1.00  0.00     0.029 A 
ATOM     54  C   UNL     1       1.782   1.945  12.549  1.00  0.00     0.049 A 
ATOM     55  H   UNL     1       1.477   0.334  11.221  1.00  0.00     0.167 HD
ATOM     56  C   UNL     1      -0.287   2.538  11.324  1.00  0.00     0.074 A 
ATOM     57  C   UNL     1      -1.413   3.405  11.043  1.00  0.00     0.031 C 
ATOM     58  C   UNL     1       0.661   2.800  12.257  1.00  0.00     0.031 A 
BRANCH  45  59
ATOM     59  C   UNL     1       4.965  -1.603  12.731  1.00  0.00    -0.014 A 
ATOM     60  C   UNL     1       6.200  -1.664  12.065  1.00  0.00     0.009 A 
ATOM     61  C   UNL     1       4.896  -2.005  14.074  1.00  0.00     0.009 A 
ATOM     62  C   UNL     1       7.333  -2.151  12.721  1.00  0.00     0.001 A 
ATOM     63  C   UNL     1       6.037  -2.466  14.735  1.00  0.00     0.001 A 
ATOM     64  C   UNL     1       7.251  -2.547  14.055  1.00  0.00     0.000 A 
ENDBRANCH  45  59
BRANCH  46  65
ATOM     65  C   UNL     1      -3.298   1.261   7.949  1.00  0.00    -0.014 A 
ATOM     66  C   UNL     1      -3.288   2.383   7.106  1.00  0.00     0.009 A 
ATOM     67  C   UNL     1      -4.504   0.571   8.146  1.00  0.00     0.009 A 
ATOM     68  C   UNL     1      -4.466   2.819   6.494  1.00  0.00     0.001 A 
ATOM     69  C   UNL     1      -5.674   0.993   7.511  1.00  0.00     0.001 A 
ATOM     70  C   UNL     1      -5.657   2.121   6.693  1.00  0.00     0.000 A 
ENDBRANCH  46  65
BRANCH  58  71
ATOM     71  C   UNL     1       0.551   4.094  13.013  1.00  0.00    -0.014 A 
ATOM     72  C   UNL     1      -0.429   4.288  13.998  1.00  0.00     0.009 A 
ATOM     73  C   UNL     1       1.480   5.119  12.768  1.00  0.00     0.009 A 
ATOM     74  C   UNL     1      -0.497   5.494  14.699  1.00  0.00     0.001 A 
ATOM     75  C   UNL     1       1.427   6.313  13.489  1.00  0.00     0.001 A 
ATOM     76  C   UNL     1       0.433   6.503  14.447  1.00  0.00     0.000 A 
ENDBRANCH  58  71
ENDBRANCH  32  33
ENDBRANCH  25  27
ENDBRANCH  24  25
ENDBRANCH  23  24
ENDBRANCH  22  23
ENDBRANCH  21  22
ENDBRANCH   1  21
TORSDOF 18
