REMARK SMILES O=C(Cc1ccc(F)cc1F)Nc1sccc1C(=O)OCCOCCOCCOC(=O)c1ccc(-c2c3nc(c(-c4ccccc4)c4ccc([nH]4)c(-c4ccccc4)c4nc(c(-c5ccccc5)c5ccc2[nH]5)C=C4)C=C3)cc1
REMARK SMILES IDX 24 1 23 2 22 3 21 4 20 5 18 6 19 7 17 8 13 9 14 10 15 11
REMARK SMILES IDX 16 12 12 13 1 14 2 15 3 17 4 18 5 19 10 20 6 21 9 22 11 23
REMARK SMILES IDX 7 24 8 25 25 26 26 27 27 28 28 29 29 30 30 31 31 32 32 33
REMARK SMILES IDX 33 34 79 35 34 36 78 37 35 38 36 39 37 40 72 41 38 42 77 43
REMARK SMILES IDX 71 44 73 45 39 46 76 47 70 48 69 49 40 51 62 52 47 53 61 54
REMARK SMILES IDX 48 55 51 56 60 57 74 58 49 59 50 60 59 62 75 63 52 64 41 65
REMARK SMILES IDX 42 66 46 67 43 68 45 69 44 70 63 71 64 72 68 73 65 74 67 75
REMARK SMILES IDX 66 76 53 77 54 78 58 79 55 80 57 81 56 82
REMARK H PARENT 12 16 73 50 51 61
REMARK Flexibility Score: inf
ROOT
ATOM      1  C   UNL     1       0.282  -4.182   1.264  1.00  0.00     0.188 C 
ENDROOT
BRANCH   1   2
ATOM      2  O   UNL     1      -0.474  -4.444   0.085  1.00  0.00    -0.376 OA
BRANCH   2   3
ATOM      3  C   UNL     1      -0.386  -3.521  -0.999  1.00  0.00     0.202 C 
BRANCH   3   4
ATOM      4  C   UNL     1      -0.853  -2.099  -0.696  1.00  0.00     0.261 C 
BRANCH   4   5
ATOM      5  O   UNL     1       0.056  -1.470   0.220  1.00  0.00    -0.460 OA
BRANCH   5   6
ATOM      6  C   UNL     1      -0.497  -0.750   1.236  1.00  0.00     0.341 C 
ATOM      7  O   UNL     1      -1.696  -0.586   1.404  1.00  0.00    -0.246 OA
BRANCH   6   8
ATOM      8  C   UNL     1       0.491  -0.409   2.263  1.00  0.00     0.094 A 
ATOM      9  C   UNL     1       1.813  -0.041   2.079  1.00  0.00     0.110 A 
ATOM     10  S   UNL     1       2.697   0.006   3.538  1.00  0.00    -0.126 S 
ATOM     11  C   UNL     1       1.306  -0.322   4.468  1.00  0.00     0.068 A 
ATOM     12  C   UNL     1       0.201  -0.516   3.672  1.00  0.00     0.029 A 
BRANCH   9  13
ATOM     13  N   UNL     1       2.607   0.266   0.997  1.00  0.00    -0.317 N 
ATOM     14  O   UNL     1       0.955   0.963  -0.477  1.00  0.00    -0.274 OA
ATOM     15  C   UNL     1       2.117   0.654  -0.235  1.00  0.00     0.229 C 
ATOM     16  H   UNL     1       3.583   0.206   1.108  1.00  0.00     0.170 HD
BRANCH  15  17
ATOM     17  C   UNL     1       3.189   0.683  -1.313  1.00  0.00     0.139 C 
BRANCH  17  18
ATOM     18  C   UNL     1       4.109   1.870  -1.193  1.00  0.00    -0.003 A 
ATOM     19  C   UNL     1       5.472   1.705  -0.908  1.00  0.00     0.010 A 
ATOM     20  C   UNL     1       3.609   3.167  -1.369  1.00  0.00     0.129 A 
ATOM     21  C   UNL     1       6.300   2.823  -0.790  1.00  0.00     0.040 A 
ATOM     22  C   UNL     1       4.426   4.283  -1.249  1.00  0.00     0.078 A 
ATOM     23  F   UNL     1       2.316   3.348  -1.667  1.00  0.00    -0.207 F 
ATOM     24  C   UNL     1       5.769   4.099  -0.958  1.00  0.00     0.126 A 
ATOM     25  F   UNL     1       6.570   5.165  -0.839  1.00  0.00    -0.207 F 
ENDBRANCH  17  18
ENDBRANCH  15  17
ENDBRANCH   9  13
ENDBRANCH   6   8
ENDBRANCH   5   6
ENDBRANCH   4   5
ENDBRANCH   3   4
ENDBRANCH   2   3
ENDBRANCH   1   2
BRANCH   1  26
ATOM     26  C   UNL     1       1.778  -3.840   1.118  1.00  0.00     0.188 C 
BRANCH  26  27
ATOM     27  O   UNL     1       2.345  -4.231  -0.126  1.00  0.00    -0.376 OA
BRANCH  27  28
ATOM     28  C   UNL     1       3.309  -5.274  -0.062  1.00  0.00     0.202 C 
BRANCH  28  29
ATOM     29  C   UNL     1       2.682  -6.666   0.057  1.00  0.00     0.261 C 
BRANCH  29  30
ATOM     30  O   UNL     1       1.932  -6.880   1.264  1.00  0.00    -0.460 OA
BRANCH  30  31
ATOM     31  C   UNL     1       2.619  -6.845   2.427  1.00  0.00     0.338 C 
ATOM     32  O   UNL     1       3.815  -6.668   2.572  1.00  0.00    -0.246 OA
BRANCH  31  33
ATOM     33  C   UNL     1       1.644  -6.891   3.537  1.00  0.00     0.060 A 
ATOM     34  C   UNL     1       1.760  -5.957   4.573  1.00  0.00     0.016 A 
ATOM     35  C   UNL     1       0.623  -7.847   3.555  1.00  0.00     0.016 A 
ATOM     36  C   UNL     1       0.875  -6.003   5.652  1.00  0.00     0.010 A 
ATOM     37  C   UNL     1      -0.254  -7.899   4.641  1.00  0.00     0.010 A 
ATOM     38  C   UNL     1      -0.113  -6.998   5.708  1.00  0.00    -0.014 A 
BRANCH  38  39
ATOM     39  C   UNL     1      -0.876  -7.211   6.960  1.00  0.00     0.031 A 
ATOM     40  C   UNL     1      -0.346  -8.196   7.965  1.00  0.00     0.074 A 
ATOM     41  C   UNL     1      -2.014  -6.541   7.214  1.00  0.00     0.049 A 
ATOM     42  N   UNL     1      -0.830  -8.532   9.133  1.00  0.00    -0.248 NA
ATOM     43  C   UNL     1       0.900  -8.893   7.603  1.00  0.00     0.031 C 
ATOM     44  C   UNL     1      -2.628  -5.544   6.340  1.00  0.00     0.029 A 
ATOM     45  N   UNL     1      -2.857  -6.608   8.296  1.00  0.00    -0.354 N 
ATOM     46  C   UNL     1       0.056  -9.469   9.649  1.00  0.00     0.074 A 
ATOM     47  C   UNL     1       1.088  -9.673   8.656  1.00  0.00     0.031 C 
ATOM     48  C   UNL     1      -3.754  -5.092   6.921  1.00  0.00     0.029 A 
ATOM     49  C   UNL     1      -3.948  -5.782   8.196  1.00  0.00     0.049 A 
ATOM     50  H   UNL     1      -2.694  -7.194   9.070  1.00  0.00     0.167 HD
ATOM     51  C   UNL     1       0.022 -10.101  10.846  1.00  0.00     0.031 A 
ATOM     52  C   UNL     1      -4.988  -5.610   9.034  1.00  0.00     0.031 A 
ATOM     53  C   UNL     1      -1.014  -9.935  11.826  1.00  0.00     0.049 A 
ATOM     54  C   UNL     1      -5.047  -6.386  10.323  1.00  0.00     0.074 A 
ATOM     55  C   UNL     1      -1.130 -10.534  13.069  1.00  0.00     0.029 A 
ATOM     56  N   UNL     1      -2.122  -9.120  11.667  1.00  0.00    -0.354 N 
ATOM     57  N   UNL     1      -4.181  -7.237  10.818  1.00  0.00    -0.248 NA
ATOM     58  C   UNL     1      -6.228  -6.169  11.174  1.00  0.00     0.031 C 
ATOM     59  C   UNL     1      -2.333 -10.111  13.646  1.00  0.00     0.029 A 
ATOM     60  C   UNL     1      -2.940  -9.216  12.780  1.00  0.00     0.049 A 
ATOM     61  H   UNL     1      -2.301  -8.557  10.880  1.00  0.00     0.167 HD
ATOM     62  C   UNL     1      -4.697  -7.634  12.046  1.00  0.00     0.074 A 
ATOM     63  C   UNL     1      -5.947  -6.926  12.226  1.00  0.00     0.031 C 
ATOM     64  C   UNL     1      -4.179  -8.504  12.946  1.00  0.00     0.031 A 
BRANCH  51  65
ATOM     65  C   UNL     1       1.142 -11.056  11.140  1.00  0.00    -0.014 A 
ATOM     66  C   UNL     1       2.422 -10.584  11.471  1.00  0.00     0.009 A 
ATOM     67  C   UNL     1       0.913 -12.438  11.095  1.00  0.00     0.009 A 
ATOM     68  C   UNL     1       3.461 -11.482  11.719  1.00  0.00     0.001 A 
ATOM     69  C   UNL     1       1.949 -13.334  11.364  1.00  0.00     0.001 A 
ATOM     70  C   UNL     1       3.223 -12.856  11.668  1.00  0.00     0.000 A 
ENDBRANCH  51  65
BRANCH  52  71
ATOM     71  C   UNL     1      -6.077  -4.660   8.689  1.00  0.00    -0.014 A 
ATOM     72  C   UNL     1      -6.212  -3.447   9.381  1.00  0.00     0.009 A 
ATOM     73  C   UNL     1      -7.008  -4.981   7.689  1.00  0.00     0.009 A 
ATOM     74  C   UNL     1      -7.272  -2.584   9.095  1.00  0.00     0.001 A 
ATOM     75  C   UNL     1      -8.054  -4.105   7.390  1.00  0.00     0.001 A 
ATOM     76  C   UNL     1      -8.190  -2.912   8.099  1.00  0.00     0.000 A 
ENDBRANCH  52  71
BRANCH  64  77
ATOM     77  C   UNL     1      -4.943  -8.713  14.223  1.00  0.00    -0.014 A 
ATOM     78  C   UNL     1      -6.115  -9.482  14.252  1.00  0.00     0.009 A 
ATOM     79  C   UNL     1      -4.455  -8.166  15.420  1.00  0.00     0.009 A 
ATOM     80  C   UNL     1      -6.801  -9.677  15.454  1.00  0.00     0.001 A 
ATOM     81  C   UNL     1      -5.130  -8.381  16.623  1.00  0.00     0.001 A 
ATOM     82  C   UNL     1      -6.305  -9.129  16.638  1.00  0.00     0.000 A 
ENDBRANCH  64  77
ENDBRANCH  38  39
ENDBRANCH  31  33
ENDBRANCH  30  31
ENDBRANCH  29  30
ENDBRANCH  28  29
ENDBRANCH  27  28
ENDBRANCH  26  27
ENDBRANCH   1  26
TORSDOF 20
