REMARK SMILES COc1cc(/C=C/C(=O)OCCOCCOCCOC(=O)c2ccc(-c3c4nc(c(-c5ccccc5)c5ccc([nH]5)c(-c5ccccc5)c5nc(c(-c6ccccc6)c6ccc3[nH]6)C=C5)C=C4)cc2)cc(OC)c1O
REMARK SMILES IDX 14 1 13 2 12 3 11 4 10 5 8 6 9 7 7 8 6 9 5 10 3 11 4 12
REMARK SMILES IDX 74 13 71 14 70 15 2 16 1 17 75 18 72 20 73 21 15 22 16 23
REMARK SMILES IDX 17 24 18 25 19 26 20 27 21 28 22 29 23 30 69 31 24 32 68 33
REMARK SMILES IDX 25 34 26 35 27 36 62 37 28 38 67 39 61 40 63 41 29 42 66 43
REMARK SMILES IDX 60 44 59 45 30 47 52 48 37 49 51 50 38 51 41 52 50 53 64 54
REMARK SMILES IDX 39 55 40 56 49 58 65 59 42 60 31 61 32 62 36 63 33 64 35 65
REMARK SMILES IDX 34 66 53 67 54 68 58 69 55 70 57 71 56 72 43 73 44 74 48 75
REMARK SMILES IDX 45 76 47 77 46 78
REMARK H PARENT 75 19 63 46 41 57
REMARK Flexibility Score: inf
ROOT
ATOM      1  C   UNL     1      -2.535  -3.011  -7.581  1.00  0.00     0.188 C 
ENDROOT
BRANCH   1   2
ATOM      2  O   UNL     1      -2.425  -3.390  -8.950  1.00  0.00    -0.376 OA
BRANCH   2   3
ATOM      3  C   UNL     1      -1.711  -4.571  -9.298  1.00  0.00     0.202 C 
BRANCH   3   4
ATOM      4  C   UNL     1      -0.255  -4.724  -8.839  1.00  0.00     0.261 C 
BRANCH   4   5
ATOM      5  O   UNL     1      -0.028  -4.464  -7.443  1.00  0.00    -0.460 OA
BRANCH   5   6
ATOM      6  C   UNL     1       0.800  -3.426  -7.175  1.00  0.00     0.330 C 
ATOM      7  O   UNL     1       1.382  -2.731  -7.996  1.00  0.00    -0.247 OA
BRANCH   6   8
ATOM      8  C   UNL     1       0.875  -3.105  -5.734  1.00  0.00     0.094 C 
ATOM      9  C   UNL     1       0.506  -3.890  -4.710  1.00  0.00     0.016 C 
BRANCH   9  10
ATOM     10  C   UNL     1       0.630  -3.458  -3.305  1.00  0.00    -0.018 A 
ATOM     11  C   UNL     1       0.604  -1.712  -1.587  1.00  0.00     0.165 A 
ATOM     12  C   UNL     1       0.412  -2.132  -2.912  1.00  0.00     0.058 A 
ATOM     13  C   UNL     1       0.994  -2.653  -0.624  1.00  0.00     0.200 A 
ATOM     14  C   UNL     1       1.159  -4.002  -0.981  1.00  0.00     0.165 A 
ATOM     15  C   UNL     1       0.965  -4.388  -2.319  1.00  0.00     0.058 A 
BRANCH  11  16
ATOM     16  O   UNL     1       0.370  -0.371  -1.438  1.00  0.00    -0.493 OA
ATOM     17  C   UNL     1       0.642   0.260  -0.198  1.00  0.00     0.278 C 
ENDBRANCH  11  16
BRANCH  13  18
ATOM     18  O   UNL     1       1.234  -2.257   0.661  1.00  0.00    -0.502 OA
ATOM     19  H   UNL     1       1.125  -1.358   0.903  1.00  0.00     0.293 HD
ENDBRANCH  13  18
BRANCH  14  20
ATOM     20  O   UNL     1       1.523  -5.058  -0.186  1.00  0.00    -0.493 OA
ATOM     21  C   UNL     1       1.862  -4.819   1.171  1.00  0.00     0.278 C 
ENDBRANCH  14  20
ENDBRANCH   9  10
ENDBRANCH   6   8
ENDBRANCH   5   6
ENDBRANCH   4   5
ENDBRANCH   3   4
ENDBRANCH   2   3
ENDBRANCH   1   2
BRANCH   1  22
ATOM     22  C   UNL     1      -2.853  -4.073  -6.507  1.00  0.00     0.188 C 
BRANCH  22  23
ATOM     23  O   UNL     1      -3.021  -5.374  -7.030  1.00  0.00    -0.376 OA
BRANCH  23  24
ATOM     24  C   UNL     1      -4.321  -5.937  -7.011  1.00  0.00     0.202 C 
BRANCH  24  25
ATOM     25  C   UNL     1      -5.499  -5.183  -7.654  1.00  0.00     0.261 C 
BRANCH  25  26
ATOM     26  O   UNL     1      -5.529  -3.758  -7.486  1.00  0.00    -0.460 OA
BRANCH  26  27
ATOM     27  C   UNL     1      -6.083  -3.277  -6.356  1.00  0.00     0.338 C 
ATOM     28  O   UNL     1      -6.516  -3.922  -5.409  1.00  0.00    -0.246 OA
BRANCH  27  29
ATOM     29  C   UNL     1      -5.954  -1.808  -6.377  1.00  0.00     0.060 A 
ATOM     30  C   UNL     1      -5.137  -1.180  -5.429  1.00  0.00     0.016 A 
ATOM     31  C   UNL     1      -6.641  -1.053  -7.332  1.00  0.00     0.016 A 
ATOM     32  C   UNL     1      -5.023   0.212  -5.421  1.00  0.00     0.010 A 
ATOM     33  C   UNL     1      -6.539   0.341  -7.311  1.00  0.00     0.010 A 
ATOM     34  C   UNL     1      -5.748   0.983  -6.342  1.00  0.00    -0.014 A 
BRANCH  34  35
ATOM     35  C   UNL     1      -5.801   2.458  -6.202  1.00  0.00     0.031 A 
ATOM     36  C   UNL     1      -6.969   3.076  -5.485  1.00  0.00     0.074 A 
ATOM     37  C   UNL     1      -4.828   3.241  -6.701  1.00  0.00     0.049 A 
ATOM     38  N   UNL     1      -7.243   4.339  -5.278  1.00  0.00    -0.248 NA
ATOM     39  C   UNL     1      -7.963   2.143  -4.928  1.00  0.00     0.031 C 
ATOM     40  C   UNL     1      -3.626   2.769  -7.385  1.00  0.00     0.029 A 
ATOM     41  N   UNL     1      -4.709   4.609  -6.713  1.00  0.00    -0.354 N 
ATOM     42  C   UNL     1      -8.439   4.353  -4.572  1.00  0.00     0.074 A 
ATOM     43  C   UNL     1      -8.853   2.976  -4.410  1.00  0.00     0.031 C 
ATOM     44  C   UNL     1      -2.893   3.833  -7.759  1.00  0.00     0.029 A 
ATOM     45  C   UNL     1      -3.589   5.058  -7.369  1.00  0.00     0.049 A 
ATOM     46  H   UNL     1      -5.364   5.212  -6.292  1.00  0.00     0.167 HD
ATOM     47  C   UNL     1      -9.131   5.415  -4.096  1.00  0.00     0.031 A 
ATOM     48  C   UNL     1      -3.183   6.314  -7.642  1.00  0.00     0.031 A 
ATOM     49  C   UNL     1      -8.736   6.786  -4.274  1.00  0.00     0.049 A 
ATOM     50  C   UNL     1      -4.014   7.481  -7.176  1.00  0.00     0.074 A 
ATOM     51  C   UNL     1      -9.365   7.931  -3.815  1.00  0.00     0.029 A 
ATOM     52  N   UNL     1      -7.616   7.199  -4.977  1.00  0.00    -0.354 N 
ATOM     53  N   UNL     1      -5.125   7.481  -6.479  1.00  0.00    -0.248 NA
ATOM     54  C   UNL     1      -3.530   8.823  -7.533  1.00  0.00     0.031 C 
ATOM     55  C   UNL     1      -8.655   9.039  -4.289  1.00  0.00     0.029 A 
ATOM     56  C   UNL     1      -7.551   8.582  -4.990  1.00  0.00     0.049 A 
ATOM     57  H   UNL     1      -6.963   6.597  -5.403  1.00  0.00     0.167 HD
ATOM     58  C   UNL     1      -5.454   8.818  -6.289  1.00  0.00     0.074 A 
ATOM     59  C   UNL     1      -4.421   9.601  -6.933  1.00  0.00     0.031 C 
ATOM     60  C   UNL     1      -6.516   9.349  -5.635  1.00  0.00     0.031 A 
BRANCH  47  61
ATOM     61  C   UNL     1     -10.413   5.130  -3.365  1.00  0.00    -0.014 A 
ATOM     62  C   UNL     1     -10.409   4.565  -2.080  1.00  0.00     0.009 A 
ATOM     63  C   UNL     1     -11.641   5.456  -3.962  1.00  0.00     0.009 A 
ATOM     64  C   UNL     1     -11.612   4.302  -1.421  1.00  0.00     0.001 A 
ATOM     65  C   UNL     1     -12.840   5.216  -3.290  1.00  0.00     0.001 A 
ATOM     66  C   UNL     1     -12.825   4.631  -2.024  1.00  0.00     0.000 A 
ENDBRANCH  47  61
BRANCH  48  67
ATOM     67  C   UNL     1      -1.935   6.543  -8.415  1.00  0.00    -0.014 A 
ATOM     68  C   UNL     1      -0.803   7.102  -7.801  1.00  0.00     0.009 A 
ATOM     69  C   UNL     1      -1.877   6.228  -9.782  1.00  0.00     0.009 A 
ATOM     70  C   UNL     1       0.350   7.362  -8.544  1.00  0.00     0.001 A 
ATOM     71  C   UNL     1      -0.713   6.463 -10.517  1.00  0.00     0.001 A 
ATOM     72  C   UNL     1       0.396   7.038  -9.900  1.00  0.00     0.000 A 
ENDBRANCH  48  67
BRANCH  60  73
ATOM     73  C   UNL     1      -6.597  10.847  -5.546  1.00  0.00    -0.014 A 
ATOM     74  C   UNL     1      -6.933  11.628  -6.663  1.00  0.00     0.009 A 
ATOM     75  C   UNL     1      -6.383  11.482  -4.312  1.00  0.00     0.009 A 
ATOM     76  C   UNL     1      -7.023  13.018  -6.550  1.00  0.00     0.001 A 
ATOM     77  C   UNL     1      -6.501  12.867  -4.197  1.00  0.00     0.001 A 
ATOM     78  C   UNL     1      -6.813  13.635  -5.317  1.00  0.00     0.000 A 
ENDBRANCH  60  73
ENDBRANCH  34  35
ENDBRANCH  27  29
ENDBRANCH  26  27
ENDBRANCH  25  26
ENDBRANCH  24  25
ENDBRANCH  23  24
ENDBRANCH  22  23
ENDBRANCH   1  22
TORSDOF 21
