REMARK SMILES Cc1cc(NC(=O)Nc2sc(C)c(C)c2C(=O)OCCOCCOCCOC(=O)c2ccc(-c3c4nc(c(-c5ccccc5)c5ccc([nH]5)c(-c5ccccc5)c5nc(c(-c6ccccc6)c6ccc3[nH]6)C=C5)C=C4)cc2)ccn1
REMARK SMILES IDX 22 1 21 2 20 3 19 4 18 5 16 6 17 7 15 8 9 9 10 10 11 11
REMARK SMILES IDX 13 12 12 13 14 14 8 15 5 16 6 17 7 19 4 21 1 22 2 23 3 24
REMARK SMILES IDX 80 25 79 26 78 27 23 28 24 29 25 30 26 31 27 32 28 33 29 34
REMARK SMILES IDX 30 35 31 36 77 37 32 38 76 39 33 40 34 41 35 42 70 43 36 44
REMARK SMILES IDX 75 45 69 46 71 47 37 48 74 49 68 50 67 51 38 53 60 54 45 55
REMARK SMILES IDX 59 56 46 57 49 58 58 59 72 60 47 61 48 62 57 64 73 65 50 66
REMARK SMILES IDX 39 67 40 68 44 69 41 70 43 71 42 72 61 73 62 74 66 75 63 76
REMARK SMILES IDX 65 77 64 78 51 79 52 80 56 81 53 82 55 83 54 84
REMARK H PARENT 5 18 8 20 71 52 49 63
REMARK Flexibility Score: inf
ROOT
ATOM      1  C   UNL     1      -4.695   1.787   3.922  1.00  0.00     0.188 C 
ENDROOT
BRANCH   1   2
ATOM      2  O   UNL     1      -6.076   2.100   3.749  1.00  0.00    -0.376 OA
BRANCH   2   3
ATOM      3  C   UNL     1      -7.007   1.078   3.434  1.00  0.00     0.202 C 
BRANCH   3   4
ATOM      4  C   UNL     1      -7.266   0.938   1.931  1.00  0.00     0.261 C 
BRANCH   4   5
ATOM      5  O   UNL     1      -6.065   0.763   1.157  1.00  0.00    -0.460 OA
BRANCH   5   6
ATOM      6  C   UNL     1      -5.525   1.923   0.672  1.00  0.00     0.341 C 
ATOM      7  O   UNL     1      -6.032   3.028   0.835  1.00  0.00    -0.246 OA
BRANCH   6   8
ATOM      8  C   UNL     1      -4.273   1.745  -0.074  1.00  0.00     0.098 A 
ATOM      9  C   UNL     1      -3.717   0.547  -0.503  1.00  0.00     0.112 A 
ATOM     10  S   UNL     1      -2.579   0.826  -1.743  1.00  0.00    -0.122 S 
ATOM     11  C   UNL     1      -2.319   2.421  -1.204  1.00  0.00     0.007 A 
ATOM     12  C   UNL     1      -3.325   2.827  -0.341  1.00  0.00    -0.021 A 
ATOM     13  C   UNL     1      -1.126   3.178  -1.681  1.00  0.00     0.057 C 
ATOM     14  C   UNL     1      -3.402   4.185   0.291  1.00  0.00     0.046 C 
BRANCH   9  15
ATOM     15  N   UNL     1      -4.047  -0.750  -0.159  1.00  0.00    -0.298 N 
ATOM     16  N   UNL     1      -2.000  -1.994  -0.350  1.00  0.00    -0.308 N 
ATOM     17  C   UNL     1      -3.356  -1.907  -0.321  1.00  0.00     0.324 C 
ATOM     18  H   UNL     1      -1.672  -2.781  -0.842  1.00  0.00     0.171 HD
ATOM     19  O   UNL     1      -3.997  -2.960  -0.421  1.00  0.00    -0.248 OA
ATOM     20  H   UNL     1      -4.926  -0.851   0.273  1.00  0.00     0.172 HD
BRANCH  16  21
ATOM     21  C   UNL     1      -0.961  -1.195   0.176  1.00  0.00     0.046 A 
ATOM     22  C   UNL     1       2.770  -0.779  -0.354  1.00  0.00     0.067 C 
ATOM     23  C   UNL     1       1.372  -0.595   0.152  1.00  0.00     0.039 A 
ATOM     24  C   UNL     1       0.340  -1.427  -0.280  1.00  0.00     0.049 A 
ATOM     25  N   UNL     1       1.163   0.446   0.988  1.00  0.00    -0.261 NA
ATOM     26  C   UNL     1      -0.091   0.622   1.444  1.00  0.00     0.113 A 
ATOM     27  C   UNL     1      -1.160  -0.190   1.111  1.00  0.00     0.046 A 
ENDBRANCH  16  21
ENDBRANCH   9  15
ENDBRANCH   6   8
ENDBRANCH   5   6
ENDBRANCH   4   5
ENDBRANCH   3   4
ENDBRANCH   2   3
ENDBRANCH   1   2
BRANCH   1  28
ATOM     28  C   UNL     1      -4.152   0.373   3.668  1.00  0.00     0.188 C 
BRANCH  28  29
ATOM     29  O   UNL     1      -4.801  -0.621   4.453  1.00  0.00    -0.376 OA
BRANCH  29  30
ATOM     30  C   UNL     1      -3.965  -1.320   5.370  1.00  0.00     0.202 C 
BRANCH  30  31
ATOM     31  C   UNL     1      -3.896  -0.598   6.718  1.00  0.00     0.261 C 
BRANCH  31  32
ATOM     32  O   UNL     1      -3.237   0.679   6.654  1.00  0.00    -0.460 OA
BRANCH  32  33
ATOM     33  C   UNL     1      -1.917   0.644   6.368  1.00  0.00     0.338 C 
ATOM     34  O   UNL     1      -1.231  -0.345   6.183  1.00  0.00    -0.246 OA
BRANCH  33  35
ATOM     35  C   UNL     1      -1.452   2.024   6.135  1.00  0.00     0.060 A 
ATOM     36  C   UNL     1      -0.695   2.275   4.987  1.00  0.00     0.016 A 
ATOM     37  C   UNL     1      -1.729   3.050   7.040  1.00  0.00     0.016 A 
ATOM     38  C   UNL     1      -0.195   3.555   4.744  1.00  0.00     0.010 A 
ATOM     39  C   UNL     1      -1.207   4.325   6.812  1.00  0.00     0.010 A 
ATOM     40  C   UNL     1      -0.420   4.577   5.675  1.00  0.00    -0.014 A 
BRANCH  40  41
ATOM     41  C   UNL     1       0.302   5.864   5.551  1.00  0.00     0.031 A 
ATOM     42  C   UNL     1       1.637   6.010   6.225  1.00  0.00     0.074 A 
ATOM     43  C   UNL     1      -0.218   6.891   4.858  1.00  0.00     0.049 A 
ATOM     44  N   UNL     1       2.428   7.051   6.280  1.00  0.00    -0.248 NA
ATOM     45  C   UNL     1       2.148   4.822   6.929  1.00  0.00     0.031 C 
ATOM     46  C   UNL     1      -1.483   6.870   4.128  1.00  0.00     0.029 A 
ATOM     47  N   UNL     1       0.264   8.161   4.668  1.00  0.00    -0.354 N 
ATOM     48  C   UNL     1       3.532   6.643   7.017  1.00  0.00     0.074 A 
ATOM     49  C   UNL     1       3.299   5.270   7.410  1.00  0.00     0.031 C 
ATOM     50  C   UNL     1      -1.683   8.079   3.574  1.00  0.00     0.029 A 
ATOM     51  C   UNL     1      -0.575   8.962   3.934  1.00  0.00     0.049 A 
ATOM     52  H   UNL     1       1.129   8.469   5.024  1.00  0.00     0.167 HD
ATOM     53  C   UNL     1       4.644   7.344   7.338  1.00  0.00     0.031 A 
ATOM     54  C   UNL     1      -0.467  10.264   3.607  1.00  0.00     0.031 A 
ATOM     55  C   UNL     1       4.872   8.718   6.984  1.00  0.00     0.049 A 
ATOM     56  C   UNL     1       0.732  11.053   4.064  1.00  0.00     0.074 A 
ATOM     57  C   UNL     1       5.971   9.511   7.264  1.00  0.00     0.029 A 
ATOM     58  N   UNL     1       3.974   9.508   6.286  1.00  0.00    -0.354 N 
ATOM     59  N   UNL     1       1.781  10.649   4.737  1.00  0.00    -0.248 NA
ATOM     60  C   UNL     1       0.755  12.482   3.714  1.00  0.00     0.031 C 
ATOM     61  C   UNL     1       5.718  10.796   6.772  1.00  0.00     0.029 A 
ATOM     62  C   UNL     1       4.481  10.788   6.148  1.00  0.00     0.049 A 
ATOM     63  H   UNL     1       3.104   9.204   5.938  1.00  0.00     0.167 HD
ATOM     64  C   UNL     1       2.600  11.764   4.869  1.00  0.00     0.074 A 
ATOM     65  C   UNL     1       1.929  12.860   4.200  1.00  0.00     0.031 C 
ATOM     66  C   UNL     1       3.803  11.869   5.484  1.00  0.00     0.031 A 
BRANCH  53  67
ATOM     67  C   UNL     1       5.688   6.630   8.144  1.00  0.00    -0.014 A 
ATOM     68  C   UNL     1       6.522   5.667   7.555  1.00  0.00     0.009 A 
ATOM     69  C   UNL     1       5.843   6.928   9.506  1.00  0.00     0.009 A 
ATOM     70  C   UNL     1       7.472   4.993   8.324  1.00  0.00     0.001 A 
ATOM     71  C   UNL     1       6.807   6.267  10.268  1.00  0.00     0.001 A 
ATOM     72  C   UNL     1       7.615   5.295   9.678  1.00  0.00     0.000 A 
ENDBRANCH  53  67
BRANCH  54  73
ATOM     73  C   UNL     1      -1.535  10.924   2.816  1.00  0.00    -0.014 A 
ATOM     74  C   UNL     1      -1.312  11.277   1.477  1.00  0.00     0.009 A 
ATOM     75  C   UNL     1      -2.771  11.230   3.405  1.00  0.00     0.009 A 
ATOM     76  C   UNL     1      -2.300  11.944   0.749  1.00  0.00     0.001 A 
ATOM     77  C   UNL     1      -3.764  11.877   2.668  1.00  0.00     0.001 A 
ATOM     78  C   UNL     1      -3.525  12.241   1.344  1.00  0.00     0.000 A 
ENDBRANCH  54  73
BRANCH  66  79
ATOM     79  C   UNL     1       4.486  13.206   5.439  1.00  0.00    -0.014 A 
ATOM     80  C   UNL     1       4.061  14.267   6.252  1.00  0.00     0.009 A 
ATOM     81  C   UNL     1       5.599  13.390   4.604  1.00  0.00     0.009 A 
ATOM     82  C   UNL     1       4.723  15.495   6.211  1.00  0.00     0.001 A 
ATOM     83  C   UNL     1       6.272  14.612   4.581  1.00  0.00     0.001 A 
ATOM     84  C   UNL     1       5.830  15.665   5.379  1.00  0.00     0.000 A 
ENDBRANCH  66  79
ENDBRANCH  40  41
ENDBRANCH  33  35
ENDBRANCH  32  33
ENDBRANCH  31  32
ENDBRANCH  30  31
ENDBRANCH  29  30
ENDBRANCH  28  29
ENDBRANCH   1  28
TORSDOF 19
