REMARK SMILES CC(C)[C@@H](NC(=O)[C@@H]1CCCCC[C@H]1[NH3+])C(=O)OCCOCCOCCOC(=O)c1ccc(-c2c3nc(c(-c4ccccc4)c4ccc([nH]4)c(-c4ccccc4)c4nc(c(-c5ccccc5)c5ccc2[nH]5)C=C4)C=C3)cc1
REMARK SMILES IDX 21 1 20 2 19 3 18 4 16 5 17 6 4 7 2 8 1 9 3 10 5 11 6 12
REMARK SMILES IDX 7 14 8 15 9 16 10 17 11 18 14 20 13 21 12 22 15 24 22 28
REMARK SMILES IDX 23 29 24 30 25 31 26 32 27 33 28 34 29 35 30 36 31 37 77 38
REMARK SMILES IDX 32 39 76 40 33 41 34 42 35 43 70 44 36 45 75 46 69 47 71 48
REMARK SMILES IDX 37 49 74 50 68 51 67 52 38 54 60 55 45 56 59 57 46 58 49 59
REMARK SMILES IDX 58 60 72 61 47 62 48 63 57 65 73 66 50 67 39 68 40 69 44 70
REMARK SMILES IDX 41 71 43 72 42 73 61 74 62 75 66 76 63 77 65 78 64 79 51 80
REMARK SMILES IDX 52 81 56 82 53 83 55 84 54 85
REMARK H PARENT 5 13 15 25 15 26 15 27 71 53 49 64
REMARK Flexibility Score: 90.00
ROOT
ATOM      1  O   UNL     1      -2.671  -5.334   2.592  1.00  0.00    -0.376 OA
ENDROOT
BRANCH   1   2
ATOM      2  C   UNL     1      -2.379  -5.782   1.284  1.00  0.00     0.202 C 
BRANCH   2   3
ATOM      3  C   UNL     1      -2.164  -4.703   0.216  1.00  0.00     0.261 C 
BRANCH   3   4
ATOM      4  O   UNL     1      -1.358  -3.514   0.375  1.00  0.00    -0.462 OA
BRANCH   4   5
ATOM      5  C   UNL     1      -2.030  -2.329   0.293  1.00  0.00     0.328 C 
ATOM      6  O   UNL     1      -3.202  -2.196   0.636  1.00  0.00    -0.250 OA
BRANCH   5   7
ATOM      7  C   UNL     1      -1.267  -1.238  -0.494  1.00  0.00     0.194 C 
BRANCH   7   8
ATOM      8  C   UNL     1       0.292  -1.169  -0.496  1.00  0.00     0.017 C 
ATOM      9  C   UNL     1       0.757   0.300  -0.663  1.00  0.00     0.010 C 
ATOM     10  C   UNL     1       0.974  -1.697   0.770  1.00  0.00     0.010 C 
ENDBRANCH   7   8
BRANCH   7  11
ATOM     11  N   UNL     1      -1.824  -0.963  -1.854  1.00  0.00    -0.342 N 
ATOM     12  C   UNL     1      -2.264  -1.739  -2.894  1.00  0.00     0.229 C 
ATOM     13  H   UNL     1      -1.890   0.000  -2.047  1.00  0.00     0.164 HD
ATOM     14  O   UNL     1      -2.187  -1.256  -4.028  1.00  0.00    -0.275 OA
BRANCH  12  15
ATOM     15  C   UNL     1      -2.894  -3.119  -2.675  1.00  0.00     0.136 C 
BRANCH  15  16
ATOM     16  C   UNL     1      -2.016  -4.207  -3.321  1.00  0.00     0.020 C 
BRANCH  16  17
ATOM     17  C   UNL     1      -2.375  -5.647  -2.938  1.00  0.00     0.001 C 
BRANCH  17  18
ATOM     18  C   UNL     1      -3.437  -6.346  -3.758  1.00  0.00     0.000 CG0
ATOM     19  G   UNL     1      -4.690  -5.527  -4.024  1.00  0.00     0.000 G0
ENDBRANCH  17  18
ENDBRANCH  16  17
ENDBRANCH  15  16
BRANCH  15  20
ATOM     20  C   UNL     1      -4.382  -3.140  -3.101  1.00  0.00     0.193 C 
BRANCH  20  21
ATOM     21  C   UNL     1      -5.078  -4.514  -2.944  1.00  0.00     0.066 C 
BRANCH  21  22
ATOM     22  C   UNL     1      -4.690  -5.527  -4.024  1.00  0.00     0.006 CG0
ATOM     23  G   UNL     1      -3.437  -6.346  -3.758  1.00  0.00     0.000 G0
ENDBRANCH  21  22
ENDBRANCH  20  21
BRANCH  20  24
ATOM     24  N   UNL     1      -5.140  -2.177  -2.281  1.00  0.00    -0.354 N 
ATOM     25  H   UNL     1      -5.106  -2.462  -1.302  1.00  0.00     0.344 HD
ATOM     26  H   UNL     1      -6.110  -2.152  -2.595  1.00  0.00     0.344 HD
ATOM     27  H   UNL     1      -4.728  -1.249  -2.379  1.00  0.00     0.344 HD
ENDBRANCH  20  24
ENDBRANCH  15  20
ENDBRANCH  12  15
ENDBRANCH   7  11
ENDBRANCH   5   7
ENDBRANCH   4   5
ENDBRANCH   3   4
ENDBRANCH   2   3
ENDBRANCH   1   2
BRANCH   1  28
ATOM     28  C   UNL     1      -1.757  -4.362   3.065  1.00  0.00     0.188 C 
BRANCH  28  29
ATOM     29  C   UNL     1      -0.275  -4.734   2.934  1.00  0.00     0.188 C 
BRANCH  29  30
ATOM     30  O   UNL     1       0.170  -5.373   1.741  1.00  0.00    -0.376 OA
BRANCH  30  31
ATOM     31  C   UNL     1       1.554  -5.728   1.671  1.00  0.00     0.202 C 
BRANCH  31  32
ATOM     32  C   UNL     1       2.104  -6.528   2.869  1.00  0.00     0.261 C 
BRANCH  32  33
ATOM     33  O   UNL     1       2.035  -5.846   4.142  1.00  0.00    -0.460 OA
BRANCH  33  34
ATOM     34  C   UNL     1       2.511  -4.575   4.197  1.00  0.00     0.338 C 
ATOM     35  O   UNL     1       3.311  -4.080   3.435  1.00  0.00    -0.246 OA
BRANCH  34  36
ATOM     36  C   UNL     1       1.657  -3.785   5.145  1.00  0.00     0.060 A 
ATOM     37  C   UNL     1       1.478  -2.421   4.864  1.00  0.00     0.016 A 
ATOM     38  C   UNL     1       0.902  -4.377   6.169  1.00  0.00     0.016 A 
ATOM     39  C   UNL     1       0.621  -1.641   5.642  1.00  0.00     0.010 A 
ATOM     40  C   UNL     1       0.043  -3.593   6.953  1.00  0.00     0.010 A 
ATOM     41  C   UNL     1      -0.051  -2.208   6.732  1.00  0.00    -0.014 A 
BRANCH  41  42
ATOM     42  C   UNL     1      -0.554  -1.295   7.793  1.00  0.00     0.031 A 
ATOM     43  C   UNL     1       0.369  -1.026   8.957  1.00  0.00     0.074 A 
ATOM     44  C   UNL     1      -1.715  -0.622   7.694  1.00  0.00     0.049 A 
ATOM     45  N   UNL     1       0.237  -0.188   9.953  1.00  0.00    -0.248 NA
ATOM     46  C   UNL     1       1.619  -1.805   8.991  1.00  0.00     0.031 C 
ATOM     47  C   UNL     1      -2.679  -0.736   6.602  1.00  0.00     0.029 A 
ATOM     48  N   UNL     1      -2.265   0.320   8.531  1.00  0.00    -0.354 N 
ATOM     49  C   UNL     1       1.386  -0.337  10.721  1.00  0.00     0.074 A 
ATOM     50  C   UNL     1       2.180  -1.375  10.108  1.00  0.00     0.031 C 
ATOM     51  C   UNL     1      -3.696   0.117   6.830  1.00  0.00     0.029 A 
ATOM     52  C   UNL     1      -3.466   0.822   8.091  1.00  0.00     0.049 A 
ATOM     53  H   UNL     1      -1.837   0.609   9.370  1.00  0.00     0.167 HD
ATOM     54  C   UNL     1       1.765   0.338  11.831  1.00  0.00     0.031 A 
ATOM     55  C   UNL     1      -4.283   1.742   8.643  1.00  0.00     0.031 A 
ATOM     56  C   UNL     1       0.977   1.356  12.466  1.00  0.00     0.049 A 
ATOM     57  C   UNL     1      -3.883   2.417   9.933  1.00  0.00     0.074 A 
ATOM     58  C   UNL     1       1.270   2.089  13.602  1.00  0.00     0.029 A 
ATOM     59  N   UNL     1      -0.268   1.776  12.026  1.00  0.00    -0.354 N 
ATOM     60  N   UNL     1      -2.784   2.282  10.636  1.00  0.00    -0.248 NA
ATOM     61  C   UNL     1      -4.835   3.388  10.494  1.00  0.00     0.031 C 
ATOM     62  C   UNL     1       0.174   2.909  13.886  1.00  0.00     0.029 A 
ATOM     63  C   UNL     1      -0.767   2.742  12.883  1.00  0.00     0.049 A 
ATOM     64  H   UNL     1      -0.728   1.439  11.224  1.00  0.00     0.167 HD
ATOM     65  C   UNL     1      -2.898   3.175  11.698  1.00  0.00     0.074 A 
ATOM     66  C   UNL     1      -4.163   3.858  11.535  1.00  0.00     0.031 C 
ATOM     67  C   UNL     1      -2.030   3.413  12.713  1.00  0.00     0.031 A 
BRANCH  54  68
ATOM     68  C   UNL     1       3.080  -0.049  12.449  1.00  0.00    -0.014 A 
ATOM     69  C   UNL     1       4.301   0.241  11.818  1.00  0.00     0.009 A 
ATOM     70  C   UNL     1       3.095  -0.715  13.683  1.00  0.00     0.009 A 
ATOM     71  C   UNL     1       5.508  -0.164  12.393  1.00  0.00     0.001 A 
ATOM     72  C   UNL     1       4.303  -1.088  14.272  1.00  0.00     0.001 A 
ATOM     73  C   UNL     1       5.507  -0.823  13.622  1.00  0.00     0.000 A 
ENDBRANCH  54  68
BRANCH  55  74
ATOM     74  C   UNL     1      -5.578   2.089   7.992  1.00  0.00    -0.014 A 
ATOM     75  C   UNL     1      -5.803   3.370   7.461  1.00  0.00     0.009 A 
ATOM     76  C   UNL     1      -6.620   1.149   7.946  1.00  0.00     0.009 A 
ATOM     77  C   UNL     1      -7.049   3.709   6.927  1.00  0.00     0.001 A 
ATOM     78  C   UNL     1      -7.854   1.480   7.382  1.00  0.00     0.001 A 
ATOM     79  C   UNL     1      -8.072   2.763   6.883  1.00  0.00     0.000 A 
ENDBRANCH  55  74
BRANCH  67  80
ATOM     80  C   UNL     1      -2.395   4.492  13.699  1.00  0.00    -0.014 A 
ATOM     81  C   UNL     1      -3.463   4.343  14.598  1.00  0.00     0.009 A 
ATOM     82  C   UNL     1      -1.636   5.674  13.742  1.00  0.00     0.009 A 
ATOM     83  C   UNL     1      -3.796   5.376  15.479  1.00  0.00     0.001 A 
ATOM     84  C   UNL     1      -1.947   6.688  14.648  1.00  0.00     0.001 A 
ATOM     85  C   UNL     1      -3.036   6.545  15.505  1.00  0.00     0.000 A 
ENDBRANCH  67  80
ENDBRANCH  41  42
ENDBRANCH  34  36
ENDBRANCH  33  34
ENDBRANCH  32  33
ENDBRANCH  31  32
ENDBRANCH  30  31
ENDBRANCH  29  30
ENDBRANCH  28  29
ENDBRANCH   1  28
TORSDOF 21
