REMARK SMILES C/C(=N/OCc1ccccc1Nc1c(Cl)cccc1Cl)C(=O)OCCOCCOCCOC(=O)c1ccc(-c2c3nc(c(-c4ccccc4)c4ccc([nH]4)c(-c4ccccc4)c4nc(c(-c5ccccc5)c5ccc2[nH]5)C=C4)C=C3)cc1
REMARK SMILES IDX 26 1 25 2 24 3 23 4 21 5 22 6 2 7 1 8 3 9 4 10 5 11 6 12
REMARK SMILES IDX 7 13 11 14 8 15 10 16 9 17 12 18 13 20 14 21 19 22 15 23
REMARK SMILES IDX 16 24 18 25 20 26 17 27 27 28 28 29 29 30 30 31 31 32 32 33
REMARK SMILES IDX 33 34 34 35 35 36 36 37 82 38 37 39 81 40 38 41 39 42 40 43
REMARK SMILES IDX 75 44 41 45 80 46 74 47 76 48 42 49 79 50 73 51 72 52 43 54
REMARK SMILES IDX 65 55 50 56 64 57 51 58 54 59 63 60 77 61 52 62 53 63 62 65
REMARK SMILES IDX 78 66 55 67 44 68 45 69 49 70 46 71 48 72 47 73 66 74 67 75
REMARK SMILES IDX 71 76 68 77 70 78 69 79 56 80 57 81 61 82 58 83 60 84 59 85
REMARK H PARENT 12 19 76 53 54 64
REMARK Flexibility Score: inf
ROOT
ATOM      1  O   UNL     1       0.774  -5.003   1.752  1.00  0.00    -0.376 OA
ENDROOT
BRANCH   1   2
ATOM      2  C   UNL     1       0.947  -4.700   3.136  1.00  0.00     0.202 C 
BRANCH   2   3
ATOM      3  C   UNL     1       1.810  -3.483   3.467  1.00  0.00     0.261 C 
BRANCH   3   4
ATOM      4  O   UNL     1       1.090  -2.295   3.112  1.00  0.00    -0.459 OA
BRANCH   4   5
ATOM      5  C   UNL     1       1.831  -1.254   2.691  1.00  0.00     0.355 C 
ATOM      6  O   UNL     1       3.043  -1.132   2.731  1.00  0.00    -0.245 OA
BRANCH   5   7
ATOM      7  C   UNL     1       0.960  -0.371   1.819  1.00  0.00     0.161 C 
ATOM      8  C   UNL     1       1.369  -0.288   0.374  1.00  0.00     0.079 C 
ATOM      9  N   UNL     1      -0.111   0.260   2.206  1.00  0.00    -0.084 NA
BRANCH   9  10
ATOM     10  O   UNL     1      -0.296   0.177   3.596  1.00  0.00    -0.390 OA
BRANCH  10  11
ATOM     11  C   UNL     1      -1.319   1.105   4.001  1.00  0.00     0.302 C 
BRANCH  11  12
ATOM     12  C   UNL     1      -0.737   2.424   4.483  1.00  0.00     0.016 A 
ATOM     13  C   UNL     1      -1.088   2.872   5.771  1.00  0.00     0.009 A 
ATOM     14  C   UNL     1       0.112   3.228   3.684  1.00  0.00     0.045 A 
ATOM     15  C   UNL     1      -0.588   4.072   6.274  1.00  0.00     0.001 A 
ATOM     16  C   UNL     1       0.620   4.422   4.217  1.00  0.00     0.026 A 
ATOM     17  C   UNL     1       0.275   4.840   5.502  1.00  0.00     0.002 A 
BRANCH  14  18
ATOM     18  N   UNL     1       0.409   2.864   2.358  1.00  0.00    -0.353 N 
ATOM     19  H   UNL     1      -0.305   2.342   1.925  1.00  0.00     0.167 HD
BRANCH  18  20
ATOM     20  C   UNL     1       1.526   3.096   1.522  1.00  0.00     0.076 A 
ATOM     21  C   UNL     1       1.299   3.352   0.150  1.00  0.00     0.066 A 
ATOM     22  C   UNL     1       2.862   2.891   1.925  1.00  0.00     0.066 A 
ATOM     23  Cl  UNL     1      -0.312   3.510  -0.473  1.00  0.00    -0.082 Cl
ATOM     24  C   UNL     1       2.351   3.435  -0.769  1.00  0.00     0.023 A 
ATOM     25  C   UNL     1       3.914   2.977   1.000  1.00  0.00     0.023 A 
ATOM     26  Cl  UNL     1       3.292   2.394   3.526  1.00  0.00    -0.082 Cl
ATOM     27  C   UNL     1       3.661   3.250  -0.342  1.00  0.00     0.003 A 
ENDBRANCH  18  20
ENDBRANCH  14  18
ENDBRANCH  11  12
ENDBRANCH  10  11
ENDBRANCH   9  10
ENDBRANCH   5   7
ENDBRANCH   4   5
ENDBRANCH   3   4
ENDBRANCH   2   3
ENDBRANCH   1   2
BRANCH   1  28
ATOM     28  C   UNL     1       0.327  -3.977   0.882  1.00  0.00     0.188 C 
BRANCH  28  29
ATOM     29  C   UNL     1      -1.015  -3.259   1.151  1.00  0.00     0.188 C 
BRANCH  29  30
ATOM     30  O   UNL     1      -1.954  -3.775   2.074  1.00  0.00    -0.376 OA
BRANCH  30  31
ATOM     31  C   UNL     1      -2.305  -5.147   2.019  1.00  0.00     0.202 C 
BRANCH  31  32
ATOM     32  C   UNL     1      -2.869  -5.717   0.716  1.00  0.00     0.261 C 
BRANCH  32  33
ATOM     33  O   UNL     1      -2.041  -5.476  -0.432  1.00  0.00    -0.460 OA
BRANCH  33  34
ATOM     34  C   UNL     1      -2.603  -4.702  -1.393  1.00  0.00     0.338 C 
ATOM     35  O   UNL     1      -3.723  -4.222  -1.401  1.00  0.00    -0.246 OA
BRANCH  34  36
ATOM     36  C   UNL     1      -1.591  -4.365  -2.411  1.00  0.00     0.060 A 
ATOM     37  C   UNL     1      -1.342  -3.011  -2.677  1.00  0.00     0.016 A 
ATOM     38  C   UNL     1      -0.954  -5.364  -3.148  1.00  0.00     0.016 A 
ATOM     39  C   UNL     1      -0.478  -2.651  -3.710  1.00  0.00     0.010 A 
ATOM     40  C   UNL     1      -0.104  -5.001  -4.196  1.00  0.00     0.010 A 
ATOM     41  C   UNL     1       0.112  -3.645  -4.502  1.00  0.00    -0.014 A 
BRANCH  41  42
ATOM     42  C   UNL     1       0.815  -3.280  -5.754  1.00  0.00     0.031 A 
ATOM     43  C   UNL     1       0.047  -3.304  -7.046  1.00  0.00     0.074 A 
ATOM     44  C   UNL     1       2.116  -2.943  -5.750  1.00  0.00     0.049 A 
ATOM     45  N   UNL     1       0.473  -3.104  -8.267  1.00  0.00    -0.248 NA
ATOM     46  C   UNL     1      -1.393  -3.594  -6.947  1.00  0.00     0.031 C 
ATOM     47  C   UNL     1       2.962  -2.835  -4.563  1.00  0.00     0.029 A 
ATOM     48  N   UNL     1       2.956  -2.645  -6.794  1.00  0.00    -0.354 N 
ATOM     49  C   UNL     1      -0.642  -3.252  -9.082  1.00  0.00     0.074 A 
ATOM     50  C   UNL     1      -1.759  -3.577  -8.220  1.00  0.00     0.031 C 
ATOM     51  C   UNL     1       4.210  -2.512  -4.949  1.00  0.00     0.029 A 
ATOM     52  C   UNL     1       4.255  -2.425  -6.407  1.00  0.00     0.049 A 
ATOM     53  H   UNL     1       2.656  -2.595  -7.730  1.00  0.00     0.167 HD
ATOM     54  C   UNL     1      -0.732  -3.129 -10.427  1.00  0.00     0.031 A 
ATOM     55  C   UNL     1       5.358  -2.208  -7.149  1.00  0.00     0.031 A 
ATOM     56  C   UNL     1       0.377  -2.831 -11.291  1.00  0.00     0.049 A 
ATOM     57  C   UNL     1       5.250  -2.170  -8.651  1.00  0.00     0.074 A 
ATOM     58  C   UNL     1       0.381  -2.679 -12.667  1.00  0.00     0.029 A 
ATOM     59  N   UNL     1       1.681  -2.650 -10.864  1.00  0.00    -0.354 N 
ATOM     60  N   UNL     1       4.187  -2.288  -9.409  1.00  0.00    -0.248 NA
ATOM     61  C   UNL     1       6.501  -1.967  -9.400  1.00  0.00     0.031 C 
ATOM     62  C   UNL     1       1.699  -2.457 -13.077  1.00  0.00     0.029 A 
ATOM     63  C   UNL     1       2.505  -2.417 -11.951  1.00  0.00     0.049 A 
ATOM     64  H   UNL     1       1.979  -2.684  -9.926  1.00  0.00     0.167 HD
ATOM     65  C   UNL     1       4.635  -2.146 -10.717  1.00  0.00     0.074 A 
ATOM     66  C   UNL     1       6.064  -1.923 -10.651  1.00  0.00     0.031 C 
ATOM     67  C   UNL     1       3.925  -2.192 -11.871  1.00  0.00     0.031 A 
BRANCH  54  68
ATOM     68  C   UNL     1      -2.079  -3.359 -11.049  1.00  0.00    -0.014 A 
ATOM     69  C   UNL     1      -3.108  -2.413 -10.925  1.00  0.00     0.009 A 
ATOM     70  C   UNL     1      -2.313  -4.528 -11.789  1.00  0.00     0.009 A 
ATOM     71  C   UNL     1      -4.356  -2.649 -11.506  1.00  0.00     0.001 A 
ATOM     72  C   UNL     1      -3.553  -4.749 -12.389  1.00  0.00     0.001 A 
ATOM     73  C   UNL     1      -4.576  -3.814 -12.240  1.00  0.00     0.000 A 
ENDBRANCH  54  68
BRANCH  55  74
ATOM     74  C   UNL     1       6.679  -2.039  -6.490  1.00  0.00    -0.014 A 
ATOM     75  C   UNL     1       7.322  -0.793  -6.490  1.00  0.00     0.009 A 
ATOM     76  C   UNL     1       7.317  -3.135  -5.887  1.00  0.00     0.009 A 
ATOM     77  C   UNL     1       8.590  -0.653  -5.921  1.00  0.00     0.001 A 
ATOM     78  C   UNL     1       8.573  -2.985  -5.296  1.00  0.00     0.001 A 
ATOM     79  C   UNL     1       9.213  -1.747  -5.322  1.00  0.00     0.000 A 
ENDBRANCH  55  74
BRANCH  67  80
ATOM     80  C   UNL     1       4.671  -1.957 -13.154  1.00  0.00    -0.014 A 
ATOM     81  C   UNL     1       5.518  -2.936 -13.695  1.00  0.00     0.009 A 
ATOM     82  C   UNL     1       4.480  -0.757 -13.857  1.00  0.00     0.009 A 
ATOM     83  C   UNL     1       6.180  -2.705 -14.903  1.00  0.00     0.001 A 
ATOM     84  C   UNL     1       5.123  -0.539 -15.076  1.00  0.00     0.001 A 
ATOM     85  C   UNL     1       5.979  -1.510 -15.594  1.00  0.00     0.000 A 
ENDBRANCH  67  80
ENDBRANCH  41  42
ENDBRANCH  34  36
ENDBRANCH  33  34
ENDBRANCH  32  33
ENDBRANCH  31  32
ENDBRANCH  30  31
ENDBRANCH  29  30
ENDBRANCH  28  29
ENDBRANCH   1  28
TORSDOF 22
