REMARK SMILES CCCCc1ncc(C[N@H+]2C[C@@H]3c4ccccc4OC[C@]3(C(=O)OCCOCCOCCOC(=O)c3ccc(-c4c5nc(c(-c6ccccc6)c6ccc([nH]6)c(-c6ccccc6)c6nc(c(-c7ccccc7)c7ccc4[nH]7)C=C6)C=C5)cc3)C2)[nH]1
REMARK SMILES IDX 27 1 26 2 25 3 24 4 22 5 23 6 21 7 10 8 11 9 84 10 12 12
REMARK SMILES IDX 13 13 20 14 14 15 18 16 19 17 15 18 17 19 16 20 9 21 8 22
REMARK SMILES IDX 5 23 6 24 85 25 7 26 4 28 3 29 2 30 1 31 28 32 29 33 30 34
REMARK SMILES IDX 31 35 32 36 33 37 34 38 35 39 36 40 37 41 83 42 38 43 82 44
REMARK SMILES IDX 39 45 40 46 41 47 76 48 42 49 81 50 75 51 77 52 43 53 80 54
REMARK SMILES IDX 74 55 73 56 44 58 66 59 51 60 65 61 52 62 55 63 64 64 78 65
REMARK SMILES IDX 53 66 54 67 63 69 79 70 56 71 45 72 46 73 50 74 47 75 49 76
REMARK SMILES IDX 48 77 67 78 68 79 72 80 69 81 71 82 70 83 57 84 58 85 62 86
REMARK SMILES IDX 59 87 61 88 60 89
REMARK H PARENT 10 11 85 27 77 57 55 68
REMARK Flexibility Score: inf
ROOT
ATOM      1  O   UNL     1      -1.803  -9.379  -0.613  1.00  0.00    -0.376 OA
ENDROOT
BRANCH   1   2
ATOM      2  C   UNL     1      -0.754  -8.982   0.249  1.00  0.00     0.202 C 
BRANCH   2   3
ATOM      3  C   UNL     1      -0.857  -7.659   1.059  1.00  0.00     0.261 C 
BRANCH   3   4
ATOM      4  O   UNL     1      -1.554  -6.601   0.376  1.00  0.00    -0.463 OA
BRANCH   4   5
ATOM      5  C   UNL     1      -1.447  -5.254   0.693  1.00  0.00     0.322 C 
ATOM      6  O   UNL     1      -0.676  -4.812   1.529  1.00  0.00    -0.251 OA
BRANCH   5   7
ATOM      7  C   UNL     1      -2.581  -4.510  -0.070  1.00  0.00     0.162 C 
ATOM      8  N   UNL     1      -4.454  -3.816   1.395  1.00  0.00    -0.328 N 
ATOM      9  C   UNL     1      -4.369  -2.837   0.339  1.00  0.00     0.272 C 
ATOM     10  C   UNL     1      -3.774  -4.989   0.819  1.00  0.00     0.286 C 
ATOM     11  H   UNL     1      -5.395  -4.102   1.666  1.00  0.00     0.348 HD
ATOM     12  C   UNL     1      -2.949  -2.991  -0.261  1.00  0.00     0.105 C 
ATOM     13  C   UNL     1      -3.192  -2.503  -1.698  1.00  0.00     0.004 A 
ATOM     14  C   UNL     1      -2.210  -4.921  -1.506  1.00  0.00     0.255 C 
ATOM     15  C   UNL     1      -3.463  -1.159  -1.986  1.00  0.00     0.008 A 
ATOM     16  C   UNL     1      -3.411  -3.444  -2.706  1.00  0.00     0.123 A 
ATOM     17  O   UNL     1      -3.252  -4.772  -2.449  1.00  0.00    -0.492 OA
ATOM     18  C   UNL     1      -3.947  -0.792  -3.248  1.00  0.00     0.001 A 
ATOM     19  C   UNL     1      -3.877  -3.085  -3.966  1.00  0.00     0.047 A 
ATOM     20  C   UNL     1      -4.142  -1.752  -4.241  1.00  0.00     0.004 A 
BRANCH   8  21
ATOM     21  C   UNL     1      -4.074  -3.296   2.717  1.00  0.00     0.319 C 
BRANCH  21  22
ATOM     22  C   UNL     1      -2.955  -2.309   2.757  1.00  0.00     0.090 A 
ATOM     23  C   UNL     1      -0.888  -1.498   2.671  1.00  0.00     0.106 A 
ATOM     24  N   UNL     1      -1.672  -0.442   2.615  1.00  0.00    -0.241 NA
ATOM     25  N   UNL     1      -1.627  -2.643   2.853  1.00  0.00    -0.341 N 
ATOM     26  C   UNL     1      -2.950  -0.928   2.690  1.00  0.00     0.140 A 
ATOM     27  H   UNL     1      -1.268  -3.544   3.022  1.00  0.00     0.168 HD
BRANCH  23  28
ATOM     28  C   UNL     1       0.598  -1.509   2.546  1.00  0.00     0.075 C 
BRANCH  28  29
ATOM     29  C   UNL     1       1.100  -1.986   1.178  1.00  0.00     0.008 C 
BRANCH  29  30
ATOM     30  C   UNL     1       0.654  -1.163  -0.034  1.00  0.00    -0.003 C 
ATOM     31  C   UNL     1       1.163   0.266  -0.021  1.00  0.00     0.004 C 
ENDBRANCH  29  30
ENDBRANCH  28  29
ENDBRANCH  23  28
ENDBRANCH  21  22
ENDBRANCH   8  21
ENDBRANCH   5   7
ENDBRANCH   4   5
ENDBRANCH   3   4
ENDBRANCH   2   3
ENDBRANCH   1   2
BRANCH   1  32
ATOM     32  C   UNL     1      -2.170  -8.524  -1.681  1.00  0.00     0.188 C 
BRANCH  32  33
ATOM     33  C   UNL     1      -3.594  -7.990  -1.431  1.00  0.00     0.188 C 
BRANCH  33  34
ATOM     34  O   UNL     1      -4.513  -8.842  -0.756  1.00  0.00    -0.376 OA
BRANCH  34  35
ATOM     35  C   UNL     1      -4.553 -10.199  -1.174  1.00  0.00     0.202 C 
BRANCH  35  36
ATOM     36  C   UNL     1      -4.977 -10.449  -2.628  1.00  0.00     0.261 C 
BRANCH  36  37
ATOM     37  O   UNL     1      -4.142  -9.784  -3.604  1.00  0.00    -0.460 OA
BRANCH  37  38
ATOM     38  C   UNL     1      -4.766  -8.996  -4.507  1.00  0.00     0.338 C 
ATOM     39  O   UNL     1      -5.981  -8.834  -4.638  1.00  0.00    -0.246 OA
BRANCH  38  40
ATOM     40  C   UNL     1      -3.776  -8.237  -5.296  1.00  0.00     0.060 A 
ATOM     41  C   UNL     1      -3.243  -8.753  -6.476  1.00  0.00     0.016 A 
ATOM     42  C   UNL     1      -3.444  -6.936  -4.909  1.00  0.00     0.016 A 
ATOM     43  C   UNL     1      -2.363  -7.970  -7.245  1.00  0.00     0.010 A 
ATOM     44  C   UNL     1      -2.551  -6.167  -5.663  1.00  0.00     0.010 A 
ATOM     45  C   UNL     1      -2.007  -6.665  -6.849  1.00  0.00    -0.014 A 
BRANCH  45  46
ATOM     46  C   UNL     1      -1.189  -5.770  -7.721  1.00  0.00     0.031 A 
ATOM     47  C   UNL     1       0.174  -5.274  -7.313  1.00  0.00     0.074 A 
ATOM     48  C   UNL     1      -1.723  -5.314  -8.873  1.00  0.00     0.049 A 
ATOM     49  N   UNL     1       1.044  -4.590  -8.018  1.00  0.00    -0.248 NA
ATOM     50  C   UNL     1       0.613  -5.552  -5.936  1.00  0.00     0.031 C 
ATOM     51  C   UNL     1      -3.083  -5.593  -9.333  1.00  0.00     0.029 A 
ATOM     52  N   UNL     1      -1.191  -4.523  -9.865  1.00  0.00    -0.354 N 
ATOM     53  C   UNL     1       2.132  -4.372  -7.182  1.00  0.00     0.074 A 
ATOM     54  C   UNL     1       1.787  -4.935  -5.894  1.00  0.00     0.031 C 
ATOM     55  C   UNL     1      -3.260  -5.033 -10.539  1.00  0.00     0.029 A 
ATOM     56  C   UNL     1      -2.036  -4.338 -10.934  1.00  0.00     0.049 A 
ATOM     57  H   UNL     1      -0.291  -4.128  -9.815  1.00  0.00     0.167 HD
ATOM     58  C   UNL     1       3.321  -3.788  -7.470  1.00  0.00     0.031 A 
ATOM     59  C   UNL     1      -1.850  -3.710 -12.113  1.00  0.00     0.031 A 
ATOM     60  C   UNL     1       3.658  -3.219  -8.751  1.00  0.00     0.049 A 
ATOM     61  C   UNL     1      -0.513  -3.096 -12.430  1.00  0.00     0.074 A 
ATOM     62  C   UNL     1       4.875  -2.702  -9.165  1.00  0.00     0.029 A 
ATOM     63  N   UNL     1       2.781  -3.074  -9.814  1.00  0.00    -0.354 N 
ATOM     64  N   UNL     1       0.569  -3.055 -11.692  1.00  0.00    -0.248 NA
ATOM     65  C   UNL     1      -0.359  -2.466 -13.752  1.00  0.00     0.031 C 
ATOM     66  C   UNL     1       4.714  -2.175 -10.446  1.00  0.00     0.029 A 
ATOM     67  C   UNL     1       3.423  -2.445 -10.868  1.00  0.00     0.049 A 
ATOM     68  H   UNL     1       1.844  -3.373  -9.819  1.00  0.00     0.167 HD
ATOM     69  C   UNL     1       1.536  -2.426 -12.466  1.00  0.00     0.074 A 
ATOM     70  C   UNL     1       0.921  -2.113 -13.737  1.00  0.00     0.031 C 
ATOM     71  C   UNL     1       2.820  -2.139 -12.142  1.00  0.00     0.031 A 
BRANCH  58  72
ATOM     72  C   UNL     1       4.391  -3.767  -6.407  1.00  0.00    -0.014 A 
ATOM     73  C   UNL     1       4.897  -2.545  -5.931  1.00  0.00     0.009 A 
ATOM     74  C   UNL     1       5.009  -4.958  -5.992  1.00  0.00     0.009 A 
ATOM     75  C   UNL     1       6.007  -2.516  -5.084  1.00  0.00     0.001 A 
ATOM     76  C   UNL     1       6.097  -4.928  -5.117  1.00  0.00     0.001 A 
ATOM     77  C   UNL     1       6.604  -3.707  -4.674  1.00  0.00     0.000 A 
ENDBRANCH  58  72
BRANCH  59  78
ATOM     78  C   UNL     1      -2.947  -3.722 -13.119  1.00  0.00    -0.014 A 
ATOM     79  C   UNL     1      -4.138  -3.012 -12.897  1.00  0.00     0.009 A 
ATOM     80  C   UNL     1      -2.835  -4.508 -14.277  1.00  0.00     0.009 A 
ATOM     81  C   UNL     1      -5.203  -3.113 -13.795  1.00  0.00     0.001 A 
ATOM     82  C   UNL     1      -3.889  -4.579 -15.191  1.00  0.00     0.001 A 
ATOM     83  C   UNL     1      -5.076  -3.892 -14.944  1.00  0.00     0.000 A 
ENDBRANCH  59  78
BRANCH  71  84
ATOM     84  C   UNL     1       3.694  -1.464 -13.166  1.00  0.00    -0.014 A 
ATOM     85  C   UNL     1       4.809  -2.147 -13.684  1.00  0.00     0.009 A 
ATOM     86  C   UNL     1       3.516  -0.113 -13.496  1.00  0.00     0.009 A 
ATOM     87  C   UNL     1       5.745  -1.482 -14.479  1.00  0.00     0.001 A 
ATOM     88  C   UNL     1       4.437   0.541 -14.319  1.00  0.00     0.001 A 
ATOM     89  C   UNL     1       5.558  -0.139 -14.795  1.00  0.00     0.000 A 
ENDBRANCH  71  84
ENDBRANCH  45  46
ENDBRANCH  38  40
ENDBRANCH  37  38
ENDBRANCH  36  37
ENDBRANCH  35  36
ENDBRANCH  34  35
ENDBRANCH  33  34
ENDBRANCH  32  33
ENDBRANCH   1  32
TORSDOF 22
