REMARK SMILES CC(C)[C@H](NC(=O)[C@H](C)NC(=O)CNC(=O)OCc1ccccc1)C(=O)OCCOCCOCCOC(=O)c1ccc(-c2c3nc(c(-c4ccccc4)c4ccc([nH]4)c(-c4ccccc4)c4nc(c(-c5ccccc5)c5ccc2[nH]5)C=C4)C=C3)cc1
REMARK SMILES IDX 28 1 27 2 25 3 26 4 4 5 2 6 1 7 3 8 5 9 6 10 7 12 8 13 9 14
REMARK SMILES IDX 10 15 11 16 12 18 13 19 14 20 15 21 16 23 17 24 18 25 19 26
REMARK SMILES IDX 20 27 24 28 21 29 23 30 22 31 29 32 30 33 31 34 32 35 33 36
REMARK SMILES IDX 34 37 35 38 36 39 37 40 38 41 39 42 40 43 86 44 41 45 85 46
REMARK SMILES IDX 42 47 43 48 44 49 79 50 45 51 84 52 78 53 80 54 46 55 83 56
REMARK SMILES IDX 77 57 76 58 47 60 69 61 54 62 68 63 55 64 58 65 67 66 81 67
REMARK SMILES IDX 56 68 57 69 66 71 82 72 59 73 48 74 49 75 53 76 50 77 52 78
REMARK SMILES IDX 51 79 70 80 71 81 75 82 72 83 74 84 73 85 60 86 61 87 65 88
REMARK SMILES IDX 62 89 64 90 63 91
REMARK H PARENT 5 11 10 17 14 22 80 59 58 70
REMARK Flexibility Score: inf
ROOT
ATOM      1  C   UNL     1       1.462  -2.823   1.525  1.00  0.00     0.261 C 
ENDROOT
BRANCH   1   2
ATOM      2  O   UNL     1       0.084  -2.423   1.753  1.00  0.00    -0.462 OA
BRANCH   2   3
ATOM      3  C   UNL     1      -0.958  -3.310   1.779  1.00  0.00     0.328 C 
ATOM      4  O   UNL     1      -0.812  -4.508   1.559  1.00  0.00    -0.250 OA
BRANCH   3   5
ATOM      5  C   UNL     1      -2.438  -2.641   2.043  1.00  0.00     0.194 C 
BRANCH   5   6
ATOM      6  C   UNL     1      -3.219  -2.211   0.750  1.00  0.00     0.017 C 
ATOM      7  C   UNL     1      -3.832  -0.793   0.750  1.00  0.00     0.010 C 
ATOM      8  C   UNL     1      -2.424  -2.410  -0.535  1.00  0.00     0.010 C 
ENDBRANCH   5   6
BRANCH   5   9
ATOM      9  N   UNL     1      -2.865  -1.775   3.207  1.00  0.00    -0.341 N 
ATOM     10  C   UNL     1      -2.283  -0.647   3.738  1.00  0.00     0.242 C 
ATOM     11  H   UNL     1      -3.692  -2.064   3.655  1.00  0.00     0.164 HD
ATOM     12  O   UNL     1      -2.954   0.319   4.086  1.00  0.00    -0.273 OA
BRANCH  10  13
ATOM     13  C   UNL     1      -0.772  -0.639   3.740  1.00  0.00     0.168 C 
ATOM     14  C   UNL     1      -0.567  -0.085   2.273  1.00  0.00     0.041 C 
BRANCH  13  15
ATOM     15  N   UNL     1      -0.459  -2.067   4.210  1.00  0.00    -0.343 N 
ATOM     16  C   UNL     1       0.088  -2.831   5.182  1.00  0.00     0.240 C 
ATOM     17  H   UNL     1      -0.796  -2.679   3.517  1.00  0.00     0.164 HD
ATOM     18  O   UNL     1      -0.714  -3.728   5.515  1.00  0.00    -0.273 OA
BRANCH  16  19
ATOM     19  C   UNL     1       1.442  -2.794   5.979  1.00  0.00     0.219 C 
BRANCH  19  20
ATOM     20  N   UNL     1       2.784  -2.834   5.411  1.00  0.00    -0.312 N 
ATOM     21  C   UNL     1       3.969  -2.362   5.925  1.00  0.00     0.407 C 
ATOM     22  H   UNL     1       2.852  -3.262   4.527  1.00  0.00     0.167 HD
ATOM     23  O   UNL     1       5.001  -2.447   5.251  1.00  0.00    -0.225 OA
BRANCH  21  24
ATOM     24  O   UNL     1       3.923  -1.754   7.136  1.00  0.00    -0.445 OA
BRANCH  24  25
ATOM     25  C   UNL     1       4.767  -0.587   7.229  1.00  0.00     0.270 C 
BRANCH  25  26
ATOM     26  C   UNL     1       6.051  -0.491   8.016  1.00  0.00    -0.011 A 
ATOM     27  C   UNL     1       6.901  -1.564   8.246  1.00  0.00     0.007 A 
ATOM     28  C   UNL     1       6.462   0.804   8.425  1.00  0.00     0.007 A 
ATOM     29  C   UNL     1       8.140  -1.346   8.862  1.00  0.00     0.000 A 
ATOM     30  C   UNL     1       7.696   1.019   9.034  1.00  0.00     0.000 A 
ATOM     31  C   UNL     1       8.539  -0.062   9.247  1.00  0.00     0.000 A 
ENDBRANCH  25  26
ENDBRANCH  24  25
ENDBRANCH  21  24
ENDBRANCH  19  20
ENDBRANCH  16  19
ENDBRANCH  13  15
ENDBRANCH  10  13
ENDBRANCH   5   9
ENDBRANCH   3   5
ENDBRANCH   2   3
ENDBRANCH   1   2
BRANCH   1  32
ATOM     32  C   UNL     1       2.611  -1.894   2.096  1.00  0.00     0.202 C 
BRANCH  32  33
ATOM     33  O   UNL     1       2.354  -0.514   2.378  1.00  0.00    -0.376 OA
BRANCH  33  34
ATOM     34  C   UNL     1       2.250  -0.168   3.764  1.00  0.00     0.188 C 
BRANCH  34  35
ATOM     35  C   UNL     1       1.596   1.226   3.989  1.00  0.00     0.188 C 
BRANCH  35  36
ATOM     36  O   UNL     1       2.393   2.360   3.732  1.00  0.00    -0.376 OA
BRANCH  36  37
ATOM     37  C   UNL     1       3.635   2.319   4.393  1.00  0.00     0.202 C 
BRANCH  37  38
ATOM     38  C   UNL     1       3.527   2.304   5.934  1.00  0.00     0.261 C 
BRANCH  38  39
ATOM     39  O   UNL     1       2.752   1.196   6.520  1.00  0.00    -0.460 OA
BRANCH  39  40
ATOM     40  C   UNL     1       1.785   1.470   7.454  1.00  0.00     0.338 C 
ATOM     41  O   UNL     1       1.390   2.586   7.747  1.00  0.00    -0.246 OA
BRANCH  40  42
ATOM     42  C   UNL     1       1.236   0.232   8.124  1.00  0.00     0.060 A 
ATOM     43  C   UNL     1      -0.054  -0.258   7.852  1.00  0.00     0.016 A 
ATOM     44  C   UNL     1       1.960  -0.406   9.138  1.00  0.00     0.016 A 
ATOM     45  C   UNL     1      -0.584  -1.382   8.559  1.00  0.00     0.010 A 
ATOM     46  C   UNL     1       1.458  -1.552   9.795  1.00  0.00     0.010 A 
ATOM     47  C   UNL     1       0.161  -2.044   9.553  1.00  0.00    -0.014 A 
BRANCH  47  48
ATOM     48  C   UNL     1      -0.401  -3.093  10.494  1.00  0.00     0.031 A 
ATOM     49  C   UNL     1      -0.577  -2.726  11.960  1.00  0.00     0.074 A 
ATOM     50  C   UNL     1      -0.667  -4.374  10.147  1.00  0.00     0.049 A 
ATOM     51  N   UNL     1      -0.920  -3.472  12.984  1.00  0.00    -0.248 NA
ATOM     52  C   UNL     1      -0.295  -1.326  12.316  1.00  0.00     0.031 C 
ATOM     53  C   UNL     1      -0.560  -4.937   8.807  1.00  0.00     0.029 A 
ATOM     54  N   UNL     1      -1.061  -5.456  10.918  1.00  0.00    -0.354 N 
ATOM     55  C   UNL     1      -0.875  -2.638  14.098  1.00  0.00     0.074 A 
ATOM     56  C   UNL     1      -0.406  -1.351  13.634  1.00  0.00     0.031 C 
ATOM     57  C   UNL     1      -0.855  -6.251   8.846  1.00  0.00     0.029 A 
ATOM     58  C   UNL     1      -1.163  -6.643  10.220  1.00  0.00     0.049 A 
ATOM     59  H   UNL     1      -1.252  -5.385  11.882  1.00  0.00     0.167 HD
ATOM     60  C   UNL     1      -1.212  -2.889  15.388  1.00  0.00     0.031 A 
ATOM     61  C   UNL     1      -1.462  -7.899  10.625  1.00  0.00     0.031 A 
ATOM     62  C   UNL     1      -1.681  -4.155  15.886  1.00  0.00     0.049 A 
ATOM     63  C   UNL     1      -1.787  -8.177  12.075  1.00  0.00     0.074 A 
ATOM     64  C   UNL     1      -2.106  -4.474  17.166  1.00  0.00     0.029 A 
ATOM     65  N   UNL     1      -1.775  -5.313  15.134  1.00  0.00    -0.354 N 
ATOM     66  N   UNL     1      -1.829  -7.348  13.089  1.00  0.00    -0.248 NA
ATOM     67  C   UNL     1      -2.129  -9.567  12.432  1.00  0.00     0.031 C 
ATOM     68  C   UNL     1      -2.392  -5.842  17.205  1.00  0.00     0.029 A 
ATOM     69  C   UNL     1      -2.215  -6.358  15.932  1.00  0.00     0.049 A 
ATOM     70  H   UNL     1      -1.561  -5.385  14.176  1.00  0.00     0.167 HD
ATOM     71  C   UNL     1      -2.235  -8.103  14.187  1.00  0.00     0.074 A 
ATOM     72  C   UNL     1      -2.444  -9.454  13.715  1.00  0.00     0.031 C 
ATOM     73  C   UNL     1      -2.423  -7.705  15.469  1.00  0.00     0.031 A 
BRANCH  60  74
ATOM     74  C   UNL     1      -1.082  -1.750  16.369  1.00  0.00    -0.014 A 
ATOM     75  C   UNL     1      -1.918  -0.623  16.291  1.00  0.00     0.009 A 
ATOM     76  C   UNL     1      -0.134  -1.816  17.402  1.00  0.00     0.009 A 
ATOM     77  C   UNL     1      -1.770   0.435  17.190  1.00  0.00     0.001 A 
ATOM     78  C   UNL     1      -0.013  -0.773  18.324  1.00  0.00     0.001 A 
ATOM     79  C   UNL     1      -0.821   0.357  18.208  1.00  0.00     0.000 A 
ENDBRANCH  60  74
BRANCH  61  80
ATOM     80  C   UNL     1      -1.492  -9.028   9.644  1.00  0.00    -0.014 A 
ATOM     81  C   UNL     1      -2.705  -9.655   9.308  1.00  0.00     0.009 A 
ATOM     82  C   UNL     1      -0.306  -9.522   9.077  1.00  0.00     0.009 A 
ATOM     83  C   UNL     1      -2.727 -10.760   8.450  1.00  0.00     0.001 A 
ATOM     84  C   UNL     1      -0.334 -10.607   8.194  1.00  0.00     0.001 A 
ATOM     85  C   UNL     1      -1.543 -11.231   7.887  1.00  0.00     0.000 A 
ENDBRANCH  61  80
BRANCH  73  86
ATOM     86  C   UNL     1      -2.914  -8.727  16.461  1.00  0.00    -0.014 A 
ATOM     87  C   UNL     1      -2.096  -9.780  16.899  1.00  0.00     0.009 A 
ATOM     88  C   UNL     1      -4.203  -8.603  17.007  1.00  0.00     0.009 A 
ATOM     89  C   UNL     1      -2.569 -10.704  17.835  1.00  0.00     0.001 A 
ATOM     90  C   UNL     1      -4.662  -9.508  17.966  1.00  0.00     0.001 A 
ATOM     91  C   UNL     1      -3.848 -10.564  18.372  1.00  0.00     0.000 A 
ENDBRANCH  73  86
ENDBRANCH  47  48
ENDBRANCH  40  42
ENDBRANCH  39  40
ENDBRANCH  38  39
ENDBRANCH  37  38
ENDBRANCH  36  37
ENDBRANCH  35  36
ENDBRANCH  34  35
ENDBRANCH  33  34
ENDBRANCH  32  33
ENDBRANCH   1  32
TORSDOF 26
