REMARK SMILES NS(=O)(=O)c1ccc(-n2nc(C(=O)OCCOCCOCCOC(=O)c3ccc(-c4c5nc(c(-c6ccccc6)c6ccc([nH]6)c(-c6ccccc6)c6nc(c(-c7ccccc7)c7ccc4[nH]7)C=C6)C=C5)cc3)cc2-c2ccc(Cl)s2)cc1
REMARK SMILES IDX 18 1 17 2 16 3 15 4 14 5 12 6 13 7 11 8 9 9 10 10 75 11
REMARK SMILES IDX 74 12 8 13 5 14 6 15 83 16 7 17 82 18 2 19 3 20 4 21 1 22
REMARK SMILES IDX 76 25 77 26 81 27 78 28 79 29 80 30 19 31 20 32 21 33 22 34
REMARK SMILES IDX 23 35 24 36 25 37 26 38 27 39 73 40 28 41 72 42 29 43 30 44
REMARK SMILES IDX 31 45 66 46 32 47 71 48 65 49 67 50 33 51 70 52 64 53 63 54
REMARK SMILES IDX 34 56 56 57 41 58 55 59 42 60 45 61 54 62 68 63 43 64 44 65
REMARK SMILES IDX 53 67 69 68 46 69 35 70 36 71 40 72 37 73 39 74 38 75 57 76
REMARK SMILES IDX 58 77 62 78 59 79 61 80 60 81 47 82 48 83 52 84 49 85 51 86
REMARK SMILES IDX 50 87
REMARK H PARENT 1 23 1 24 67 55 45 66
REMARK Flexibility Score: inf
ROOT
ATOM      1  C   UNL     1       1.403   9.862  -2.066  1.00  0.00     0.188 C 
ENDROOT
BRANCH   1   2
ATOM      2  O   UNL     1       1.935  11.129  -1.736  1.00  0.00    -0.376 OA
BRANCH   2   3
ATOM      3  C   UNL     1       2.877  11.780  -2.572  1.00  0.00     0.202 C 
BRANCH   3   4
ATOM      4  C   UNL     1       3.882  11.071  -3.506  1.00  0.00     0.261 C 
BRANCH   4   5
ATOM      5  O   UNL     1       3.484   9.826  -4.083  1.00  0.00    -0.458 OA
BRANCH   5   6
ATOM      6  C   UNL     1       3.977   8.700  -3.488  1.00  0.00     0.358 C 
ATOM      7  O   UNL     1       4.819   8.700  -2.599  1.00  0.00    -0.244 OA
BRANCH   6   8
ATOM      8  C   UNL     1       3.286   7.492  -3.965  1.00  0.00     0.171 A 
ATOM      9  N   UNL     1       2.278   5.601  -3.908  1.00  0.00    -0.231 N 
ATOM     10  N   UNL     1       2.779   6.577  -3.114  1.00  0.00    -0.160 NA
ATOM     11  C   UNL     1       2.380   5.918  -5.252  1.00  0.00     0.085 A 
ATOM     12  C   UNL     1       2.964   7.165  -5.303  1.00  0.00     0.068 A 
BRANCH   9  13
ATOM     13  C   UNL     1       1.880   4.371  -3.337  1.00  0.00     0.065 A 
ATOM     14  C   UNL     1       1.030   1.921  -2.344  1.00  0.00     0.082 A 
ATOM     15  C   UNL     1       2.120   1.972  -3.219  1.00  0.00     0.024 A 
ATOM     16  C   UNL     1       0.368   3.092  -1.953  1.00  0.00     0.024 A 
ATOM     17  C   UNL     1       2.538   3.199  -3.728  1.00  0.00     0.030 A 
ATOM     18  C   UNL     1       0.815   4.331  -2.427  1.00  0.00     0.030 A 
BRANCH  14  19
ATOM     19  S   UNL     1       0.452   0.340  -1.796  1.00  0.00     0.238 S 
ATOM     20  O   UNL     1       1.090  -0.695  -2.565  1.00  0.00    -0.207 OA
ATOM     21  O   UNL     1      -0.985   0.401  -1.617  1.00  0.00    -0.207 OA
BRANCH  19  22
ATOM     22  N   UNL     1       1.110   0.234  -0.256  1.00  0.00    -0.225 NA
ATOM     23  H   UNL     1       0.840  -0.653   0.169  1.00  0.00     0.137 HD
ATOM     24  H   UNL     1       0.763   1.004   0.315  1.00  0.00     0.137 HD
ENDBRANCH  19  22
ENDBRANCH  14  19
ENDBRANCH   9  13
BRANCH  11  25
ATOM     25  C   UNL     1       1.960   5.101  -6.353  1.00  0.00     0.054 A 
ATOM     26  C   UNL     1       2.735   4.771  -7.449  1.00  0.00     0.024 A 
ATOM     27  S   UNL     1       0.384   4.436  -6.478  1.00  0.00    -0.122 S 
ATOM     28  C   UNL     1       2.043   3.932  -8.370  1.00  0.00     0.033 A 
ATOM     29  C   UNL     1       0.765   3.684  -7.945  1.00  0.00     0.094 A 
ATOM     30  Cl  UNL     1      -0.410   2.726  -8.750  1.00  0.00    -0.072 Cl
ENDBRANCH  11  25
ENDBRANCH   6   8
ENDBRANCH   5   6
ENDBRANCH   4   5
ENDBRANCH   3   4
ENDBRANCH   2   3
ENDBRANCH   1   2
BRANCH   1  31
ATOM     31  C   UNL     1       0.649   9.655  -3.397  1.00  0.00     0.188 C 
BRANCH  31  32
ATOM     32  O   UNL     1       0.890  10.573  -4.440  1.00  0.00    -0.376 OA
BRANCH  32  33
ATOM     33  C   UNL     1       0.196  11.802  -4.587  1.00  0.00     0.202 C 
BRANCH  33  34
ATOM     34  C   UNL     1      -0.764  12.426  -3.576  1.00  0.00     0.261 C 
BRANCH  34  35
ATOM     35  O   UNL     1      -0.897  11.743  -2.354  1.00  0.00    -0.460 OA
BRANCH  35  36
ATOM     36  C   UNL     1      -1.893  10.836  -2.353  1.00  0.00     0.338 C 
ATOM     37  O   UNL     1      -2.555  10.459  -3.304  1.00  0.00    -0.246 OA
BRANCH  36  38
ATOM     38  C   UNL     1      -2.125  10.413  -0.972  1.00  0.00     0.060 A 
ATOM     39  C   UNL     1      -3.015   9.352  -0.814  1.00  0.00     0.016 A 
ATOM     40  C   UNL     1      -1.877  11.359   0.030  1.00  0.00     0.016 A 
ATOM     41  C   UNL     1      -3.923   9.447   0.208  1.00  0.00     0.010 A 
ATOM     42  C   UNL     1      -2.804  11.473   1.026  1.00  0.00     0.010 A 
ATOM     43  C   UNL     1      -3.874  10.583   1.021  1.00  0.00    -0.014 A 
BRANCH  43  44
ATOM     44  C   UNL     1      -4.949  10.794   1.957  1.00  0.00     0.031 A 
ATOM     45  C   UNL     1      -4.786   9.941   3.146  1.00  0.00     0.074 A 
ATOM     46  C   UNL     1      -5.887  11.739   1.759  1.00  0.00     0.049 A 
ATOM     47  N   UNL     1      -5.471   8.892   3.455  1.00  0.00    -0.248 NA
ATOM     48  C   UNL     1      -3.561  10.125   3.947  1.00  0.00     0.031 C 
ATOM     49  C   UNL     1      -5.926  12.779   0.725  1.00  0.00     0.029 A 
ATOM     50  N   UNL     1      -6.963  12.042   2.527  1.00  0.00    -0.354 N 
ATOM     51  C   UNL     1      -4.900   8.432   4.634  1.00  0.00     0.074 A 
ATOM     52  C   UNL     1      -3.603   9.045   4.724  1.00  0.00     0.031 C 
ATOM     53  C   UNL     1      -6.818  13.732   1.086  1.00  0.00     0.029 A 
ATOM     54  C   UNL     1      -7.496  13.304   2.298  1.00  0.00     0.049 A 
ATOM     55  H   UNL     1      -7.335  11.419   3.193  1.00  0.00     0.167 HD
ATOM     56  C   UNL     1      -5.680   7.903   5.614  1.00  0.00     0.031 A 
ATOM     57  C   UNL     1      -8.370  13.964   3.100  1.00  0.00     0.031 A 
ATOM     58  C   UNL     1      -6.970   7.515   5.100  1.00  0.00     0.049 A 
ATOM     59  C   UNL     1      -8.971  12.965   4.016  1.00  0.00     0.074 A 
ATOM     60  C   UNL     1      -7.418   6.621   4.149  1.00  0.00     0.029 A 
ATOM     61  N   UNL     1      -7.995   8.407   5.309  1.00  0.00    -0.354 N 
ATOM     62  N   UNL     1      -9.775  12.022   3.617  1.00  0.00    -0.248 NA
ATOM     63  C   UNL     1      -8.308  12.720   5.289  1.00  0.00     0.031 C 
ATOM     64  C   UNL     1      -8.536   7.258   3.534  1.00  0.00     0.029 A 
ATOM     65  C   UNL     1      -8.764   8.476   4.180  1.00  0.00     0.049 A 
ATOM     66  H   UNL     1      -8.150   8.915   6.138  1.00  0.00     0.167 HD
ATOM     67  C   UNL     1      -9.379  10.897   4.328  1.00  0.00     0.074 A 
ATOM     68  C   UNL     1      -8.552  11.412   5.419  1.00  0.00     0.031 C 
ATOM     69  C   UNL     1      -9.513   9.650   3.786  1.00  0.00     0.031 A 
BRANCH  56  70
ATOM     70  C   UNL     1      -5.471   8.241   7.074  1.00  0.00    -0.014 A 
ATOM     71  C   UNL     1      -6.369   7.702   8.010  1.00  0.00     0.009 A 
ATOM     72  C   UNL     1      -4.639   9.284   7.532  1.00  0.00     0.009 A 
ATOM     73  C   UNL     1      -6.492   8.244   9.295  1.00  0.00     0.001 A 
ATOM     74  C   UNL     1      -4.731   9.801   8.825  1.00  0.00     0.001 A 
ATOM     75  C   UNL     1      -5.682   9.300   9.697  1.00  0.00     0.000 A 
ENDBRANCH  56  70
BRANCH  57  76
ATOM     76  C   UNL     1      -8.483  15.419   3.351  1.00  0.00    -0.014 A 
ATOM     77  C   UNL     1      -9.642  15.971   3.920  1.00  0.00     0.009 A 
ATOM     78  C   UNL     1      -7.339  16.235   3.283  1.00  0.00     0.009 A 
ATOM     79  C   UNL     1      -9.646  17.281   4.425  1.00  0.00     0.001 A 
ATOM     80  C   UNL     1      -7.342  17.541   3.787  1.00  0.00     0.001 A 
ATOM     81  C   UNL     1      -8.493  18.060   4.370  1.00  0.00     0.000 A 
ENDBRANCH  57  76
BRANCH  69  82
ATOM     82  C   UNL     1     -10.346   9.520   2.534  1.00  0.00    -0.014 A 
ATOM     83  C   UNL     1     -10.001  10.110   1.305  1.00  0.00     0.009 A 
ATOM     84  C   UNL     1     -11.442   8.646   2.569  1.00  0.00     0.009 A 
ATOM     85  C   UNL     1     -10.751   9.848   0.152  1.00  0.00     0.001 A 
ATOM     86  C   UNL     1     -12.175   8.368   1.415  1.00  0.00     0.001 A 
ATOM     87  C   UNL     1     -11.833   8.972   0.208  1.00  0.00     0.000 A 
ENDBRANCH  69  82
ENDBRANCH  43  44
ENDBRANCH  36  38
ENDBRANCH  35  36
ENDBRANCH  34  35
ENDBRANCH  33  34
ENDBRANCH  32  33
ENDBRANCH  31  32
ENDBRANCH   1  31
TORSDOF 21
