REMARK SMILES Cc1noc(-c2cc(=O)n(CC(=O)OCCOCCOCCOC(=O)c3ccc(-c4c5nc(c(-c6ccccc6)c6ccc([nH]6)c(-c6ccccc6)c6nc(c(-c7ccccc7)c7ccc4[nH]7)C=C6)C=C5)cc3)c3ccccc23)n1
REMARK SMILES IDX 18 1 17 2 16 3 15 4 14 5 12 6 13 7 11 8 10 9 6 10 7 11 79 12
REMARK SMILES IDX 8 13 74 14 78 15 9 16 75 17 77 18 76 19 5 20 1 21 2 22 3 23
REMARK SMILES IDX 80 24 4 25 19 26 20 27 21 28 22 29 23 30 24 31 25 32 26 33
REMARK SMILES IDX 27 34 73 35 28 36 72 37 29 38 30 39 31 40 66 41 32 42 71 43
REMARK SMILES IDX 65 44 67 45 33 46 70 47 64 48 63 49 34 51 56 52 41 53 55 54
REMARK SMILES IDX 42 55 45 56 54 57 68 58 43 59 44 60 53 62 69 63 46 64 35 65
REMARK SMILES IDX 36 66 40 67 37 68 39 69 38 70 57 71 58 72 62 73 59 74 61 75
REMARK SMILES IDX 60 76 47 77 48 78 52 79 49 80 51 81 50 82
REMARK H PARENT 67 50 45 61
REMARK Flexibility Score: inf
ROOT
ATOM      1  C   UNL     1       4.129   7.051   0.292  1.00  0.00     0.188 C 
ENDROOT
BRANCH   1   2
ATOM      2  O   UNL     1       4.269   8.024  -0.737  1.00  0.00    -0.376 OA
BRANCH   2   3
ATOM      3  C   UNL     1       4.126   7.583  -2.084  1.00  0.00     0.202 C 
BRANCH   3   4
ATOM      4  C   UNL     1       5.230   6.641  -2.563  1.00  0.00     0.261 C 
BRANCH   4   5
ATOM      5  O   UNL     1       5.104   5.336  -1.956  1.00  0.00    -0.462 OA
BRANCH   5   6
ATOM      6  C   UNL     1       6.264   4.738  -1.581  1.00  0.00     0.326 C 
ATOM      7  O   UNL     1       7.374   5.251  -1.699  1.00  0.00    -0.250 OA
BRANCH   6   8
ATOM      8  C   UNL     1       6.089   3.358  -0.935  1.00  0.00     0.248 C 
BRANCH   8   9
ATOM      9  N   UNL     1       4.749   2.772  -0.817  1.00  0.00    -0.297 N 
ATOM     10  C   UNL     1       2.223   1.449  -0.787  1.00  0.00     0.055 A 
ATOM     11  C   UNL     1       2.916   1.571  -1.927  1.00  0.00     0.086 A 
ATOM     12  C   UNL     1       2.778   2.049   0.442  1.00  0.00     0.011 A 
ATOM     13  C   UNL     1       4.199   2.299  -2.002  1.00  0.00     0.252 A 
ATOM     14  C   UNL     1       4.075   2.601   0.436  1.00  0.00     0.053 A 
ATOM     15  C   UNL     1       2.040   1.990   1.641  1.00  0.00     0.011 A 
ATOM     16  O   UNL     1       4.745   2.413  -3.098  1.00  0.00    -0.269 OA
ATOM     17  C   UNL     1       4.643   2.948   1.671  1.00  0.00     0.027 A 
ATOM     18  C   UNL     1       2.609   2.369   2.848  1.00  0.00     0.001 A 
ATOM     19  C   UNL     1       3.927   2.794   2.866  1.00  0.00     0.002 A 
BRANCH  10  20
ATOM     20  C   UNL     1       1.053   0.625  -0.814  1.00  0.00     0.258 A 
ATOM     21  C   UNL     1      -2.332  -0.220  -0.244  1.00  0.00     0.093 C 
ATOM     22  C   UNL     1      -0.890  -0.169  -0.544  1.00  0.00     0.169 A 
ATOM     23  N   UNL     1      -0.160  -1.259  -0.789  1.00  0.00    -0.062 NA
ATOM     24  N   UNL     1      -0.189   1.006  -0.564  1.00  0.00    -0.192 NA
ATOM     25  O   UNL     1       1.120  -0.747  -0.981  1.00  0.00    -0.334 OA
ENDBRANCH  10  20
ENDBRANCH   8   9
ENDBRANCH   6   8
ENDBRANCH   5   6
ENDBRANCH   4   5
ENDBRANCH   3   4
ENDBRANCH   2   3
ENDBRANCH   1   2
BRANCH   1  26
ATOM     26  C   UNL     1       2.974   6.037   0.176  1.00  0.00     0.188 C 
BRANCH  26  27
ATOM     27  O   UNL     1       1.746   6.482  -0.384  1.00  0.00    -0.376 OA
BRANCH  27  28
ATOM     28  C   UNL     1       1.183   7.678   0.142  1.00  0.00     0.202 C 
BRANCH  28  29
ATOM     29  C   UNL     1       0.750   7.570   1.602  1.00  0.00     0.261 C 
BRANCH  29  30
ATOM     30  O   UNL     1       1.906   7.595   2.460  1.00  0.00    -0.460 OA
BRANCH  30  31
ATOM     31  C   UNL     1       1.815   6.835   3.569  1.00  0.00     0.338 C 
ATOM     32  O   UNL     1       0.860   6.178   3.954  1.00  0.00    -0.246 OA
BRANCH  31  33
ATOM     33  C   UNL     1       3.099   6.867   4.283  1.00  0.00     0.060 A 
ATOM     34  C   UNL     1       3.226   7.631   5.438  1.00  0.00     0.016 A 
ATOM     35  C   UNL     1       4.129   6.013   3.885  1.00  0.00     0.016 A 
ATOM     36  C   UNL     1       4.386   7.516   6.207  1.00  0.00     0.010 A 
ATOM     37  C   UNL     1       5.259   5.850   4.687  1.00  0.00     0.010 A 
ATOM     38  C   UNL     1       5.396   6.594   5.864  1.00  0.00    -0.014 A 
BRANCH  38  39
ATOM     39  C   UNL     1       6.525   6.351   6.799  1.00  0.00     0.031 A 
ATOM     40  C   UNL     1       7.939   6.704   6.441  1.00  0.00     0.074 A 
ATOM     41  C   UNL     1       6.263   5.788   7.997  1.00  0.00     0.049 A 
ATOM     42  N   UNL     1       8.992   6.743   7.220  1.00  0.00    -0.248 NA
ATOM     43  C   UNL     1       8.222   7.030   5.035  1.00  0.00     0.031 C 
ATOM     44  C   UNL     1       4.955   5.285   8.423  1.00  0.00     0.029 A 
ATOM     45  N   UNL     1       7.073   5.569   9.084  1.00  0.00    -0.354 N 
ATOM     46  C   UNL     1      10.053   7.113   6.404  1.00  0.00     0.074 A 
ATOM     47  C   UNL     1       9.535   7.218   5.059  1.00  0.00     0.031 C 
ATOM     48  C   UNL     1       5.035   4.883   9.700  1.00  0.00     0.029 A 
ATOM     49  C   UNL     1       6.397   5.091  10.181  1.00  0.00     0.049 A 
ATOM     50  H   UNL     1       8.043   5.738   9.078  1.00  0.00     0.167 HD
ATOM     51  C   UNL     1      11.335   7.375   6.754  1.00  0.00     0.031 A 
ATOM     52  C   UNL     1       6.810   4.886  11.447  1.00  0.00     0.031 A 
ATOM     53  C   UNL     1      11.843   7.276   8.096  1.00  0.00     0.049 A 
ATOM     54  C   UNL     1       8.218   5.245  11.830  1.00  0.00     0.074 A 
ATOM     55  C   UNL     1      13.102   7.610   8.565  1.00  0.00     0.029 A 
ATOM     56  N   UNL     1      11.121   6.806   9.181  1.00  0.00    -0.354 N 
ATOM     57  N   UNL     1       9.173   5.737  11.080  1.00  0.00    -0.248 NA
ATOM     58  C   UNL     1       8.597   5.049  13.237  1.00  0.00     0.031 C 
ATOM     59  C   UNL     1      13.158   7.296   9.925  1.00  0.00     0.029 A 
ATOM     60  C   UNL     1      11.916   6.819  10.314  1.00  0.00     0.049 A 
ATOM     61  H   UNL     1      10.184   6.508   9.151  1.00  0.00     0.167 HD
ATOM     62  C   UNL     1      10.258   5.930  11.925  1.00  0.00     0.074 A 
ATOM     63  C   UNL     1       9.838   5.517  13.248  1.00  0.00     0.031 C 
ATOM     64  C   UNL     1      11.490   6.406  11.626  1.00  0.00     0.031 A 
BRANCH  51  65
ATOM     65  C   UNL     1      12.280   7.836   5.680  1.00  0.00    -0.014 A 
ATOM     66  C   UNL     1      13.365   7.031   5.299  1.00  0.00     0.009 A 
ATOM     67  C   UNL     1      12.156   9.118   5.120  1.00  0.00     0.009 A 
ATOM     68  C   UNL     1      14.309   7.502   4.384  1.00  0.00     0.001 A 
ATOM     69  C   UNL     1      13.088   9.576   4.186  1.00  0.00     0.001 A 
ATOM     70  C   UNL     1      14.168   8.772   3.826  1.00  0.00     0.000 A 
ENDBRANCH  51  65
BRANCH  52  71
ATOM     71  C   UNL     1       5.837   4.404  12.461  1.00  0.00    -0.014 A 
ATOM     72  C   UNL     1       5.374   3.079  12.437  1.00  0.00     0.009 A 
ATOM     73  C   UNL     1       5.324   5.285  13.425  1.00  0.00     0.009 A 
ATOM     74  C   UNL     1       4.408   2.651  13.350  1.00  0.00     0.001 A 
ATOM     75  C   UNL     1       4.376   4.847  14.352  1.00  0.00     0.001 A 
ATOM     76  C   UNL     1       3.913   3.533  14.309  1.00  0.00     0.000 A 
ENDBRANCH  52  71
BRANCH  64  77
ATOM     77  C   UNL     1      12.490   6.520  12.741  1.00  0.00    -0.014 A 
ATOM     78  C   UNL     1      12.887   7.789  13.194  1.00  0.00     0.009 A 
ATOM     79  C   UNL     1      13.120   5.381  13.263  1.00  0.00     0.009 A 
ATOM     80  C   UNL     1      13.907   7.915  14.137  1.00  0.00     0.001 A 
ATOM     81  C   UNL     1      14.123   5.510  14.225  1.00  0.00     0.001 A 
ATOM     82  C   UNL     1      14.523   6.776  14.654  1.00  0.00     0.000 A 
ENDBRANCH  64  77
ENDBRANCH  38  39
ENDBRANCH  31  33
ENDBRANCH  30  31
ENDBRANCH  29  30
ENDBRANCH  28  29
ENDBRANCH  27  28
ENDBRANCH  26  27
ENDBRANCH   1  26
TORSDOF 19
