REMARK SMILES O=C(OCCOCCOCCOC(=O)[C@H]1[C@@H](C(=O)Nc2ccccc2-c2ccccc2)[C@@H]2C=C[C@H]1O2)c1ccc(-c2c3nc(c(-c4ccccc4)c4ccc([nH]4)c(-c4ccccc4)c4nc(c(-c5ccccc5)c5ccc2[nH]5)C=C4)C=C3)cc1
REMARK SMILES IDX 8 1 7 2 6 3 5 4 4 5 3 6 2 7 1 8 37 9 38 10 84 11 39 12 83 13
REMARK SMILES IDX 40 14 41 15 42 16 77 17 43 18 82 19 76 20 78 21 44 22 81 23
REMARK SMILES IDX 75 24 74 25 45 27 67 28 52 29 66 30 53 31 56 32 65 33 79 34
REMARK SMILES IDX 54 35 55 36 64 38 80 39 57 40 46 41 47 42 51 43 48 44 50 45
REMARK SMILES IDX 49 46 68 47 69 48 73 49 70 50 72 51 71 52 58 53 59 54 63 55
REMARK SMILES IDX 60 56 62 57 61 58 9 59 10 60 11 61 12 62 13 63 14 64 15 65
REMARK SMILES IDX 16 66 35 67 32 68 34 69 36 70 33 71 17 72 18 73 19 74 20 76
REMARK SMILES IDX 21 77 25 78 22 79 24 80 23 81 26 82 27 83 31 84 28 85 30 86
REMARK SMILES IDX 29 87
REMARK H PARENT 78 26 56 37 19 75
REMARK Flexibility Score: inf
ROOT
ATOM      1  C   UNL     1      -0.819   4.156   0.514  1.00  0.00     0.188 C 
ENDROOT
BRANCH   1   2
ATOM      2  C   UNL     1       1.323   3.695   0.228  1.00  0.00     0.188 C 
BRANCH   2   3
ATOM      3  O   UNL     1       2.135   2.238   0.623  1.00  0.00    -0.376 OA
BRANCH   3   4
ATOM      4  C   UNL     1       1.804   1.136   1.521  1.00  0.00     0.202 C 
BRANCH   4   5
ATOM      5  C   UNL     1       2.221   1.228   3.019  1.00  0.00     0.261 C 
BRANCH   5   6
ATOM      6  O   UNL     1       2.507   2.556   3.488  1.00  0.00    -0.460 OA
BRANCH   6   7
ATOM      7  C   UNL     1       3.598   3.326   3.241  1.00  0.00     0.338 C 
ATOM      8  O   UNL     1       3.699   4.407   3.818  1.00  0.00    -0.246 OA
BRANCH   7   9
ATOM      9  C   UNL     1       4.675   2.932   2.283  1.00  0.00     0.060 A 
ATOM     10  C   UNL     1       4.660   1.741   1.579  1.00  0.00     0.016 A 
ATOM     11  C   UNL     1       5.770   3.773   2.055  1.00  0.00     0.016 A 
ATOM     12  C   UNL     1       5.562   1.383   0.628  1.00  0.00     0.010 A 
ATOM     13  C   UNL     1       6.758   3.409   1.121  1.00  0.00     0.010 A 
ATOM     14  C   UNL     1       6.637   2.203   0.410  1.00  0.00    -0.014 A 
BRANCH  14  15
ATOM     15  C   UNL     1       7.708   1.497  -0.290  1.00  0.00     0.031 A 
ATOM     16  C   UNL     1       8.714   0.834   0.583  1.00  0.00     0.074 A 
ATOM     17  C   UNL     1       7.565   1.140  -1.579  1.00  0.00     0.049 A 
ATOM     18  N   UNL     1       9.722   0.091   0.241  1.00  0.00    -0.248 NA
ATOM     19  C   UNL     1       8.508   0.950   2.043  1.00  0.00     0.031 C 
ATOM     20  C   UNL     1       6.363   1.346  -2.376  1.00  0.00     0.029 A 
ATOM     21  N   UNL     1       8.399   0.515  -2.451  1.00  0.00    -0.354 N 
ATOM     22  C   UNL     1      10.291  -0.314   1.435  1.00  0.00     0.074 A 
ATOM     23  C   UNL     1       9.527   0.257   2.515  1.00  0.00     0.031 C 
ATOM     24  C   UNL     1       6.594   1.067  -3.663  1.00  0.00     0.029 A 
ATOM     25  C   UNL     1       7.938   0.542  -3.749  1.00  0.00     0.049 A 
ATOM     26  H   UNL     1       9.245   0.088  -2.184  1.00  0.00     0.167 HD
ATOM     27  C   UNL     1      11.380  -1.091   1.587  1.00  0.00     0.031 A 
ATOM     28  C   UNL     1       8.554   0.171  -4.878  1.00  0.00     0.031 A 
ATOM     29  C   UNL     1      12.112  -1.595   0.463  1.00  0.00     0.049 A 
ATOM     30  C   UNL     1       9.882  -0.489  -4.694  1.00  0.00     0.074 A 
ATOM     31  C   UNL     1      13.293  -2.304   0.452  1.00  0.00     0.029 A 
ATOM     32  N   UNL     1      11.726  -1.417  -0.863  1.00  0.00    -0.354 N 
ATOM     33  N   UNL     1      10.501  -0.776  -3.572  1.00  0.00    -0.248 NA
ATOM     34  C   UNL     1      10.575  -0.917  -5.906  1.00  0.00     0.031 C 
ATOM     35  C   UNL     1      13.671  -2.470  -0.883  1.00  0.00     0.029 A 
ATOM     36  C   UNL     1      12.672  -1.964  -1.705  1.00  0.00     0.049 A 
ATOM     37  H   UNL     1      10.901  -0.967  -1.156  1.00  0.00     0.167 HD
ATOM     38  C   UNL     1      11.636  -1.473  -3.934  1.00  0.00     0.074 A 
ATOM     39  C   UNL     1      11.609  -1.563  -5.386  1.00  0.00     0.031 C 
ATOM     40  C   UNL     1      12.601  -2.007  -3.147  1.00  0.00     0.031 A 
BRANCH  27  41
ATOM     41  C   UNL     1      11.887  -1.257   2.985  1.00  0.00    -0.014 A 
ATOM     42  C   UNL     1      11.181  -1.975   3.965  1.00  0.00     0.009 A 
ATOM     43  C   UNL     1      13.062  -0.582   3.349  1.00  0.00     0.009 A 
ATOM     44  C   UNL     1      11.623  -1.975   5.290  1.00  0.00     0.001 A 
ATOM     45  C   UNL     1      13.521  -0.617   4.664  1.00  0.00     0.001 A 
ATOM     46  C   UNL     1      12.795  -1.302   5.636  1.00  0.00     0.000 A 
ENDBRANCH  27  41
BRANCH  28  47
ATOM     47  C   UNL     1       7.934   0.393  -6.209  1.00  0.00    -0.014 A 
ATOM     48  C   UNL     1       7.553  -0.687  -7.018  1.00  0.00     0.009 A 
ATOM     49  C   UNL     1       7.737   1.698  -6.691  1.00  0.00     0.009 A 
ATOM     50  C   UNL     1       7.042  -0.467  -8.300  1.00  0.00     0.001 A 
ATOM     51  C   UNL     1       7.200   1.917  -7.963  1.00  0.00     0.001 A 
ATOM     52  C   UNL     1       6.869   0.833  -8.773  1.00  0.00     0.000 A 
ENDBRANCH  28  47
BRANCH  40  53
ATOM     53  C   UNL     1      13.672  -2.779  -3.853  1.00  0.00    -0.014 A 
ATOM     54  C   UNL     1      14.598  -2.151  -4.697  1.00  0.00     0.009 A 
ATOM     55  C   UNL     1      13.765  -4.162  -3.632  1.00  0.00     0.009 A 
ATOM     56  C   UNL     1      15.567  -2.908  -5.353  1.00  0.00     0.001 A 
ATOM     57  C   UNL     1      14.768  -4.905  -4.246  1.00  0.00     0.001 A 
ATOM     58  C   UNL     1      15.656  -4.280  -5.120  1.00  0.00     0.000 A 
ENDBRANCH  40  53
ENDBRANCH  14  15
ENDBRANCH   7   9
ENDBRANCH   6   7
ENDBRANCH   5   6
ENDBRANCH   4   5
ENDBRANCH   3   4
ENDBRANCH   2   3
ENDBRANCH   1   2
BRANCH   1  59
ATOM     59  O   UNL     1      -1.952   2.696   0.809  1.00  0.00    -0.376 OA
BRANCH  59  60
ATOM     60  C   UNL     1      -1.441   0.994   0.704  1.00  0.00     0.202 C 
BRANCH  60  61
ATOM     61  C   UNL     1      -0.369   0.257  -0.703  1.00  0.00     0.261 C 
BRANCH  61  62
ATOM     62  O   UNL     1       1.059   0.982  -1.334  1.00  0.00    -0.463 OA
BRANCH  62  63
ATOM     63  C   UNL     1       1.230   1.673  -2.560  1.00  0.00     0.312 C 
ATOM     64  O   UNL     1       0.401   1.485  -3.458  1.00  0.00    -0.252 OA
BRANCH  63  65
ATOM     65  C   UNL     1       2.481   2.806  -2.880  1.00  0.00     0.147 C 
ATOM     66  C   UNL     1       2.109   4.185  -3.671  1.00  0.00     0.129 C 
ATOM     67  C   UNL     1       3.606   3.427  -1.952  1.00  0.00     0.157 C 
ATOM     68  C   UNL     1       3.117   5.219  -3.119  1.00  0.00     0.155 C 
ATOM     69  C   UNL     1       4.861   3.918  -2.664  1.00  0.00     0.004 C 
ATOM     70  O   UNL     1       3.135   4.783  -1.740  1.00  0.00    -0.365 OA
ATOM     71  C   UNL     1       4.538   4.963  -3.431  1.00  0.00     0.004 C 
BRANCH  66  72
ATOM     72  C   UNL     1       0.807   5.039  -3.640  1.00  0.00     0.231 C 
ATOM     73  O   UNL     1       0.181   5.237  -4.686  1.00  0.00    -0.274 OA
ATOM     74  N   UNL     1       0.460   5.774  -2.498  1.00  0.00    -0.325 N 
ATOM     75  H   UNL     1       0.303   6.743  -2.579  1.00  0.00     0.169 HD
BRANCH  74  76
ATOM     76  C   UNL     1       0.331   5.158  -1.239  1.00  0.00     0.049 A 
ATOM     77  C   UNL     1      -0.150   3.671  -1.473  1.00  0.00     0.027 A 
ATOM     78  C   UNL     1       0.762   5.801   0.335  1.00  0.00     0.005 A 
ATOM     79  C   UNL     1      -0.136   2.560  -0.169  1.00  0.00     0.002 A 
ATOM     80  C   UNL     1       0.705   4.799   1.829  1.00  0.00     0.011 A 
ATOM     81  C   UNL     1       0.206   3.059   1.645  1.00  0.00     0.001 A 
BRANCH  78  82
ATOM     82  C   UNL     1       1.607   7.029   0.162  1.00  0.00    -0.016 A 
ATOM     83  C   UNL     1       3.019   6.984   0.210  1.00  0.00     0.009 A 
ATOM     84  C   UNL     1       1.036   8.139  -0.482  1.00  0.00     0.009 A 
ATOM     85  C   UNL     1       3.810   7.973  -0.409  1.00  0.00     0.001 A 
ATOM     86  C   UNL     1       1.820   9.128  -1.092  1.00  0.00     0.001 A 
ATOM     87  C   UNL     1       3.208   9.041  -1.067  1.00  0.00     0.000 A 
ENDBRANCH  78  82
ENDBRANCH  74  76
ENDBRANCH  66  72
ENDBRANCH  63  65
ENDBRANCH  62  63
ENDBRANCH  61  62
ENDBRANCH  60  61
ENDBRANCH  59  60
ENDBRANCH   1  59
TORSDOF 20
