REMARK SMILES O=C(CCCN1C(=O)/C(=C/c2ccccc2Cl)SC1=S)Nc1cccc(C(=O)OCCOCCOCCOC(=O)c2ccc(-c3c4nc(c(-c5ccccc5)c5ccc([nH]5)c(-c5ccccc5)c5nc(c(-c6ccccc6)c6ccc3[nH]6)C=C5)C=C4)cc2)c1
REMARK SMILES IDX 31 1 30 2 29 3 27 4 28 5 26 6 22 7 23 8 89 9 24 10 25 11
REMARK SMILES IDX 21 12 1 13 2 14 3 16 4 17 5 18 6 19 7 20 19 21 8 22 9 23
REMARK SMILES IDX 18 24 20 25 10 26 11 27 12 28 16 29 13 30 15 31 17 32 14 33
REMARK SMILES IDX 32 34 33 35 34 36 35 37 36 38 37 39 38 40 39 41 40 42 41 43
REMARK SMILES IDX 42 44 88 45 43 46 87 47 44 48 45 49 46 50 81 51 47 52 86 53
REMARK SMILES IDX 80 54 82 55 48 56 85 57 79 58 78 59 49 61 71 62 56 63 70 64
REMARK SMILES IDX 57 65 60 66 69 67 83 68 58 69 59 70 68 72 84 73 61 74 50 75
REMARK SMILES IDX 51 76 55 77 52 78 54 79 53 80 72 81 73 82 77 83 74 84 76 85
REMARK SMILES IDX 75 86 62 87 63 88 67 89 64 90 66 91 65 92
REMARK H PARENT 21 15 82 60 60 71
REMARK Flexibility Score: inf
ROOT
ATOM      1  C   UNL     1      -2.326   1.600  -5.631  1.00  0.00     0.202 C 
ENDROOT
BRANCH   1   2
ATOM      2  C   UNL     1      -2.510   1.068  -4.201  1.00  0.00     0.261 C 
BRANCH   2   3
ATOM      3  O   UNL     1      -1.376   0.401  -3.642  1.00  0.00    -0.460 OA
BRANCH   3   4
ATOM      4  C   UNL     1      -1.493  -0.947  -3.481  1.00  0.00     0.338 C 
ATOM      5  O   UNL     1      -2.444  -1.644  -3.753  1.00  0.00    -0.246 OA
BRANCH   4   6
ATOM      6  C   UNL     1      -0.156  -1.472  -3.121  1.00  0.00     0.062 A 
ATOM      7  C   UNL     1       1.902  -1.269  -1.877  1.00  0.00     0.042 A 
ATOM      8  C   UNL     1       2.470  -2.285  -2.651  1.00  0.00     0.026 A 
ATOM      9  C   UNL     1       0.605  -0.835  -2.146  1.00  0.00     0.041 A 
ATOM     10  C   UNL     1       1.696  -2.945  -3.610  1.00  0.00     0.003 A 
ATOM     11  C   UNL     1       0.373  -2.554  -3.831  1.00  0.00     0.016 A 
BRANCH   7  12
ATOM     12  N   UNL     1       2.655  -0.697  -0.837  1.00  0.00    -0.326 N 
ATOM     13  O   UNL     1       0.893  -0.267   0.616  1.00  0.00    -0.275 OA
ATOM     14  C   UNL     1       2.078  -0.170   0.306  1.00  0.00     0.224 C 
ATOM     15  H   UNL     1       3.635  -0.671  -0.924  1.00  0.00     0.169 HD
BRANCH  14  16
ATOM     16  C   UNL     1       3.034   0.570   1.201  1.00  0.00     0.102 C 
BRANCH  16  17
ATOM     17  C   UNL     1       3.966  -0.336   2.003  1.00  0.00     0.032 C 
BRANCH  17  18
ATOM     18  C   UNL     1       5.258  -0.780   1.304  1.00  0.00     0.128 C 
BRANCH  18  19
ATOM     19  N   UNL     1       6.056   0.234   0.602  1.00  0.00    -0.293 N 
ATOM     20  C   UNL     1       6.040   1.566   0.981  1.00  0.00     0.266 C 
ATOM     21  C   UNL     1       6.998  -0.088  -0.362  1.00  0.00     0.148 C 
ATOM     22  O   UNL     1       5.507   2.048   1.970  1.00  0.00    -0.268 OA
ATOM     23  C   UNL     1       6.801   2.381   0.007  1.00  0.00     0.081 C 
ATOM     24  S   UNL     1       7.829   1.363  -0.909  1.00  0.00    -0.054 SA
ATOM     25  S   UNL     1       7.353  -1.594  -0.987  1.00  0.00    -0.052 S 
ATOM     26  C   UNL     1       6.614   3.704  -0.085  1.00  0.00     0.031 C 
BRANCH  26  27
ATOM     27  C   UNL     1       7.375   4.617  -0.946  1.00  0.00    -0.006 A 
ATOM     28  C   UNL     1       8.199   5.538  -0.281  1.00  0.00     0.010 A 
ATOM     29  C   UNL     1       7.351   4.620  -2.350  1.00  0.00     0.048 A 
ATOM     30  C   UNL     1       9.027   6.401  -0.997  1.00  0.00     0.001 A 
ATOM     31  C   UNL     1       8.197   5.474  -3.065  1.00  0.00     0.021 A 
ATOM     32  Cl  UNL     1       6.271   3.617  -3.257  1.00  0.00    -0.084 Cl
ATOM     33  C   UNL     1       9.041   6.356  -2.388  1.00  0.00     0.002 A 
ENDBRANCH  26  27
ENDBRANCH  18  19
ENDBRANCH  17  18
ENDBRANCH  16  17
ENDBRANCH  14  16
ENDBRANCH   7  12
ENDBRANCH   4   6
ENDBRANCH   3   4
ENDBRANCH   2   3
ENDBRANCH   1   2
BRANCH   1  34
ATOM     34  O   UNL     1      -1.699   0.833  -6.646  1.00  0.00    -0.376 OA
BRANCH  34  35
ATOM     35  C   UNL     1      -0.493   0.139  -6.379  1.00  0.00     0.188 C 
BRANCH  35  36
ATOM     36  C   UNL     1       0.717   0.864  -5.753  1.00  0.00     0.188 C 
BRANCH  36  37
ATOM     37  O   UNL     1       0.549   2.216  -5.409  1.00  0.00    -0.376 OA
BRANCH  37  38
ATOM     38  C   UNL     1       0.660   3.233  -6.387  1.00  0.00     0.202 C 
BRANCH  38  39
ATOM     39  C   UNL     1       0.945   3.033  -7.890  1.00  0.00     0.261 C 
BRANCH  39  40
ATOM     40  O   UNL     1       0.927   1.707  -8.423  1.00  0.00    -0.460 OA
BRANCH  40  41
ATOM     41  C   UNL     1       2.135   1.162  -8.706  1.00  0.00     0.338 C 
ATOM     42  O   UNL     1       3.234   1.655  -8.524  1.00  0.00    -0.246 OA
BRANCH  41  43
ATOM     43  C   UNL     1       1.931  -0.235  -9.134  1.00  0.00     0.060 A 
ATOM     44  C   UNL     1       2.358  -1.270  -8.291  1.00  0.00     0.016 A 
ATOM     45  C   UNL     1       1.340  -0.520 -10.365  1.00  0.00     0.016 A 
ATOM     46  C   UNL     1       2.202  -2.599  -8.684  1.00  0.00     0.010 A 
ATOM     47  C   UNL     1       1.206  -1.853 -10.766  1.00  0.00     0.010 A 
ATOM     48  C   UNL     1       1.655  -2.898  -9.938  1.00  0.00    -0.014 A 
BRANCH  48  49
ATOM     49  C   UNL     1       1.683  -4.289 -10.454  1.00  0.00     0.031 A 
ATOM     50  C   UNL     1       2.773  -4.684 -11.412  1.00  0.00     0.074 A 
ATOM     51  C   UNL     1       0.756  -5.190 -10.084  1.00  0.00     0.049 A 
ATOM     52  N   UNL     1       2.951  -5.813 -12.049  1.00  0.00    -0.248 NA
ATOM     53  C   UNL     1       3.800  -3.666 -11.689  1.00  0.00     0.031 C 
ATOM     54  C   UNL     1      -0.323  -4.954  -9.127  1.00  0.00     0.029 A 
ATOM     55  N   UNL     1       0.572  -6.490 -10.488  1.00  0.00    -0.354 N 
ATOM     56  C   UNL     1       4.099  -5.638 -12.812  1.00  0.00     0.074 A 
ATOM     57  C   UNL     1       4.563  -4.287 -12.575  1.00  0.00     0.031 C 
ATOM     58  C   UNL     1      -1.068  -6.070  -9.029  1.00  0.00     0.029 A 
ATOM     59  C   UNL     1      -0.543  -7.081  -9.944  1.00  0.00     0.049 A 
ATOM     60  H   UNL     1       1.180  -6.954 -11.107  1.00  0.00     0.167 HD
ATOM     61  C   UNL     1       4.713  -6.520 -13.635  1.00  0.00     0.031 A 
ATOM     62  C   UNL     1      -1.094  -8.288 -10.184  1.00  0.00     0.031 A 
ATOM     63  C   UNL     1       4.242  -7.856 -13.889  1.00  0.00     0.049 A 
ATOM     64  C   UNL     1      -0.446  -9.217 -11.178  1.00  0.00     0.074 A 
ATOM     65  C   UNL     1       4.805  -8.828 -14.697  1.00  0.00     0.029 A 
ATOM     66  N   UNL     1       3.088  -8.402 -13.350  1.00  0.00    -0.354 N 
ATOM     67  N   UNL     1       0.655  -9.052 -11.872  1.00  0.00    -0.248 NA
ATOM     68  C   UNL     1      -1.117 -10.504 -11.418  1.00  0.00     0.031 C 
ATOM     69  C   UNL     1       3.956  -9.940 -14.698  1.00  0.00     0.029 A 
ATOM     70  C   UNL     1       2.903  -9.686 -13.835  1.00  0.00     0.049 A 
ATOM     71  H   UNL     1       2.488  -7.945 -12.716  1.00  0.00     0.167 HD
ATOM     72  C   UNL     1       0.823 -10.223 -12.603  1.00  0.00     0.074 A 
ATOM     73  C   UNL     1      -0.278 -11.096 -12.256  1.00  0.00     0.031 C 
ATOM     74  C   UNL     1       1.803 -10.547 -13.482  1.00  0.00     0.031 A 
BRANCH  61  75
ATOM     75  C   UNL     1       5.944  -6.051 -14.359  1.00  0.00    -0.014 A 
ATOM     76  C   UNL     1       7.153  -5.828 -13.681  1.00  0.00     0.009 A 
ATOM     77  C   UNL     1       5.901  -5.863 -15.750  1.00  0.00     0.009 A 
ATOM     78  C   UNL     1       8.284  -5.396 -14.377  1.00  0.00     0.001 A 
ATOM     79  C   UNL     1       7.041  -5.461 -16.447  1.00  0.00     0.001 A 
ATOM     80  C   UNL     1       8.229  -5.219 -15.759  1.00  0.00     0.000 A 
ENDBRANCH  61  75
BRANCH  62  81
ATOM     81  C   UNL     1      -2.354  -8.685  -9.499  1.00  0.00    -0.014 A 
ATOM     82  C   UNL     1      -2.365  -9.736  -8.569  1.00  0.00     0.009 A 
ATOM     83  C   UNL     1      -3.563  -8.039  -9.803  1.00  0.00     0.009 A 
ATOM     84  C   UNL     1      -3.563 -10.150  -7.981  1.00  0.00     0.001 A 
ATOM     85  C   UNL     1      -4.754  -8.433  -9.188  1.00  0.00     0.001 A 
ATOM     86  C   UNL     1      -4.755  -9.495  -8.286  1.00  0.00     0.000 A 
ENDBRANCH  62  81
BRANCH  74  87
ATOM     87  C   UNL     1       1.757 -11.919 -14.100  1.00  0.00    -0.014 A 
ATOM     88  C   UNL     1       0.784 -12.264 -15.051  1.00  0.00     0.009 A 
ATOM     89  C   UNL     1       2.733 -12.867 -13.755  1.00  0.00     0.009 A 
ATOM     90  C   UNL     1       0.768 -13.542 -15.615  1.00  0.00     0.001 A 
ATOM     91  C   UNL     1       2.736 -14.133 -14.345  1.00  0.00     0.001 A 
ATOM     92  C   UNL     1       1.747 -14.472 -15.266  1.00  0.00     0.000 A 
ENDBRANCH  74  87
ENDBRANCH  48  49
ENDBRANCH  41  43
ENDBRANCH  40  41
ENDBRANCH  39  40
ENDBRANCH  38  39
ENDBRANCH  37  38
ENDBRANCH  36  37
ENDBRANCH  35  36
ENDBRANCH  34  35
ENDBRANCH   1  34
TORSDOF 23
