REMARK SMILES NC(=O)c1c(-c2ccc(Cl)cc2)csc1NC(=O)[C@H]1[C@@H](C(=O)OCCOCCOCCOC(=O)c2ccc(-c3c4nc(c(-c5ccccc5)c5ccc([nH]5)c(-c5ccccc5)c5nc(c(-c6ccccc6)c6ccc3[nH]6)C=C5)C=C4)cc2)[C@@H]2CC[C@H]1O2
REMARK SMILES IDX 27 1 26 2 25 3 24 4 23 5 21 6 22 7 20 8 19 9 86 10 83 11
REMARK SMILES IDX 85 12 87 13 84 14 17 15 16 16 18 18 15 19 4 20 5 21 13 22
REMARK SMILES IDX 14 23 2 24 1 25 3 28 6 29 7 30 12 31 8 32 11 33 9 34 10 35
REMARK SMILES IDX 28 36 29 37 30 38 31 39 32 40 33 41 34 42 35 43 36 44 82 45
REMARK SMILES IDX 37 46 81 47 38 48 39 49 40 50 75 51 41 52 80 53 74 54 76 55
REMARK SMILES IDX 42 56 79 57 73 58 72 59 43 61 65 62 50 63 64 64 51 65 54 66
REMARK SMILES IDX 63 67 77 68 52 69 53 70 62 72 78 73 55 74 44 75 45 76 49 77
REMARK SMILES IDX 46 78 48 79 47 80 66 81 67 82 71 83 68 84 70 85 69 86 56 87
REMARK SMILES IDX 57 88 61 89 58 90 60 91 59 92
REMARK H PARENT 16 17 1 26 1 27 76 60 54 71
REMARK Flexibility Score: inf
ROOT
ATOM      1  C   UNL     1       3.527   8.155  -0.999  1.00  0.00     0.188 C 
ENDROOT
BRANCH   1   2
ATOM      2  O   UNL     1       4.800   7.891  -1.550  1.00  0.00    -0.376 OA
BRANCH   2   3
ATOM      3  C   UNL     1       4.920   7.443  -2.893  1.00  0.00     0.202 C 
BRANCH   3   4
ATOM      4  C   UNL     1       3.904   6.502  -3.564  1.00  0.00     0.261 C 
BRANCH   4   5
ATOM      5  O   UNL     1       2.515   6.853  -3.423  1.00  0.00    -0.463 OA
BRANCH   5   6
ATOM      6  C   UNL     1       1.762   5.946  -2.758  1.00  0.00     0.312 C 
ATOM      7  O   UNL     1       2.206   4.910  -2.272  1.00  0.00    -0.252 OA
BRANCH   6   8
ATOM      8  C   UNL     1       0.335   6.365  -2.494  1.00  0.00     0.143 C 
ATOM      9  C   UNL     1      -0.723   5.337  -2.929  1.00  0.00     0.124 C 
ATOM     10  C   UNL     1      -1.846   6.248  -3.387  1.00  0.00     0.132 C 
ATOM     11  C   UNL     1      -0.236   7.671  -3.072  1.00  0.00     0.133 C 
ATOM     12  C   UNL     1      -2.403   7.134  -2.265  1.00  0.00     0.035 C 
ATOM     13  O   UNL     1      -1.103   7.235  -4.130  1.00  0.00    -0.373 OA
ATOM     14  C   UNL     1      -1.312   8.205  -2.119  1.00  0.00     0.036 C 
BRANCH   9  15
ATOM     15  C   UNL     1      -0.207   4.226  -3.873  1.00  0.00     0.231 C 
ATOM     16  N   UNL     1       0.311   4.414  -5.122  1.00  0.00    -0.317 N 
ATOM     17  H   UNL     1       1.117   3.877  -5.301  1.00  0.00     0.170 HD
ATOM     18  O   UNL     1      -0.057   3.097  -3.381  1.00  0.00    -0.274 OA
BRANCH  16  19
ATOM     19  C   UNL     1      -0.073   5.210  -6.186  1.00  0.00     0.108 A 
ATOM     20  C   UNL     1       0.632   5.496  -7.359  1.00  0.00     0.082 A 
ATOM     21  C   UNL     1      -0.120   6.457  -8.153  1.00  0.00     0.007 A 
ATOM     22  C   UNL     1      -1.343   6.750  -7.580  1.00  0.00     0.076 A 
ATOM     23  S   UNL     1      -1.717   5.590  -6.400  1.00  0.00    -0.125 S 
BRANCH  20  24
ATOM     24  C   UNL     1       1.910   4.849  -7.658  1.00  0.00     0.252 C 
ATOM     25  N   UNL     1       2.637   5.323  -8.709  1.00  0.00    -0.365 N 
ATOM     26  H   UNL     1       3.501   4.909  -8.937  1.00  0.00     0.159 HD
ATOM     27  H   UNL     1       2.298   6.079  -9.241  1.00  0.00     0.159 HD
ATOM     28  O   UNL     1       2.338   3.893  -7.012  1.00  0.00    -0.269 OA
ENDBRANCH  20  24
BRANCH  21  29
ATOM     29  C   UNL     1       0.070   6.916  -9.517  1.00  0.00    -0.017 A 
ATOM     30  C   UNL     1       0.380   8.247  -9.817  1.00  0.00     0.010 A 
ATOM     31  C   UNL     1      -0.228   6.014 -10.547  1.00  0.00     0.010 A 
ATOM     32  C   UNL     1       0.373   8.671 -11.151  1.00  0.00     0.021 A 
ATOM     33  C   UNL     1      -0.242   6.441 -11.872  1.00  0.00     0.021 A 
ATOM     34  C   UNL     1       0.052   7.769 -12.168  1.00  0.00     0.041 A 
ATOM     35  Cl  UNL     1      -0.009   8.304 -13.802  1.00  0.00    -0.084 Cl
ENDBRANCH  21  29
ENDBRANCH  16  19
ENDBRANCH   9  15
ENDBRANCH   6   8
ENDBRANCH   5   6
ENDBRANCH   4   5
ENDBRANCH   3   4
ENDBRANCH   2   3
ENDBRANCH   1   2
BRANCH   1  36
ATOM     36  C   UNL     1       2.608   9.170  -1.687  1.00  0.00     0.188 C 
BRANCH  36  37
ATOM     37  O   UNL     1       2.971   9.662  -2.950  1.00  0.00    -0.376 OA
BRANCH  37  38
ATOM     38  C   UNL     1       3.901  10.727  -3.066  1.00  0.00     0.202 C 
BRANCH  38  39
ATOM     39  C   UNL     1       4.541  11.512  -1.899  1.00  0.00     0.261 C 
BRANCH  39  40
ATOM     40  O   UNL     1       4.238  11.119  -0.558  1.00  0.00    -0.460 OA
BRANCH  40  41
ATOM     41  C   UNL     1       3.238  11.805   0.050  1.00  0.00     0.338 C 
ATOM     42  O   UNL     1       2.566  12.704  -0.418  1.00  0.00    -0.246 OA
BRANCH  41  43
ATOM     43  C   UNL     1       2.926  11.115   1.321  1.00  0.00     0.060 A 
ATOM     44  C   UNL     1       1.667  10.513   1.470  1.00  0.00     0.016 A 
ATOM     45  C   UNL     1       3.865  11.059   2.349  1.00  0.00     0.016 A 
ATOM     46  C   UNL     1       1.338   9.864   2.659  1.00  0.00     0.010 A 
ATOM     47  C   UNL     1       3.522  10.438   3.553  1.00  0.00     0.010 A 
ATOM     48  C   UNL     1       2.249   9.861   3.721  1.00  0.00    -0.014 A 
BRANCH  48  49
ATOM     49  C   UNL     1       1.805   9.443   5.072  1.00  0.00     0.031 A 
ATOM     50  C   UNL     1       1.375  10.509   6.040  1.00  0.00     0.074 A 
ATOM     51  C   UNL     1       1.776   8.149   5.435  1.00  0.00     0.049 A 
ATOM     52  N   UNL     1       1.024  10.400   7.295  1.00  0.00    -0.248 NA
ATOM     53  C   UNL     1       1.340  11.887   5.521  1.00  0.00     0.031 C 
ATOM     54  C   UNL     1       2.109   7.016   4.575  1.00  0.00     0.029 A 
ATOM     55  N   UNL     1       1.458   7.576   6.642  1.00  0.00    -0.354 N 
ATOM     56  C   UNL     1       0.744  11.693   7.720  1.00  0.00     0.074 A 
ATOM     57  C   UNL     1       0.987  12.572   6.597  1.00  0.00     0.031 C 
ATOM     58  C   UNL     1       1.990   5.880   5.287  1.00  0.00     0.029 A 
ATOM     59  C   UNL     1       1.614   6.212   6.660  1.00  0.00     0.049 A 
ATOM     60  H   UNL     1       1.147   8.094   7.419  1.00  0.00     0.167 HD
ATOM     61  C   UNL     1       0.324  12.113   8.936  1.00  0.00     0.031 A 
ATOM     62  C   UNL     1       1.495   5.337   7.679  1.00  0.00     0.031 A 
ATOM     63  C   UNL     1       0.100  11.243  10.058  1.00  0.00     0.049 A 
ATOM     64  C   UNL     1       1.118   5.841   9.049  1.00  0.00     0.074 A 
ATOM     65  C   UNL     1      -0.340  11.572  11.328  1.00  0.00     0.029 A 
ATOM     66  N   UNL     1       0.310   9.873  10.048  1.00  0.00    -0.354 N 
ATOM     67  N   UNL     1       0.833   7.062   9.435  1.00  0.00    -0.248 NA
ATOM     68  C   UNL     1       1.042   4.840  10.124  1.00  0.00     0.031 C 
ATOM     69  C   UNL     1      -0.334  10.409  12.105  1.00  0.00     0.029 A 
ATOM     70  C   UNL     1       0.040   9.346  11.299  1.00  0.00     0.049 A 
ATOM     71  H   UNL     1       0.607   9.352   9.267  1.00  0.00     0.167 HD
ATOM     72  C   UNL     1       0.511   6.969  10.784  1.00  0.00     0.074 A 
ATOM     73  C   UNL     1       0.623   5.572  11.147  1.00  0.00     0.031 C 
ATOM     74  C   UNL     1       0.151   7.953  11.646  1.00  0.00     0.031 A 
BRANCH  61  75
ATOM     75  C   UNL     1       0.127  13.591   9.126  1.00  0.00    -0.014 A 
ATOM     76  C   UNL     1      -0.932  14.276   8.511  1.00  0.00     0.009 A 
ATOM     77  C   UNL     1       1.004  14.304   9.960  1.00  0.00     0.009 A 
ATOM     78  C   UNL     1      -1.089  15.651   8.700  1.00  0.00     0.001 A 
ATOM     79  C   UNL     1       0.826  15.671  10.172  1.00  0.00     0.001 A 
ATOM     80  C   UNL     1      -0.214  16.346   9.534  1.00  0.00     0.000 A 
ENDBRANCH  61  75
BRANCH  62  81
ATOM     81  C   UNL     1       1.761   3.890   7.460  1.00  0.00    -0.014 A 
ATOM     82  C   UNL     1       0.724   2.949   7.555  1.00  0.00     0.009 A 
ATOM     83  C   UNL     1       3.063   3.437   7.191  1.00  0.00     0.009 A 
ATOM     84  C   UNL     1       0.991   1.584   7.415  1.00  0.00     0.001 A 
ATOM     85  C   UNL     1       3.320   2.075   7.020  1.00  0.00     0.001 A 
ATOM     86  C   UNL     1       2.287   1.149   7.143  1.00  0.00     0.000 A 
ENDBRANCH  62  81
BRANCH  74  87
ATOM     87  C   UNL     1      -0.197   7.551  13.054  1.00  0.00    -0.014 A 
ATOM     88  C   UNL     1       0.784   7.118  13.960  1.00  0.00     0.009 A 
ATOM     89  C   UNL     1      -1.528   7.653  13.492  1.00  0.00     0.009 A 
ATOM     90  C   UNL     1       0.432   6.763  15.264  1.00  0.00     0.001 A 
ATOM     91  C   UNL     1      -1.870   7.330  14.806  1.00  0.00     0.001 A 
ATOM     92  C   UNL     1      -0.892   6.875  15.688  1.00  0.00     0.000 A 
ENDBRANCH  74  87
ENDBRANCH  48  49
ENDBRANCH  41  43
ENDBRANCH  40  41
ENDBRANCH  39  40
ENDBRANCH  38  39
ENDBRANCH  37  38
ENDBRANCH  36  37
ENDBRANCH   1  36
TORSDOF 21
