REMARK SMILES CCCNC(=O)[C@H](C)[NH2+][C@H](C)[C@@H](C)C(=O)OCCOCCOCCOC(=O)c1ccc(-c2c3nc(c(-c4ccccc4)c4ccc([nH]4)c(-c4ccccc4)c4nc(c(-c5ccccc5)c5ccc2[nH]5)C=C4)C=C3)cc1
REMARK SMILES IDX 18 1 17 2 16 3 14 4 15 5 12 6 13 7 10 8 11 9 9 10 7 13 8 14
REMARK SMILES IDX 5 15 4 16 6 18 3 19 2 20 1 21 19 22 20 23 21 24 22 25 23 26
REMARK SMILES IDX 24 27 25 28 26 29 27 30 28 31 29 32 75 33 30 34 74 35 31 36
REMARK SMILES IDX 32 37 33 38 68 39 34 40 73 41 67 42 69 43 35 44 72 45 66 46
REMARK SMILES IDX 65 47 36 49 58 50 43 51 57 52 44 53 47 54 56 55 70 56 45 57
REMARK SMILES IDX 46 58 55 60 71 61 48 62 37 63 38 64 42 65 39 66 41 67 40 68
REMARK SMILES IDX 59 69 60 70 64 71 61 72 63 73 62 74 49 75 50 76 54 77 51 78
REMARK SMILES IDX 53 79 52 80
REMARK H PARENT 9 11 9 12 4 17 69 48 47 59
REMARK Flexibility Score: inf
ROOT
ATOM      1  C   UNL     1       0.687   4.998   9.898  1.00  0.00     0.202 C 
ENDROOT
BRANCH   1   2
ATOM      2  C   UNL     1       1.591   5.887   9.027  1.00  0.00     0.261 C 
BRANCH   2   3
ATOM      3  O   UNL     1       1.348   5.760   7.602  1.00  0.00    -0.463 OA
BRANCH   3   4
ATOM      4  C   UNL     1       2.281   5.065   6.906  1.00  0.00     0.314 C 
ATOM      5  O   UNL     1       3.256   4.518   7.414  1.00  0.00    -0.252 OA
BRANCH   4   6
ATOM      6  C   UNL     1       2.090   5.078   5.400  1.00  0.00     0.154 C 
ATOM      7  C   UNL     1       2.963   6.221   4.862  1.00  0.00     0.026 C 
BRANCH   6   8
ATOM      8  C   UNL     1       0.674   5.179   4.780  1.00  0.00     0.193 C 
ATOM      9  C   UNL     1       0.745   4.739   3.294  1.00  0.00     0.076 C 
BRANCH   8  10
ATOM     10  N   UNL     1      -0.393   4.381   5.384  1.00  0.00    -0.333 N 
ATOM     11  H   UNL     1      -0.566   3.564   4.798  1.00  0.00     0.347 HD
ATOM     12  H   UNL     1      -0.093   4.105   6.319  1.00  0.00     0.347 HD
BRANCH  10  13
ATOM     13  C   UNL     1      -1.652   5.154   5.512  1.00  0.00     0.269 C 
ATOM     14  C   UNL     1      -2.856   4.208   5.460  1.00  0.00     0.086 C 
BRANCH  13  15
ATOM     15  C   UNL     1      -1.714   5.907   6.857  1.00  0.00     0.277 C 
ATOM     16  N   UNL     1      -1.306   7.216   6.877  1.00  0.00    -0.351 N 
ATOM     17  H   UNL     1      -0.440   7.463   6.478  1.00  0.00     0.163 HD
ATOM     18  O   UNL     1      -2.160   5.393   7.875  1.00  0.00    -0.268 OA
BRANCH  16  19
ATOM     19  C   UNL     1      -2.138   8.237   7.482  1.00  0.00     0.116 C 
BRANCH  19  20
ATOM     20  C   UNL     1      -2.614   8.012   8.919  1.00  0.00     0.018 C 
ATOM     21  C   UNL     1      -1.501   8.100   9.945  1.00  0.00     0.006 C 
ENDBRANCH  19  20
ENDBRANCH  16  19
ENDBRANCH  13  15
ENDBRANCH  10  13
ENDBRANCH   8  10
ENDBRANCH   6   8
ENDBRANCH   4   6
ENDBRANCH   3   4
ENDBRANCH   2   3
ENDBRANCH   1   2
BRANCH   1  22
ATOM     22  O   UNL     1       1.169   3.664  10.053  1.00  0.00    -0.376 OA
BRANCH  22  23
ATOM     23  C   UNL     1       0.914   2.816   8.941  1.00  0.00     0.188 C 
BRANCH  23  24
ATOM     24  C   UNL     1      -0.391   2.043   9.064  1.00  0.00     0.188 C 
BRANCH  24  25
ATOM     25  O   UNL     1      -1.494   2.797   8.553  1.00  0.00    -0.376 OA
BRANCH  25  26
ATOM     26  C   UNL     1      -2.574   2.957   9.480  1.00  0.00     0.202 C 
BRANCH  26  27
ATOM     27  C   UNL     1      -3.675   1.899   9.343  1.00  0.00     0.261 C 
BRANCH  27  28
ATOM     28  O   UNL     1      -3.114   0.619   9.055  1.00  0.00    -0.460 OA
BRANCH  28  29
ATOM     29  C   UNL     1      -3.030   0.333   7.730  1.00  0.00     0.338 C 
ATOM     30  O   UNL     1      -3.675   0.826   6.818  1.00  0.00    -0.246 OA
BRANCH  29  31
ATOM     31  C   UNL     1      -1.855  -0.542   7.534  1.00  0.00     0.060 A 
ATOM     32  C   UNL     1      -1.057  -0.334   6.397  1.00  0.00     0.016 A 
ATOM     33  C   UNL     1      -1.456  -1.444   8.527  1.00  0.00     0.016 A 
ATOM     34  C   UNL     1       0.133  -1.045   6.243  1.00  0.00     0.010 A 
ATOM     35  C   UNL     1      -0.273  -2.157   8.370  1.00  0.00     0.010 A 
ATOM     36  C   UNL     1       0.506  -1.985   7.213  1.00  0.00    -0.014 A 
BRANCH  36  37
ATOM     37  C   UNL     1       1.530  -3.007   6.915  1.00  0.00     0.031 A 
ATOM     38  C   UNL     1       1.034  -4.308   6.349  1.00  0.00     0.074 A 
ATOM     39  C   UNL     1       2.830  -2.825   7.200  1.00  0.00     0.049 A 
ATOM     40  N   UNL     1       1.675  -5.427   6.147  1.00  0.00    -0.248 NA
ATOM     41  C   UNL     1      -0.394  -4.352   5.981  1.00  0.00     0.031 C 
ATOM     42  C   UNL     1       3.427  -1.597   7.719  1.00  0.00     0.029 A 
ATOM     43  N   UNL     1       3.881  -3.703   7.111  1.00  0.00    -0.354 N 
ATOM     44  C   UNL     1       0.725  -6.311   5.651  1.00  0.00     0.074 A 
ATOM     45  C   UNL     1      -0.537  -5.611   5.602  1.00  0.00     0.031 C 
ATOM     46  C   UNL     1       4.741  -1.807   7.923  1.00  0.00     0.029 A 
ATOM     47  C   UNL     1       5.064  -3.193   7.588  1.00  0.00     0.049 A 
ATOM     48  H   UNL     1       3.796  -4.611   6.741  1.00  0.00     0.167 HD
ATOM     49  C   UNL     1       0.889  -7.598   5.273  1.00  0.00     0.031 A 
ATOM     50  C   UNL     1       6.257  -3.796   7.761  1.00  0.00     0.031 A 
ATOM     51  C   UNL     1       2.140  -8.296   5.350  1.00  0.00     0.049 A 
ATOM     52  C   UNL     1       6.401  -5.252   7.391  1.00  0.00     0.074 A 
ATOM     53  C   UNL     1       2.425  -9.599   4.985  1.00  0.00     0.029 A 
ATOM     54  N   UNL     1       3.315  -7.745   5.838  1.00  0.00    -0.354 N 
ATOM     55  N   UNL     1       5.507  -6.074   6.895  1.00  0.00    -0.248 NA
ATOM     56  C   UNL     1       7.722  -5.861   7.604  1.00  0.00     0.031 C 
ATOM     57  C   UNL     1       3.762  -9.853   5.303  1.00  0.00     0.029 A 
ATOM     58  C   UNL     1       4.324  -8.688   5.806  1.00  0.00     0.049 A 
ATOM     59  H   UNL     1       3.415  -6.819   6.158  1.00  0.00     0.167 HD
ATOM     60  C   UNL     1       6.164  -7.285   6.708  1.00  0.00     0.074 A 
ATOM     61  C   UNL     1       7.534  -7.086   7.132  1.00  0.00     0.031 C 
ATOM     62  C   UNL     1       5.681  -8.458   6.228  1.00  0.00     0.031 A 
BRANCH  49  63
ATOM     63  C   UNL     1      -0.330  -8.333   4.794  1.00  0.00    -0.014 A 
ATOM     64  C   UNL     1      -0.934  -8.024   3.564  1.00  0.00     0.009 A 
ATOM     65  C   UNL     1      -0.884  -9.349   5.588  1.00  0.00     0.009 A 
ATOM     66  C   UNL     1      -2.088  -8.696   3.156  1.00  0.00     0.001 A 
ATOM     67  C   UNL     1      -2.020 -10.039   5.163  1.00  0.00     0.001 A 
ATOM     68  C   UNL     1      -2.626  -9.705   3.953  1.00  0.00     0.000 A 
ENDBRANCH  49  63
BRANCH  50  69
ATOM     69  C   UNL     1       7.405  -3.045   8.337  1.00  0.00    -0.014 A 
ATOM     70  C   UNL     1       8.533  -2.748   7.555  1.00  0.00     0.009 A 
ATOM     71  C   UNL     1       7.396  -2.649   9.684  1.00  0.00     0.009 A 
ATOM     72  C   UNL     1       9.635  -2.097   8.116  1.00  0.00     0.001 A 
ATOM     73  C   UNL     1       8.488  -1.972  10.234  1.00  0.00     0.001 A 
ATOM     74  C   UNL     1       9.610  -1.705   9.453  1.00  0.00     0.000 A 
ENDBRANCH  50  69
BRANCH  62  75
ATOM     75  C   UNL     1       6.649  -9.600   6.091  1.00  0.00    -0.014 A 
ATOM     76  C   UNL     1       7.132 -10.290   7.213  1.00  0.00     0.009 A 
ATOM     77  C   UNL     1       7.033 -10.027   4.809  1.00  0.00     0.009 A 
ATOM     78  C   UNL     1       8.007 -11.367   7.053  1.00  0.00     0.001 A 
ATOM     79  C   UNL     1       7.882 -11.122   4.653  1.00  0.00     0.001 A 
ATOM     80  C   UNL     1       8.376 -11.785   5.775  1.00  0.00     0.000 A 
ENDBRANCH  62  75
ENDBRANCH  36  37
ENDBRANCH  29  31
ENDBRANCH  28  29
ENDBRANCH  27  28
ENDBRANCH  26  27
ENDBRANCH  25  26
ENDBRANCH  24  25
ENDBRANCH  23  24
ENDBRANCH  22  23
ENDBRANCH   1  22
TORSDOF 23
