REMARK SMILES O=C(OCCOCCOCCOC(=O)c1cc(Br)cc2c1N[C@H](c1cccc([N+](=O)[O-])c1)[C@H]1CC=C[C@H]21)c1ccc(-c2c3nc(c(-c4ccccc4)c4ccc([nH]4)c(-c4ccccc4)c4nc(c(-c5ccccc5)c5ccc2[nH]5)C=C4)C=C3)cc1
REMARK SMILES IDX 7 1 6 2 5 3 4 4 3 5 2 6 1 7 38 8 39 9 85 10 40 11 84 12
REMARK SMILES IDX 41 13 42 14 43 15 78 16 44 17 83 18 77 19 79 20 45 21 82 22
REMARK SMILES IDX 76 23 75 24 46 26 68 27 53 28 67 29 54 30 57 31 66 32 80 33
REMARK SMILES IDX 55 34 56 35 65 37 81 38 58 39 47 40 48 41 52 42 49 43 51 44
REMARK SMILES IDX 50 45 69 46 70 47 74 48 71 49 73 50 72 51 59 52 60 53 64 54
REMARK SMILES IDX 61 55 63 56 62 57 8 58 9 59 10 60 11 61 12 62 13 63 14 64
REMARK SMILES IDX 15 65 16 66 21 67 17 68 20 69 22 70 18 71 19 72 37 73 23 74
REMARK SMILES IDX 33 76 36 77 34 78 35 79 24 80 25 81 32 82 26 83 28 84 27 85
REMARK SMILES IDX 29 86 30 87 31 88
REMARK H PARENT 79 25 57 36 22 75
REMARK Flexibility Score: inf
ROOT
ATOM      1  C   UNL     1       2.549  -1.848   0.427  1.00  0.00     0.188 C 
ENDROOT
BRANCH   1   2
ATOM      2  O   UNL     1       3.678  -1.391  -0.338  1.00  0.00    -0.376 OA
BRANCH   2   3
ATOM      3  C   UNL     1       4.792  -1.019   0.474  1.00  0.00     0.202 C 
BRANCH   3   4
ATOM      4  C   UNL     1       4.708   0.383   1.087  1.00  0.00     0.261 C 
BRANCH   4   5
ATOM      5  O   UNL     1       3.369   0.884   1.186  1.00  0.00    -0.460 OA
BRANCH   5   6
ATOM      6  C   UNL     1       2.608   1.522   0.267  1.00  0.00     0.338 C 
ATOM      7  O   UNL     1       1.463   1.828   0.604  1.00  0.00    -0.246 OA
BRANCH   6   8
ATOM      8  C   UNL     1       3.043   1.917  -1.119  1.00  0.00     0.060 A 
ATOM      9  C   UNL     1       2.191   2.818  -1.792  1.00  0.00     0.016 A 
ATOM     10  C   UNL     1       4.176   1.479  -1.809  1.00  0.00     0.016 A 
ATOM     11  C   UNL     1       2.484   3.301  -3.074  1.00  0.00     0.010 A 
ATOM     12  C   UNL     1       4.485   1.968  -3.090  1.00  0.00     0.010 A 
ATOM     13  C   UNL     1       3.653   2.900  -3.722  1.00  0.00    -0.014 A 
BRANCH  13  14
ATOM     14  C   UNL     1       4.110   3.591  -4.954  1.00  0.00     0.031 A 
ATOM     15  C   UNL     1       3.735   3.114  -6.328  1.00  0.00     0.074 A 
ATOM     16  C   UNL     1       4.844   4.708  -4.790  1.00  0.00     0.049 A 
ATOM     17  N   UNL     1       4.144   3.536  -7.499  1.00  0.00    -0.248 NA
ATOM     18  C   UNL     1       2.743   2.037  -6.396  1.00  0.00     0.031 C 
ATOM     19  C   UNL     1       5.130   5.340  -3.497  1.00  0.00     0.029 A 
ATOM     20  N   UNL     1       5.454   5.527  -5.701  1.00  0.00    -0.354 N 
ATOM     21  C   UNL     1       3.476   2.764  -8.452  1.00  0.00     0.074 A 
ATOM     22  C   UNL     1       2.612   1.876  -7.708  1.00  0.00     0.031 C 
ATOM     23  C   UNL     1       5.830   6.465  -3.703  1.00  0.00     0.029 A 
ATOM     24  C   UNL     1       6.095   6.600  -5.131  1.00  0.00     0.049 A 
ATOM     25  H   UNL     1       5.436   5.363  -6.672  1.00  0.00     0.167 HD
ATOM     26  C   UNL     1       3.620   2.785  -9.807  1.00  0.00     0.031 A 
ATOM     27  C   UNL     1       6.827   7.578  -5.697  1.00  0.00     0.031 A 
ATOM     28  C   UNL     1       4.583   3.652 -10.456  1.00  0.00     0.049 A 
ATOM     29  C   UNL     1       7.038   7.544  -7.181  1.00  0.00     0.074 A 
ATOM     30  C   UNL     1       4.976   3.689 -11.784  1.00  0.00     0.029 A 
ATOM     31  N   UNL     1       5.306   4.647  -9.809  1.00  0.00    -0.354 N 
ATOM     32  N   UNL     1       6.605   6.655  -8.041  1.00  0.00    -0.248 NA
ATOM     33  C   UNL     1       7.835   8.624  -7.779  1.00  0.00     0.031 C 
ATOM     34  C   UNL     1       6.047   4.569 -11.900  1.00  0.00     0.029 A 
ATOM     35  C   UNL     1       6.144   5.271 -10.711  1.00  0.00     0.049 A 
ATOM     36  H   UNL     1       5.232   4.872  -8.853  1.00  0.00     0.167 HD
ATOM     37  C   UNL     1       7.072   7.067  -9.278  1.00  0.00     0.074 A 
ATOM     38  C   UNL     1       7.809   8.294  -9.066  1.00  0.00     0.031 C 
ATOM     39  C   UNL     1       6.895   6.475 -10.479  1.00  0.00     0.031 A 
BRANCH  26  40
ATOM     40  C   UNL     1       2.873   1.777 -10.676  1.00  0.00    -0.014 A 
ATOM     41  C   UNL     1       3.603   0.969 -11.573  1.00  0.00     0.009 A 
ATOM     42  C   UNL     1       1.483   1.600 -10.659  1.00  0.00     0.009 A 
ATOM     43  C   UNL     1       3.000  -0.008 -12.371  1.00  0.00     0.001 A 
ATOM     44  C   UNL     1       0.875   0.593 -11.429  1.00  0.00     0.001 A 
ATOM     45  C   UNL     1       1.633  -0.214 -12.277  1.00  0.00     0.000 A 
ENDBRANCH  26  40
BRANCH  27  46
ATOM     46  C   UNL     1       7.380   8.662  -4.851  1.00  0.00    -0.014 A 
ATOM     47  C   UNL     1       8.429   8.411  -3.952  1.00  0.00     0.009 A 
ATOM     48  C   UNL     1       6.806   9.941  -4.885  1.00  0.00     0.009 A 
ATOM     49  C   UNL     1       8.876   9.413  -3.088  1.00  0.00     0.001 A 
ATOM     50  C   UNL     1       7.272  10.948  -4.036  1.00  0.00     0.001 A 
ATOM     51  C   UNL     1       8.299  10.681  -3.132  1.00  0.00     0.000 A 
ENDBRANCH  27  46
BRANCH  39  52
ATOM     52  C   UNL     1       7.468   7.122 -11.706  1.00  0.00    -0.014 A 
ATOM     53  C   UNL     1       6.580   7.640 -12.666  1.00  0.00     0.009 A 
ATOM     54  C   UNL     1       8.825   6.990 -12.027  1.00  0.00     0.009 A 
ATOM     55  C   UNL     1       7.032   7.967 -13.943  1.00  0.00     0.001 A 
ATOM     56  C   UNL     1       9.278   7.344 -13.300  1.00  0.00     0.001 A 
ATOM     57  C   UNL     1       8.379   7.813 -14.260  1.00  0.00     0.000 A 
ENDBRANCH  39  52
ENDBRANCH  13  14
ENDBRANCH   6   8
ENDBRANCH   5   6
ENDBRANCH   4   5
ENDBRANCH   3   4
ENDBRANCH   2   3
ENDBRANCH   1   2
BRANCH   1  58
ATOM     58  C   UNL     1       1.888  -3.048  -0.250  1.00  0.00     0.188 C 
BRANCH  58  59
ATOM     59  O   UNL     1       2.541  -4.304  -0.050  1.00  0.00    -0.376 OA
BRANCH  59  60
ATOM     60  C   UNL     1       3.906  -4.416  -0.432  1.00  0.00     0.202 C 
BRANCH  60  61
ATOM     61  C   UNL     1       4.196  -4.611  -1.920  1.00  0.00     0.261 C 
BRANCH  61  62
ATOM     62  O   UNL     1       3.795  -3.522  -2.758  1.00  0.00    -0.460 OA
BRANCH  62  63
ATOM     63  C   UNL     1       2.614  -3.716  -3.388  1.00  0.00     0.340 C 
ATOM     64  O   UNL     1       1.797  -4.609  -3.179  1.00  0.00    -0.246 OA
BRANCH  63  65
ATOM     65  C   UNL     1       2.410  -2.718  -4.442  1.00  0.00     0.084 A 
ATOM     66  C   UNL     1       1.190  -2.027  -4.451  1.00  0.00     0.033 A 
ATOM     67  C   UNL     1       3.299  -2.675  -5.529  1.00  0.00     0.053 A 
ATOM     68  C   UNL     1       0.808  -1.343  -5.596  1.00  0.00     0.019 A 
ATOM     69  C   UNL     1       2.838  -2.056  -6.715  1.00  0.00    -0.016 A 
ATOM     70  N   UNL     1       4.548  -3.299  -5.483  1.00  0.00    -0.377 N 
ATOM     71  Br  UNL     1      -0.820  -0.385  -5.624  1.00  0.00    -0.051 Br
ATOM     72  C   UNL     1       1.594  -1.407  -6.744  1.00  0.00     0.022 A 
ATOM     73  C   UNL     1       3.664  -2.281  -7.947  1.00  0.00     0.049 C 
ATOM     74  C   UNL     1       5.448  -3.364  -6.630  1.00  0.00     0.114 C 
ATOM     75  H   UNL     1       4.834  -3.715  -4.638  1.00  0.00     0.161 HD
ATOM     76  C   UNL     1       5.138  -2.201  -7.552  1.00  0.00     0.031 C 
ATOM     77  C   UNL     1       3.680  -1.328  -9.087  1.00  0.00    -0.023 C 
ATOM     78  C   UNL     1       5.875  -2.128  -8.880  1.00  0.00     0.034 C 
ATOM     79  C   UNL     1       4.908  -1.278  -9.627  1.00  0.00    -0.030 C 
BRANCH  74  80
ATOM     80  C   UNL     1       6.898  -3.427  -6.169  1.00  0.00    -0.019 A 
ATOM     81  C   UNL     1       7.406  -4.647  -5.692  1.00  0.00     0.006 A 
ATOM     82  C   UNL     1       7.781  -2.337  -6.274  1.00  0.00     0.091 A 
ATOM     83  C   UNL     1       8.764  -4.794  -5.392  1.00  0.00     0.007 A 
ATOM     84  C   UNL     1       9.150  -2.503  -6.026  1.00  0.00     0.269 A 
ATOM     85  C   UNL     1       9.646  -3.730  -5.579  1.00  0.00     0.085 A 
BRANCH  84  86
ATOM     86  N   UNL     1      10.073  -1.394  -6.300  1.00  0.00     0.062 N 
ATOM     87  O   UNL     1      11.244  -1.512  -5.913  1.00  0.00    -0.258 OA
ATOM     88  O   UNL     1       9.630  -0.414  -6.915  1.00  0.00    -0.258 OA
ENDBRANCH  84  86
ENDBRANCH  74  80
ENDBRANCH  63  65
ENDBRANCH  62  63
ENDBRANCH  61  62
ENDBRANCH  60  61
ENDBRANCH  59  60
ENDBRANCH  58  59
ENDBRANCH   1  58
TORSDOF 19
