REMARK SMILES COc1ccc(O)c([C@@H]2[C@H](C(=O)OCCOCCOCCOC(=O)c3ccc(-c4c5nc(c(-c6ccccc6)c6ccc([nH]6)c(-c6ccccc6)c6nc(c(-c7ccccc7)c7ccc4[nH]7)C=C6)C=C5)cc3)c3ccccc3C(=O)N2C)c1
REMARK SMILES IDX 17 1 16 2 15 3 14 4 13 5 11 6 12 7 10 8 9 9 81 10 73 11
REMARK SMILES IDX 79 12 82 13 74 14 78 15 80 16 75 17 77 18 76 19 8 20 3 21
REMARK SMILES IDX 4 22 83 23 5 24 6 25 2 26 1 27 7 28 18 30 19 31 20 32 21 33
REMARK SMILES IDX 22 34 23 35 24 36 25 37 26 38 72 39 27 40 71 41 28 42 29 43
REMARK SMILES IDX 30 44 65 45 31 46 70 47 64 48 66 49 32 50 69 51 63 52 62 53
REMARK SMILES IDX 33 55 55 56 40 57 54 58 41 59 44 60 53 61 67 62 42 63 43 64
REMARK SMILES IDX 52 66 68 67 45 68 34 69 35 70 39 71 36 72 38 73 37 74 56 75
REMARK SMILES IDX 57 76 61 77 58 78 60 79 59 80 46 81 47 82 51 83 48 84 50 85
REMARK SMILES IDX 49 86
REMARK H PARENT 7 29 66 54 44 65
REMARK Flexibility Score: inf
ROOT
ATOM      1  C   UNL     1       4.802  -5.366   3.358  1.00  0.00     0.188 C 
ENDROOT
BRANCH   1   2
ATOM      2  O   UNL     1       6.188  -5.145   4.067  1.00  0.00    -0.376 OA
BRANCH   2   3
ATOM      3  C   UNL     1       6.393  -4.304   5.218  1.00  0.00     0.202 C 
BRANCH   3   4
ATOM      4  C   UNL     1       5.690  -2.953   5.516  1.00  0.00     0.261 C 
BRANCH   4   5
ATOM      5  O   UNL     1       4.571  -2.573   4.714  1.00  0.00    -0.463 OA
BRANCH   5   6
ATOM      6  C   UNL     1       4.863  -2.275   3.433  1.00  0.00     0.316 C 
ATOM      7  O   UNL     1       5.996  -2.042   3.023  1.00  0.00    -0.251 OA
BRANCH   6   8
ATOM      8  C   UNL     1       3.616  -2.311   2.514  1.00  0.00     0.157 C 
ATOM      9  C   UNL     1       2.390  -3.259   2.776  1.00  0.00     0.138 C 
ATOM     10  N   UNL     1       1.342  -2.763   3.643  1.00  0.00    -0.333 N 
ATOM     11  C   UNL     1       3.173  -0.892   2.396  1.00  0.00    -0.019 A 
ATOM     12  C   UNL     1       1.168  -1.401   3.861  1.00  0.00     0.254 C 
ATOM     13  C   UNL     1       0.245  -3.682   3.984  1.00  0.00     0.147 C 
ATOM     14  C   UNL     1       4.008   0.012   1.717  1.00  0.00     0.005 A 
ATOM     15  C   UNL     1       2.080  -0.450   3.146  1.00  0.00     0.044 A 
ATOM     16  O   UNL     1       0.282  -0.969   4.591  1.00  0.00    -0.269 OA
ATOM     17  C   UNL     1       3.783   1.372   1.831  1.00  0.00     0.000 A 
ATOM     18  C   UNL     1       1.857   0.922   3.240  1.00  0.00     0.014 A 
ATOM     19  C   UNL     1       2.713   1.826   2.599  1.00  0.00     0.001 A 
BRANCH   9  20
ATOM     20  C   UNL     1       2.793  -4.671   3.167  1.00  0.00     0.021 A 
ATOM     21  C   UNL     1       4.465  -7.033   2.087  1.00  0.00     0.119 A 
ATOM     22  C   UNL     1       5.100  -7.291   3.787  1.00  0.00     0.050 A 
ATOM     23  C   UNL     1       3.342  -5.690   1.806  1.00  0.00     0.056 A 
ATOM     24  C   UNL     1       4.514  -6.288   5.168  1.00  0.00     0.050 A 
ATOM     25  C   UNL     1       3.341  -5.000   4.835  1.00  0.00     0.121 A 
BRANCH  21  26
ATOM     26  O   UNL     1       4.718  -7.927   1.090  1.00  0.00    -0.497 OA
ATOM     27  C   UNL     1       4.139  -7.657  -0.186  1.00  0.00     0.278 C 
ENDBRANCH  21  26
BRANCH  25  28
ATOM     28  O   UNL     1       2.942  -4.249   5.896  1.00  0.00    -0.508 OA
ATOM     29  H   UNL     1       3.251  -4.452   6.757  1.00  0.00     0.293 HD
ENDBRANCH  25  28
ENDBRANCH   9  20
ENDBRANCH   6   8
ENDBRANCH   5   6
ENDBRANCH   4   5
ENDBRANCH   3   4
ENDBRANCH   2   3
ENDBRANCH   1   2
BRANCH   1  30
ATOM     30  C   UNL     1       3.147  -6.761   3.687  1.00  0.00     0.188 C 
BRANCH  30  31
ATOM     31  O   UNL     1       2.407  -7.249   4.955  1.00  0.00    -0.376 OA
BRANCH  31  32
ATOM     32  C   UNL     1       2.916  -8.285   5.829  1.00  0.00     0.202 C 
BRANCH  32  33
ATOM     33  C   UNL     1       3.667  -9.619   5.435  1.00  0.00     0.261 C 
BRANCH  33  34
ATOM     34  O   UNL     1       4.945  -9.627   4.711  1.00  0.00    -0.460 OA
BRANCH  34  35
ATOM     35  C   UNL     1       5.043 -10.314   3.526  1.00  0.00     0.338 C 
ATOM     36  O   UNL     1       4.128 -11.004   3.088  1.00  0.00    -0.246 OA
BRANCH  35  37
ATOM     37  C   UNL     1       6.335 -10.174   2.685  1.00  0.00     0.060 A 
ATOM     38  C   UNL     1       6.915  -8.973   2.278  1.00  0.00     0.016 A 
ATOM     39  C   UNL     1       6.739 -11.278   1.937  1.00  0.00     0.016 A 
ATOM     40  C   UNL     1       7.384  -8.793   0.987  1.00  0.00     0.010 A 
ATOM     41  C   UNL     1       7.529 -11.123   0.769  1.00  0.00     0.010 A 
ATOM     42  C   UNL     1       7.755  -9.852   0.210  1.00  0.00    -0.014 A 
BRANCH  42  43
ATOM     43  C   UNL     1       8.236  -9.587  -1.175  1.00  0.00     0.031 A 
ATOM     44  C   UNL     1       7.713 -10.481  -2.256  1.00  0.00     0.074 A 
ATOM     45  C   UNL     1       9.039  -8.549  -1.516  1.00  0.00     0.049 A 
ATOM     46  N   UNL     1       8.278 -10.837  -3.373  1.00  0.00    -0.248 NA
ATOM     47  C   UNL     1       6.393 -11.095  -2.020  1.00  0.00     0.031 C 
ATOM     48  C   UNL     1       9.444  -7.419  -0.664  1.00  0.00     0.029 A 
ATOM     49  N   UNL     1       9.683  -8.277  -2.705  1.00  0.00    -0.354 N 
ATOM     50  C   UNL     1       7.463 -11.835  -3.891  1.00  0.00     0.074 A 
ATOM     51  C   UNL     1       6.339 -11.988  -2.997  1.00  0.00     0.031 C 
ATOM     52  C   UNL     1      10.225  -6.579  -1.355  1.00  0.00     0.029 A 
ATOM     53  C   UNL     1      10.552  -7.209  -2.616  1.00  0.00     0.049 A 
ATOM     54  H   UNL     1       9.538  -8.791  -3.531  1.00  0.00     0.167 HD
ATOM     55  C   UNL     1       7.699 -12.583  -4.991  1.00  0.00     0.031 A 
ATOM     56  C   UNL     1      11.601  -6.856  -3.383  1.00  0.00     0.031 A 
ATOM     57  C   UNL     1       8.819 -12.333  -5.859  1.00  0.00     0.049 A 
ATOM     58  C   UNL     1      11.928  -7.758  -4.536  1.00  0.00     0.074 A 
ATOM     59  C   UNL     1       9.212 -13.017  -6.991  1.00  0.00     0.029 A 
ATOM     60  N   UNL     1       9.718 -11.287  -5.684  1.00  0.00    -0.354 N 
ATOM     61  N   UNL     1      11.287  -8.825  -4.951  1.00  0.00    -0.248 NA
ATOM     62  C   UNL     1      13.134  -7.435  -5.304  1.00  0.00     0.031 C 
ATOM     63  C   UNL     1      10.389 -12.426  -7.460  1.00  0.00     0.029 A 
ATOM     64  C   UNL     1      10.680 -11.320  -6.673  1.00  0.00     0.049 A 
ATOM     65  H   UNL     1       9.674 -10.620  -4.961  1.00  0.00     0.167 HD
ATOM     66  C   UNL     1      11.995  -9.290  -6.046  1.00  0.00     0.074 A 
ATOM     67  C   UNL     1      13.104  -8.372  -6.240  1.00  0.00     0.031 C 
ATOM     68  C   UNL     1      11.759 -10.375  -6.824  1.00  0.00     0.031 A 
BRANCH  55  69
ATOM     69  C   UNL     1       6.826 -13.784  -5.221  1.00  0.00    -0.014 A 
ATOM     70  C   UNL     1       5.465 -13.685  -5.548  1.00  0.00     0.009 A 
ATOM     71  C   UNL     1       7.394 -15.062  -5.084  1.00  0.00     0.009 A 
ATOM     72  C   UNL     1       4.688 -14.838  -5.694  1.00  0.00     0.001 A 
ATOM     73  C   UNL     1       6.625 -16.212  -5.267  1.00  0.00     0.001 A 
ATOM     74  C   UNL     1       5.269 -16.099  -5.561  1.00  0.00     0.000 A 
ENDBRANCH  55  69
BRANCH  56  75
ATOM     75  C   UNL     1      12.488  -5.716  -2.998  1.00  0.00    -0.014 A 
ATOM     76  C   UNL     1      12.627  -4.597  -3.832  1.00  0.00     0.009 A 
ATOM     77  C   UNL     1      13.209  -5.737  -1.788  1.00  0.00     0.009 A 
ATOM     78  C   UNL     1      13.472  -3.540  -3.473  1.00  0.00     0.001 A 
ATOM     79  C   UNL     1      14.018  -4.662  -1.411  1.00  0.00     0.001 A 
ATOM     80  C   UNL     1      14.158  -3.568  -2.260  1.00  0.00     0.000 A 
ENDBRANCH  56  75
BRANCH  68  81
ATOM     81  C   UNL     1      12.678 -10.573  -7.991  1.00  0.00    -0.014 A 
ATOM     82  C   UNL     1      14.010 -10.975  -7.819  1.00  0.00     0.009 A 
ATOM     83  C   UNL     1      12.175 -10.391  -9.289  1.00  0.00     0.009 A 
ATOM     84  C   UNL     1      14.834 -11.155  -8.930  1.00  0.00     0.001 A 
ATOM     85  C   UNL     1      12.987 -10.614 -10.397  1.00  0.00     0.001 A 
ATOM     86  C   UNL     1      14.319 -10.983 -10.216  1.00  0.00     0.000 A 
ENDBRANCH  68  81
ENDBRANCH  42  43
ENDBRANCH  35  37
ENDBRANCH  34  35
ENDBRANCH  33  34
ENDBRANCH  32  33
ENDBRANCH  31  32
ENDBRANCH  30  31
ENDBRANCH   1  30
TORSDOF 20
