REMARK SMILES O=C(OCCOCCOCCOC(=O)[C@@H]1C[C@@H]2CC[C@H]1N2C(=O)c1ccncc1Cl)c1ccc(-c2c3nc(c(-c4ccccc4)c4ccc([nH]4)c(-c4ccccc4)c4nc(c(-c5ccccc5)c5ccc2[nH]5)C=C4)C=C3)cc1
REMARK SMILES IDX 7 1 6 2 5 3 4 4 3 5 2 6 1 7 31 8 32 9 78 10 33 11 77 12
REMARK SMILES IDX 34 13 35 14 36 15 71 16 37 17 76 18 70 19 72 20 38 21 75 22
REMARK SMILES IDX 69 23 68 24 39 26 61 27 46 28 60 29 47 30 50 31 59 32 73 33
REMARK SMILES IDX 48 34 49 35 58 37 74 38 51 39 40 40 41 41 45 42 42 43 44 44
REMARK SMILES IDX 43 45 62 46 63 47 67 48 64 49 66 50 65 51 52 52 53 53 57 54
REMARK SMILES IDX 54 55 56 56 55 57 8 58 9 59 10 60 11 61 12 62 13 63 14 64
REMARK SMILES IDX 15 65 16 66 20 67 17 68 19 69 21 70 18 71 22 72 23 73 24 74
REMARK SMILES IDX 25 75 29 76 26 77 28 78 30 79 27 80
REMARK H PARENT 72 25 50 36
REMARK Flexibility Score: inf
ROOT
ATOM      1  C   UNL     1       2.480  -0.249  -1.845  1.00  0.00     0.188 C 
ENDROOT
BRANCH   1   2
ATOM      2  O   UNL     1       3.841   0.139  -1.602  1.00  0.00    -0.376 OA
BRANCH   2   3
ATOM      3  C   UNL     1       4.705  -0.984  -1.376  1.00  0.00     0.202 C 
BRANCH   3   4
ATOM      4  C   UNL     1       4.683  -1.547   0.052  1.00  0.00     0.261 C 
BRANCH   4   5
ATOM      5  O   UNL     1       3.377  -1.502   0.643  1.00  0.00    -0.460 OA
BRANCH   5   6
ATOM      6  C   UNL     1       2.792  -0.500   1.340  1.00  0.00     0.338 C 
ATOM      7  O   UNL     1       1.623  -0.660   1.694  1.00  0.00    -0.246 OA
BRANCH   6   8
ATOM      8  C   UNL     1       3.460   0.786   1.733  1.00  0.00     0.060 A 
ATOM      9  C   UNL     1       4.642   1.312   1.203  1.00  0.00     0.016 A 
ATOM     10  C   UNL     1       2.808   1.540   2.727  1.00  0.00     0.016 A 
ATOM     11  C   UNL     1       5.216   2.478   1.720  1.00  0.00     0.010 A 
ATOM     12  C   UNL     1       3.359   2.724   3.226  1.00  0.00     0.010 A 
ATOM     13  C   UNL     1       4.592   3.179   2.752  1.00  0.00    -0.014 A 
BRANCH  13  14
ATOM     14  C   UNL     1       5.346   4.255   3.438  1.00  0.00     0.031 A 
ATOM     15  C   UNL     1       5.986   3.936   4.748  1.00  0.00     0.074 A 
ATOM     16  C   UNL     1       5.544   5.454   2.860  1.00  0.00     0.049 A 
ATOM     17  N   UNL     1       6.774   4.675   5.479  1.00  0.00    -0.248 NA
ATOM     18  C   UNL     1       5.678   2.617   5.324  1.00  0.00     0.031 C 
ATOM     19  C   UNL     1       4.920   5.874   1.621  1.00  0.00     0.029 A 
ATOM     20  N   UNL     1       6.332   6.522   3.202  1.00  0.00    -0.354 N 
ATOM     21  C   UNL     1       7.018   3.931   6.622  1.00  0.00     0.074 A 
ATOM     22  C   UNL     1       6.289   2.690   6.494  1.00  0.00     0.031 C 
ATOM     23  C   UNL     1       5.415   7.059   1.238  1.00  0.00     0.029 A 
ATOM     24  C   UNL     1       6.357   7.513   2.244  1.00  0.00     0.049 A 
ATOM     25  H   UNL     1       6.831   6.576   4.049  1.00  0.00     0.167 HD
ATOM     26  C   UNL     1       7.772   4.266   7.693  1.00  0.00     0.031 A 
ATOM     27  C   UNL     1       7.059   8.660   2.187  1.00  0.00     0.031 A 
ATOM     28  C   UNL     1       8.462   5.519   7.812  1.00  0.00     0.049 A 
ATOM     29  C   UNL     1       7.920   8.993   3.369  1.00  0.00     0.074 A 
ATOM     30  C   UNL     1       9.223   5.995   8.862  1.00  0.00     0.029 A 
ATOM     31  N   UNL     1       8.465   6.505   6.831  1.00  0.00    -0.354 N 
ATOM     32  N   UNL     1       8.143   8.280   4.448  1.00  0.00    -0.248 NA
ATOM     33  C   UNL     1       8.601  10.293   3.347  1.00  0.00     0.031 C 
ATOM     34  C   UNL     1       9.660   7.283   8.529  1.00  0.00     0.029 A 
ATOM     35  C   UNL     1       9.215   7.588   7.250  1.00  0.00     0.049 A 
ATOM     36  H   UNL     1       8.000   6.441   5.965  1.00  0.00     0.167 HD
ATOM     37  C   UNL     1       8.985   9.043   5.238  1.00  0.00     0.074 A 
ATOM     38  C   UNL     1       9.267  10.257   4.492  1.00  0.00     0.031 C 
ATOM     39  C   UNL     1       9.470   8.777   6.475  1.00  0.00     0.031 A 
BRANCH  26  40
ATOM     40  C   UNL     1       7.783   3.276   8.819  1.00  0.00    -0.014 A 
ATOM     41  C   UNL     1       8.426   2.032   8.695  1.00  0.00     0.009 A 
ATOM     42  C   UNL     1       7.031   3.541   9.973  1.00  0.00     0.009 A 
ATOM     43  C   UNL     1       8.259   1.051   9.675  1.00  0.00     0.001 A 
ATOM     44  C   UNL     1       6.892   2.569  10.965  1.00  0.00     0.001 A 
ATOM     45  C   UNL     1       7.490   1.319  10.806  1.00  0.00     0.000 A 
ENDBRANCH  26  40
BRANCH  27  46
ATOM     46  C   UNL     1       6.982   9.557   0.997  1.00  0.00    -0.014 A 
ATOM     47  C   UNL     1       8.113   9.773   0.191  1.00  0.00     0.009 A 
ATOM     48  C   UNL     1       5.784  10.202   0.649  1.00  0.00     0.009 A 
ATOM     49  C   UNL     1       8.051  10.624  -0.918  1.00  0.00     0.001 A 
ATOM     50  C   UNL     1       5.714  11.024  -0.480  1.00  0.00     0.001 A 
ATOM     51  C   UNL     1       6.849  11.243  -1.258  1.00  0.00     0.000 A 
ENDBRANCH  27  46
BRANCH  39  52
ATOM     52  C   UNL     1      10.383   9.809   7.064  1.00  0.00    -0.014 A 
ATOM     53  C   UNL     1       9.890  11.031   7.544  1.00  0.00     0.009 A 
ATOM     54  C   UNL     1      11.757   9.539   7.149  1.00  0.00     0.009 A 
ATOM     55  C   UNL     1      10.766  11.983   8.065  1.00  0.00     0.001 A 
ATOM     56  C   UNL     1      12.625  10.481   7.696  1.00  0.00     0.001 A 
ATOM     57  C   UNL     1      12.131  11.706   8.144  1.00  0.00     0.000 A 
ENDBRANCH  39  52
ENDBRANCH  13  14
ENDBRANCH   6   8
ENDBRANCH   5   6
ENDBRANCH   4   5
ENDBRANCH   3   4
ENDBRANCH   2   3
ENDBRANCH   1   2
BRANCH   1  58
ATOM     58  C   UNL     1       1.853   0.446  -3.055  1.00  0.00     0.188 C 
BRANCH  58  59
ATOM     59  O   UNL     1       2.401   0.154  -4.339  1.00  0.00    -0.376 OA
BRANCH  59  60
ATOM     60  C   UNL     1       3.776   0.446  -4.558  1.00  0.00     0.202 C 
BRANCH  60  61
ATOM     61  C   UNL     1       4.185   1.921  -4.648  1.00  0.00     0.261 C 
BRANCH  61  62
ATOM     62  O   UNL     1       3.491   2.767  -3.723  1.00  0.00    -0.463 OA
BRANCH  62  63
ATOM     63  C   UNL     1       2.553   3.600  -4.219  1.00  0.00     0.311 C 
ATOM     64  O   UNL     1       2.289   3.713  -5.416  1.00  0.00    -0.252 OA
BRANCH  63  65
ATOM     65  C   UNL     1       1.875   4.462  -3.168  1.00  0.00     0.124 C 
ATOM     66  C   UNL     1       2.376   5.929  -3.321  1.00  0.00     0.042 C 
ATOM     67  C   UNL     1       2.055   4.193  -1.642  1.00  0.00     0.100 C 
ATOM     68  C   UNL     1       2.943   6.216  -1.930  1.00  0.00     0.086 C 
ATOM     69  C   UNL     1       3.518   3.975  -1.250  1.00  0.00     0.028 C 
ATOM     70  N   UNL     1       1.931   5.561  -1.129  1.00  0.00    -0.332 N 
ATOM     71  C   UNL     1       4.167   5.289  -1.731  1.00  0.00     0.027 C 
BRANCH  70  72
ATOM     72  C   UNL     1       1.192   6.176  -0.155  1.00  0.00     0.256 C 
ATOM     73  O   UNL     1       1.278   7.381   0.093  1.00  0.00    -0.269 OA
BRANCH  72  74
ATOM     74  C   UNL     1       0.222   5.385   0.618  1.00  0.00     0.061 A 
ATOM     75  C   UNL     1      -0.983   5.026   0.010  1.00  0.00     0.035 A 
ATOM     76  C   UNL     1       0.421   5.113   1.970  1.00  0.00     0.072 A 
ATOM     77  C   UNL     1      -1.913   4.335   0.769  1.00  0.00     0.112 A 
ATOM     78  C   UNL     1      -0.549   4.370   2.625  1.00  0.00     0.132 A 
ATOM     79  Cl  UNL     1       1.745   5.715   2.880  1.00  0.00    -0.082 Cl
ATOM     80  N   UNL     1      -1.707   3.965   2.051  1.00  0.00    -0.263 NA
ENDBRANCH  72  74
ENDBRANCH  70  72
ENDBRANCH  63  65
ENDBRANCH  62  63
ENDBRANCH  61  62
ENDBRANCH  60  61
ENDBRANCH  59  60
ENDBRANCH  58  59
ENDBRANCH   1  58
TORSDOF 19
