REMARK SMILES CC(=O)c1nnn(-c2ccc(C(=O)OCCOCCOCCOC(=O)c3ccc(-c4c5nc(c(-c6ccccc6)c6ccc([nH]6)c(-c6ccccc6)c6nc(c(-c7ccccc7)c7ccc4[nH]7)C=C6)C=C5)cc3)cc2)c1C
REMARK SMILES IDX 18 1 17 2 16 3 15 4 14 5 12 6 13 7 11 8 8 9 9 10 75 11 10 12
REMARK SMILES IDX 74 13 7 14 4 15 5 16 76 17 6 18 77 19 2 20 1 21 3 22 19 23
REMARK SMILES IDX 20 24 21 25 22 26 23 27 24 28 25 29 26 30 27 31 73 32 28 33
REMARK SMILES IDX 72 34 29 35 30 36 31 37 66 38 32 39 71 40 65 41 67 42 33 43
REMARK SMILES IDX 70 44 64 45 63 46 34 48 56 49 41 50 55 51 42 52 45 53 54 54
REMARK SMILES IDX 68 55 43 56 44 57 53 59 69 60 46 61 35 62 36 63 40 64 37 65
REMARK SMILES IDX 39 66 38 67 57 68 58 69 62 70 59 71 61 72 60 73 47 74 48 75
REMARK SMILES IDX 52 76 49 77 51 78 50 79
REMARK H PARENT 67 47 45 58
REMARK Flexibility Score: inf
ROOT
ATOM      1  C   UNL     1       6.921   9.424   1.319  1.00  0.00     0.188 C 
ENDROOT
BRANCH   1   2
ATOM      2  O   UNL     1       8.249   9.894   1.338  1.00  0.00    -0.376 OA
BRANCH   2   3
ATOM      3  C   UNL     1       9.310   9.001   1.642  1.00  0.00     0.202 C 
BRANCH   3   4
ATOM      4  C   UNL     1       9.275   7.474   1.404  1.00  0.00     0.261 C 
BRANCH   4   5
ATOM      5  O   UNL     1       8.056   6.902   0.929  1.00  0.00    -0.460 OA
BRANCH   5   6
ATOM      6  C   UNL     1       7.302   6.252   1.843  1.00  0.00     0.338 C 
ATOM      7  O   UNL     1       7.559   6.101   3.031  1.00  0.00    -0.246 OA
BRANCH   6   8
ATOM      8  C   UNL     1       6.005   5.875   1.243  1.00  0.00     0.060 A 
ATOM      9  C   UNL     1       3.558   5.006   0.261  1.00  0.00     0.067 A 
ATOM     10  C   UNL     1       3.608   5.609   1.521  1.00  0.00     0.029 A 
ATOM     11  C   UNL     1       4.692   4.963  -0.561  1.00  0.00     0.029 A 
ATOM     12  C   UNL     1       4.845   6.014   2.022  1.00  0.00     0.018 A 
ATOM     13  C   UNL     1       5.920   5.404  -0.072  1.00  0.00     0.018 A 
BRANCH   9  14
ATOM     14  N   UNL     1       2.404   4.277  -0.098  1.00  0.00    -0.217 N 
ATOM     15  C   UNL     1       0.999   2.677  -0.576  1.00  0.00     0.151 A 
ATOM     16  N   UNL     1       0.298   3.815  -0.269  1.00  0.00    -0.126 NA
ATOM     17  C   UNL     1       2.356   2.935  -0.455  1.00  0.00     0.073 A 
ATOM     18  N   UNL     1       1.159   4.744   0.123  1.00  0.00    -0.061 NA
ATOM     19  C   UNL     1       3.555   2.066  -0.529  1.00  0.00     0.069 C 
BRANCH  15  20
ATOM     20  C   UNL     1       0.324   1.424  -0.884  1.00  0.00     0.181 C 
ATOM     21  C   UNL     1       0.659   0.215  -0.044  1.00  0.00     0.095 C 
ATOM     22  O   UNL     1      -0.517   1.347  -1.779  1.00  0.00    -0.293 OA
ENDBRANCH  15  20
ENDBRANCH   9  14
ENDBRANCH   6   8
ENDBRANCH   5   6
ENDBRANCH   4   5
ENDBRANCH   3   4
ENDBRANCH   2   3
ENDBRANCH   1   2
BRANCH   1  23
ATOM     23  C   UNL     1       6.372   9.106  -0.089  1.00  0.00     0.188 C 
BRANCH  23  24
ATOM     24  O   UNL     1       7.226   8.848  -1.197  1.00  0.00    -0.376 OA
BRANCH  24  25
ATOM     25  C   UNL     1       8.320   9.691  -1.536  1.00  0.00     0.202 C 
BRANCH  25  26
ATOM     26  C   UNL     1       8.185  11.211  -1.642  1.00  0.00     0.261 C 
BRANCH  26  27
ATOM     27  O   UNL     1       7.442  11.797  -0.591  1.00  0.00    -0.460 OA
BRANCH  27  28
ATOM     28  C   UNL     1       6.154  12.023  -0.894  1.00  0.00     0.338 C 
ATOM     29  O   UNL     1       5.581  11.762  -1.949  1.00  0.00    -0.246 OA
BRANCH  28  30
ATOM     30  C   UNL     1       5.495  12.673   0.240  1.00  0.00     0.060 A 
ATOM     31  C   UNL     1       4.114  12.858   0.130  1.00  0.00     0.016 A 
ATOM     32  C   UNL     1       6.265  13.336   1.206  1.00  0.00     0.016 A 
ATOM     33  C   UNL     1       3.554  13.932   0.776  1.00  0.00     0.010 A 
ATOM     34  C   UNL     1       5.709  14.419   1.840  1.00  0.00     0.010 A 
ATOM     35  C   UNL     1       4.400  14.767   1.507  1.00  0.00    -0.014 A 
BRANCH  35  36
ATOM     36  C   UNL     1       3.954  16.128   1.713  1.00  0.00     0.031 A 
ATOM     37  C   UNL     1       3.166  16.384   2.925  1.00  0.00     0.074 A 
ATOM     38  C   UNL     1       4.354  17.102   0.874  1.00  0.00     0.049 A 
ATOM     39  N   UNL     1       1.963  16.846   3.004  1.00  0.00    -0.248 NA
ATOM     40  C   UNL     1       3.772  16.015   4.211  1.00  0.00     0.031 C 
ATOM     41  C   UNL     1       5.388  17.019  -0.165  1.00  0.00     0.029 A 
ATOM     42  N   UNL     1       4.013  18.419   0.872  1.00  0.00    -0.354 N 
ATOM     43  C   UNL     1       1.710  16.980   4.361  1.00  0.00     0.074 A 
ATOM     44  C   UNL     1       2.791  16.326   5.055  1.00  0.00     0.031 C 
ATOM     45  C   UNL     1       5.756  18.270  -0.518  1.00  0.00     0.029 A 
ATOM     46  C   UNL     1       4.905  19.221   0.178  1.00  0.00     0.049 A 
ATOM     47  H   UNL     1       3.210  18.769   1.321  1.00  0.00     0.167 HD
ATOM     48  C   UNL     1       0.754  17.819   4.837  1.00  0.00     0.031 A 
ATOM     49  C   UNL     1       5.001  20.568   0.255  1.00  0.00     0.031 A 
ATOM     50  C   UNL     1      -0.188  18.220   3.830  1.00  0.00     0.049 A 
ATOM     51  C   UNL     1       3.748  21.087   0.850  1.00  0.00     0.074 A 
ATOM     52  C   UNL     1      -1.081  17.557   3.011  1.00  0.00     0.029 A 
ATOM     53  N   UNL     1      -0.061  19.483   3.306  1.00  0.00    -0.354 N 
ATOM     54  N   UNL     1       2.596  21.078   0.243  1.00  0.00    -0.248 NA
ATOM     55  C   UNL     1       3.686  21.267   2.293  1.00  0.00     0.031 C 
ATOM     56  C   UNL     1      -1.103  18.303   1.798  1.00  0.00     0.029 A 
ATOM     57  C   UNL     1      -0.233  19.384   1.950  1.00  0.00     0.049 A 
ATOM     58  H   UNL     1       0.120  20.308   3.812  1.00  0.00     0.167 HD
ATOM     59  C   UNL     1       1.667  20.827   1.244  1.00  0.00     0.074 A 
ATOM     60  C   UNL     1       2.377  21.084   2.491  1.00  0.00     0.031 C 
ATOM     61  C   UNL     1       0.505  20.160   0.976  1.00  0.00     0.031 A 
BRANCH  48  62
ATOM     62  C   UNL     1       0.910  18.555   6.137  1.00  0.00    -0.014 A 
ATOM     63  C   UNL     1      -0.191  19.238   6.673  1.00  0.00     0.009 A 
ATOM     64  C   UNL     1       2.169  18.809   6.719  1.00  0.00     0.009 A 
ATOM     65  C   UNL     1      -0.032  20.153   7.721  1.00  0.00     0.001 A 
ATOM     66  C   UNL     1       2.324  19.683   7.795  1.00  0.00     0.001 A 
ATOM     67  C   UNL     1       1.224  20.372   8.282  1.00  0.00     0.000 A 
ENDBRANCH  48  62
BRANCH  49  68
ATOM     68  C   UNL     1       6.218  21.391   0.103  1.00  0.00    -0.014 A 
ATOM     69  C   UNL     1       6.131  22.767  -0.149  1.00  0.00     0.009 A 
ATOM     70  C   UNL     1       7.482  20.863   0.434  1.00  0.00     0.009 A 
ATOM     71  C   UNL     1       7.264  23.585  -0.054  1.00  0.00     0.001 A 
ATOM     72  C   UNL     1       8.614  21.677   0.519  1.00  0.00     0.001 A 
ATOM     73  C   UNL     1       8.502  23.042   0.287  1.00  0.00     0.000 A 
ENDBRANCH  49  68
BRANCH  61  74
ATOM     74  C   UNL     1       0.136  19.947  -0.472  1.00  0.00    -0.014 A 
ATOM     75  C   UNL     1       0.945  19.208  -1.354  1.00  0.00     0.009 A 
ATOM     76  C   UNL     1      -1.124  20.370  -0.920  1.00  0.00     0.009 A 
ATOM     77  C   UNL     1       0.521  18.934  -2.657  1.00  0.00     0.001 A 
ATOM     78  C   UNL     1      -1.556  20.077  -2.216  1.00  0.00     0.001 A 
ATOM     79  C   UNL     1      -0.732  19.366  -3.086  1.00  0.00     0.000 A 
ENDBRANCH  61  74
ENDBRANCH  35  36
ENDBRANCH  28  30
ENDBRANCH  27  28
ENDBRANCH  26  27
ENDBRANCH  25  26
ENDBRANCH  24  25
ENDBRANCH  23  24
ENDBRANCH   1  23
TORSDOF 19
