REMARK SMILES C[C@H]1CC[C@@]1(C(=O)OCCOCCOCCOC(=O)c1ccc(-c2c3nc(c(-c4ccccc4)c4ccc([nH]4)c(-c4ccccc4)c4nc(c(-c5ccccc5)c5ccc2[nH]5)C=C4)C=C3)cc1)c1cc(F)cc(F)c1
REMARK SMILES IDX 13 1 12 2 11 3 10 4 9 5 8 6 6 7 7 8 5 9 1 10 2 11 3 12 4 13
REMARK SMILES IDX 68 14 69 15 75 16 70 17 73 18 71 19 72 20 74 21 14 22 15 23
REMARK SMILES IDX 16 24 17 25 18 26 19 27 20 28 21 29 67 30 22 31 66 32 23 33
REMARK SMILES IDX 24 34 25 35 60 36 26 37 65 38 59 39 61 40 27 41 64 42 58 43
REMARK SMILES IDX 57 44 28 46 50 47 35 48 49 49 36 50 39 51 48 52 62 53 37 54
REMARK SMILES IDX 38 55 47 57 63 58 40 59 29 60 30 61 34 62 31 63 33 64 32 65
REMARK SMILES IDX 51 66 52 67 56 68 53 69 55 70 54 71 41 72 42 73 46 74 43 75
REMARK SMILES IDX 45 76 44 77
REMARK H PARENT 61 45 39 56
REMARK Flexibility Score: inf
ROOT
ATOM      1  C   UNL     1       0.396   3.983   1.957  1.00  0.00     0.188 C 
ENDROOT
BRANCH   1   2
ATOM      2  C   UNL     1       0.107   3.055   3.140  1.00  0.00     0.188 C 
BRANCH   2   3
ATOM      3  O   UNL     1       1.083   2.851   4.154  1.00  0.00    -0.376 OA
BRANCH   3   4
ATOM      4  C   UNL     1       2.459   3.047   3.860  1.00  0.00     0.202 C 
BRANCH   4   5
ATOM      5  C   UNL     1       3.103   2.140   2.800  1.00  0.00     0.261 C 
BRANCH   5   6
ATOM      6  O   UNL     1       2.396   2.029   1.540  1.00  0.00    -0.463 OA
BRANCH   6   7
ATOM      7  C   UNL     1       1.857   0.800   1.259  1.00  0.00     0.316 C 
ATOM      8  O   UNL     1       2.007  -0.137   2.051  1.00  0.00    -0.251 OA
BRANCH   7   9
ATOM      9  C   UNL     1       0.972   0.651  -0.131  1.00  0.00     0.096 C 
ATOM     10  C   UNL     1      -1.726  -0.228  -0.434  1.00  0.00     0.009 C 
ATOM     11  C   UNL     1      -0.361  -0.217   0.240  1.00  0.00     0.008 C 
ATOM     12  C   UNL     1       0.459  -1.483  -0.116  1.00  0.00     0.006 C 
ATOM     13  C   UNL     1       1.410  -0.613  -0.959  1.00  0.00     0.024 C 
BRANCH   9  14
ATOM     14  C   UNL     1       0.778   2.022  -1.066  1.00  0.00    -0.025 A 
ATOM     15  C   UNL     1      -0.321   2.167  -1.950  1.00  0.00     0.044 A 
ATOM     16  C   UNL     1       1.658   3.125  -1.104  1.00  0.00     0.044 A 
ATOM     17  C   UNL     1      -0.621   3.349  -2.636  1.00  0.00     0.126 A 
ATOM     18  C   UNL     1       1.354   4.313  -1.795  1.00  0.00     0.126 A 
ATOM     19  F   UNL     1      -1.727   3.403  -3.390  1.00  0.00    -0.207 F 
ATOM     20  C   UNL     1       0.194   4.451  -2.533  1.00  0.00     0.078 A 
ATOM     21  F   UNL     1       2.191   5.355  -1.703  1.00  0.00    -0.207 F 
ENDBRANCH   9  14
ENDBRANCH   7   9
ENDBRANCH   6   7
ENDBRANCH   5   6
ENDBRANCH   4   5
ENDBRANCH   3   4
ENDBRANCH   2   3
ENDBRANCH   1   2
BRANCH   1  22
ATOM     22  O   UNL     1       1.447   4.894   2.189  1.00  0.00    -0.376 OA
BRANCH  22  23
ATOM     23  C   UNL     1       1.377   6.157   1.552  1.00  0.00     0.202 C 
BRANCH  23  24
ATOM     24  C   UNL     1       0.446   7.124   2.291  1.00  0.00     0.261 C 
BRANCH  24  25
ATOM     25  O   UNL     1      -0.891   6.630   2.498  1.00  0.00    -0.460 OA
BRANCH  25  26
ATOM     26  C   UNL     1      -1.662   6.479   1.397  1.00  0.00     0.338 C 
ATOM     27  O   UNL     1      -1.373   6.796   0.252  1.00  0.00    -0.246 OA
BRANCH  26  28
ATOM     28  C   UNL     1      -2.817   5.623   1.759  1.00  0.00     0.060 A 
ATOM     29  C   UNL     1      -3.104   4.501   0.965  1.00  0.00     0.016 A 
ATOM     30  C   UNL     1      -3.589   5.897   2.890  1.00  0.00     0.016 A 
ATOM     31  C   UNL     1      -4.194   3.683   1.270  1.00  0.00     0.010 A 
ATOM     32  C   UNL     1      -4.689   5.088   3.185  1.00  0.00     0.010 A 
ATOM     33  C   UNL     1      -5.022   4.003   2.353  1.00  0.00    -0.014 A 
BRANCH  33  34
ATOM     34  C   UNL     1      -6.349   3.353   2.496  1.00  0.00     0.031 A 
ATOM     35  C   UNL     1      -7.561   4.105   2.011  1.00  0.00     0.074 A 
ATOM     36  C   UNL     1      -6.492   2.131   3.039  1.00  0.00     0.049 A 
ATOM     37  N   UNL     1      -8.828   3.790   2.096  1.00  0.00    -0.248 NA
ATOM     38  C   UNL     1      -7.305   5.394   1.346  1.00  0.00     0.031 C 
ATOM     39  C   UNL     1      -5.404   1.275   3.505  1.00  0.00     0.029 A 
ATOM     40  N   UNL     1      -7.629   1.406   3.298  1.00  0.00    -0.354 N 
ATOM     41  C   UNL     1      -9.518   4.847   1.514  1.00  0.00     0.074 A 
ATOM     42  C   UNL     1      -8.533   5.825   1.109  1.00  0.00     0.031 C 
ATOM     43  C   UNL     1      -5.928   0.141   4.004  1.00  0.00     0.029 A 
ATOM     44  C   UNL     1      -7.387   0.210   3.929  1.00  0.00     0.049 A 
ATOM     45  H   UNL     1      -8.532   1.714   3.055  1.00  0.00     0.167 HD
ATOM     46  C   UNL     1     -10.851   4.991   1.327  1.00  0.00     0.031 A 
ATOM     47  C   UNL     1      -8.246  -0.710   4.412  1.00  0.00     0.031 A 
ATOM     48  C   UNL     1     -11.834   4.027   1.741  1.00  0.00     0.049 A 
ATOM     49  C   UNL     1      -9.731  -0.489   4.268  1.00  0.00     0.074 A 
ATOM     50  C   UNL     1     -13.208   4.075   1.582  1.00  0.00     0.029 A 
ATOM     51  N   UNL     1     -11.549   2.845   2.406  1.00  0.00    -0.354 N 
ATOM     52  N   UNL     1     -10.371   0.501   3.694  1.00  0.00    -0.248 NA
ATOM     53  C   UNL     1     -10.611  -1.523   4.833  1.00  0.00     0.031 C 
ATOM     54  C   UNL     1     -13.759   2.953   2.209  1.00  0.00     0.029 A 
ATOM     55  C   UNL     1     -12.723   2.169   2.691  1.00  0.00     0.049 A 
ATOM     56  H   UNL     1     -10.645   2.532   2.640  1.00  0.00     0.167 HD
ATOM     57  C   UNL     1     -11.723   0.191   3.797  1.00  0.00     0.074 A 
ATOM     58  C   UNL     1     -11.809  -1.085   4.475  1.00  0.00     0.031 C 
ATOM     59  C   UNL     1     -12.797   0.898   3.365  1.00  0.00     0.031 A 
BRANCH  46  60
ATOM     60  C   UNL     1     -11.323   6.264   0.680  1.00  0.00    -0.014 A 
ATOM     61  C   UNL     1     -11.069   6.539  -0.674  1.00  0.00     0.009 A 
ATOM     62  C   UNL     1     -12.057   7.194   1.433  1.00  0.00     0.009 A 
ATOM     63  C   UNL     1     -11.505   7.736  -1.247  1.00  0.00     0.001 A 
ATOM     64  C   UNL     1     -12.521   8.374   0.849  1.00  0.00     0.001 A 
ATOM     65  C   UNL     1     -12.235   8.649  -0.487  1.00  0.00     0.000 A 
ENDBRANCH  46  60
BRANCH  47  66
ATOM     66  C   UNL     1      -7.732  -1.925   5.102  1.00  0.00    -0.014 A 
ATOM     67  C   UNL     1      -7.900  -3.197   4.533  1.00  0.00     0.009 A 
ATOM     68  C   UNL     1      -7.099  -1.821   6.351  1.00  0.00     0.009 A 
ATOM     69  C   UNL     1      -7.471  -4.340   5.213  1.00  0.00     0.001 A 
ATOM     70  C   UNL     1      -6.642  -2.962   7.013  1.00  0.00     0.001 A 
ATOM     71  C   UNL     1      -6.838  -4.222   6.449  1.00  0.00     0.000 A 
ENDBRANCH  47  66
BRANCH  59  72
ATOM     72  C   UNL     1     -14.158   0.285   3.563  1.00  0.00    -0.014 A 
ATOM     73  C   UNL     1     -14.734   0.161   4.837  1.00  0.00     0.009 A 
ATOM     74  C   UNL     1     -14.894  -0.139   2.444  1.00  0.00     0.009 A 
ATOM     75  C   UNL     1     -15.998  -0.414   4.989  1.00  0.00     0.001 A 
ATOM     76  C   UNL     1     -16.172  -0.680   2.595  1.00  0.00     0.001 A 
ATOM     77  C   UNL     1     -16.718  -0.828   3.868  1.00  0.00     0.000 A 
ENDBRANCH  59  72
ENDBRANCH  33  34
ENDBRANCH  26  28
ENDBRANCH  25  26
ENDBRANCH  24  25
ENDBRANCH  23  24
ENDBRANCH  22  23
ENDBRANCH   1  22
TORSDOF 18
