REMARK SMILES O=C(CCCN1C(=O)/C(=C\c2ccc(O)c(O)c2)SC1=S)OCCOCCOCCOC(=O)c1ccc(-c2c3nc(c(-c4ccccc4)c4ccc([nH]4)c(-c4ccccc4)c4nc(c(-c5ccccc5)c5ccc2[nH]5)C=C4)C=C3)cc1
REMARK SMILES IDX 25 1 24 2 23 3 22 4 2 5 1 6 3 7 4 8 5 9 6 10 7 11 20 12 8 13
REMARK SMILES IDX 9 14 19 15 21 16 10 17 11 18 12 19 18 20 13 21 16 22 14 23
REMARK SMILES IDX 17 24 15 26 26 28 27 29 28 30 29 31 30 32 31 33 32 34 33 35
REMARK SMILES IDX 34 36 35 37 81 38 36 39 80 40 37 41 38 42 39 43 74 44 40 45
REMARK SMILES IDX 79 46 73 47 75 48 41 49 78 50 72 51 71 52 42 54 64 55 49 56
REMARK SMILES IDX 63 57 50 58 53 59 62 60 76 61 51 62 52 63 61 65 77 66 54 67
REMARK SMILES IDX 43 68 44 69 48 70 45 71 47 72 46 73 65 74 66 75 70 76 67 77
REMARK SMILES IDX 69 78 68 79 55 80 56 81 60 82 57 83 59 84 58 85
REMARK H PARENT 17 25 15 27 75 53 53 64
REMARK Flexibility Score: inf
ROOT
ATOM      1  O   UNL     1       3.264   0.528   0.607  1.00  0.00    -0.376 OA
ENDROOT
BRANCH   1   2
ATOM      2  C   UNL     1       3.202   1.476  -0.447  1.00  0.00     0.202 C 
BRANCH   2   3
ATOM      3  C   UNL     1       3.302   0.838  -1.823  1.00  0.00     0.261 C 
BRANCH   3   4
ATOM      4  O   UNL     1       2.469  -0.304  -2.063  1.00  0.00    -0.463 OA
BRANCH   4   5
ATOM      5  C   UNL     1       2.335  -1.367  -1.256  1.00  0.00     0.305 C 
ATOM      6  O   UNL     1       1.204  -1.837  -1.099  1.00  0.00    -0.252 OA
BRANCH   5   7
ATOM      7  C   UNL     1       3.514  -2.009  -0.534  1.00  0.00     0.124 C 
BRANCH   7   8
ATOM      8  C   UNL     1       4.864  -2.286  -1.185  1.00  0.00     0.034 C 
BRANCH   8   9
ATOM      9  C   UNL     1       5.983  -1.230  -1.349  1.00  0.00     0.128 C 
BRANCH   9  10
ATOM     10  N   UNL     1       6.426  -0.364  -0.233  1.00  0.00    -0.293 N 
ATOM     11  C   UNL     1       6.559   1.013  -0.455  1.00  0.00     0.266 C 
ATOM     12  C   UNL     1       7.046  -0.826   0.912  1.00  0.00     0.148 C 
ATOM     13  O   UNL     1       6.333   1.592  -1.509  1.00  0.00    -0.268 OA
ATOM     14  C   UNL     1       7.138   1.712   0.733  1.00  0.00     0.081 C 
ATOM     15  S   UNL     1       7.745   0.514   1.821  1.00  0.00    -0.054 SA
ATOM     16  S   UNL     1       7.221  -2.396   1.448  1.00  0.00    -0.052 S 
ATOM     17  C   UNL     1       7.158   3.021   1.052  1.00  0.00     0.029 C 
BRANCH  17  18
ATOM     18  C   UNL     1       6.463   4.145   0.398  1.00  0.00    -0.020 A 
ATOM     19  C   UNL     1       5.216   4.550   0.909  1.00  0.00     0.012 A 
ATOM     20  C   UNL     1       7.019   4.894  -0.637  1.00  0.00     0.058 A 
ATOM     21  C   UNL     1       4.464   5.576   0.337  1.00  0.00     0.051 A 
ATOM     22  C   UNL     1       6.294   5.964  -1.168  1.00  0.00     0.157 A 
ATOM     23  C   UNL     1       5.009   6.271  -0.722  1.00  0.00     0.157 A 
BRANCH  22  24
ATOM     24  O   UNL     1       6.860   6.744  -2.138  1.00  0.00    -0.504 OA
ATOM     25  H   UNL     1       6.381   7.463  -2.499  1.00  0.00     0.293 HD
ENDBRANCH  22  24
BRANCH  23  26
ATOM     26  O   UNL     1       4.322   7.275  -1.344  1.00  0.00    -0.504 OA
ATOM     27  H   UNL     1       3.458   7.498  -1.059  1.00  0.00     0.293 HD
ENDBRANCH  23  26
ENDBRANCH  17  18
ENDBRANCH   9  10
ENDBRANCH   8   9
ENDBRANCH   7   8
ENDBRANCH   5   7
ENDBRANCH   4   5
ENDBRANCH   3   4
ENDBRANCH   2   3
ENDBRANCH   1   2
BRANCH   1  28
ATOM     28  C   UNL     1       2.103   0.508   1.448  1.00  0.00     0.188 C 
BRANCH  28  29
ATOM     29  C   UNL     1       1.801   1.869   2.075  1.00  0.00     0.188 C 
BRANCH  29  30
ATOM     30  O   UNL     1       2.939   2.660   2.404  1.00  0.00    -0.376 OA
BRANCH  30  31
ATOM     31  C   UNL     1       4.074   1.974   2.932  1.00  0.00     0.202 C 
BRANCH  31  32
ATOM     32  C   UNL     1       4.600   2.729   4.155  1.00  0.00     0.261 C 
BRANCH  32  33
ATOM     33  O   UNL     1       4.201   2.005   5.323  1.00  0.00    -0.460 OA
BRANCH  33  34
ATOM     34  C   UNL     1       2.857   1.959   5.468  1.00  0.00     0.338 C 
ATOM     35  O   UNL     1       2.062   2.854   5.226  1.00  0.00    -0.246 OA
BRANCH  34  36
ATOM     36  C   UNL     1       2.469   0.557   5.714  1.00  0.00     0.060 A 
ATOM     37  C   UNL     1       1.197   0.149   5.293  1.00  0.00     0.016 A 
ATOM     38  C   UNL     1       3.332  -0.339   6.358  1.00  0.00     0.016 A 
ATOM     39  C   UNL     1       0.731  -1.110   5.628  1.00  0.00     0.010 A 
ATOM     40  C   UNL     1       2.860  -1.595   6.718  1.00  0.00     0.010 A 
ATOM     41  C   UNL     1       1.529  -1.931   6.430  1.00  0.00    -0.014 A 
BRANCH  41  42
ATOM     42  C   UNL     1       0.844  -2.925   7.270  1.00  0.00     0.031 A 
ATOM     43  C   UNL     1       0.410  -2.480   8.641  1.00  0.00     0.074 A 
ATOM     44  C   UNL     1       0.555  -4.141   6.789  1.00  0.00     0.049 A 
ATOM     45  N   UNL     1      -0.239  -3.140   9.562  1.00  0.00    -0.248 NA
ATOM     46  C   UNL     1       0.754  -1.097   9.026  1.00  0.00     0.031 C 
ATOM     47  C   UNL     1       0.881  -4.620   5.447  1.00  0.00     0.029 A 
ATOM     48  N   UNL     1      -0.093  -5.186   7.382  1.00  0.00    -0.354 N 
ATOM     49  C   UNL     1      -0.366  -2.259  10.631  1.00  0.00     0.074 A 
ATOM     50  C   UNL     1       0.296  -1.032  10.264  1.00  0.00     0.031 C 
ATOM     51  C   UNL     1       0.425  -5.878   5.317  1.00  0.00     0.029 A 
ATOM     52  C   UNL     1      -0.193  -6.289   6.575  1.00  0.00     0.049 A 
ATOM     53  H   UNL     1      -0.452  -5.151   8.298  1.00  0.00     0.167 HD
ATOM     54  C   UNL     1      -0.987  -2.460  11.815  1.00  0.00     0.031 A 
ATOM     55  C   UNL     1      -0.721  -7.496   6.843  1.00  0.00     0.031 A 
ATOM     56  C   UNL     1      -1.623  -3.700  12.164  1.00  0.00     0.049 A 
ATOM     57  C   UNL     1      -1.343  -7.718   8.196  1.00  0.00     0.074 A 
ATOM     58  C   UNL     1      -2.287  -4.034  13.329  1.00  0.00     0.029 A 
ATOM     59  N   UNL     1      -1.662  -4.816  11.339  1.00  0.00    -0.354 N 
ATOM     60  N   UNL     1      -1.474  -6.880   9.198  1.00  0.00    -0.248 NA
ATOM     61  C   UNL     1      -1.908  -9.049   8.445  1.00  0.00     0.031 C 
ATOM     62  C   UNL     1      -2.671  -5.375  13.234  1.00  0.00     0.029 A 
ATOM     63  C   UNL     1      -2.317  -5.851  11.980  1.00  0.00     0.049 A 
ATOM     64  H   UNL     1      -1.279  -4.863  10.433  1.00  0.00     0.167 HD
ATOM     65  C   UNL     1      -2.175  -7.567  10.181  1.00  0.00     0.074 A 
ATOM     66  C   UNL     1      -2.448  -8.887   9.644  1.00  0.00     0.031 C 
ATOM     67  C   UNL     1      -2.567  -7.151  11.411  1.00  0.00     0.031 A 
BRANCH  54  68
ATOM     68  C   UNL     1      -0.947  -1.341  12.819  1.00  0.00    -0.014 A 
ATOM     69  C   UNL     1      -1.641  -0.137  12.615  1.00  0.00     0.009 A 
ATOM     70  C   UNL     1      -0.195  -1.496  13.994  1.00  0.00     0.009 A 
ATOM     71  C   UNL     1      -1.551   0.900  13.548  1.00  0.00     0.001 A 
ATOM     72  C   UNL     1      -0.133  -0.471  14.940  1.00  0.00     0.001 A 
ATOM     73  C   UNL     1      -0.802   0.730  14.711  1.00  0.00     0.000 A 
ENDBRANCH  54  68
BRANCH  55  74
ATOM     74  C   UNL     1      -0.689  -8.568   5.817  1.00  0.00    -0.014 A 
ATOM     75  C   UNL     1      -1.873  -9.028   5.223  1.00  0.00     0.009 A 
ATOM     76  C   UNL     1       0.532  -9.141   5.426  1.00  0.00     0.009 A 
ATOM     77  C   UNL     1      -1.838 -10.060   4.282  1.00  0.00     0.001 A 
ATOM     78  C   UNL     1       0.568 -10.149   4.462  1.00  0.00     0.001 A 
ATOM     79  C   UNL     1      -0.619 -10.616   3.899  1.00  0.00     0.000 A 
ENDBRANCH  55  74
BRANCH  67  80
ATOM     80  C   UNL     1      -3.385  -8.115  12.225  1.00  0.00    -0.014 A 
ATOM     81  C   UNL     1      -2.827  -9.285  12.763  1.00  0.00     0.009 A 
ATOM     82  C   UNL     1      -4.736  -7.826  12.474  1.00  0.00     0.009 A 
ATOM     83  C   UNL     1      -3.623 -10.174  13.488  1.00  0.00     0.001 A 
ATOM     84  C   UNL     1      -5.518  -8.696  13.232  1.00  0.00     0.001 A 
ATOM     85  C   UNL     1      -4.965  -9.876  13.725  1.00  0.00     0.000 A 
ENDBRANCH  67  80
ENDBRANCH  41  42
ENDBRANCH  34  36
ENDBRANCH  33  34
ENDBRANCH  32  33
ENDBRANCH  31  32
ENDBRANCH  30  31
ENDBRANCH  29  30
ENDBRANCH  28  29
ENDBRANCH   1  28
TORSDOF 23
