REMARK SMILES Cc1cc(C(=O)N[C@H]2C=C[C@H](C(=O)OCCOCCOCCOC(=O)c3ccc(-c4c5nc(c(-c6ccccc6)c6ccc([nH]6)c(-c6ccccc6)c6nc(c(-c7ccccc7)c7ccc4[nH]7)C=C6)C=C5)cc3)C2)ccc1F
REMARK SMILES IDX 18 1 17 2 16 3 15 4 14 5 12 6 13 7 11 8 8 9 9 10 74 11 10 12
REMARK SMILES IDX 7 13 5 14 6 15 4 17 1 18 2 19 3 20 77 21 76 22 78 23 75 24
REMARK SMILES IDX 19 25 20 26 21 27 22 28 23 29 24 30 25 31 26 32 27 33 73 34
REMARK SMILES IDX 28 35 72 36 29 37 30 38 31 39 66 40 32 41 71 42 65 43 67 44
REMARK SMILES IDX 33 45 70 46 64 47 63 48 34 50 56 51 41 52 55 53 42 54 45 55
REMARK SMILES IDX 54 56 68 57 43 58 44 59 53 61 69 62 46 63 35 64 36 65 40 66
REMARK SMILES IDX 37 67 39 68 38 69 57 70 58 71 62 72 59 73 61 74 60 75 47 76
REMARK SMILES IDX 48 77 52 78 49 79 51 80 50 81
REMARK H PARENT 7 16 67 49 45 60
REMARK Flexibility Score: inf
ROOT
ATOM      1  C   UNL     1       1.820   4.205   2.888  1.00  0.00     0.188 C 
ENDROOT
BRANCH   1   2
ATOM      2  O   UNL     1       3.083   4.410   2.276  1.00  0.00    -0.376 OA
BRANCH   2   3
ATOM      3  C   UNL     1       3.188   5.334   1.191  1.00  0.00     0.202 C 
BRANCH   3   4
ATOM      4  C   UNL     1       2.112   5.287   0.112  1.00  0.00     0.261 C 
BRANCH   4   5
ATOM      5  O   UNL     1       0.844   5.662   0.669  1.00  0.00    -0.463 OA
BRANCH   5   6
ATOM      6  C   UNL     1      -0.222   5.369  -0.119  1.00  0.00     0.312 C 
ATOM      7  O   UNL     1      -0.136   5.031  -1.293  1.00  0.00    -0.252 OA
BRANCH   6   8
ATOM      8  C   UNL     1      -1.496   5.304   0.725  1.00  0.00     0.124 C 
ATOM      9  C   UNL     1      -2.656   3.481  -0.333  1.00  0.00     0.106 C 
ATOM     10  C   UNL     1      -3.397   4.767  -0.542  1.00  0.00    -0.006 C 
ATOM     11  C   UNL     1      -1.852   3.824   0.929  1.00  0.00     0.048 C 
ATOM     12  C   UNL     1      -2.719   5.789   0.003  1.00  0.00    -0.014 C 
BRANCH   9  13
ATOM     13  N   UNL     1      -3.545   2.366  -0.192  1.00  0.00    -0.346 N 
ATOM     14  C   UNL     1      -3.316   1.012  -0.218  1.00  0.00     0.251 C 
ATOM     15  O   UNL     1      -4.313   0.286  -0.204  1.00  0.00    -0.269 OA
ATOM     16  H   UNL     1      -4.488   2.615  -0.052  1.00  0.00     0.164 HD
BRANCH  14  17
ATOM     17  C   UNL     1      -1.960   0.363  -0.202  1.00  0.00     0.040 A 
ATOM     18  C   UNL     1       1.784   1.026  -0.576  1.00  0.00     0.047 C 
ATOM     19  C   UNL     1       0.486   0.302  -0.369  1.00  0.00    -0.015 A 
ATOM     20  C   UNL     1      -0.740   0.979  -0.511  1.00  0.00     0.020 A 
ATOM     21  C   UNL     1       0.476  -1.030   0.038  1.00  0.00     0.126 A 
ATOM     22  C   UNL     1      -0.719  -1.690   0.286  1.00  0.00     0.040 A 
ATOM     23  F   UNL     1       1.631  -1.691   0.197  1.00  0.00    -0.207 F 
ATOM     24  C   UNL     1      -1.927  -0.994   0.174  1.00  0.00     0.017 A 
ENDBRANCH  14  17
ENDBRANCH   9  13
ENDBRANCH   6   8
ENDBRANCH   5   6
ENDBRANCH   4   5
ENDBRANCH   3   4
ENDBRANCH   2   3
ENDBRANCH   1   2
BRANCH   1  25
ATOM     25  C   UNL     1       1.124   5.361   3.636  1.00  0.00     0.188 C 
BRANCH  25  26
ATOM     26  O   UNL     1       1.683   6.661   3.634  1.00  0.00    -0.376 OA
BRANCH  26  27
ATOM     27  C   UNL     1       2.974   6.849   4.206  1.00  0.00     0.202 C 
BRANCH  27  28
ATOM     28  C   UNL     1       3.205   6.436   5.660  1.00  0.00     0.261 C 
BRANCH  28  29
ATOM     29  O   UNL     1       3.003   5.028   5.861  1.00  0.00    -0.460 OA
BRANCH  29  30
ATOM     30  C   UNL     1       2.120   4.722   6.841  1.00  0.00     0.338 C 
ATOM     31  O   UNL     1       1.554   5.486   7.601  1.00  0.00    -0.246 OA
BRANCH  30  32
ATOM     32  C   UNL     1       1.769   3.296   6.753  1.00  0.00     0.060 A 
ATOM     33  C   UNL     1       0.427   2.968   6.513  1.00  0.00     0.016 A 
ATOM     34  C   UNL     1       2.718   2.303   6.996  1.00  0.00     0.016 A 
ATOM     35  C   UNL     1       0.019   1.638   6.559  1.00  0.00     0.010 A 
ATOM     36  C   UNL     1       2.302   0.972   7.067  1.00  0.00     0.010 A 
ATOM     37  C   UNL     1       0.947   0.642   6.885  1.00  0.00    -0.014 A 
BRANCH  37  38
ATOM     38  C   UNL     1       0.467  -0.716   7.224  1.00  0.00     0.031 A 
ATOM     39  C   UNL     1       0.157  -1.030   8.661  1.00  0.00     0.074 A 
ATOM     40  C   UNL     1       0.301  -1.648   6.272  1.00  0.00     0.049 A 
ATOM     41  N   UNL     1      -0.225  -2.160   9.197  1.00  0.00    -0.248 NA
ATOM     42  C   UNL     1       0.296   0.080   9.619  1.00  0.00     0.031 C 
ATOM     43  C   UNL     1       0.517  -1.448   4.841  1.00  0.00     0.029 A 
ATOM     44  N   UNL     1      -0.084  -2.960   6.379  1.00  0.00    -0.354 N 
ATOM     45  C   UNL     1      -0.368  -1.899  10.554  1.00  0.00     0.074 A 
ATOM     46  C   UNL     1      -0.016  -0.512  10.763  1.00  0.00     0.031 C 
ATOM     47  C   UNL     1       0.276  -2.605   4.201  1.00  0.00     0.029 A 
ATOM     48  C   UNL     1      -0.083  -3.629   5.181  1.00  0.00     0.049 A 
ATOM     49  H   UNL     1      -0.336  -3.381   7.232  1.00  0.00     0.167 HD
ATOM     50  C   UNL     1      -0.756  -2.741  11.540  1.00  0.00     0.031 A 
ATOM     51  C   UNL     1      -0.321  -4.927   4.914  1.00  0.00     0.031 A 
ATOM     52  C   UNL     1      -1.080  -4.126  11.341  1.00  0.00     0.049 A 
ATOM     53  C   UNL     1      -0.660  -5.865   6.041  1.00  0.00     0.074 A 
ATOM     54  C   UNL     1      -1.486  -5.061  12.278  1.00  0.00     0.029 A 
ATOM     55  N   UNL     1      -1.024  -4.777  10.120  1.00  0.00    -0.354 N 
ATOM     56  N   UNL     1      -0.807  -5.606   7.318  1.00  0.00    -0.248 NA
ATOM     57  C   UNL     1      -0.863  -7.278   5.687  1.00  0.00     0.031 C 
ATOM     58  C   UNL     1      -1.629  -6.292  11.629  1.00  0.00     0.029 A 
ATOM     59  C   UNL     1      -1.361  -6.110  10.281  1.00  0.00     0.049 A 
ATOM     60  H   UNL     1      -0.780  -4.355   9.264  1.00  0.00     0.167 HD
ATOM     61  C   UNL     1      -1.145  -6.815   7.915  1.00  0.00     0.074 A 
ATOM     62  C   UNL     1      -1.190  -7.806   6.859  1.00  0.00     0.031 C 
ATOM     63  C   UNL     1      -1.400  -7.080   9.219  1.00  0.00     0.031 A 
BRANCH  50  64
ATOM     64  C   UNL     1      -0.806  -2.185  12.934  1.00  0.00    -0.014 A 
ATOM     65  C   UNL     1      -1.834  -1.317  13.333  1.00  0.00     0.009 A 
ATOM     66  C   UNL     1       0.180  -2.548  13.863  1.00  0.00     0.009 A 
ATOM     67  C   UNL     1      -1.856  -0.800  14.630  1.00  0.00     0.001 A 
ATOM     68  C   UNL     1       0.144  -2.047  15.165  1.00  0.00     0.001 A 
ATOM     69  C   UNL     1      -0.869  -1.168  15.545  1.00  0.00     0.000 A 
ENDBRANCH  50  64
BRANCH  51  70
ATOM     70  C   UNL     1      -0.223  -5.427   3.519  1.00  0.00    -0.014 A 
ATOM     71  C   UNL     1      -1.375  -5.808   2.815  1.00  0.00     0.009 A 
ATOM     72  C   UNL     1       1.027  -5.544   2.892  1.00  0.00     0.009 A 
ATOM     73  C   UNL     1      -1.274  -6.319   1.519  1.00  0.00     0.001 A 
ATOM     74  C   UNL     1       1.122  -6.031   1.588  1.00  0.00     0.001 A 
ATOM     75  C   UNL     1      -0.027  -6.426   0.905  1.00  0.00     0.000 A 
ENDBRANCH  51  70
BRANCH  63  76
ATOM     76  C   UNL     1      -1.784  -8.488   9.574  1.00  0.00    -0.014 A 
ATOM     77  C   UNL     1      -0.828  -9.514   9.617  1.00  0.00     0.009 A 
ATOM     78  C   UNL     1      -3.114  -8.779   9.918  1.00  0.00     0.009 A 
ATOM     79  C   UNL     1      -1.203 -10.811   9.973  1.00  0.00     0.001 A 
ATOM     80  C   UNL     1      -3.480 -10.071  10.297  1.00  0.00     0.001 A 
ATOM     81  C   UNL     1      -2.527 -11.087  10.318  1.00  0.00     0.000 A 
ENDBRANCH  63  76
ENDBRANCH  37  38
ENDBRANCH  30  32
ENDBRANCH  29  30
ENDBRANCH  28  29
ENDBRANCH  27  28
ENDBRANCH  26  27
ENDBRANCH  25  26
ENDBRANCH   1  25
TORSDOF 19
