REMARK SMILES CC(=O)c1c[nH]c(C(=O)N[C@H]2C=C[C@H](C(=O)OCCOCCOCCOC(=O)c3ccc(-c4c5nc(c(-c6ccccc6)c6ccc([nH]6)c(-c6ccccc6)c6nc(c(-c7ccccc7)c7ccc4[nH]7)C=C6)C=C5)cc3)C2)c1
REMARK SMILES IDX 21 1 20 2 19 3 18 4 17 5 15 6 16 7 14 8 11 9 12 10 77 11
REMARK SMILES IDX 13 12 10 13 8 14 9 15 7 17 4 18 5 19 78 20 6 21 2 23 1 24
REMARK SMILES IDX 3 25 22 26 23 27 24 28 25 29 26 30 27 31 28 32 29 33 30 34
REMARK SMILES IDX 76 35 31 36 75 37 32 38 33 39 34 40 69 41 35 42 74 43 68 44
REMARK SMILES IDX 70 45 36 46 73 47 67 48 66 49 37 51 59 52 44 53 58 54 45 55
REMARK SMILES IDX 48 56 57 57 71 58 46 59 47 60 56 62 72 63 49 64 38 65 39 66
REMARK SMILES IDX 43 67 40 68 42 69 41 70 60 71 61 72 65 73 62 74 64 75 63 76
REMARK SMILES IDX 50 77 51 78 55 79 52 80 54 81 53 82
REMARK H PARENT 10 16 6 22 70 50 48 61
REMARK Flexibility Score: inf
ROOT
ATOM      1  C   UNL     1      -4.644   1.656   0.292  1.00  0.00     0.188 C 
ENDROOT
BRANCH   1   2
ATOM      2  O   UNL     1      -6.064   1.634   0.390  1.00  0.00    -0.376 OA
BRANCH   2   3
ATOM      3  C   UNL     1      -6.836   0.972  -0.607  1.00  0.00     0.202 C 
BRANCH   3   4
ATOM      4  C   UNL     1      -6.596   1.234  -2.107  1.00  0.00     0.261 C 
BRANCH   4   5
ATOM      5  O   UNL     1      -5.218   1.320  -2.481  1.00  0.00    -0.463 OA
BRANCH   5   6
ATOM      6  C   UNL     1      -4.772   2.512  -2.957  1.00  0.00     0.312 C 
ATOM      7  O   UNL     1      -5.474   3.473  -3.239  1.00  0.00    -0.252 OA
BRANCH   6   8
ATOM      8  C   UNL     1      -3.252   2.495  -3.024  1.00  0.00     0.124 C 
ATOM      9  C   UNL     1      -2.136   4.434  -3.970  1.00  0.00     0.106 C 
ATOM     10  C   UNL     1      -2.099   3.281  -4.910  1.00  0.00    -0.006 C 
ATOM     11  C   UNL     1      -2.649   3.862  -2.648  1.00  0.00     0.048 C 
ATOM     12  C   UNL     1      -2.750   2.227  -4.408  1.00  0.00    -0.014 C 
BRANCH   9  13
ATOM     13  N   UNL     1      -0.888   5.159  -3.949  1.00  0.00    -0.345 N 
ATOM     14  C   UNL     1       0.387   4.975  -3.474  1.00  0.00     0.268 C 
ATOM     15  O   UNL     1       1.146   5.914  -3.614  1.00  0.00    -0.268 OA
ATOM     16  H   UNL     1      -0.975   6.028  -4.403  1.00  0.00     0.164 HD
BRANCH  14  17
ATOM     17  C   UNL     1       0.818   3.777  -2.779  1.00  0.00     0.105 A 
ATOM     18  C   UNL     1       1.129   1.788  -1.690  1.00  0.00     0.035 A 
ATOM     19  C   UNL     1       2.146   2.647  -1.329  1.00  0.00     0.094 A 
ATOM     20  C   UNL     1       0.372   2.477  -2.682  1.00  0.00     0.045 A 
ATOM     21  N   UNL     1       1.982   3.814  -2.028  1.00  0.00    -0.356 N 
ATOM     22  H   UNL     1       2.607   4.575  -2.001  1.00  0.00     0.166 HD
BRANCH  18  23
ATOM     23  C   UNL     1       0.848   0.451  -1.170  1.00  0.00     0.161 C 
ATOM     24  C   UNL     1       1.463   0.046   0.144  1.00  0.00     0.093 C 
ATOM     25  O   UNL     1       0.057  -0.296  -1.747  1.00  0.00    -0.294 OA
ENDBRANCH  18  23
ENDBRANCH  14  17
ENDBRANCH   9  13
ENDBRANCH   6   8
ENDBRANCH   5   6
ENDBRANCH   4   5
ENDBRANCH   3   4
ENDBRANCH   2   3
ENDBRANCH   1   2
BRANCH   1  26
ATOM     26  C   UNL     1      -3.862   0.367  -0.035  1.00  0.00     0.188 C 
BRANCH  26  27
ATOM     27  O   UNL     1      -4.633  -0.612  -0.707  1.00  0.00    -0.376 OA
BRANCH  27  28
ATOM     28  C   UNL     1      -4.796  -1.877  -0.080  1.00  0.00     0.202 C 
BRANCH  28  29
ATOM     29  C   UNL     1      -5.554  -1.906   1.255  1.00  0.00     0.261 C 
BRANCH  29  30
ATOM     30  O   UNL     1      -5.116  -0.971   2.236  1.00  0.00    -0.460 OA
BRANCH  30  31
ATOM     31  C   UNL     1      -3.879  -1.216   2.694  1.00  0.00     0.338 C 
ATOM     32  O   UNL     1      -3.048  -2.000   2.248  1.00  0.00    -0.246 OA
BRANCH  31  33
ATOM     33  C   UNL     1      -3.645  -0.450   3.903  1.00  0.00     0.060 A 
ATOM     34  C   UNL     1      -2.351   0.029   4.122  1.00  0.00     0.016 A 
ATOM     35  C   UNL     1      -4.589  -0.602   4.922  1.00  0.00     0.016 A 
ATOM     36  C   UNL     1      -1.936   0.192   5.423  1.00  0.00     0.010 A 
ATOM     37  C   UNL     1      -4.157  -0.493   6.221  1.00  0.00     0.010 A 
ATOM     38  C   UNL     1      -2.819  -0.149   6.456  1.00  0.00    -0.014 A 
BRANCH  38  39
ATOM     39  C   UNL     1      -2.340  -0.033   7.832  1.00  0.00     0.031 A 
ATOM     40  C   UNL     1      -2.608   1.360   8.380  1.00  0.00     0.074 A 
ATOM     41  C   UNL     1      -1.719  -1.136   8.346  1.00  0.00     0.049 A 
ATOM     42  N   UNL     1      -2.043   1.959   9.375  1.00  0.00    -0.248 NA
ATOM     43  C   UNL     1      -3.604   2.244   7.708  1.00  0.00     0.031 C 
ATOM     44  C   UNL     1      -1.569  -2.429   7.633  1.00  0.00     0.029 A 
ATOM     45  N   UNL     1      -1.086  -1.410   9.540  1.00  0.00    -0.354 N 
ATOM     46  C   UNL     1      -2.719   3.177   9.568  1.00  0.00     0.074 A 
ATOM     47  C   UNL     1      -3.601   3.347   8.456  1.00  0.00     0.031 C 
ATOM     48  C   UNL     1      -0.837  -3.299   8.361  1.00  0.00     0.029 A 
ATOM     49  C   UNL     1      -0.465  -2.683   9.620  1.00  0.00     0.049 A 
ATOM     50  H   UNL     1      -1.066  -0.767  10.285  1.00  0.00     0.167 HD
ATOM     51  C   UNL     1      -2.612   3.893  10.719  1.00  0.00     0.031 A 
ATOM     52  C   UNL     1       0.318  -3.200  10.615  1.00  0.00     0.031 A 
ATOM     53  C   UNL     1      -1.614   3.327  11.562  1.00  0.00     0.049 A 
ATOM     54  C   UNL     1       0.241  -2.252  11.734  1.00  0.00     0.074 A 
ATOM     55  C   UNL     1      -0.251   3.232  11.436  1.00  0.00     0.029 A 
ATOM     56  N   UNL     1      -2.049   2.404  12.482  1.00  0.00    -0.354 N 
ATOM     57  N   UNL     1      -0.789  -2.108  12.509  1.00  0.00    -0.248 NA
ATOM     58  C   UNL     1       1.377  -1.361  11.999  1.00  0.00     0.031 C 
ATOM     59  C   UNL     1       0.032   1.940  11.925  1.00  0.00     0.029 A 
ATOM     60  C   UNL     1      -1.117   1.399  12.511  1.00  0.00     0.049 A 
ATOM     61  H   UNL     1      -2.873   2.455  13.018  1.00  0.00     0.167 HD
ATOM     62  C   UNL     1      -0.576  -0.859  13.035  1.00  0.00     0.074 A 
ATOM     63  C   UNL     1       0.852  -0.629  12.980  1.00  0.00     0.031 C 
ATOM     64  C   UNL     1      -1.550   0.080  12.907  1.00  0.00     0.031 A 
BRANCH  51  65
ATOM     65  C   UNL     1      -3.533   4.922  11.296  1.00  0.00    -0.014 A 
ATOM     66  C   UNL     1      -3.083   5.619  12.439  1.00  0.00     0.009 A 
ATOM     67  C   UNL     1      -4.897   4.991  10.991  1.00  0.00     0.009 A 
ATOM     68  C   UNL     1      -3.973   6.247  13.310  1.00  0.00     0.001 A 
ATOM     69  C   UNL     1      -5.786   5.659  11.842  1.00  0.00     0.001 A 
ATOM     70  C   UNL     1      -5.330   6.250  13.018  1.00  0.00     0.000 A 
ENDBRANCH  51  65
BRANCH  52  71
ATOM     71  C   UNL     1       1.210  -4.393  10.846  1.00  0.00    -0.014 A 
ATOM     72  C   UNL     1       1.399  -5.463   9.972  1.00  0.00     0.009 A 
ATOM     73  C   UNL     1       2.006  -4.421  12.027  1.00  0.00     0.009 A 
ATOM     74  C   UNL     1       2.379  -6.448  10.227  1.00  0.00     0.001 A 
ATOM     75  C   UNL     1       3.007  -5.364  12.264  1.00  0.00     0.001 A 
ATOM     76  C   UNL     1       3.203  -6.379  11.351  1.00  0.00     0.000 A 
ENDBRANCH  52  71
BRANCH  64  77
ATOM     77  C   UNL     1      -2.958  -0.477  12.735  1.00  0.00    -0.014 A 
ATOM     78  C   UNL     1      -3.491  -1.350  13.699  1.00  0.00     0.009 A 
ATOM     79  C   UNL     1      -3.723  -0.270  11.573  1.00  0.00     0.009 A 
ATOM     80  C   UNL     1      -4.709  -2.012  13.496  1.00  0.00     0.001 A 
ATOM     81  C   UNL     1      -4.945  -0.928  11.365  1.00  0.00     0.001 A 
ATOM     82  C   UNL     1      -5.435  -1.806  12.326  1.00  0.00     0.000 A 
ENDBRANCH  64  77
ENDBRANCH  38  39
ENDBRANCH  31  33
ENDBRANCH  30  31
ENDBRANCH  29  30
ENDBRANCH  28  29
ENDBRANCH  27  28
ENDBRANCH  26  27
ENDBRANCH   1  26
TORSDOF 20
