REMARK SMILES CCCc1cc(OCC(=O)OCCOCCOCCOC(=O)c2ccc(-c3c4nc(c(-c5ccccc5)c5ccc([nH]5)c(-c5ccccc5)c5nc(c(-c6ccccc6)c6ccc3[nH]6)C=C5)C=C4)cc2)nc(Nc2ccc(C#N)cc2)n1
REMARK SMILES IDX 14 1 13 2 12 3 11 4 9 5 10 6 8 7 7 8 6 9 4 10 5 11 82 12
REMARK SMILES IDX 72 13 71 14 3 15 2 16 1 17 73 18 74 20 75 21 81 22 76 23
REMARK SMILES IDX 80 24 77 25 78 26 79 27 15 28 16 29 17 30 18 31 19 32 20 33
REMARK SMILES IDX 21 34 22 35 23 36 24 37 70 38 25 39 69 40 26 41 27 42 28 43
REMARK SMILES IDX 63 44 29 45 68 46 62 47 64 48 30 49 67 50 61 51 60 52 31 54
REMARK SMILES IDX 53 55 38 56 52 57 39 58 42 59 51 60 65 61 40 62 41 63 50 65
REMARK SMILES IDX 66 66 43 67 32 68 33 69 37 70 34 71 36 72 35 73 54 74 55 75
REMARK SMILES IDX 59 76 56 77 58 78 57 79 44 80 45 81 49 82 46 83 48 84 47 85
REMARK H PARENT 73 19 64 53 42 64
REMARK Flexibility Score: inf
ROOT
ATOM      1  O   UNL     1       1.853  -2.690  -6.675  1.00  0.00    -0.376 OA
ENDROOT
BRANCH   1   2
ATOM      2  C   UNL     1       1.425  -3.719  -7.540  1.00  0.00     0.202 C 
BRANCH   2   3
ATOM      3  C   UNL     1       1.904  -5.130  -7.160  1.00  0.00     0.261 C 
BRANCH   3   4
ATOM      4  O   UNL     1       1.681  -5.499  -5.766  1.00  0.00    -0.461 OA
BRANCH   4   5
ATOM      5  C   UNL     1       2.769  -5.612  -4.952  1.00  0.00     0.344 C 
ATOM      6  O   UNL     1       3.925  -5.607  -5.368  1.00  0.00    -0.248 OA
BRANCH   5   7
ATOM      7  C   UNL     1       2.467  -5.609  -3.405  1.00  0.00     0.353 C 
BRANCH   7   8
ATOM      8  O   UNL     1       1.165  -5.641  -2.829  1.00  0.00    -0.466 OA
BRANCH   8   9
ATOM      9  C   UNL     1       0.696  -4.743  -1.890  1.00  0.00     0.218 A 
ATOM     10  C   UNL     1       0.541  -2.676  -0.759  1.00  0.00     0.050 A 
ATOM     11  C   UNL     1       1.297  -3.543  -1.540  1.00  0.00     0.092 A 
ATOM     12  N   UNL     1      -0.674  -2.996  -0.358  1.00  0.00    -0.218 NA
ATOM     13  C   UNL     1      -1.212  -4.150  -0.714  1.00  0.00     0.230 A 
ATOM     14  N   UNL     1      -0.550  -5.064  -1.444  1.00  0.00    -0.177 NA
BRANCH  10  15
ATOM     15  C   UNL     1       0.863  -1.236  -0.510  1.00  0.00     0.056 C 
BRANCH  15  16
ATOM     16  C   UNL     1      -0.106  -0.374   0.317  1.00  0.00     0.003 C 
ATOM     17  C   UNL     1       0.271  -0.346   1.781  1.00  0.00     0.004 C 
ENDBRANCH  15  16
ENDBRANCH  10  15
BRANCH  13  18
ATOM     18  N   UNL     1      -2.533  -4.315  -0.281  1.00  0.00    -0.324 N 
ATOM     19  H   UNL     1      -2.939  -5.211  -0.324  1.00  0.00     0.170 HD
BRANCH  18  20
ATOM     20  C   UNL     1      -3.305  -3.239   0.217  1.00  0.00     0.041 A 
ATOM     21  C   UNL     1      -3.498  -3.043   1.590  1.00  0.00     0.027 A 
ATOM     22  C   UNL     1      -3.717  -2.215  -0.656  1.00  0.00     0.027 A 
ATOM     23  C   UNL     1      -4.125  -1.880   2.071  1.00  0.00     0.021 A 
ATOM     24  C   UNL     1      -4.361  -1.063  -0.186  1.00  0.00     0.021 A 
ATOM     25  C   UNL     1      -4.576  -0.896   1.183  1.00  0.00     0.052 A 
BRANCH  25  26
ATOM     26  C   UNL     1      -5.243   0.274   1.667  1.00  0.00     0.099 C 
ATOM     27  N   UNL     1      -5.800   1.223   2.057  1.00  0.00    -0.192 NA
ENDBRANCH  25  26
ENDBRANCH  18  20
ENDBRANCH  13  18
ENDBRANCH   8   9
ENDBRANCH   7   8
ENDBRANCH   5   7
ENDBRANCH   4   5
ENDBRANCH   3   4
ENDBRANCH   2   3
ENDBRANCH   1   2
BRANCH   1  28
ATOM     28  C   UNL     1       1.486  -2.788  -5.314  1.00  0.00     0.188 C 
BRANCH  28  29
ATOM     29  C   UNL     1       0.126  -3.352  -4.870  1.00  0.00     0.188 C 
BRANCH  29  30
ATOM     30  O   UNL     1      -0.830  -3.321  -5.907  1.00  0.00    -0.376 OA
BRANCH  30  31
ATOM     31  C   UNL     1      -1.933  -2.501  -5.613  1.00  0.00     0.202 C 
BRANCH  31  32
ATOM     32  C   UNL     1      -1.638  -0.989  -5.666  1.00  0.00     0.261 C 
BRANCH  32  33
ATOM     33  O   UNL     1      -0.320  -0.518  -5.257  1.00  0.00    -0.460 OA
BRANCH  33  34
ATOM     34  C   UNL     1      -0.189  -0.114  -3.971  1.00  0.00     0.338 C 
ATOM     35  O   UNL     1      -1.067  -0.221  -3.127  1.00  0.00    -0.246 OA
BRANCH  34  36
ATOM     36  C   UNL     1       1.136   0.512  -3.601  1.00  0.00     0.060 A 
ATOM     37  C   UNL     1       2.219  -0.260  -3.151  1.00  0.00     0.016 A 
ATOM     38  C   UNL     1       1.095   1.847  -3.196  1.00  0.00     0.016 A 
ATOM     39  C   UNL     1       3.090   0.229  -2.163  1.00  0.00     0.010 A 
ATOM     40  C   UNL     1       2.031   2.359  -2.269  1.00  0.00     0.010 A 
ATOM     41  C   UNL     1       2.997   1.537  -1.670  1.00  0.00    -0.014 A 
BRANCH  41  42
ATOM     42  C   UNL     1       3.880   1.994  -0.539  1.00  0.00     0.031 A 
ATOM     43  C   UNL     1       3.335   2.629   0.736  1.00  0.00     0.074 A 
ATOM     44  C   UNL     1       5.214   1.798  -0.622  1.00  0.00     0.049 A 
ATOM     45  N   UNL     1       3.987   3.122   1.767  1.00  0.00    -0.248 NA
ATOM     46  C   UNL     1       1.877   2.690   0.895  1.00  0.00     0.031 C 
ATOM     47  C   UNL     1       5.912   1.119  -1.718  1.00  0.00     0.029 A 
ATOM     48  N   UNL     1       6.231   2.167   0.228  1.00  0.00    -0.354 N 
ATOM     49  C   UNL     1       3.022   3.535   2.688  1.00  0.00     0.074 A 
ATOM     50  C   UNL     1       1.738   3.227   2.102  1.00  0.00     0.031 C 
ATOM     51  C   UNL     1       7.226   1.107  -1.471  1.00  0.00     0.029 A 
ATOM     52  C   UNL     1       7.480   1.903  -0.281  1.00  0.00     0.049 A 
ATOM     53  H   UNL     1       6.080   2.578   1.109  1.00  0.00     0.167 HD
ATOM     54  C   UNL     1       3.180   4.155   3.887  1.00  0.00     0.031 A 
ATOM     55  C   UNL     1       8.702   2.326   0.087  1.00  0.00     0.031 A 
ATOM     56  C   UNL     1       4.451   4.588   4.416  1.00  0.00     0.049 A 
ATOM     57  C   UNL     1       8.840   3.215   1.282  1.00  0.00     0.074 A 
ATOM     58  C   UNL     1       4.710   5.297   5.579  1.00  0.00     0.029 A 
ATOM     59  N   UNL     1       5.673   4.398   3.791  1.00  0.00    -0.354 N 
ATOM     60  N   UNL     1       7.916   3.626   2.115  1.00  0.00    -0.248 NA
ATOM     61  C   UNL     1      10.191   3.699   1.584  1.00  0.00     0.031 C 
ATOM     62  C   UNL     1       6.069   5.629   5.598  1.00  0.00     0.029 A 
ATOM     63  C   UNL     1       6.677   5.029   4.508  1.00  0.00     0.049 A 
ATOM     64  H   UNL     1       5.808   3.889   2.958  1.00  0.00     0.167 HD
ATOM     65  C   UNL     1       8.581   4.387   3.066  1.00  0.00     0.074 A 
ATOM     66  C   UNL     1       9.985   4.368   2.709  1.00  0.00     0.031 C 
ATOM     67  C   UNL     1       8.071   5.029   4.144  1.00  0.00     0.031 A 
BRANCH  54  68
ATOM     68  C   UNL     1       1.938   4.519   4.672  1.00  0.00    -0.014 A 
ATOM     69  C   UNL     1       1.162   3.553   5.331  1.00  0.00     0.009 A 
ATOM     70  C   UNL     1       1.579   5.872   4.807  1.00  0.00     0.009 A 
ATOM     71  C   UNL     1       0.041   3.933   6.081  1.00  0.00     0.001 A 
ATOM     72  C   UNL     1       0.477   6.251   5.578  1.00  0.00     0.001 A 
ATOM     73  C   UNL     1      -0.297   5.280   6.207  1.00  0.00     0.000 A 
ENDBRANCH  54  68
BRANCH  55  74
ATOM     74  C   UNL     1       9.875   1.985  -0.762  1.00  0.00    -0.014 A 
ATOM     75  C   UNL     1      10.888   1.142  -0.286  1.00  0.00     0.009 A 
ATOM     76  C   UNL     1       9.963   2.477  -2.077  1.00  0.00     0.009 A 
ATOM     77  C   UNL     1      11.967   0.806  -1.107  1.00  0.00     0.001 A 
ATOM     78  C   UNL     1      11.018   2.104  -2.909  1.00  0.00     0.001 A 
ATOM     79  C   UNL     1      12.024   1.276  -2.419  1.00  0.00     0.000 A 
ENDBRANCH  55  74
BRANCH  67  80
ATOM     80  C   UNL     1       9.053   5.713   5.055  1.00  0.00    -0.014 A 
ATOM     81  C   UNL     1       9.788   6.838   4.647  1.00  0.00     0.009 A 
ATOM     82  C   UNL     1       9.255   5.205   6.349  1.00  0.00     0.009 A 
ATOM     83  C   UNL     1      10.747   7.400   5.493  1.00  0.00     0.001 A 
ATOM     84  C   UNL     1      10.183   5.794   7.207  1.00  0.00     0.001 A 
ATOM     85  C   UNL     1      10.941   6.879   6.773  1.00  0.00     0.000 A 
ENDBRANCH  67  80
ENDBRANCH  41  42
ENDBRANCH  34  36
ENDBRANCH  33  34
ENDBRANCH  32  33
ENDBRANCH  31  32
ENDBRANCH  30  31
ENDBRANCH  29  30
ENDBRANCH  28  29
ENDBRANCH   1  28
TORSDOF 24
