REMARK SMILES C[C@@H](C(=O)OCCOCCOCCOC(=O)c1ccc(-c2c3nc(c(-c4ccccc4)c4ccc([nH]4)c(-c4ccccc4)c4nc(c(-c5ccccc5)c5ccc2[nH]5)C=C4)C=C3)cc1)c1ccc(-c2ccn(C(F)F)c(=O)c2)cc1
REMARK SMILES IDX 9 1 8 2 7 3 6 4 5 5 3 6 4 7 2 8 1 9 65 10 66 11 80 12 67 13
REMARK SMILES IDX 79 14 68 15 69 16 70 17 78 18 71 19 76 20 72 21 77 22 73 23
REMARK SMILES IDX 74 24 75 25 10 26 11 27 12 28 13 29 14 30 15 31 16 32 17 33
REMARK SMILES IDX 18 34 64 35 19 36 63 37 20 38 21 39 22 40 57 41 23 42 62 43
REMARK SMILES IDX 56 44 58 45 24 46 61 47 55 48 54 49 25 51 47 52 32 53 46 54
REMARK SMILES IDX 33 55 36 56 45 57 59 58 34 59 35 60 44 62 60 63 37 64 26 65
REMARK SMILES IDX 27 66 31 67 28 68 30 69 29 70 48 71 49 72 53 73 50 74 52 75
REMARK SMILES IDX 51 76 38 77 39 78 43 79 40 80 42 81 41 82
REMARK H PARENT 58 50 36 61
REMARK Flexibility Score: inf
ROOT
ATOM      1  C   UNL     1       0.378   2.332   3.094  1.00  0.00     0.188 C 
ENDROOT
BRANCH   1   2
ATOM      2  O   UNL     1       1.081   2.544   4.310  1.00  0.00    -0.376 OA
BRANCH   2   3
ATOM      3  C   UNL     1       2.328   1.879   4.493  1.00  0.00     0.202 C 
BRANCH   3   4
ATOM      4  C   UNL     1       2.436   0.367   4.213  1.00  0.00     0.261 C 
BRANCH   4   5
ATOM      5  O   UNL     1       1.964  -0.078   2.920  1.00  0.00    -0.463 OA
BRANCH   5   6
ATOM      6  C   UNL     1       1.039  -1.078   2.923  1.00  0.00     0.313 C 
ATOM      7  O   UNL     1       0.620  -1.610   3.948  1.00  0.00    -0.252 OA
BRANCH   6   8
ATOM      8  C   UNL     1       0.540  -1.502   1.528  1.00  0.00     0.126 C 
ATOM      9  C   UNL     1       1.221  -0.915   0.287  1.00  0.00     0.025 C 
BRANCH   8  10
ATOM     10  C   UNL     1      -0.982  -1.395   1.442  1.00  0.00    -0.034 A 
ATOM     11  C   UNL     1      -1.634  -0.155   1.387  1.00  0.00     0.005 A 
ATOM     12  C   UNL     1      -1.770  -2.551   1.482  1.00  0.00     0.005 A 
ATOM     13  C   UNL     1      -3.026  -0.067   1.427  1.00  0.00     0.009 A 
ATOM     14  C   UNL     1      -3.167  -2.464   1.482  1.00  0.00     0.009 A 
ATOM     15  C   UNL     1      -3.807  -1.220   1.462  1.00  0.00    -0.018 A 
BRANCH  15  16
ATOM     16  C   UNL     1      -5.279  -1.137   1.446  1.00  0.00    -0.011 A 
ATOM     17  C   UNL     1      -6.114  -1.763   2.451  1.00  0.00     0.027 A 
ATOM     18  C   UNL     1      -5.867  -0.498   0.418  1.00  0.00     0.080 A 
ATOM     19  C   UNL     1      -7.442  -1.794   2.304  1.00  0.00     0.095 A 
ATOM     20  C   UNL     1      -7.346  -0.488   0.262  1.00  0.00     0.255 A 
ATOM     21  N   UNL     1      -8.055  -1.196   1.218  1.00  0.00    -0.258 N 
ATOM     22  O   UNL     1      -7.826   0.083  -0.711  1.00  0.00    -0.269 OA
BRANCH  21  23
ATOM     23  C   UNL     1      -9.474  -1.304   1.020  1.00  0.00     0.451 C 
ATOM     24  F   UNL     1     -10.076  -0.093   1.029  1.00  0.00    -0.185 F 
ATOM     25  F   UNL     1      -9.759  -1.913  -0.156  1.00  0.00    -0.185 F 
ENDBRANCH  21  23
ENDBRANCH  15  16
ENDBRANCH   8  10
ENDBRANCH   6   8
ENDBRANCH   5   6
ENDBRANCH   4   5
ENDBRANCH   3   4
ENDBRANCH   2   3
ENDBRANCH   1   2
BRANCH   1  26
ATOM     26  C   UNL     1       1.157   2.405   1.766  1.00  0.00     0.188 C 
BRANCH  26  27
ATOM     27  O   UNL     1       2.508   2.762   1.917  1.00  0.00    -0.376 OA
BRANCH  27  28
ATOM     28  C   UNL     1       2.927   4.041   1.489  1.00  0.00     0.202 C 
BRANCH  28  29
ATOM     29  C   UNL     1       2.112   5.300   1.837  1.00  0.00     0.261 C 
BRANCH  29  30
ATOM     30  O   UNL     1       0.679   5.189   1.840  1.00  0.00    -0.460 OA
BRANCH  30  31
ATOM     31  C   UNL     1       0.044   5.252   0.649  1.00  0.00     0.338 C 
ATOM     32  O   UNL     1       0.563   5.360  -0.453  1.00  0.00    -0.246 OA
BRANCH  31  33
ATOM     33  C   UNL     1      -1.388   4.943   0.873  1.00  0.00     0.060 A 
ATOM     34  C   UNL     1      -1.961   3.856   0.201  1.00  0.00     0.016 A 
ATOM     35  C   UNL     1      -2.166   5.717   1.740  1.00  0.00     0.016 A 
ATOM     36  C   UNL     1      -3.315   3.552   0.381  1.00  0.00     0.010 A 
ATOM     37  C   UNL     1      -3.525   5.418   1.909  1.00  0.00     0.010 A 
ATOM     38  C   UNL     1      -4.113   4.341   1.222  1.00  0.00    -0.014 A 
BRANCH  38  39
ATOM     39  C   UNL     1      -5.590   4.159   1.235  1.00  0.00     0.031 A 
ATOM     40  C   UNL     1      -6.412   4.947   0.252  1.00  0.00     0.074 A 
ATOM     41  C   UNL     1      -6.200   3.321   2.095  1.00  0.00     0.049 A 
ATOM     42  N   UNL     1      -7.710   5.003   0.108  1.00  0.00    -0.248 NA
ATOM     43  C   UNL     1      -5.662   5.798  -0.688  1.00  0.00     0.031 C 
ATOM     44  C   UNL     1      -5.523   2.478   3.076  1.00  0.00     0.029 A 
ATOM     45  N   UNL     1      -7.535   3.043   2.280  1.00  0.00    -0.354 N 
ATOM     46  C   UNL     1      -7.935   5.895  -0.933  1.00  0.00     0.074 A 
ATOM     47  C   UNL     1      -6.641   6.375  -1.367  1.00  0.00     0.031 C 
ATOM     48  C   UNL     1      -6.446   1.769   3.752  1.00  0.00     0.029 A 
ATOM     49  C   UNL     1      -7.783   2.146   3.293  1.00  0.00     0.049 A 
ATOM     50  H   UNL     1      -8.248   3.450   1.736  1.00  0.00     0.167 HD
ATOM     51  C   UNL     1      -9.112   6.289  -1.476  1.00  0.00     0.031 A 
ATOM     52  C   UNL     1      -8.953   1.701   3.804  1.00  0.00     0.031 A 
ATOM     53  C   UNL     1     -10.403   5.843  -1.026  1.00  0.00     0.049 A 
ATOM     54  C   UNL     1     -10.252   2.217   3.224  1.00  0.00     0.074 A 
ATOM     55  C   UNL     1     -11.652   6.209  -1.496  1.00  0.00     0.029 A 
ATOM     56  N   UNL     1     -10.611   4.937   0.002  1.00  0.00    -0.354 N 
ATOM     57  N   UNL     1     -10.448   3.049   2.230  1.00  0.00    -0.248 NA
ATOM     58  C   UNL     1     -11.496   1.729   3.842  1.00  0.00     0.031 C 
ATOM     59  C   UNL     1     -12.618   5.580  -0.704  1.00  0.00     0.029 A 
ATOM     60  C   UNL     1     -11.969   4.765   0.210  1.00  0.00     0.049 A 
ATOM     61  H   UNL     1      -9.899   4.484   0.509  1.00  0.00     0.167 HD
ATOM     62  C   UNL     1     -11.827   3.143   2.074  1.00  0.00     0.074 A 
ATOM     63  C   UNL     1     -12.421   2.273   3.065  1.00  0.00     0.031 C 
ATOM     64  C   UNL     1     -12.544   3.890   1.198  1.00  0.00     0.031 A 
BRANCH  51  65
ATOM     65  C   UNL     1      -9.051   7.305  -2.582  1.00  0.00    -0.014 A 
ATOM     66  C   UNL     1      -8.555   6.977  -3.854  1.00  0.00     0.009 A 
ATOM     67  C   UNL     1      -9.512   8.611  -2.349  1.00  0.00     0.009 A 
ATOM     68  C   UNL     1      -8.487   7.947  -4.856  1.00  0.00     0.001 A 
ATOM     69  C   UNL     1      -9.474   9.568  -3.362  1.00  0.00     0.001 A 
ATOM     70  C   UNL     1      -8.951   9.239  -4.612  1.00  0.00     0.000 A 
ENDBRANCH  51  65
BRANCH  52  71
ATOM     71  C   UNL     1      -8.971   0.723   4.936  1.00  0.00    -0.014 A 
ATOM     72  C   UNL     1      -9.584  -0.533   4.797  1.00  0.00     0.009 A 
ATOM     73  C   UNL     1      -8.412   1.048   6.181  1.00  0.00     0.009 A 
ATOM     74  C   UNL     1      -9.633  -1.439   5.861  1.00  0.00     0.001 A 
ATOM     75  C   UNL     1      -8.436   0.132   7.239  1.00  0.00     0.001 A 
ATOM     76  C   UNL     1      -9.049  -1.109   7.079  1.00  0.00     0.000 A 
ENDBRANCH  52  71
BRANCH  64  77
ATOM     77  C   UNL     1     -14.045   3.779   1.248  1.00  0.00    -0.014 A 
ATOM     78  C   UNL     1     -14.783   4.293   2.326  1.00  0.00     0.009 A 
ATOM     79  C   UNL     1     -14.736   3.195   0.174  1.00  0.00     0.009 A 
ATOM     80  C   UNL     1     -16.176   4.190   2.345  1.00  0.00     0.001 A 
ATOM     81  C   UNL     1     -16.131   3.124   0.179  1.00  0.00     0.001 A 
ATOM     82  C   UNL     1     -16.849   3.612   1.269  1.00  0.00     0.000 A 
ENDBRANCH  64  77
ENDBRANCH  38  39
ENDBRANCH  31  33
ENDBRANCH  30  31
ENDBRANCH  29  30
ENDBRANCH  28  29
ENDBRANCH  27  28
ENDBRANCH  26  27
ENDBRANCH   1  26
TORSDOF 20
