REMARK SMILES COc1ccc(-n2cccn2)c(C[N@H+]2C[C@H]3C(=O)NC[C@]3(C(=O)OCCOCCOCCOC(=O)c3ccc(-c4c5nc(c(-c6ccccc6)c6ccc([nH]6)c(-c6ccccc6)c6nc(c(-c7ccccc7)c7ccc4[nH]7)C=C6)C=C5)cc3)C2)c1
REMARK SMILES IDX 28 1 27 2 26 3 25 4 24 5 22 6 23 7 21 8 14 9 15 10 84 11
REMARK SMILES IDX 16 13 17 14 20 15 18 16 19 17 13 19 12 20 3 21 4 22 85 23
REMARK SMILES IDX 5 24 6 25 2 26 1 27 7 28 8 29 11 30 9 31 10 32 29 33 30 34
REMARK SMILES IDX 31 35 32 36 33 37 34 38 35 39 36 40 37 41 83 42 38 43 82 44
REMARK SMILES IDX 39 45 40 46 41 47 76 48 42 49 81 50 75 51 77 52 43 53 80 54
REMARK SMILES IDX 74 55 73 56 44 58 66 59 51 60 65 61 52 62 55 63 64 64 78 65
REMARK SMILES IDX 53 66 54 67 63 69 79 70 56 71 45 72 46 73 50 74 47 75 49 76
REMARK SMILES IDX 48 77 67 78 68 79 72 80 69 81 71 82 70 83 57 84 58 85 62 86
REMARK SMILES IDX 59 87 61 88 60 89
REMARK H PARENT 14 12 19 18 77 57 55 68
REMARK Flexibility Score: inf
ROOT
ATOM      1  C   UNL     1       6.544  -8.733  -3.799  1.00  0.00     0.188 C 
ENDROOT
BRANCH   1   2
ATOM      2  O   UNL     1       6.771  -9.132  -5.148  1.00  0.00    -0.376 OA
BRANCH   2   3
ATOM      3  C   UNL     1       5.621  -9.649  -5.833  1.00  0.00     0.202 C 
BRANCH   3   4
ATOM      4  C   UNL     1       4.469  -8.653  -6.031  1.00  0.00     0.261 C 
BRANCH   4   5
ATOM      5  O   UNL     1       4.242  -8.022  -4.769  1.00  0.00    -0.463 OA
BRANCH   5   6
ATOM      6  C   UNL     1       3.123  -7.303  -4.562  1.00  0.00     0.320 C 
ATOM      7  O   UNL     1       2.187  -7.266  -5.349  1.00  0.00    -0.251 OA
BRANCH   6   8
ATOM      8  C   UNL     1       3.283  -6.603  -3.187  1.00  0.00     0.151 C 
ATOM      9  N   UNL     1       3.735  -4.125  -3.191  1.00  0.00    -0.329 N 
ATOM     10  C   UNL     1       3.484  -4.436  -1.808  1.00  0.00     0.277 C 
ATOM     11  C   UNL     1       3.244  -5.244  -3.986  1.00  0.00     0.284 C 
ATOM     12  H   UNL     1       4.744  -4.019  -3.297  1.00  0.00     0.348 HD
ATOM     13  C   UNL     1       2.968  -5.861  -1.840  1.00  0.00     0.158 C 
ATOM     14  C   UNL     1       1.475  -5.912  -1.600  1.00  0.00     0.230 C 
ATOM     15  C   UNL     1       2.213  -7.734  -2.714  1.00  0.00     0.141 C 
ATOM     16  O   UNL     1       0.766  -5.165  -0.962  1.00  0.00    -0.275 OA
ATOM     17  N   UNL     1       1.081  -7.090  -2.161  1.00  0.00    -0.354 N 
ATOM     18  H   UNL     1       0.159  -7.435  -2.180  1.00  0.00     0.163 HD
BRANCH   9  19
ATOM     19  C   UNL     1       3.321  -2.791  -3.682  1.00  0.00     0.301 C 
BRANCH  19  20
ATOM     20  C   UNL     1       1.867  -2.404  -3.413  1.00  0.00     0.036 A 
ATOM     21  C   UNL     1       0.313  -1.550  -1.724  1.00  0.00     0.119 A 
ATOM     22  C   UNL     1      -0.738  -2.192  -2.375  1.00  0.00     0.048 A 
ATOM     23  C   UNL     1       1.606  -1.667  -2.235  1.00  0.00     0.058 A 
ATOM     24  C   UNL     1      -0.523  -2.861  -3.581  1.00  0.00     0.033 A 
ATOM     25  C   UNL     1       0.764  -2.911  -4.135  1.00  0.00     0.074 A 
BRANCH  21  26
ATOM     26  O   UNL     1      -0.025  -0.903  -0.567  1.00  0.00    -0.497 OA
ATOM     27  C   UNL     1       0.857   0.134  -0.155  1.00  0.00     0.278 C 
ENDBRANCH  21  26
BRANCH  25  28
ATOM     28  N   UNL     1       0.912  -3.488  -5.423  1.00  0.00    -0.240 N 
ATOM     29  C   UNL     1       0.279  -4.618  -5.902  1.00  0.00     0.115 A 
ATOM     30  N   UNL     1       1.767  -2.973  -6.341  1.00  0.00    -0.177 NA
ATOM     31  C   UNL     1       0.804  -4.871  -7.147  1.00  0.00     0.042 A 
ATOM     32  C   UNL     1       1.676  -3.799  -7.383  1.00  0.00     0.135 A 
ENDBRANCH  25  28
ENDBRANCH  19  20
ENDBRANCH   9  19
ENDBRANCH   6   8
ENDBRANCH   5   6
ENDBRANCH   4   5
ENDBRANCH   3   4
ENDBRANCH   2   3
ENDBRANCH   1   2
BRANCH   1  33
ATOM     33  C   UNL     1       6.610  -7.209  -3.532  1.00  0.00     0.188 C 
BRANCH  33  34
ATOM     34  O   UNL     1       6.615  -6.241  -4.575  1.00  0.00    -0.376 OA
BRANCH  34  35
ATOM     35  C   UNL     1       7.312  -6.443  -5.798  1.00  0.00     0.202 C 
BRANCH  35  36
ATOM     36  C   UNL     1       8.828  -6.643  -5.808  1.00  0.00     0.261 C 
BRANCH  36  37
ATOM     37  O   UNL     1       9.288  -7.416  -4.715  1.00  0.00    -0.460 OA
BRANCH  37  38
ATOM     38  C   UNL     1       9.606  -6.673  -3.635  1.00  0.00     0.338 C 
ATOM     39  O   UNL     1       9.642  -5.459  -3.550  1.00  0.00    -0.246 OA
BRANCH  38  40
ATOM     40  C   UNL     1       9.850  -7.580  -2.502  1.00  0.00     0.060 A 
ATOM     41  C   UNL     1       9.998  -6.987  -1.246  1.00  0.00     0.016 A 
ATOM     42  C   UNL     1      10.036  -8.958  -2.697  1.00  0.00     0.016 A 
ATOM     43  C   UNL     1      10.594  -7.716  -0.245  1.00  0.00     0.010 A 
ATOM     44  C   UNL     1      10.625  -9.695  -1.695  1.00  0.00     0.010 A 
ATOM     45  C   UNL     1      11.021  -9.012  -0.545  1.00  0.00    -0.014 A 
BRANCH  45  46
ATOM     46  C   UNL     1      12.192  -9.467   0.174  1.00  0.00     0.031 A 
ATOM     47  C   UNL     1      11.995 -10.185   1.439  1.00  0.00     0.074 A 
ATOM     48  C   UNL     1      13.411  -9.260  -0.365  1.00  0.00     0.049 A 
ATOM     49  N   UNL     1      12.423  -9.846   2.608  1.00  0.00    -0.248 NA
ATOM     50  C   UNL     1      11.192 -11.412   1.407  1.00  0.00     0.031 C 
ATOM     51  C   UNL     1      13.720  -8.829  -1.736  1.00  0.00     0.029 A 
ATOM     52  N   UNL     1      14.636  -9.522   0.162  1.00  0.00    -0.354 N 
ATOM     53  C   UNL     1      12.089 -10.899   3.447  1.00  0.00     0.074 A 
ATOM     54  C   UNL     1      11.230 -11.776   2.688  1.00  0.00     0.031 C 
ATOM     55  C   UNL     1      15.014  -9.102  -2.000  1.00  0.00     0.029 A 
ATOM     56  C   UNL     1      15.638  -9.609  -0.790  1.00  0.00     0.049 A 
ATOM     57  H   UNL     1      14.795  -9.640   1.127  1.00  0.00     0.167 HD
ATOM     58  C   UNL     1      12.714 -11.098   4.637  1.00  0.00     0.031 A 
ATOM     59  C   UNL     1      16.861 -10.162  -0.621  1.00  0.00     0.031 A 
ATOM     60  C   UNL     1      13.420  -9.935   5.101  1.00  0.00     0.049 A 
ATOM     61  C   UNL     1      17.133 -10.236   0.834  1.00  0.00     0.074 A 
ATOM     62  C   UNL     1      13.063  -8.632   5.387  1.00  0.00     0.029 A 
ATOM     63  N   UNL     1      14.793  -9.939   5.027  1.00  0.00    -0.354 N 
ATOM     64  N   UNL     1      17.364  -9.198   1.585  1.00  0.00    -0.248 NA
ATOM     65  C   UNL     1      16.751 -11.446   1.548  1.00  0.00     0.031 C 
ATOM     66  C   UNL     1      14.189  -7.844   5.013  1.00  0.00     0.029 A 
ATOM     67  C   UNL     1      15.169  -8.715   4.535  1.00  0.00     0.049 A 
ATOM     68  H   UNL     1      15.391 -10.678   5.279  1.00  0.00     0.167 HD
ATOM     69  C   UNL     1      16.762  -9.494   2.800  1.00  0.00     0.074 A 
ATOM     70  C   UNL     1      16.512 -10.931   2.757  1.00  0.00     0.031 C 
ATOM     71  C   UNL     1      16.259  -8.510   3.605  1.00  0.00     0.031 A 
BRANCH  58  72
ATOM     72  C   UNL     1      12.959 -12.469   5.197  1.00  0.00    -0.014 A 
ATOM     73  C   UNL     1      13.407 -12.601   6.520  1.00  0.00     0.009 A 
ATOM     74  C   UNL     1      13.009 -13.620   4.385  1.00  0.00     0.009 A 
ATOM     75  C   UNL     1      13.906 -13.819   6.996  1.00  0.00     0.001 A 
ATOM     76  C   UNL     1      13.460 -14.848   4.870  1.00  0.00     0.001 A 
ATOM     77  C   UNL     1      13.930 -14.941   6.172  1.00  0.00     0.000 A 
ENDBRANCH  58  72
BRANCH  59  78
ATOM     78  C   UNL     1      17.664 -10.875  -1.638  1.00  0.00    -0.014 A 
ATOM     79  C   UNL     1      19.017 -11.158  -1.413  1.00  0.00     0.009 A 
ATOM     80  C   UNL     1      17.048 -11.477  -2.754  1.00  0.00     0.009 A 
ATOM     81  C   UNL     1      19.720 -12.024  -2.263  1.00  0.00     0.001 A 
ATOM     82  C   UNL     1      17.751 -12.327  -3.611  1.00  0.00     0.001 A 
ATOM     83  C   UNL     1      19.086 -12.610  -3.357  1.00  0.00     0.000 A 
ENDBRANCH  59  78
BRANCH  71  84
ATOM     84  C   UNL     1      16.605  -7.076   3.285  1.00  0.00    -0.014 A 
ATOM     85  C   UNL     1      16.283  -6.479   2.054  1.00  0.00     0.009 A 
ATOM     86  C   UNL     1      17.113  -6.258   4.306  1.00  0.00     0.009 A 
ATOM     87  C   UNL     1      16.498  -5.114   1.839  1.00  0.00     0.001 A 
ATOM     88  C   UNL     1      17.307  -4.889   4.099  1.00  0.00     0.001 A 
ATOM     89  C   UNL     1      17.005  -4.319   2.864  1.00  0.00     0.000 A 
ENDBRANCH  71  84
ENDBRANCH  45  46
ENDBRANCH  38  40
ENDBRANCH  37  38
ENDBRANCH  36  37
ENDBRANCH  35  36
ENDBRANCH  34  35
ENDBRANCH  33  34
ENDBRANCH   1  33
TORSDOF 21
