REMARK SMILES Cc1coc2cc3c(cc12)[C@@H](C)[C@H](CCC(=O)N[C@@H](Cc1c[nH]c2ccccc12)C(=O)OCCOCCOCCOC(=O)c1ccc(-c2c4nc(c(-c5ccccc5)c5ccc([nH]5)c(-c5ccccc5)c5nc(c(-c6ccccc6)c6ccc2[nH]6)C=C5)C=C4)cc1)C(=O)O3
REMARK SMILES IDX 36 1 35 2 34 3 33 4 32 5 30 6 31 7 19 8 18 9 16 10 17 11
REMARK SMILES IDX 15 13 14 14 13 15 1 16 2 17 3 18 10 19 4 20 5 21 9 22 6 23
REMARK SMILES IDX 8 24 7 25 11 26 94 27 12 28 92 29 93 30 20 31 21 32 22 33
REMARK SMILES IDX 29 34 23 35 24 36 28 37 25 39 27 40 26 41 37 42 38 43 39 44
REMARK SMILES IDX 40 45 41 46 42 47 43 48 44 49 45 50 91 51 46 52 90 53 47 54
REMARK SMILES IDX 48 55 49 56 84 57 50 58 89 59 83 60 85 61 51 62 88 63 82 64
REMARK SMILES IDX 81 65 52 67 74 68 59 69 73 70 60 71 63 72 72 73 86 74 61 75
REMARK SMILES IDX 62 76 71 78 87 79 64 80 53 81 54 82 58 83 55 84 57 85 56 86
REMARK SMILES IDX 75 87 76 88 80 89 77 90 79 91 78 92 65 93 66 94 70 95 67 96
REMARK SMILES IDX 69 97 68 98
REMARK H PARENT 18 12 23 38 85 66 63 77
REMARK Flexibility Score: inf
ROOT
ATOM      1  C   UNL     1      -4.301   3.084  10.832  1.00  0.00     0.188 C 
ENDROOT
BRANCH   1   2
ATOM      2  O   UNL     1      -3.844   3.571  12.063  1.00  0.00    -0.376 OA
BRANCH   2   3
ATOM      3  C   UNL     1      -2.458   3.628  12.272  1.00  0.00     0.202 C 
BRANCH   3   4
ATOM      4  C   UNL     1      -1.450   3.300  11.172  1.00  0.00     0.261 C 
BRANCH   4   5
ATOM      5  O   UNL     1      -1.750   3.703   9.816  1.00  0.00    -0.462 OA
BRANCH   5   6
ATOM      6  C   UNL     1      -1.961   2.662   8.967  1.00  0.00     0.329 C 
ATOM      7  O   UNL     1      -1.960   1.500   9.371  1.00  0.00    -0.250 OA
BRANCH   6   8
ATOM      8  C   UNL     1      -2.158   2.994   7.457  1.00  0.00     0.196 C 
BRANCH   8   9
ATOM      9  N   UNL     1      -2.746   4.295   7.032  1.00  0.00    -0.342 N 
ATOM     10  C   UNL     1      -3.885   4.640   6.334  1.00  0.00     0.220 C 
ATOM     11  O   UNL     1      -4.165   5.824   6.145  1.00  0.00    -0.275 OA
ATOM     12  H   UNL     1      -2.209   5.073   7.307  1.00  0.00     0.164 HD
BRANCH  10  13
ATOM     13  C   UNL     1      -4.824   3.592   5.768  1.00  0.00     0.101 C 
BRANCH  13  14
ATOM     14  C   UNL     1      -4.847   3.311   4.273  1.00  0.00     0.026 C 
BRANCH  14  15
ATOM     15  C   UNL     1      -3.453   2.949   3.843  1.00  0.00     0.107 C 
ATOM     16  C   UNL     1       1.010  -1.530   0.727  1.00  0.00     0.048 C 
ATOM     17  C   UNL     1       0.818   0.539   1.139  1.00  0.00    -0.005 A 
ATOM     18  C   UNL     1       1.825   1.610   1.455  1.00  0.00     0.199 A 
ATOM     19  C   UNL     1      -0.391   1.661   1.060  1.00  0.00     0.024 A 
ATOM     20  O   UNL     1       1.423   2.875   1.574  1.00  0.00    -0.464 OA
ATOM     21  C   UNL     1       0.111   2.918   1.394  1.00  0.00     0.137 A 
ATOM     22  C   UNL     1      -1.784   1.664   0.778  1.00  0.00     0.020 A 
ATOM     23  C   UNL     1      -0.624   4.085   1.582  1.00  0.00     0.095 A 
ATOM     24  C   UNL     1      -2.501   2.579   1.538  1.00  0.00    -0.001 A 
ATOM     25  C   UNL     1      -1.973   3.842   1.758  1.00  0.00     0.138 A 
ATOM     26  C   UNL     1      -3.456   2.049   2.590  1.00  0.00     0.034 C 
ATOM     27  O   UNL     1      -2.717   4.754   2.465  1.00  0.00    -0.426 OA
ATOM     28  C   UNL     1      -2.939   0.737   3.154  1.00  0.00     0.014 C 
ATOM     29  C   UNL     1      -2.571   4.173   3.682  1.00  0.00     0.314 C 
ATOM     30  O   UNL     1      -1.777   4.579   4.518  1.00  0.00    -0.251 OA
ENDBRANCH  14  15
ENDBRANCH  13  14
ENDBRANCH  10  13
ENDBRANCH   8   9
BRANCH   8  31
ATOM     31  C   UNL     1      -0.821   2.629   6.779  1.00  0.00     0.074 C 
BRANCH  31  32
ATOM     32  C   UNL     1       0.344   3.477   7.106  1.00  0.00    -0.020 A 
ATOM     33  C   UNL     1       0.933   4.405   6.282  1.00  0.00     0.087 A 
ATOM     34  C   UNL     1       1.113   3.432   8.310  1.00  0.00     0.003 A 
ATOM     35  N   UNL     1       1.871   5.069   7.018  1.00  0.00    -0.361 N 
ATOM     36  C   UNL     1       1.914   4.567   8.298  1.00  0.00     0.046 A 
ATOM     37  C   UNL     1       1.146   2.592   9.444  1.00  0.00     0.010 A 
ATOM     38  H   UNL     1       2.435   5.802   6.681  1.00  0.00     0.166 HD
ATOM     39  C   UNL     1       2.589   5.013   9.436  1.00  0.00     0.026 A 
ATOM     40  C   UNL     1       1.820   3.019  10.591  1.00  0.00     0.001 A 
ATOM     41  C   UNL     1       2.485   4.241  10.598  1.00  0.00     0.002 A 
ENDBRANCH  31  32
ENDBRANCH   8  31
ENDBRANCH   6   8
ENDBRANCH   5   6
ENDBRANCH   4   5
ENDBRANCH   3   4
ENDBRANCH   2   3
ENDBRANCH   1   2
BRANCH   1  42
ATOM     42  C   UNL     1      -4.454   4.105   9.680  1.00  0.00     0.188 C 
BRANCH  42  43
ATOM     43  O   UNL     1      -3.979   5.409   9.903  1.00  0.00    -0.376 OA
BRANCH  43  44
ATOM     44  C   UNL     1      -4.676   6.056  10.964  1.00  0.00     0.202 C 
BRANCH  44  45
ATOM     45  C   UNL     1      -6.219   5.779  11.128  1.00  0.00     0.261 C 
BRANCH  45  46
ATOM     46  O   UNL     1      -6.662   4.357  11.085  1.00  0.00    -0.460 OA
BRANCH  46  47
ATOM     47  C   UNL     1      -7.553   3.923  10.121  1.00  0.00     0.338 C 
ATOM     48  O   UNL     1      -8.345   4.676   9.569  1.00  0.00    -0.246 OA
BRANCH  47  49
ATOM     49  C   UNL     1      -7.162   2.547   9.476  1.00  0.00     0.060 A 
ATOM     50  C   UNL     1      -6.663   1.365  10.059  1.00  0.00     0.016 A 
ATOM     51  C   UNL     1      -7.048   2.560   8.099  1.00  0.00     0.016 A 
ATOM     52  C   UNL     1      -5.769   0.432   9.333  1.00  0.00     0.010 A 
ATOM     53  C   UNL     1      -6.249   1.598   7.415  1.00  0.00     0.010 A 
ATOM     54  C   UNL     1      -5.398   0.623   7.991  1.00  0.00    -0.014 A 
BRANCH  54  55
ATOM     55  C   UNL     1      -4.543  -0.263   6.969  1.00  0.00     0.031 A 
ATOM     56  C   UNL     1      -5.520  -1.127   6.273  1.00  0.00     0.074 A 
ATOM     57  C   UNL     1      -3.239  -0.535   6.529  1.00  0.00     0.049 A 
ATOM     58  N   UNL     1      -5.821  -2.298   6.727  1.00  0.00    -0.248 NA
ATOM     59  C   UNL     1      -6.419  -0.625   5.233  1.00  0.00     0.031 C 
ATOM     60  C   UNL     1      -1.941  -0.222   7.101  1.00  0.00     0.029 A 
ATOM     61  N   UNL     1      -2.761  -1.212   5.348  1.00  0.00    -0.354 N 
ATOM     62  C   UNL     1      -6.829  -2.755   5.910  1.00  0.00     0.074 A 
ATOM     63  C   UNL     1      -7.335  -1.595   5.226  1.00  0.00     0.031 C 
ATOM     64  C   UNL     1      -0.901  -0.430   6.246  1.00  0.00     0.029 A 
ATOM     65  C   UNL     1      -1.368  -0.910   4.946  1.00  0.00     0.049 A 
ATOM     66  H   UNL     1      -3.326  -1.837   4.839  1.00  0.00     0.167 HD
ATOM     67  C   UNL     1      -6.964  -4.081   5.652  1.00  0.00     0.031 A 
ATOM     68  C   UNL     1      -0.449  -1.523   4.075  1.00  0.00     0.031 A 
ATOM     69  C   UNL     1      -6.047  -4.858   6.457  1.00  0.00     0.049 A 
ATOM     70  C   UNL     1      -0.869  -2.953   4.221  1.00  0.00     0.074 A 
ATOM     71  C   UNL     1      -5.940  -5.162   7.797  1.00  0.00     0.029 A 
ATOM     72  N   UNL     1      -4.806  -5.063   5.893  1.00  0.00    -0.354 N 
ATOM     73  N   UNL     1      -0.750  -3.616   5.346  1.00  0.00    -0.248 NA
ATOM     74  C   UNL     1      -1.832  -3.518   3.288  1.00  0.00     0.031 C 
ATOM     75  C   UNL     1      -4.543  -5.264   8.059  1.00  0.00     0.029 A 
ATOM     76  C   UNL     1      -3.838  -5.089   6.866  1.00  0.00     0.049 A 
ATOM     77  H   UNL     1      -4.638  -5.175   4.929  1.00  0.00     0.167 HD
ATOM     78  C   UNL     1      -1.891  -4.406   5.433  1.00  0.00     0.074 A 
ATOM     79  C   UNL     1      -2.450  -4.395   4.085  1.00  0.00     0.031 C 
ATOM     80  C   UNL     1      -2.438  -4.760   6.637  1.00  0.00     0.031 A 
BRANCH  67  81
ATOM     81  C   UNL     1      -7.604  -4.635   4.411  1.00  0.00    -0.014 A 
ATOM     82  C   UNL     1      -7.912  -3.875   3.267  1.00  0.00     0.009 A 
ATOM     83  C   UNL     1      -7.726  -6.028   4.291  1.00  0.00     0.009 A 
ATOM     84  C   UNL     1      -8.323  -4.462   2.070  1.00  0.00     0.001 A 
ATOM     85  C   UNL     1      -8.101  -6.625   3.082  1.00  0.00     0.001 A 
ATOM     86  C   UNL     1      -8.399  -5.841   1.972  1.00  0.00     0.000 A 
ENDBRANCH  67  81
BRANCH  68  87
ATOM     87  C   UNL     1       0.197  -0.984   2.652  1.00  0.00    -0.014 A 
ATOM     88  C   UNL     1      -0.848  -0.860   1.175  1.00  0.00     0.009 A 
ATOM     89  C   UNL     1       2.000  -0.777   2.380  1.00  0.00     0.009 A 
ATOM     90  C   UNL     1      -0.186  -0.400  -0.492  1.00  0.00     0.001 A 
ATOM     91  C   UNL     1       2.711  -0.418   0.712  1.00  0.00     0.001 A 
ATOM     92  C   UNL     1       1.594  -0.155  -0.715  1.00  0.00     0.000 A 
ENDBRANCH  68  87
BRANCH  80  93
ATOM     93  C   UNL     1      -1.613  -4.565   7.890  1.00  0.00    -0.014 A 
ATOM     94  C   UNL     1      -1.147  -5.674   8.604  1.00  0.00     0.009 A 
ATOM     95  C   UNL     1      -1.510  -3.311   8.506  1.00  0.00     0.009 A 
ATOM     96  C   UNL     1      -0.585  -5.520   9.880  1.00  0.00     0.001 A 
ATOM     97  C   UNL     1      -0.914  -3.141   9.760  1.00  0.00     0.001 A 
ATOM     98  C   UNL     1      -0.455  -4.254  10.452  1.00  0.00     0.000 A 
ENDBRANCH  80  93
ENDBRANCH  54  55
ENDBRANCH  47  49
ENDBRANCH  46  47
ENDBRANCH  45  46
ENDBRANCH  44  45
ENDBRANCH  43  44
ENDBRANCH  42  43
ENDBRANCH   1  42
TORSDOF 23
