REMARK SMILES O=C(OCCOCCOCCOC(=O)c1cc(NC(=O)c2ccccc2Cl)ccc1N1CCC[C@H](C[NH+]2CCCC2)C1)c1ccc(-c2c3nc(c(-c4ccccc4)c4ccc([nH]4)c(-c4ccccc4)c4nc(c(-c5ccccc5)c5ccc2[nH]5)C=C4)C=C3)cc1
REMARK SMILES IDX 8 1 7 2 6 3 5 4 4 5 3 6 2 7 1 8 43 9 44 10 90 11 45 12 89 13
REMARK SMILES IDX 46 14 47 15 48 16 83 17 49 18 88 19 82 20 84 21 50 22 87 23
REMARK SMILES IDX 81 24 80 25 51 27 73 28 58 29 72 30 59 31 62 32 71 33 85 34
REMARK SMILES IDX 60 35 61 36 70 38 86 39 63 40 52 41 53 42 57 43 54 44 56 45
REMARK SMILES IDX 55 46 74 47 75 48 79 49 76 50 78 51 77 52 64 53 65 54 69 55
REMARK SMILES IDX 66 56 68 57 67 58 9 59 10 60 11 61 12 62 13 63 14 64 15 65
REMARK SMILES IDX 16 66 30 67 17 68 29 69 28 70 31 71 32 72 42 73 33 74 35 75
REMARK SMILES IDX 34 76 36 77 37 78 38 79 41 80 39 82 40 83 18 84 19 85 20 87
REMARK SMILES IDX 21 88 22 89 26 90 23 91 25 92 27 93 24 94
REMARK H PARENT 84 26 62 37 37 81 18 86
REMARK Flexibility Score: inf
ROOT
ATOM      1  C   UNL     1       2.410  -3.020  -0.578  1.00  0.00     0.188 C 
ENDROOT
BRANCH   1   2
ATOM      2  C   UNL     1       3.017  -1.683  -0.142  1.00  0.00     0.188 C 
BRANCH   2   3
ATOM      3  O   UNL     1       4.406  -1.502  -0.419  1.00  0.00    -0.376 OA
BRANCH   3   4
ATOM      4  C   UNL     1       5.228  -1.593   0.750  1.00  0.00     0.202 C 
BRANCH   4   5
ATOM      5  C   UNL     1       5.310  -0.286   1.550  1.00  0.00     0.261 C 
BRANCH   5   6
ATOM      6  O   UNL     1       4.014   0.302   1.732  1.00  0.00    -0.460 OA
BRANCH   6   7
ATOM      7  C   UNL     1       3.625   1.507   1.263  1.00  0.00     0.338 C 
ATOM      8  O   UNL     1       2.874   2.189   1.958  1.00  0.00    -0.246 OA
BRANCH   7   9
ATOM      9  C   UNL     1       3.932   1.985  -0.130  1.00  0.00     0.060 A 
ATOM     10  C   UNL     1       4.854   1.431  -1.024  1.00  0.00     0.016 A 
ATOM     11  C   UNL     1       3.210   3.111  -0.562  1.00  0.00     0.016 A 
ATOM     12  C   UNL     1       5.116   2.018  -2.266  1.00  0.00     0.010 A 
ATOM     13  C   UNL     1       3.442   3.687  -1.813  1.00  0.00     0.010 A 
ATOM     14  C   UNL     1       4.441   3.175  -2.647  1.00  0.00    -0.014 A 
BRANCH  14  15
ATOM     15  C   UNL     1       4.971   4.017  -3.740  1.00  0.00     0.031 A 
ATOM     16  C   UNL     1       5.674   5.282  -3.343  1.00  0.00     0.074 A 
ATOM     17  C   UNL     1       4.876   3.673  -5.034  1.00  0.00     0.049 A 
ATOM     18  N   UNL     1       6.085   6.275  -4.083  1.00  0.00    -0.248 NA
ATOM     19  C   UNL     1       5.923   5.455  -1.901  1.00  0.00     0.031 C 
ATOM     20  C   UNL     1       4.298   2.432  -5.538  1.00  0.00     0.029 A 
ATOM     21  N   UNL     1       5.271   4.348  -6.162  1.00  0.00    -0.354 N 
ATOM     22  C   UNL     1       6.575   7.216  -3.190  1.00  0.00     0.074 A 
ATOM     23  C   UNL     1       6.391   6.689  -1.858  1.00  0.00     0.031 C 
ATOM     24  C   UNL     1       4.382   2.436  -6.880  1.00  0.00     0.029 A 
ATOM     25  C   UNL     1       4.959   3.695  -7.327  1.00  0.00     0.049 A 
ATOM     26  H   UNL     1       5.734   5.217  -6.137  1.00  0.00     0.167 HD
ATOM     27  C   UNL     1       7.136   8.418  -3.455  1.00  0.00     0.031 A 
ATOM     28  C   UNL     1       5.093   4.077  -8.612  1.00  0.00     0.031 A 
ATOM     29  C   UNL     1       7.343   8.916  -4.782  1.00  0.00     0.049 A 
ATOM     30  C   UNL     1       5.694   5.424  -8.898  1.00  0.00     0.074 A 
ATOM     31  C   UNL     1       7.896  10.117  -5.180  1.00  0.00     0.029 A 
ATOM     32  N   UNL     1       7.009   8.219  -5.935  1.00  0.00    -0.354 N 
ATOM     33  N   UNL     1       6.126   6.325  -8.048  1.00  0.00    -0.248 NA
ATOM     34  C   UNL     1       5.831   5.808 -10.309  1.00  0.00     0.031 C 
ATOM     35  C   UNL     1       7.873  10.157  -6.579  1.00  0.00     0.029 A 
ATOM     36  C   UNL     1       7.344   8.963  -7.049  1.00  0.00     0.049 A 
ATOM     37  H   UNL     1       6.595   7.325  -5.955  1.00  0.00     0.167 HD
ATOM     38  C   UNL     1       6.610   7.373  -8.818  1.00  0.00     0.074 A 
ATOM     39  C   UNL     1       6.422   6.992 -10.205  1.00  0.00     0.031 C 
ATOM     40  C   UNL     1       7.162   8.543  -8.415  1.00  0.00     0.031 A 
BRANCH  27  41
ATOM     41  C   UNL     1       7.483   9.262  -2.264  1.00  0.00    -0.014 A 
ATOM     42  C   UNL     1       8.529   8.911  -1.393  1.00  0.00     0.009 A 
ATOM     43  C   UNL     1       6.676  10.365  -1.948  1.00  0.00     0.009 A 
ATOM     44  C   UNL     1       8.709   9.602  -0.193  1.00  0.00     0.001 A 
ATOM     45  C   UNL     1       6.881  11.075  -0.764  1.00  0.00     0.001 A 
ATOM     46  C   UNL     1       7.883  10.680   0.122  1.00  0.00     0.000 A 
ENDBRANCH  27  41
BRANCH  28  47
ATOM     47  C   UNL     1       4.628   3.181  -9.705  1.00  0.00    -0.014 A 
ATOM     48  C   UNL     1       5.547   2.519 -10.534  1.00  0.00     0.009 A 
ATOM     49  C   UNL     1       3.256   2.952  -9.902  1.00  0.00     0.009 A 
ATOM     50  C   UNL     1       5.101   1.658 -11.542  1.00  0.00     0.001 A 
ATOM     51  C   UNL     1       2.814   2.071 -10.893  1.00  0.00     0.001 A 
ATOM     52  C   UNL     1       3.737   1.428 -11.715  1.00  0.00     0.000 A 
ENDBRANCH  28  47
BRANCH  40  53
ATOM     53  C   UNL     1       7.655   9.474  -9.480  1.00  0.00    -0.014 A 
ATOM     54  C   UNL     1       6.769  10.282 -10.205  1.00  0.00     0.009 A 
ATOM     55  C   UNL     1       9.037   9.614  -9.681  1.00  0.00     0.009 A 
ATOM     56  C   UNL     1       7.261  11.211 -11.123  1.00  0.00     0.001 A 
ATOM     57  C   UNL     1       9.526  10.558 -10.583  1.00  0.00     0.001 A 
ATOM     58  C   UNL     1       8.637  11.354 -11.304  1.00  0.00     0.000 A 
ENDBRANCH  40  53
ENDBRANCH  14  15
ENDBRANCH   7   9
ENDBRANCH   6   7
ENDBRANCH   5   6
ENDBRANCH   4   5
ENDBRANCH   3   4
ENDBRANCH   2   3
ENDBRANCH   1   2
BRANCH   1  59
ATOM     59  O   UNL     1       3.215  -4.184  -0.482  1.00  0.00    -0.376 OA
BRANCH  59  60
ATOM     60  C   UNL     1       4.377  -4.260  -1.301  1.00  0.00     0.202 C 
BRANCH  60  61
ATOM     61  C   UNL     1       4.233  -4.128  -2.819  1.00  0.00     0.261 C 
BRANCH  61  62
ATOM     62  O   UNL     1       3.701  -2.880  -3.295  1.00  0.00    -0.460 OA
BRANCH  62  63
ATOM     63  C   UNL     1       2.486  -2.982  -3.894  1.00  0.00     0.340 C 
ATOM     64  O   UNL     1       1.713  -3.925  -3.820  1.00  0.00    -0.246 OA
BRANCH  63  65
ATOM     65  C   UNL     1       2.172  -1.801  -4.715  1.00  0.00     0.085 A 
ATOM     66  C   UNL     1       0.968  -1.131  -4.413  1.00  0.00     0.044 A 
ATOM     67  C   UNL     1       2.938  -1.488  -5.853  1.00  0.00     0.051 A 
ATOM     68  C   UNL     1       0.492  -0.124  -5.248  1.00  0.00     0.042 A 
ATOM     69  C   UNL     1       2.427  -0.481  -6.681  1.00  0.00     0.029 A 
ATOM     70  C   UNL     1       1.231   0.189  -6.390  1.00  0.00     0.028 A 
BRANCH  67  71
ATOM     71  N   UNL     1       4.073  -2.169  -6.248  1.00  0.00    -0.370 N 
ATOM     72  C   UNL     1       5.328  -1.480  -6.539  1.00  0.00     0.116 C 
ATOM     73  C   UNL     1       4.071  -3.624  -6.349  1.00  0.00     0.126 C 
ATOM     74  C   UNL     1       5.873  -1.916  -7.901  1.00  0.00     0.022 C 
ATOM     75  C   UNL     1       4.465  -4.042  -7.770  1.00  0.00     0.064 C 
ATOM     76  C   UNL     1       5.848  -3.438  -8.072  1.00  0.00     0.013 C 
BRANCH  75  77
ATOM     77  C   UNL     1       3.328  -3.644  -8.747  1.00  0.00     0.267 C 
BRANCH  77  78
ATOM     78  N   UNL     1       3.189  -4.344 -10.025  1.00  0.00    -0.335 N 
ATOM     79  C   UNL     1       2.948  -5.780  -9.914  1.00  0.00     0.262 C 
ATOM     80  C   UNL     1       4.257  -4.148 -10.994  1.00  0.00     0.262 C 
ATOM     81  H   UNL     1       2.354  -3.878 -10.381  1.00  0.00     0.348 HD
ATOM     82  C   UNL     1       4.284  -6.442 -10.191  1.00  0.00     0.067 C 
ATOM     83  C   UNL     1       5.022  -5.462 -11.086  1.00  0.00     0.067 C 
ENDBRANCH  77  78
ENDBRANCH  75  77
ENDBRANCH  67  71
BRANCH  68  84
ATOM     84  N   UNL     1      -0.740   0.539  -5.090  1.00  0.00    -0.322 N 
ATOM     85  C   UNL     1      -1.616   0.637  -4.034  1.00  0.00     0.257 C 
ATOM     86  H   UNL     1      -1.032   1.028  -5.893  1.00  0.00     0.170 HD
ATOM     87  O   UNL     1      -2.761   1.050  -4.212  1.00  0.00    -0.269 OA
BRANCH  85  88
ATOM     88  C   UNL     1      -1.195   0.337  -2.658  1.00  0.00     0.058 A 
ATOM     89  C   UNL     1      -1.860  -0.683  -1.967  1.00  0.00     0.015 A 
ATOM     90  C   UNL     1      -0.212   1.095  -2.018  1.00  0.00     0.053 A 
ATOM     91  C   UNL     1      -1.483  -0.996  -0.660  1.00  0.00     0.001 A 
ATOM     92  C   UNL     1       0.157   0.778  -0.709  1.00  0.00     0.021 A 
ATOM     93  Cl  UNL     1       0.524   2.457  -2.775  1.00  0.00    -0.083 Cl
ATOM     94  C   UNL     1      -0.466  -0.275  -0.036  1.00  0.00     0.002 A 
ENDBRANCH  85  88
ENDBRANCH  68  84
ENDBRANCH  63  65
ENDBRANCH  62  63
ENDBRANCH  61  62
ENDBRANCH  60  61
ENDBRANCH  59  60
ENDBRANCH   1  59
TORSDOF 22
