REMARK SMILES NS(=O)(=O)c1ccc(-n2nc(C(F)F)cc2-c2ccc(C(=O)OCCOCCOCCOC(=O)c3ccc(-c4c5nc(c(-c6ccccc6)c6ccc([nH]6)c(-c6ccccc6)c6nc(c(-c7ccccc7)c7ccc4[nH]7)C=C6)C=C5)cc3)cc2)cc1
REMARK SMILES IDX 27 1 26 2 25 3 24 4 23 5 21 6 22 7 20 8 17 9 18 10 84 11
REMARK SMILES IDX 19 12 83 13 16 14 9 15 10 16 11 17 15 18 8 19 5 20 6 21
REMARK SMILES IDX 86 22 7 23 85 24 2 25 3 26 4 27 1 28 12 31 13 32 14 33 28 34
REMARK SMILES IDX 29 35 30 36 31 37 32 38 33 39 34 40 35 41 36 42 82 43 37 44
REMARK SMILES IDX 81 45 38 46 39 47 40 48 75 49 41 50 80 51 74 52 76 53 42 54
REMARK SMILES IDX 79 55 73 56 72 57 43 59 65 60 50 61 64 62 51 63 54 64 63 65
REMARK SMILES IDX 77 66 52 67 53 68 62 70 78 71 55 72 44 73 45 74 49 75 46 76
REMARK SMILES IDX 48 77 47 78 66 79 67 80 71 81 68 82 70 83 69 84 56 85 57 86
REMARK SMILES IDX 61 87 58 88 60 89 59 90
REMARK H PARENT 1 29 1 30 76 58 54 69
REMARK Flexibility Score: inf
ROOT
ATOM      1  C   UNL     1       1.774   0.729  -9.358  1.00  0.00     0.188 C 
ENDROOT
BRANCH   1   2
ATOM      2  O   UNL     1       1.998   0.134 -10.614  1.00  0.00    -0.376 OA
BRANCH   2   3
ATOM      3  C   UNL     1       2.137   0.939 -11.773  1.00  0.00     0.202 C 
BRANCH   3   4
ATOM      4  C   UNL     1       2.503   2.441 -11.787  1.00  0.00     0.261 C 
BRANCH   4   5
ATOM      5  O   UNL     1       2.727   3.094 -10.535  1.00  0.00    -0.460 OA
BRANCH   5   6
ATOM      6  C   UNL     1       1.719   3.880 -10.087  1.00  0.00     0.338 C 
ATOM      7  O   UNL     1       0.652   4.081 -10.641  1.00  0.00    -0.246 OA
BRANCH   6   8
ATOM      8  C   UNL     1       2.010   4.328  -8.705  1.00  0.00     0.060 A 
ATOM      9  C   UNL     1       2.414   5.266  -6.090  1.00  0.00     0.000 A 
ATOM     10  C   UNL     1       1.168   4.750  -6.472  1.00  0.00     0.011 A 
ATOM     11  C   UNL     1       3.474   5.240  -7.010  1.00  0.00     0.011 A 
ATOM     12  C   UNL     1       0.964   4.292  -7.775  1.00  0.00     0.016 A 
ATOM     13  C   UNL     1       3.278   4.765  -8.312  1.00  0.00     0.016 A 
BRANCH   9  14
ATOM     14  C   UNL     1       2.547   6.001  -4.830  1.00  0.00     0.075 A 
ATOM     15  N   UNL     1       2.101   5.610  -3.571  1.00  0.00    -0.233 N 
ATOM     16  N   UNL     1       1.990   6.670  -2.728  1.00  0.00    -0.166 NA
ATOM     17  C   UNL     1       2.562   7.697  -3.376  1.00  0.00     0.129 A 
ATOM     18  C   UNL     1       2.912   7.328  -4.692  1.00  0.00     0.060 A 
BRANCH  15  19
ATOM     19  C   UNL     1       1.773   4.307  -3.111  1.00  0.00     0.065 A 
ATOM     20  C   UNL     1       1.077   1.756  -2.234  1.00  0.00     0.082 A 
ATOM     21  C   UNL     1       2.151   1.916  -3.115  1.00  0.00     0.024 A 
ATOM     22  C   UNL     1       0.360   2.864  -1.772  1.00  0.00     0.024 A 
ATOM     23  C   UNL     1       2.491   3.193  -3.567  1.00  0.00     0.030 A 
ATOM     24  C   UNL     1       0.731   4.146  -2.185  1.00  0.00     0.030 A 
BRANCH  20  25
ATOM     25  S   UNL     1       0.567   0.125  -1.769  1.00  0.00     0.238 S 
ATOM     26  O   UNL     1       1.233  -0.837  -2.613  1.00  0.00    -0.207 OA
ATOM     27  O   UNL     1      -0.867   0.124  -1.577  1.00  0.00    -0.207 OA
BRANCH  25  28
ATOM     28  N   UNL     1       1.246  -0.043  -0.245  1.00  0.00    -0.225 NA
ATOM     29  H   UNL     1       1.015  -0.963   0.131  1.00  0.00     0.137 HD
ATOM     30  H   UNL     1       0.876   0.679   0.373  1.00  0.00     0.137 HD
ENDBRANCH  25  28
ENDBRANCH  20  25
ENDBRANCH  15  19
BRANCH  17  31
ATOM     31  C   UNL     1       2.739   9.055  -2.765  1.00  0.00     0.393 C 
ATOM     32  F   UNL     1       1.688   9.424  -1.983  1.00  0.00    -0.203 F 
ATOM     33  F   UNL     1       3.849   9.105  -1.978  1.00  0.00    -0.203 F 
ENDBRANCH  17  31
ENDBRANCH   9  14
ENDBRANCH   6   8
ENDBRANCH   5   6
ENDBRANCH   4   5
ENDBRANCH   3   4
ENDBRANCH   2   3
ENDBRANCH   1   2
BRANCH   1  34
ATOM     34  C   UNL     1       3.042   0.994  -8.519  1.00  0.00     0.188 C 
BRANCH  34  35
ATOM     35  O   UNL     1       4.332   1.113  -9.102  1.00  0.00    -0.376 OA
BRANCH  35  36
ATOM     36  C   UNL     1       4.873   0.151  -9.995  1.00  0.00     0.202 C 
BRANCH  36  37
ATOM     37  C   UNL     1       4.738  -1.356  -9.793  1.00  0.00     0.261 C 
BRANCH  37  38
ATOM     38  O   UNL     1       3.505  -1.771  -9.250  1.00  0.00    -0.460 OA
BRANCH  38  39
ATOM     39  C   UNL     1       3.534  -1.932  -7.913  1.00  0.00     0.338 C 
ATOM     40  O   UNL     1       4.431  -1.627  -7.146  1.00  0.00    -0.246 OA
BRANCH  39  41
ATOM     41  C   UNL     1       2.327  -2.651  -7.510  1.00  0.00     0.060 A 
ATOM     42  C   UNL     1       2.125  -2.784  -6.136  1.00  0.00     0.016 A 
ATOM     43  C   UNL     1       1.696  -3.474  -8.453  1.00  0.00     0.016 A 
ATOM     44  C   UNL     1       1.526  -3.935  -5.692  1.00  0.00     0.010 A 
ATOM     45  C   UNL     1       1.123  -4.636  -8.009  1.00  0.00     0.010 A 
ATOM     46  C   UNL     1       1.150  -4.891  -6.641  1.00  0.00    -0.014 A 
BRANCH  46  47
ATOM     47  C   UNL     1       0.755  -6.189  -6.159  1.00  0.00     0.031 A 
ATOM     48  C   UNL     1      -0.617  -6.213  -5.629  1.00  0.00     0.074 A 
ATOM     49  C   UNL     1       1.548  -7.267  -6.283  1.00  0.00     0.049 A 
ATOM     50  N   UNL     1      -0.982  -6.399  -4.407  1.00  0.00    -0.248 NA
ATOM     51  C   UNL     1      -1.701  -5.819  -6.543  1.00  0.00     0.031 C 
ATOM     52  C   UNL     1       2.792  -7.399  -7.046  1.00  0.00     0.029 A 
ATOM     53  N   UNL     1       1.322  -8.530  -5.841  1.00  0.00    -0.354 N 
ATOM     54  C   UNL     1      -2.367  -6.331  -4.427  1.00  0.00     0.074 A 
ATOM     55  C   UNL     1      -2.736  -5.783  -5.707  1.00  0.00     0.031 C 
ATOM     56  C   UNL     1       3.063  -8.714  -7.218  1.00  0.00     0.029 A 
ATOM     57  C   UNL     1       2.087  -9.496  -6.476  1.00  0.00     0.049 A 
ATOM     58  H   UNL     1       0.672  -8.742  -5.132  1.00  0.00     0.167 HD
ATOM     59  C   UNL     1      -3.114  -6.999  -3.510  1.00  0.00     0.031 A 
ATOM     60  C   UNL     1       1.850 -10.831  -6.460  1.00  0.00     0.031 A 
ATOM     61  C   UNL     1      -2.340  -7.371  -2.353  1.00  0.00     0.049 A 
ATOM     62  C   UNL     1       0.951 -11.113  -5.314  1.00  0.00     0.074 A 
ATOM     63  C   UNL     1      -1.603  -6.673  -1.416  1.00  0.00     0.029 A 
ATOM     64  N   UNL     1      -1.924  -8.678  -2.266  1.00  0.00    -0.354 N 
ATOM     65  N   UNL     1       1.315 -11.003  -4.069  1.00  0.00    -0.248 NA
ATOM     66  C   UNL     1      -0.486 -11.088  -5.545  1.00  0.00     0.031 C 
ATOM     67  C   UNL     1      -0.470  -7.496  -1.149  1.00  0.00     0.029 A 
ATOM     68  C   UNL     1      -0.605  -8.670  -1.893  1.00  0.00     0.049 A 
ATOM     69  H   UNL     1      -2.474  -9.476  -2.441  1.00  0.00     0.167 HD
ATOM     70  C   UNL     1       0.215 -10.452  -3.426  1.00  0.00     0.074 A 
ATOM     71  C   UNL     1      -0.897 -10.630  -4.358  1.00  0.00     0.031 C 
ATOM     72  C   UNL     1       0.367  -9.646  -2.333  1.00  0.00     0.031 A 
BRANCH  59  73
ATOM     73  C   UNL     1      -4.399  -7.691  -3.882  1.00  0.00    -0.014 A 
ATOM     74  C   UNL     1      -5.134  -8.330  -2.872  1.00  0.00     0.009 A 
ATOM     75  C   UNL     1      -4.763  -7.983  -5.213  1.00  0.00     0.009 A 
ATOM     76  C   UNL     1      -6.126  -9.267  -3.182  1.00  0.00     0.001 A 
ATOM     77  C   UNL     1      -5.782  -8.882  -5.526  1.00  0.00     0.001 A 
ATOM     78  C   UNL     1      -6.444  -9.548  -4.507  1.00  0.00     0.000 A 
ENDBRANCH  59  73
BRANCH  60  79
ATOM     79  C   UNL     1       2.071 -11.813  -7.545  1.00  0.00    -0.014 A 
ATOM     80  C   UNL     1       1.974 -13.190  -7.289  1.00  0.00     0.009 A 
ATOM     81  C   UNL     1       2.107 -11.401  -8.890  1.00  0.00     0.009 A 
ATOM     82  C   UNL     1       1.865 -14.113  -8.338  1.00  0.00     0.001 A 
ATOM     83  C   UNL     1       2.007 -12.322  -9.938  1.00  0.00     0.001 A 
ATOM     84  C   UNL     1       1.867 -13.677  -9.661  1.00  0.00     0.000 A 
ENDBRANCH  60  79
BRANCH  72  85
ATOM     85  C   UNL     1       1.735  -9.566  -1.700  1.00  0.00    -0.014 A 
ATOM     86  C   UNL     1       2.873  -9.107  -2.388  1.00  0.00     0.009 A 
ATOM     87  C   UNL     1       1.847  -9.816  -0.325  1.00  0.00     0.009 A 
ATOM     88  C   UNL     1       4.093  -8.938  -1.724  1.00  0.00     0.001 A 
ATOM     89  C   UNL     1       3.059  -9.627   0.342  1.00  0.00     0.001 A 
ATOM     90  C   UNL     1       4.183  -9.194  -0.358  1.00  0.00     0.000 A 
ENDBRANCH  72  85
ENDBRANCH  46  47
ENDBRANCH  39  41
ENDBRANCH  38  39
ENDBRANCH  37  38
ENDBRANCH  36  37
ENDBRANCH  35  36
ENDBRANCH  34  35
ENDBRANCH   1  34
TORSDOF 22
