REMARK SMILES CC[C@H](C(=O)OCCOCCOCCOC(=O)c1ccc(-c2c3nc(c(-c4ccccc4)c4ccc([nH]4)c(-c4ccccc4)c4nc(c(-c5ccccc5)c5ccc2[nH]5)C=C4)C=C3)cc1)N(C)c1cc(C)ccc1[N+](=O)[O-]
REMARK SMILES IDX 10 1 9 2 8 3 7 4 6 5 4 6 5 7 3 8 2 9 1 10 66 11 67 12 68 13
REMARK SMILES IDX 69 14 74 15 70 16 73 17 71 18 72 19 75 20 76 21 77 22 11 23
REMARK SMILES IDX 12 24 13 25 14 26 15 27 16 28 17 29 18 30 19 31 65 32 20 33
REMARK SMILES IDX 64 34 21 35 22 36 23 37 58 38 24 39 63 40 57 41 59 42 25 43
REMARK SMILES IDX 62 44 56 45 55 46 26 48 48 49 33 50 47 51 34 52 37 53 46 54
REMARK SMILES IDX 60 55 35 56 36 57 45 59 61 60 38 61 27 62 28 63 32 64 29 65
REMARK SMILES IDX 31 66 30 67 49 68 50 69 54 70 51 71 53 72 52 73 39 74 40 75
REMARK SMILES IDX 44 76 41 77 43 78 42 79
REMARK H PARENT 59 47 37 58
REMARK Flexibility Score: inf
ROOT
ATOM      1  C   UNL     1       0.916   3.095   1.178  1.00  0.00     0.188 C 
ENDROOT
BRANCH   1   2
ATOM      2  O   UNL     1       0.714   2.355   2.377  1.00  0.00    -0.376 OA
BRANCH   2   3
ATOM      3  C   UNL     1      -0.041   1.153   2.280  1.00  0.00     0.202 C 
BRANCH   3   4
ATOM      4  C   UNL     1       0.597   0.088   1.395  1.00  0.00     0.261 C 
BRANCH   4   5
ATOM      5  O   UNL     1       0.607   0.571   0.041  1.00  0.00    -0.462 OA
BRANCH   5   6
ATOM      6  C   UNL     1       0.195  -0.236  -0.965  1.00  0.00     0.328 C 
ATOM      7  O   UNL     1      -0.155  -1.400  -0.824  1.00  0.00    -0.250 OA
BRANCH   6   8
ATOM      8  C   UNL     1       0.422   0.474  -2.311  1.00  0.00     0.192 C 
BRANCH   8   9
ATOM      9  C   UNL     1       0.056  -0.370  -3.536  1.00  0.00     0.034 C 
ATOM     10  C   UNL     1      -1.414  -0.716  -3.700  1.00  0.00     0.007 C 
ENDBRANCH   8   9
BRANCH   8  11
ATOM     11  N   UNL     1       0.044   1.940  -2.414  1.00  0.00    -0.356 N 
ATOM     12  C   UNL     1       1.147   2.779  -2.919  1.00  0.00     0.145 C 
BRANCH  11  13
ATOM     13  C   UNL     1      -1.251   2.384  -2.720  1.00  0.00     0.116 A 
ATOM     14  C   UNL     1      -1.488   3.089  -3.928  1.00  0.00     0.036 A 
ATOM     15  C   UNL     1      -2.399   2.251  -1.916  1.00  0.00     0.292 A 
ATOM     16  C   UNL     1      -2.749   3.604  -4.301  1.00  0.00    -0.049 A 
ATOM     17  C   UNL     1      -3.682   2.703  -2.292  1.00  0.00     0.088 A 
ATOM     18  C   UNL     1      -2.888   4.423  -5.551  1.00  0.00     0.044 C 
ATOM     19  C   UNL     1      -3.855   3.367  -3.493  1.00  0.00     0.010 A 
BRANCH  15  20
ATOM     20  N   UNL     1      -2.333   1.831  -0.543  1.00  0.00     0.064 N 
ATOM     21  O   UNL     1      -2.313   2.733   0.308  1.00  0.00    -0.258 OA
ATOM     22  O   UNL     1      -2.447   0.622  -0.310  1.00  0.00    -0.258 OA
ENDBRANCH  15  20
ENDBRANCH  11  13
ENDBRANCH   8  11
ENDBRANCH   6   8
ENDBRANCH   5   6
ENDBRANCH   4   5
ENDBRANCH   3   4
ENDBRANCH   2   3
ENDBRANCH   1   2
BRANCH   1  23
ATOM     23  C   UNL     1       2.337   2.960   0.594  1.00  0.00     0.188 C 
BRANCH  23  24
ATOM     24  O   UNL     1       3.452   2.743   1.452  1.00  0.00    -0.376 OA
BRANCH  24  25
ATOM     25  C   UNL     1       3.429   3.287   2.763  1.00  0.00     0.202 C 
BRANCH  25  26
ATOM     26  C   UNL     1       3.518   4.811   2.881  1.00  0.00     0.261 C 
BRANCH  26  27
ATOM     27  O   UNL     1       2.472   5.518   2.190  1.00  0.00    -0.460 OA
BRANCH  27  28
ATOM     28  C   UNL     1       2.861   6.226   1.102  1.00  0.00     0.338 C 
ATOM     29  O   UNL     1       3.990   6.358   0.667  1.00  0.00    -0.246 OA
BRANCH  28  30
ATOM     30  C   UNL     1       1.676   6.732   0.377  1.00  0.00     0.060 A 
ATOM     31  C   UNL     1       1.518   6.362  -0.965  1.00  0.00     0.016 A 
ATOM     32  C   UNL     1       0.782   7.625   0.971  1.00  0.00     0.016 A 
ATOM     33  C   UNL     1       0.474   6.893  -1.724  1.00  0.00     0.010 A 
ATOM     34  C   UNL     1      -0.246   8.181   0.200  1.00  0.00     0.010 A 
ATOM     35  C   UNL     1      -0.393   7.834  -1.155  1.00  0.00    -0.014 A 
BRANCH  35  36
ATOM     36  C   UNL     1      -1.373   8.550  -2.007  1.00  0.00     0.031 A 
ATOM     37  C   UNL     1      -0.995   9.873  -2.611  1.00  0.00     0.074 A 
ATOM     38  C   UNL     1      -2.591   8.033  -2.243  1.00  0.00     0.049 A 
ATOM     39  N   UNL     1      -1.725  10.702  -3.313  1.00  0.00    -0.248 NA
ATOM     40  C   UNL     1       0.389  10.322  -2.391  1.00  0.00     0.031 C 
ATOM     41  C   UNL     1      -3.067   6.742  -1.755  1.00  0.00     0.029 A 
ATOM     42  N   UNL     1      -3.653   8.544  -2.949  1.00  0.00    -0.354 N 
ATOM     43  C   UNL     1      -0.900  11.783  -3.595  1.00  0.00     0.074 A 
ATOM     44  C   UNL     1       0.387  11.502  -2.994  1.00  0.00     0.031 C 
ATOM     45  C   UNL     1      -4.331   6.563  -2.176  1.00  0.00     0.029 A 
ATOM     46  C   UNL     1      -4.760   7.731  -2.940  1.00  0.00     0.049 A 
ATOM     47  H   UNL     1      -3.623   9.409  -3.417  1.00  0.00     0.167 HD
ATOM     48  C   UNL     1      -1.192  12.918  -4.275  1.00  0.00     0.031 A 
ATOM     49  C   UNL     1      -5.986   7.918  -3.466  1.00  0.00     0.031 A 
ATOM     50  C   UNL     1      -2.476  13.216  -4.849  1.00  0.00     0.049 A 
ATOM     51  C   UNL     1      -6.308   9.218  -4.153  1.00  0.00     0.074 A 
ATOM     52  C   UNL     1      -2.865  14.343  -5.554  1.00  0.00     0.029 A 
ATOM     53  N   UNL     1      -3.586  12.390  -4.771  1.00  0.00    -0.354 N 
ATOM     54  N   UNL     1      -5.520  10.232  -4.415  1.00  0.00    -0.248 NA
ATOM     55  C   UNL     1      -7.700   9.409  -4.590  1.00  0.00     0.031 C 
ATOM     56  C   UNL     1      -4.227  14.222  -5.854  1.00  0.00     0.029 A 
ATOM     57  C   UNL     1      -4.671  12.998  -5.381  1.00  0.00     0.049 A 
ATOM     58  H   UNL     1      -3.601  11.503  -4.345  1.00  0.00     0.167 HD
ATOM     59  C   UNL     1      -6.320  11.184  -5.037  1.00  0.00     0.074 A 
ATOM     60  C   UNL     1      -7.646  10.611  -5.148  1.00  0.00     0.031 C 
ATOM     61  C   UNL     1      -5.989  12.426  -5.465  1.00  0.00     0.031 A 
BRANCH  48  62
ATOM     62  C   UNL     1      -0.109  13.954  -4.373  1.00  0.00    -0.014 A 
ATOM     63  C   UNL     1       0.993  13.783  -5.223  1.00  0.00     0.009 A 
ATOM     64  C   UNL     1      -0.205  15.126  -3.607  1.00  0.00     0.009 A 
ATOM     65  C   UNL     1       1.997  14.753  -5.279  1.00  0.00     0.001 A 
ATOM     66  C   UNL     1       0.787  16.104  -3.683  1.00  0.00     0.001 A 
ATOM     67  C   UNL     1       1.892  15.912  -4.511  1.00  0.00     0.000 A 
ENDBRANCH  48  62
BRANCH  49  68
ATOM     68  C   UNL     1      -7.022   6.860  -3.337  1.00  0.00    -0.014 A 
ATOM     69  C   UNL     1      -7.457   6.154  -4.469  1.00  0.00     0.009 A 
ATOM     70  C   UNL     1      -7.591   6.559  -2.090  1.00  0.00     0.009 A 
ATOM     71  C   UNL     1      -8.449   5.176  -4.355  1.00  0.00     0.001 A 
ATOM     72  C   UNL     1      -8.562   5.562  -1.975  1.00  0.00     0.001 A 
ATOM     73  C   UNL     1      -8.995   4.877  -3.108  1.00  0.00     0.000 A 
ENDBRANCH  49  68
BRANCH  61  74
ATOM     74  C   UNL     1      -7.080  13.258  -6.078  1.00  0.00    -0.014 A 
ATOM     75  C   UNL     1      -8.070  13.848  -5.277  1.00  0.00     0.009 A 
ATOM     76  C   UNL     1      -7.090  13.499  -7.460  1.00  0.00     0.009 A 
ATOM     77  C   UNL     1      -9.062  14.645  -5.852  1.00  0.00     0.001 A 
ATOM     78  C   UNL     1      -8.069  14.316  -8.029  1.00  0.00     0.001 A 
ATOM     79  C   UNL     1      -9.057  14.883  -7.226  1.00  0.00     0.000 A 
ENDBRANCH  61  74
ENDBRANCH  35  36
ENDBRANCH  28  30
ENDBRANCH  27  28
ENDBRANCH  26  27
ENDBRANCH  25  26
ENDBRANCH  24  25
ENDBRANCH  23  24
ENDBRANCH   1  23
TORSDOF 21
