REMARK SMILES CO[C@@H]1C[C@@H](C(=O)OCCOCCOCCOC(=O)c2ccc(-c3c4nc(c(-c5ccccc5)c5ccc([nH]5)c(-c5ccccc5)c5nc(c(-c6ccccc6)c6ccc3[nH]6)C=C5)C=C4)cc2)N(C(=O)c2nc(C(C)C)n[nH]2)C1
REMARK SMILES IDX 12 1 11 2 10 3 9 4 8 5 6 6 7 7 5 8 3 9 4 10 79 11 68 12 2 13
REMARK SMILES IDX 1 14 69 15 70 16 71 17 72 18 78 19 73 20 77 21 74 23 75 24
REMARK SMILES IDX 76 25 13 26 14 27 15 28 16 29 17 30 18 31 19 32 20 33 21 34
REMARK SMILES IDX 67 35 22 36 66 37 23 38 24 39 25 40 60 41 26 42 65 43 59 44
REMARK SMILES IDX 61 45 27 46 64 47 58 48 57 49 28 51 50 52 35 53 49 54 36 55
REMARK SMILES IDX 39 56 48 57 62 58 37 59 38 60 47 62 63 63 40 64 29 65 30 66
REMARK SMILES IDX 34 67 31 68 33 69 32 70 51 71 52 72 56 73 53 74 55 75 54 76
REMARK SMILES IDX 41 77 42 78 46 79 43 80 45 81 44 82
REMARK H PARENT 78 22 61 50 39 61
REMARK Flexibility Score: inf
ROOT
ATOM      1  C   UNL     1       3.559   6.236   1.356  1.00  0.00     0.188 C 
ENDROOT
BRANCH   1   2
ATOM      2  O   UNL     1       4.564   7.063   1.932  1.00  0.00    -0.376 OA
BRANCH   2   3
ATOM      3  C   UNL     1       5.341   6.498   2.997  1.00  0.00     0.202 C 
BRANCH   3   4
ATOM      4  C   UNL     1       4.527   5.899   4.153  1.00  0.00     0.261 C 
BRANCH   4   5
ATOM      5  O   UNL     1       4.275   4.504   3.864  1.00  0.00    -0.462 OA
BRANCH   5   6
ATOM      6  C   UNL     1       3.001   4.063   3.816  1.00  0.00     0.329 C 
ATOM      7  O   UNL     1       2.045   4.701   4.241  1.00  0.00    -0.250 OA
BRANCH   6   8
ATOM      8  C   UNL     1       2.893   2.840   2.886  1.00  0.00     0.198 C 
ATOM      9  C   UNL     1       1.421   1.060   2.216  1.00  0.00     0.140 C 
ATOM     10  C   UNL     1       1.418   2.389   2.937  1.00  0.00     0.071 C 
ATOM     11  C   UNL     1       2.765   0.458   2.646  1.00  0.00     0.153 C 
ATOM     12  N   UNL     1       3.673   1.580   2.959  1.00  0.00    -0.319 N 
BRANCH   9  13
ATOM     13  O   UNL     1       1.325   1.339   0.815  1.00  0.00    -0.380 OA
ATOM     14  C   UNL     1       1.119   0.176   0.018  1.00  0.00     0.195 C 
ENDBRANCH   9  13
BRANCH  12  15
ATOM     15  C   UNL     1       5.056   1.324   2.768  1.00  0.00     0.292 C 
ATOM     16  O   UNL     1       5.386   0.185   2.419  1.00  0.00    -0.265 OA
BRANCH  15  17
ATOM     17  C   UNL     1       6.097   2.301   3.068  1.00  0.00     0.214 A 
ATOM     18  N   UNL     1       7.215   2.498   2.371  1.00  0.00    -0.207 NA
ATOM     19  N   UNL     1       6.247   2.962   4.249  1.00  0.00    -0.255 N 
ATOM     20  C   UNL     1       7.920   3.429   3.102  1.00  0.00     0.153 A 
ATOM     21  N   UNL     1       7.347   3.734   4.275  1.00  0.00    -0.158 NA
ATOM     22  H   UNL     1       5.617   2.884   5.002  1.00  0.00     0.192 HD
BRANCH  20  23
ATOM     23  C   UNL     1       9.238   4.042   2.704  1.00  0.00     0.053 C 
ATOM     24  C   UNL     1      10.423   3.218   3.195  1.00  0.00     0.016 C 
ATOM     25  C   UNL     1       9.414   4.323   1.216  1.00  0.00     0.016 C 
ENDBRANCH  20  23
ENDBRANCH  15  17
ENDBRANCH  12  15
ENDBRANCH   6   8
ENDBRANCH   5   6
ENDBRANCH   4   5
ENDBRANCH   3   4
ENDBRANCH   2   3
ENDBRANCH   1   2
BRANCH   1  26
ATOM     26  C   UNL     1       4.053   5.138   0.419  1.00  0.00     0.188 C 
BRANCH  26  27
ATOM     27  O   UNL     1       5.204   4.442   0.866  1.00  0.00    -0.376 OA
BRANCH  27  28
ATOM     28  C   UNL     1       6.088   4.066  -0.208  1.00  0.00     0.202 C 
BRANCH  28  29
ATOM     29  C   UNL     1       6.880   5.264  -0.773  1.00  0.00     0.261 C 
BRANCH  29  30
ATOM     30  O   UNL     1       6.130   6.134  -1.626  1.00  0.00    -0.460 OA
BRANCH  30  31
ATOM     31  C   UNL     1       5.514   5.548  -2.671  1.00  0.00     0.338 C 
ATOM     32  O   UNL     1       5.737   4.452  -3.159  1.00  0.00    -0.246 OA
BRANCH  31  33
ATOM     33  C   UNL     1       4.290   6.332  -2.886  1.00  0.00     0.060 A 
ATOM     34  C   UNL     1       3.064   5.653  -2.823  1.00  0.00     0.016 A 
ATOM     35  C   UNL     1       4.351   7.721  -3.024  1.00  0.00     0.016 A 
ATOM     36  C   UNL     1       1.887   6.359  -3.000  1.00  0.00     0.010 A 
ATOM     37  C   UNL     1       3.173   8.427  -3.226  1.00  0.00     0.010 A 
ATOM     38  C   UNL     1       1.956   7.727  -3.291  1.00  0.00    -0.014 A 
BRANCH  38  39
ATOM     39  C   UNL     1       0.828   8.325  -4.022  1.00  0.00     0.031 A 
ATOM     40  C   UNL     1       0.923   8.325  -5.524  1.00  0.00     0.074 A 
ATOM     41  C   UNL     1      -0.254   8.777  -3.374  1.00  0.00     0.049 A 
ATOM     42  N   UNL     1       0.076   8.773  -6.410  1.00  0.00    -0.248 NA
ATOM     43  C   UNL     1       2.147   7.739  -6.105  1.00  0.00     0.031 C 
ATOM     44  C   UNL     1      -0.445   8.759  -1.925  1.00  0.00     0.029 A 
ATOM     45  N   UNL     1      -1.402   9.332  -3.866  1.00  0.00    -0.354 N 
ATOM     46  C   UNL     1       0.672   8.534  -7.644  1.00  0.00     0.074 A 
ATOM     47  C   UNL     1       1.964   7.944  -7.397  1.00  0.00     0.031 C 
ATOM     48  C   UNL     1      -1.652   9.281  -1.643  1.00  0.00     0.029 A 
ATOM     49  C   UNL     1      -2.292   9.694  -2.889  1.00  0.00     0.049 A 
ATOM     50  H   UNL     1      -1.573   9.458  -4.827  1.00  0.00     0.167 HD
ATOM     51  C   UNL     1       0.176   8.779  -8.877  1.00  0.00     0.031 A 
ATOM     52  C   UNL     1      -3.485  10.305  -3.006  1.00  0.00     0.031 A 
ATOM     53  C   UNL     1      -1.107   9.384  -9.097  1.00  0.00     0.049 A 
ATOM     54  C   UNL     1      -3.987  10.628  -4.389  1.00  0.00     0.074 A 
ATOM     55  C   UNL     1      -1.726   9.691 -10.293  1.00  0.00     0.029 A 
ATOM     56  N   UNL     1      -1.967   9.779  -8.081  1.00  0.00    -0.354 N 
ATOM     57  N   UNL     1      -3.426  10.393  -5.553  1.00  0.00    -0.248 NA
ATOM     58  C   UNL     1      -5.297  11.283  -4.472  1.00  0.00     0.031 C 
ATOM     59  C   UNL     1      -2.936  10.329  -9.999  1.00  0.00     0.029 A 
ATOM     60  C   UNL     1      -3.105  10.347  -8.621  1.00  0.00     0.049 A 
ATOM     61  H   UNL     1      -1.793   9.670  -7.118  1.00  0.00     0.167 HD
ATOM     62  C   UNL     1      -4.329  10.840  -6.508  1.00  0.00     0.074 A 
ATOM     63  C   UNL     1      -5.482  11.338  -5.782  1.00  0.00     0.031 C 
ATOM     64  C   UNL     1      -4.226  10.840  -7.862  1.00  0.00     0.031 A 
BRANCH  51  65
ATOM     65  C   UNL     1       1.048   8.438 -10.053  1.00  0.00    -0.014 A 
ATOM     66  C   UNL     1       1.356   7.106 -10.383  1.00  0.00     0.009 A 
ATOM     67  C   UNL     1       1.581   9.469 -10.842  1.00  0.00     0.009 A 
ATOM     68  C   UNL     1       2.208   6.819 -11.453  1.00  0.00     0.001 A 
ATOM     69  C   UNL     1       2.405   9.178 -11.931  1.00  0.00     0.001 A 
ATOM     70  C   UNL     1       2.726   7.855 -12.229  1.00  0.00     0.000 A 
ENDBRANCH  51  65
BRANCH  52  71
ATOM     71  C   UNL     1      -4.272  10.648  -1.794  1.00  0.00    -0.014 A 
ATOM     72  C   UNL     1      -5.495  10.014  -1.525  1.00  0.00     0.009 A 
ATOM     73  C   UNL     1      -3.805  11.622  -0.897  1.00  0.00     0.009 A 
ATOM     74  C   UNL     1      -6.247  10.371  -0.403  1.00  0.00     0.001 A 
ATOM     75  C   UNL     1      -4.541  11.953   0.242  1.00  0.00     0.001 A 
ATOM     76  C   UNL     1      -5.767  11.336   0.482  1.00  0.00     0.000 A 
ENDBRANCH  52  71
BRANCH  64  77
ATOM     77  C   UNL     1      -5.415  11.351  -8.629  1.00  0.00    -0.014 A 
ATOM     78  C   UNL     1      -5.781  12.705  -8.603  1.00  0.00     0.009 A 
ATOM     79  C   UNL     1      -6.173  10.454  -9.398  1.00  0.00     0.009 A 
ATOM     80  C   UNL     1      -6.921  13.138  -9.282  1.00  0.00     0.001 A 
ATOM     81  C   UNL     1      -7.287  10.897 -10.109  1.00  0.00     0.001 A 
ATOM     82  C   UNL     1      -7.670  12.235 -10.036  1.00  0.00     0.000 A 
ENDBRANCH  64  77
ENDBRANCH  38  39
ENDBRANCH  31  33
ENDBRANCH  30  31
ENDBRANCH  29  30
ENDBRANCH  28  29
ENDBRANCH  27  28
ENDBRANCH  26  27
ENDBRANCH   1  26
TORSDOF 21
