REMARK SMILES Cc1ccc(NC(=O)c2ccccc2NC(=O)[C@H]2CCCC[C@H]2C(=O)OCCOCCOCCOC(=O)c2ccc(-c3c4nc(c(-c5ccccc5)c5ccc([nH]5)c(-c5ccccc5)c5nc(c(-c6ccccc6)c6ccc3[nH]6)C=C5)C=C4)cc2)cc1
REMARK SMILES IDX 30 1 29 2 28 3 27 4 26 5 24 6 25 7 23 8 18 9 19 10 20 11
REMARK SMILES IDX 22 12 21 13 16 14 15 15 17 17 14 18 9 19 10 20 11 21 13 22
REMARK SMILES IDX 12 23 7 24 6 25 8 27 5 28 1 29 2 30 3 31 87 32 4 33 86 34
REMARK SMILES IDX 31 35 32 36 33 37 34 38 35 39 36 40 37 41 38 42 39 43 85 44
REMARK SMILES IDX 40 45 84 46 41 47 42 48 43 49 78 50 44 51 83 52 77 53 79 54
REMARK SMILES IDX 45 55 82 56 76 57 75 58 46 60 68 61 53 62 67 63 54 64 57 65
REMARK SMILES IDX 66 66 80 67 55 68 56 69 65 71 81 72 58 73 47 74 48 75 52 76
REMARK SMILES IDX 49 77 51 78 50 79 69 80 70 81 74 82 71 83 73 84 72 85 59 86
REMARK SMILES IDX 60 87 64 88 61 89 63 90 62 91
REMARK H PARENT 15 16 6 26 79 59 57 70
REMARK Flexibility Score: inf
ROOT
ATOM      1  C   UNL     1      -0.387   4.498   5.396  1.00  0.00     0.188 C 
ENDROOT
BRANCH   1   2
ATOM      2  O   UNL     1      -0.863   3.785   6.514  1.00  0.00    -0.376 OA
BRANCH   2   3
ATOM      3  C   UNL     1      -2.078   3.031   6.314  1.00  0.00     0.202 C 
BRANCH   3   4
ATOM      4  C   UNL     1      -1.985   1.883   5.212  1.00  0.00     0.261 C 
BRANCH   4   5
ATOM      5  O   UNL     1      -2.817   0.401   5.040  1.00  0.00    -0.463 OA
BRANCH   5   6
ATOM      6  C   UNL     1      -3.018  -0.986   4.853  1.00  0.00     0.309 C 
ATOM      7  O   UNL     1      -4.163  -1.370   5.153  1.00  0.00    -0.252 OA
BRANCH   6   8
ATOM      8  C   UNL     1      -2.041  -2.311   4.383  1.00  0.00     0.111 C 
ATOM      9  C   UNL     1      -0.982  -2.632   3.143  1.00  0.00     0.093 C 
ATOM     10  C   UNL     1      -1.129  -4.146   2.745  1.00  0.00     0.014 C 
ATOM     11  C   UNL     1      -1.045  -5.136   3.917  1.00  0.00     0.001 C 
ATOM     12  C   UNL     1      -1.899  -3.368   5.514  1.00  0.00     0.016 C 
ATOM     13  C   UNL     1      -2.054  -4.810   5.009  1.00  0.00     0.001 C 
BRANCH   9  14
ATOM     14  C   UNL     1       0.578  -2.473   3.336  1.00  0.00     0.228 C 
ATOM     15  N   UNL     1       1.467  -1.678   2.638  1.00  0.00    -0.325 N 
ATOM     16  H   UNL     1       2.354  -1.707   3.064  1.00  0.00     0.169 HD
ATOM     17  O   UNL     1       1.119  -3.125   4.241  1.00  0.00    -0.274 OA
BRANCH  15  18
ATOM     18  C   UNL     1       1.498  -0.829   1.492  1.00  0.00     0.054 A 
ATOM     19  C   UNL     1       2.502   0.195   1.269  1.00  0.00     0.063 A 
ATOM     20  C   UNL     1       2.297   1.105   0.196  1.00  0.00     0.016 A 
ATOM     21  C   UNL     1       1.172   1.055  -0.616  1.00  0.00     0.001 A 
ATOM     22  C   UNL     1       0.442  -0.918   0.570  1.00  0.00     0.027 A 
ATOM     23  C   UNL     1       0.254   0.036  -0.437  1.00  0.00     0.002 A 
BRANCH  19  24
ATOM     24  C   UNL     1       3.640   0.721   2.148  1.00  0.00     0.257 C 
ATOM     25  N   UNL     1       4.325   0.018   3.104  1.00  0.00    -0.322 N 
ATOM     26  H   UNL     1       4.688   0.561   3.840  1.00  0.00     0.170 HD
ATOM     27  O   UNL     1       3.916   1.929   2.105  1.00  0.00    -0.269 OA
BRANCH  25  28
ATOM     28  C   UNL     1       4.583  -1.336   3.193  1.00  0.00     0.041 A 
ATOM     29  C   UNL     1       4.074  -5.513   3.656  1.00  0.00     0.044 C 
ATOM     30  C   UNL     1       4.451  -4.074   3.496  1.00  0.00    -0.051 A 
ATOM     31  C   UNL     1       4.470  -3.513   2.214  1.00  0.00     0.005 A 
ATOM     32  C   UNL     1       4.645  -3.259   4.618  1.00  0.00     0.005 A 
ATOM     33  C   UNL     1       4.556  -2.141   2.061  1.00  0.00     0.026 A 
ATOM     34  C   UNL     1       4.742  -1.881   4.466  1.00  0.00     0.026 A 
ENDBRANCH  25  28
ENDBRANCH  19  24
ENDBRANCH  15  18
ENDBRANCH   9  14
ENDBRANCH   6   8
ENDBRANCH   5   6
ENDBRANCH   4   5
ENDBRANCH   3   4
ENDBRANCH   2   3
ENDBRANCH   1   2
BRANCH   1  35
ATOM     35  C   UNL     1       1.121   4.292   5.389  1.00  0.00     0.188 C 
BRANCH  35  36
ATOM     36  O   UNL     1       1.955   5.413   5.287  1.00  0.00    -0.376 OA
BRANCH  36  37
ATOM     37  C   UNL     1       1.616   6.279   4.228  1.00  0.00     0.202 C 
BRANCH  37  38
ATOM     38  C   UNL     1       1.064   5.802   2.863  1.00  0.00     0.261 C 
BRANCH  38  39
ATOM     39  O   UNL     1       0.708   4.424   2.451  1.00  0.00    -0.460 OA
BRANCH  39  40
ATOM     40  C   UNL     1       0.416   3.168   2.167  1.00  0.00     0.338 C 
ATOM     41  O   UNL     1      -0.274   2.972   1.164  1.00  0.00    -0.246 OA
BRANCH  40  42
ATOM     42  C   UNL     1       0.636   1.998   3.098  1.00  0.00     0.060 A 
ATOM     43  C   UNL     1      -0.328   1.039   3.006  1.00  0.00     0.016 A 
ATOM     44  C   UNL     1       1.618   1.713   4.065  1.00  0.00     0.016 A 
ATOM     45  C   UNL     1      -0.426   0.060   4.013  1.00  0.00     0.010 A 
ATOM     46  C   UNL     1       1.448   0.747   5.122  1.00  0.00     0.010 A 
ATOM     47  C   UNL     1       0.303  -0.031   5.220  1.00  0.00    -0.014 A 
BRANCH  47  48
ATOM     48  C   UNL     1      -0.165  -0.540   6.634  1.00  0.00     0.031 A 
ATOM     49  C   UNL     1       0.512  -1.680   7.316  1.00  0.00     0.074 A 
ATOM     50  C   UNL     1      -1.097  -0.002   7.506  1.00  0.00     0.049 A 
ATOM     51  N   UNL     1      -0.024  -2.367   8.284  1.00  0.00    -0.248 NA
ATOM     52  C   UNL     1       1.784  -2.219   6.877  1.00  0.00     0.031 C 
ATOM     53  C   UNL     1      -0.958   0.183   8.969  1.00  0.00     0.029 A 
ATOM     54  N   UNL     1      -2.358   0.523   7.329  1.00  0.00    -0.354 N 
ATOM     55  C   UNL     1       0.954  -3.190   8.781  1.00  0.00     0.074 A 
ATOM     56  C   UNL     1       1.963  -3.215   7.748  1.00  0.00     0.031 C 
ATOM     57  C   UNL     1      -2.052   0.791   9.485  1.00  0.00     0.029 A 
ATOM     58  C   UNL     1      -3.050   0.959   8.437  1.00  0.00     0.049 A 
ATOM     59  H   UNL     1      -2.756   0.585   6.430  1.00  0.00     0.167 HD
ATOM     60  C   UNL     1       0.946  -3.585  10.088  1.00  0.00     0.031 A 
ATOM     61  C   UNL     1      -4.412   1.100   8.482  1.00  0.00     0.031 A 
ATOM     62  C   UNL     1      -0.193  -3.039  10.843  1.00  0.00     0.049 A 
ATOM     63  C   UNL     1      -4.858  -0.012   9.378  1.00  0.00     0.074 A 
ATOM     64  C   UNL     1      -0.281  -1.985  11.741  1.00  0.00     0.029 A 
ATOM     65  N   UNL     1      -1.510  -3.384  10.529  1.00  0.00    -0.354 N 
ATOM     66  N   UNL     1      -3.999  -0.887   9.811  1.00  0.00    -0.248 NA
ATOM     67  C   UNL     1      -6.211  -0.286   9.841  1.00  0.00     0.031 C 
ATOM     68  C   UNL     1      -1.650  -1.681  11.946  1.00  0.00     0.029 A 
ATOM     69  C   UNL     1      -2.410  -2.576  11.212  1.00  0.00     0.049 A 
ATOM     70  H   UNL     1      -1.766  -4.102   9.906  1.00  0.00     0.167 HD
ATOM     71  C   UNL     1      -4.606  -1.796  10.594  1.00  0.00     0.074 A 
ATOM     72  C   UNL     1      -6.004  -1.395  10.581  1.00  0.00     0.031 C 
ATOM     73  C   UNL     1      -3.862  -2.788  11.147  1.00  0.00     0.031 A 
BRANCH  60  74
ATOM     74  C   UNL     1       2.219  -4.113  10.735  1.00  0.00    -0.014 A 
ATOM     75  C   UNL     1       2.522  -3.815  12.076  1.00  0.00     0.009 A 
ATOM     76  C   UNL     1       3.199  -4.851  10.044  1.00  0.00     0.009 A 
ATOM     77  C   UNL     1       3.771  -4.114  12.644  1.00  0.00     0.001 A 
ATOM     78  C   UNL     1       4.470  -5.102  10.582  1.00  0.00     0.001 A 
ATOM     79  C   UNL     1       4.762  -4.720  11.882  1.00  0.00     0.000 A 
ENDBRANCH  60  74
BRANCH  61  80
ATOM     80  C   UNL     1      -5.140   1.589   7.242  1.00  0.00    -0.014 A 
ATOM     81  C   UNL     1      -5.018   2.943   6.866  1.00  0.00     0.009 A 
ATOM     82  C   UNL     1      -5.658   0.737   6.265  1.00  0.00     0.009 A 
ATOM     83  C   UNL     1      -5.129   3.360   5.517  1.00  0.00     0.001 A 
ATOM     84  C   UNL     1      -5.758   1.148   4.912  1.00  0.00     0.001 A 
ATOM     85  C   UNL     1      -5.412   2.437   4.524  1.00  0.00     0.000 A 
ENDBRANCH  61  80
BRANCH  73  86
ATOM     86  C   UNL     1      -4.457  -3.989  11.790  1.00  0.00    -0.014 A 
ATOM     87  C   UNL     1      -5.720  -4.492  11.453  1.00  0.00     0.009 A 
ATOM     88  C   UNL     1      -3.665  -4.740  12.677  1.00  0.00     0.009 A 
ATOM     89  C   UNL     1      -6.192  -5.676  12.019  1.00  0.00     0.001 A 
ATOM     90  C   UNL     1      -4.112  -5.947  13.203  1.00  0.00     0.001 A 
ATOM     91  C   UNL     1      -5.383  -6.408  12.883  1.00  0.00     0.000 A 
ENDBRANCH  73  86
ENDBRANCH  47  48
ENDBRANCH  40  42
ENDBRANCH  39  40
ENDBRANCH  38  39
ENDBRANCH  37  38
ENDBRANCH  36  37
ENDBRANCH  35  36
ENDBRANCH   1  35
TORSDOF 21
