REMARK SMILES C[C@@H]1C(C(=O)OCCOCCOCCOC(=O)c2ccc(-c3c4nc(c(-c5ccccc5)c5ccc([nH]5)c(-c5ccccc5)c5nc(c(-c6ccccc6)c6ccc3[nH]6)C=C5)C=C4)cc2)=NC2=C1C(=O)C[C@H](c1ccccc1)C2
REMARK SMILES IDX 11 1 10 2 9 3 8 4 7 5 6 6 4 7 5 8 3 9 1 10 2 11 68 12 66 13
REMARK SMILES IDX 67 14 69 15 79 16 70 17 71 18 72 19 73 20 74 21 78 22 75 23
REMARK SMILES IDX 77 24 76 25 12 26 13 27 14 28 15 29 16 30 17 31 18 32 19 33
REMARK SMILES IDX 65 34 20 35 64 36 21 37 22 38 23 39 58 40 24 41 63 42 57 43
REMARK SMILES IDX 59 44 25 45 62 46 56 47 55 48 26 50 48 51 33 52 47 53 34 54
REMARK SMILES IDX 37 55 46 56 60 57 35 58 36 59 45 61 61 62 38 63 27 64 28 65
REMARK SMILES IDX 32 66 29 67 31 68 30 69 49 70 50 71 54 72 51 73 53 74 52 75
REMARK SMILES IDX 39 76 40 77 44 78 41 79 43 80 42 81
REMARK H PARENT 59 49 37 60
REMARK Flexibility Score: inf
ROOT
ATOM      1  C   UNL     1       3.136  -2.374  -2.553  1.00  0.00     0.188 C 
ENDROOT
BRANCH   1   2
ATOM      2  C   UNL     1       2.305  -1.135  -2.798  1.00  0.00     0.188 C 
BRANCH   2   3
ATOM      3  O   UNL     1       2.477  -0.562  -4.082  1.00  0.00    -0.376 OA
BRANCH   3   4
ATOM      4  C   UNL     1       1.887   0.725  -4.281  1.00  0.00     0.202 C 
BRANCH   4   5
ATOM      5  C   UNL     1       1.347   1.569  -3.095  1.00  0.00     0.261 C 
BRANCH   5   6
ATOM      6  O   UNL     1       0.745   0.830  -2.008  1.00  0.00    -0.459 OA
BRANCH   6   7
ATOM      7  C   UNL     1      -0.566   0.485  -2.066  1.00  0.00     0.353 C 
ATOM      8  O   UNL     1      -1.381   0.908  -2.825  1.00  0.00    -0.245 OA
BRANCH   7   9
ATOM      9  C   UNL     1      -0.774  -0.736  -1.132  1.00  0.00     0.133 C 
ATOM     10  C   UNL     1      -0.166  -0.476   1.278  1.00  0.00     0.020 C 
ATOM     11  C   UNL     1       0.238  -1.094  -0.052  1.00  0.00     0.078 C 
ATOM     12  C   UNL     1      -0.102  -2.540  -0.098  1.00  0.00     0.026 C 
ATOM     13  N   UNL     1      -1.750  -1.595  -1.297  1.00  0.00    -0.249 NA
ATOM     14  C   UNL     1      -1.300  -2.728  -0.652  1.00  0.00     0.049 C 
ATOM     15  C   UNL     1       0.823  -3.680  -0.060  1.00  0.00     0.161 C 
ATOM     16  C   UNL     1      -1.778  -4.112  -0.978  1.00  0.00     0.065 C 
ATOM     17  O   UNL     1       1.769  -3.663   0.722  1.00  0.00    -0.294 OA
ATOM     18  C   UNL     1       0.614  -4.823  -1.073  1.00  0.00     0.089 C 
ATOM     19  C   UNL     1      -0.721  -4.771  -1.893  1.00  0.00     0.033 C 
BRANCH  19  20
ATOM     20  C   UNL     1      -0.667  -4.114  -3.287  1.00  0.00    -0.044 A 
ATOM     21  C   UNL     1      -1.768  -3.393  -3.795  1.00  0.00     0.004 A 
ATOM     22  C   UNL     1       0.446  -4.221  -4.128  1.00  0.00     0.004 A 
ATOM     23  C   UNL     1      -1.708  -2.677  -4.990  1.00  0.00     0.000 A 
ATOM     24  C   UNL     1       0.505  -3.514  -5.339  1.00  0.00     0.000 A 
ATOM     25  C   UNL     1      -0.557  -2.718  -5.755  1.00  0.00     0.000 A 
ENDBRANCH  19  20
ENDBRANCH   7   9
ENDBRANCH   6   7
ENDBRANCH   5   6
ENDBRANCH   4   5
ENDBRANCH   3   4
ENDBRANCH   2   3
ENDBRANCH   1   2
BRANCH   1  26
ATOM     26  O   UNL     1       4.515  -2.109  -2.316  1.00  0.00    -0.376 OA
BRANCH  26  27
ATOM     27  C   UNL     1       5.237  -1.502  -3.377  1.00  0.00     0.202 C 
BRANCH  27  28
ATOM     28  C   UNL     1       5.668  -2.458  -4.475  1.00  0.00     0.261 C 
BRANCH  28  29
ATOM     29  O   UNL     1       4.579  -3.108  -5.116  1.00  0.00    -0.460 OA
BRANCH  29  30
ATOM     30  C   UNL     1       4.345  -4.360  -4.664  1.00  0.00     0.338 C 
ATOM     31  O   UNL     1       4.672  -4.850  -3.596  1.00  0.00    -0.246 OA
BRANCH  30  32
ATOM     32  C   UNL     1       3.767  -5.146  -5.751  1.00  0.00     0.060 A 
ATOM     33  C   UNL     1       3.359  -6.444  -5.438  1.00  0.00     0.016 A 
ATOM     34  C   UNL     1       3.943  -4.706  -7.072  1.00  0.00     0.016 A 
ATOM     35  C   UNL     1       3.353  -7.373  -6.447  1.00  0.00     0.010 A 
ATOM     36  C   UNL     1       3.957  -5.638  -8.075  1.00  0.00     0.010 A 
ATOM     37  C   UNL     1       3.758  -6.968  -7.723  1.00  0.00    -0.014 A 
BRANCH  37  38
ATOM     38  C   UNL     1       3.993  -8.001  -8.695  1.00  0.00     0.031 A 
ATOM     39  C   UNL     1       2.763  -8.582  -9.250  1.00  0.00     0.074 A 
ATOM     40  C   UNL     1       5.235  -8.367  -9.055  1.00  0.00     0.049 A 
ATOM     41  N   UNL     1       2.312  -9.772  -9.045  1.00  0.00    -0.248 NA
ATOM     42  C   UNL     1       1.855  -7.696  -9.989  1.00  0.00     0.031 C 
ATOM     43  C   UNL     1       6.507  -7.702  -8.763  1.00  0.00     0.029 A 
ATOM     44  N   UNL     1       5.596  -9.385  -9.873  1.00  0.00    -0.354 N 
ATOM     45  C   UNL     1       1.142  -9.854  -9.783  1.00  0.00     0.074 A 
ATOM     46  C   UNL     1       0.825  -8.512 -10.205  1.00  0.00     0.031 C 
ATOM     47  C   UNL     1       7.457  -8.193  -9.592  1.00  0.00     0.029 A 
ATOM     48  C   UNL     1       6.885  -9.284 -10.366  1.00  0.00     0.049 A 
ATOM     49  H   UNL     1       4.994 -10.131 -10.097  1.00  0.00     0.167 HD
ATOM     50  C   UNL     1       0.665 -11.055 -10.203  1.00  0.00     0.031 A 
ATOM     51  C   UNL     1       7.392  -9.995 -11.402  1.00  0.00     0.031 A 
ATOM     52  C   UNL     1       1.236 -12.152  -9.465  1.00  0.00     0.049 A 
ATOM     53  C   UNL     1       6.549 -11.206 -11.573  1.00  0.00     0.074 A 
ATOM     54  C   UNL     1       1.270 -12.498  -8.127  1.00  0.00     0.029 A 
ATOM     55  N   UNL     1       2.245 -12.870 -10.064  1.00  0.00    -0.354 N 
ATOM     56  N   UNL     1       6.522 -12.182 -10.711  1.00  0.00    -0.248 NA
ATOM     57  C   UNL     1       5.394 -11.131 -12.457  1.00  0.00     0.031 C 
ATOM     58  C   UNL     1       2.581 -13.017  -7.912  1.00  0.00     0.029 A 
ATOM     59  C   UNL     1       3.248 -13.018  -9.138  1.00  0.00     0.049 A 
ATOM     60  H   UNL     1       2.248 -13.215 -10.986  1.00  0.00     0.167 HD
ATOM     61  C   UNL     1       5.185 -12.545 -10.628  1.00  0.00     0.074 A 
ATOM     62  C   UNL     1       4.558 -11.946 -11.805  1.00  0.00     0.031 C 
ATOM     63  C   UNL     1       4.657 -13.041  -9.469  1.00  0.00     0.031 A 
BRANCH  50  64
ATOM     64  C   UNL     1       0.018 -11.226 -11.548  1.00  0.00    -0.014 A 
ATOM     65  C   UNL     1      -0.535 -12.471 -11.882  1.00  0.00     0.009 A 
ATOM     66  C   UNL     1       0.179 -10.296 -12.597  1.00  0.00     0.009 A 
ATOM     67  C   UNL     1      -0.852 -12.788 -13.208  1.00  0.00     0.001 A 
ATOM     68  C   UNL     1      -0.176 -10.593 -13.912  1.00  0.00     0.001 A 
ATOM     69  C   UNL     1      -0.667 -11.851 -14.222  1.00  0.00     0.000 A 
ENDBRANCH  50  64
BRANCH  51  70
ATOM     70  C   UNL     1       8.348  -9.535 -12.431  1.00  0.00    -0.014 A 
ATOM     71  C   UNL     1       8.942 -10.448 -13.314  1.00  0.00     0.009 A 
ATOM     72  C   UNL     1       8.478  -8.164 -12.723  1.00  0.00     0.009 A 
ATOM     73  C   UNL     1       9.599 -10.007 -14.470  1.00  0.00     0.001 A 
ATOM     74  C   UNL     1       9.140  -7.722 -13.872  1.00  0.00     0.001 A 
ATOM     75  C   UNL     1       9.685  -8.646 -14.755  1.00  0.00     0.000 A 
ENDBRANCH  51  70
BRANCH  63  76
ATOM     76  C   UNL     1       5.615 -13.384  -8.350  1.00  0.00    -0.014 A 
ATOM     77  C   UNL     1       6.500 -12.447  -7.784  1.00  0.00     0.009 A 
ATOM     78  C   UNL     1       5.537 -14.654  -7.761  1.00  0.00     0.009 A 
ATOM     79  C   UNL     1       7.316 -12.787  -6.700  1.00  0.00     0.001 A 
ATOM     80  C   UNL     1       6.334 -14.987  -6.662  1.00  0.00     0.001 A 
ATOM     81  C   UNL     1       7.231 -14.059  -6.139  1.00  0.00     0.000 A 
ENDBRANCH  63  76
ENDBRANCH  37  38
ENDBRANCH  30  32
ENDBRANCH  29  30
ENDBRANCH  28  29
ENDBRANCH  27  28
ENDBRANCH  26  27
ENDBRANCH   1  26
TORSDOF 18
