REMARK SMILES Cc1nn(CC(=O)OCCOCCOCCOC(=O)c2ccc(-c3c4nc(c(-c5ccccc5)c5ccc([nH]5)c(-c5ccccc5)c5nc(c(-c6ccccc6)c6ccc3[nH]6)C=C5)C=C4)cc2)c(C)c1S(=O)(=O)N1CCC(C)(C)C1
REMARK SMILES IDX 12 1 11 2 10 3 9 4 8 5 6 6 7 7 5 8 4 9 1 10 2 11 3 12 70 13
REMARK SMILES IDX 68 14 69 15 71 16 72 17 73 18 74 19 75 20 80 21 76 22 77 23
REMARK SMILES IDX 78 24 79 25 13 26 14 27 15 28 16 29 17 30 18 31 19 32 20 33
REMARK SMILES IDX 21 34 67 35 22 36 66 37 23 38 24 39 25 40 60 41 26 42 65 43
REMARK SMILES IDX 59 44 61 45 27 46 64 47 58 48 57 49 28 51 50 52 35 53 49 54
REMARK SMILES IDX 36 55 39 56 48 57 62 58 37 59 38 60 47 62 63 63 40 64 29 65
REMARK SMILES IDX 30 66 34 67 31 68 33 69 32 70 51 71 52 72 56 73 53 74 55 75
REMARK SMILES IDX 54 76 41 77 42 78 46 79 43 80 45 81 44 82
REMARK H PARENT 61 50 39 61
REMARK Flexibility Score: inf
ROOT
ATOM      1  C   UNL     1       3.409  -6.053  -0.246  1.00  0.00     0.188 C 
ENDROOT
BRANCH   1   2
ATOM      2  O   UNL     1       4.391  -6.564  -1.120  1.00  0.00    -0.376 OA
BRANCH   2   3
ATOM      3  C   UNL     1       4.174  -6.367  -2.513  1.00  0.00     0.202 C 
BRANCH   3   4
ATOM      4  C   UNL     1       2.754  -6.541  -3.114  1.00  0.00     0.261 C 
BRANCH   4   5
ATOM      5  O   UNL     1       1.722  -5.694  -2.542  1.00  0.00    -0.462 OA
BRANCH   5   6
ATOM      6  C   UNL     1       0.532  -6.257  -2.225  1.00  0.00     0.327 C 
ATOM      7  O   UNL     1       0.245  -7.414  -2.530  1.00  0.00    -0.250 OA
BRANCH   6   8
ATOM      8  C   UNL     1      -0.372  -5.461  -1.309  1.00  0.00     0.266 C 
BRANCH   8   9
ATOM      9  N   UNL     1      -0.338  -4.001  -1.350  1.00  0.00    -0.257 N 
ATOM     10  C   UNL     1       0.918  -1.130   0.223  1.00  0.00     0.070 C 
ATOM     11  C   UNL     1       0.110  -2.056  -0.595  1.00  0.00     0.080 A 
ATOM     12  N   UNL     1       0.218  -3.357  -0.306  1.00  0.00    -0.176 NA
ATOM     13  C   UNL     1      -0.815  -1.861  -1.639  1.00  0.00     0.126 A 
ATOM     14  C   UNL     1      -1.115  -3.146  -2.098  1.00  0.00     0.056 A 
ATOM     15  C   UNL     1      -2.061  -3.622  -3.134  1.00  0.00     0.068 C 
BRANCH  13  16
ATOM     16  S   UNL     1      -1.507  -0.389  -2.224  1.00  0.00     0.246 S 
ATOM     17  O   UNL     1      -1.011  -0.311  -3.583  1.00  0.00    -0.207 OA
ATOM     18  O   UNL     1      -2.916  -0.568  -1.942  1.00  0.00    -0.207 OA
BRANCH  16  19
ATOM     19  N   UNL     1      -1.011   0.977  -1.415  1.00  0.00    -0.197 NA
ATOM     20  C   UNL     1      -1.491   1.334  -0.083  1.00  0.00     0.103 C 
ATOM     21  C   UNL     1       0.162   1.756  -1.823  1.00  0.00     0.109 C 
ATOM     22  C   UNL     1      -0.351   2.144   0.526  1.00  0.00     0.024 C 
ATOM     23  C   UNL     1       0.398   2.758  -0.670  1.00  0.00    -0.020 C 
ATOM     24  C   UNL     1      -0.182   4.139  -1.009  1.00  0.00     0.012 C 
ATOM     25  C   UNL     1       1.894   2.901  -0.366  1.00  0.00     0.012 C 
ENDBRANCH  16  19
ENDBRANCH  13  16
ENDBRANCH   8   9
ENDBRANCH   6   8
ENDBRANCH   5   6
ENDBRANCH   4   5
ENDBRANCH   3   4
ENDBRANCH   2   3
ENDBRANCH   1   2
BRANCH   1  26
ATOM     26  C   UNL     1       3.075  -4.560  -0.313  1.00  0.00     0.188 C 
BRANCH  26  27
ATOM     27  O   UNL     1       3.114  -3.893  -1.555  1.00  0.00    -0.376 OA
BRANCH  27  28
ATOM     28  C   UNL     1       4.097  -2.995  -2.042  1.00  0.00     0.202 C 
BRANCH  28  29
ATOM     29  C   UNL     1       5.444  -2.710  -1.386  1.00  0.00     0.261 C 
BRANCH  29  30
ATOM     30  O   UNL     1       5.521  -3.141  -0.055  1.00  0.00    -0.460 OA
BRANCH  30  31
ATOM     31  C   UNL     1       4.867  -2.364   0.821  1.00  0.00     0.338 C 
ATOM     32  O   UNL     1       4.313  -1.288   0.607  1.00  0.00    -0.246 OA
BRANCH  31  33
ATOM     33  C   UNL     1       4.945  -3.041   2.119  1.00  0.00     0.060 A 
ATOM     34  C   UNL     1       4.307  -2.401   3.175  1.00  0.00     0.016 A 
ATOM     35  C   UNL     1       5.976  -3.977   2.298  1.00  0.00     0.016 A 
ATOM     36  C   UNL     1       5.011  -2.327   4.341  1.00  0.00     0.010 A 
ATOM     37  C   UNL     1       6.700  -3.872   3.443  1.00  0.00     0.010 A 
ATOM     38  C   UNL     1       6.272  -2.931   4.370  1.00  0.00    -0.014 A 
BRANCH  38  39
ATOM     39  C   UNL     1       7.174  -2.543   5.414  1.00  0.00     0.031 A 
ATOM     40  C   UNL     1       6.877  -3.252   6.662  1.00  0.00     0.074 A 
ATOM     41  C   UNL     1       8.183  -1.684   5.186  1.00  0.00     0.049 A 
ATOM     42  N   UNL     1       6.294  -2.769   7.704  1.00  0.00    -0.248 NA
ATOM     43  C   UNL     1       7.006  -4.719   6.652  1.00  0.00     0.031 C 
ATOM     44  C   UNL     1       8.691  -1.166   3.911  1.00  0.00     0.029 A 
ATOM     45  N   UNL     1       9.056  -1.175   6.084  1.00  0.00    -0.354 N 
ATOM     46  C   UNL     1       6.189  -3.839   8.579  1.00  0.00     0.074 A 
ATOM     47  C   UNL     1       6.397  -5.028   7.795  1.00  0.00     0.031 C 
ATOM     48  C   UNL     1       9.926  -0.642   4.109  1.00  0.00     0.029 A 
ATOM     49  C   UNL     1      10.224  -0.672   5.532  1.00  0.00     0.049 A 
ATOM     50  H   UNL     1       8.877  -1.162   7.052  1.00  0.00     0.167 HD
ATOM     51  C   UNL     1       6.281  -3.645   9.920  1.00  0.00     0.031 A 
ATOM     52  C   UNL     1      11.365  -0.406   6.217  1.00  0.00     0.031 A 
ATOM     53  C   UNL     1       6.085  -2.258  10.265  1.00  0.00     0.049 A 
ATOM     54  C   UNL     1      11.007  -0.328   7.658  1.00  0.00     0.074 A 
ATOM     55  C   UNL     1       5.051  -1.357  10.110  1.00  0.00     0.029 A 
ATOM     56  N   UNL     1       7.217  -1.508  10.488  1.00  0.00    -0.354 N 
ATOM     57  N   UNL     1      10.268   0.620   8.160  1.00  0.00    -0.248 NA
ATOM     58  C   UNL     1      11.046  -1.561   8.436  1.00  0.00     0.031 C 
ATOM     59  C   UNL     1       5.683  -0.117   9.798  1.00  0.00     0.029 A 
ATOM     60  C   UNL     1       7.066  -0.306   9.846  1.00  0.00     0.049 A 
ATOM     61  H   UNL     1       8.000  -1.786  11.016  1.00  0.00     0.167 HD
ATOM     62  C   UNL     1       9.415  -0.023   9.048  1.00  0.00     0.074 A 
ATOM     63  C   UNL     1      10.001  -1.350   9.242  1.00  0.00     0.031 C 
ATOM     64  C   UNL     1       8.163   0.464   9.300  1.00  0.00     0.031 A 
BRANCH  51  65
ATOM     65  C   UNL     1       7.022  -4.602  10.818  1.00  0.00    -0.014 A 
ATOM     66  C   UNL     1       7.091  -4.302  12.187  1.00  0.00     0.009 A 
ATOM     67  C   UNL     1       7.886  -5.614  10.349  1.00  0.00     0.009 A 
ATOM     68  C   UNL     1       8.038  -4.913  13.015  1.00  0.00     0.001 A 
ATOM     69  C   UNL     1       8.803  -6.256  11.180  1.00  0.00     0.001 A 
ATOM     70  C   UNL     1       8.901  -5.880  12.509  1.00  0.00     0.000 A 
ENDBRANCH  51  65
BRANCH  52  71
ATOM     71  C   UNL     1      12.765  -0.571   5.763  1.00  0.00    -0.014 A 
ATOM     72  C   UNL     1      13.825   0.014   6.474  1.00  0.00     0.009 A 
ATOM     73  C   UNL     1      13.087  -1.533   4.788  1.00  0.00     0.009 A 
ATOM     74  C   UNL     1      15.153  -0.376   6.241  1.00  0.00     0.001 A 
ATOM     75  C   UNL     1      14.411  -1.921   4.554  1.00  0.00     0.001 A 
ATOM     76  C   UNL     1      15.443  -1.353   5.292  1.00  0.00     0.000 A 
ENDBRANCH  52  71
BRANCH  64  77
ATOM     77  C   UNL     1       7.816   1.829   8.757  1.00  0.00    -0.014 A 
ATOM     78  C   UNL     1       7.778   2.129   7.383  1.00  0.00     0.009 A 
ATOM     79  C   UNL     1       7.356   2.798   9.660  1.00  0.00     0.009 A 
ATOM     80  C   UNL     1       7.317   3.372   6.933  1.00  0.00     0.001 A 
ATOM     81  C   UNL     1       6.877   4.030   9.210  1.00  0.00     0.001 A 
ATOM     82  C   UNL     1       6.862   4.319   7.847  1.00  0.00     0.000 A 
ENDBRANCH  64  77
ENDBRANCH  38  39
ENDBRANCH  31  33
ENDBRANCH  30  31
ENDBRANCH  29  30
ENDBRANCH  28  29
ENDBRANCH  27  28
ENDBRANCH  26  27
ENDBRANCH   1  26
TORSDOF 20
