REMARK SMILES O=C(CCc1nc(-c2ccccc2)c(-c2ccccc2)o1)OCCOCCOCCOC(=O)c1ccc(-c2c3nc(c(-c4ccccc4)c4ccc([nH]4)c(-c4ccccc4)c4nc(c(-c5ccccc5)c5ccc2[nH]5)C=C4)C=C3)cc1
REMARK SMILES IDX 26 1 25 2 24 3 23 4 22 5 2 6 1 7 3 8 4 9 5 10 6 11 21 12
REMARK SMILES IDX 7 13 14 14 8 15 9 16 13 17 10 18 12 19 11 20 15 21 16 22
REMARK SMILES IDX 20 23 17 24 19 25 18 26 27 27 28 28 29 29 30 30 31 31 32 32
REMARK SMILES IDX 33 33 34 34 35 35 81 36 36 37 80 38 37 39 38 40 39 41 74 42
REMARK SMILES IDX 40 43 79 44 73 45 75 46 41 47 78 48 72 49 71 50 42 52 64 53
REMARK SMILES IDX 49 54 63 55 50 56 53 57 62 58 76 59 51 60 52 61 61 63 77 64
REMARK SMILES IDX 54 65 43 66 44 67 48 68 45 69 47 70 46 71 65 72 66 73 70 74
REMARK SMILES IDX 67 75 69 76 68 77 55 78 56 79 60 80 57 81 59 82 58 83
REMARK H PARENT 75 51 53 62
REMARK Flexibility Score: inf
ROOT
ATOM      1  C   UNL     1       2.756   0.676  -2.119  1.00  0.00     0.188 C 
ENDROOT
BRANCH   1   2
ATOM      2  O   UNL     1       4.168   0.700  -2.097  1.00  0.00    -0.376 OA
BRANCH   2   3
ATOM      3  C   UNL     1       4.807   0.076  -0.999  1.00  0.00     0.202 C 
BRANCH   3   4
ATOM      4  C   UNL     1       4.014  -0.951  -0.196  1.00  0.00     0.261 C 
BRANCH   4   5
ATOM      5  O   UNL     1       2.749  -0.602   0.405  1.00  0.00    -0.463 OA
BRANCH   5   6
ATOM      6  C   UNL     1       2.479   0.296   1.371  1.00  0.00     0.306 C 
ATOM      7  O   UNL     1       1.413   0.242   1.982  1.00  0.00    -0.252 OA
BRANCH   6   8
ATOM      8  C   UNL     1       3.413   1.451   1.595  1.00  0.00     0.132 C 
BRANCH   8   9
ATOM      9  C   UNL     1       4.303   1.289   2.815  1.00  0.00     0.109 C 
BRANCH   9  10
ATOM     10  C   UNL     1       5.204   0.109   2.737  1.00  0.00     0.196 A 
ATOM     11  N   UNL     1       4.887  -1.170   2.801  1.00  0.00    -0.213 NA
ATOM     12  O   UNL     1       6.523   0.350   2.460  1.00  0.00    -0.440 OA
ATOM     13  C   UNL     1       6.056  -1.822   2.467  1.00  0.00     0.117 A 
ATOM     14  C   UNL     1       7.067  -0.900   2.303  1.00  0.00     0.162 A 
BRANCH  13  15
ATOM     15  C   UNL     1       6.159  -3.244   2.207  1.00  0.00     0.004 A 
ATOM     16  C   UNL     1       6.562  -4.120   3.214  1.00  0.00     0.010 A 
ATOM     17  C   UNL     1       5.899  -3.757   0.924  1.00  0.00     0.010 A 
ATOM     18  C   UNL     1       6.698  -5.484   2.940  1.00  0.00     0.001 A 
ATOM     19  C   UNL     1       6.018  -5.120   0.655  1.00  0.00     0.001 A 
ATOM     20  C   UNL     1       6.422  -5.984   1.665  1.00  0.00     0.000 A 
ENDBRANCH  13  15
BRANCH  14  21
ATOM     21  C   UNL     1       8.484  -0.973   2.028  1.00  0.00     0.020 A 
ATOM     22  C   UNL     1       9.382  -0.420   2.946  1.00  0.00     0.012 A 
ATOM     23  C   UNL     1       8.976  -1.691   0.931  1.00  0.00     0.012 A 
ATOM     24  C   UNL     1      10.753  -0.628   2.803  1.00  0.00     0.001 A 
ATOM     25  C   UNL     1      10.349  -1.892   0.783  1.00  0.00     0.001 A 
ATOM     26  C   UNL     1      11.234  -1.374   1.728  1.00  0.00     0.000 A 
ENDBRANCH  14  21
ENDBRANCH   9  10
ENDBRANCH   8   9
ENDBRANCH   6   8
ENDBRANCH   5   6
ENDBRANCH   4   5
ENDBRANCH   3   4
ENDBRANCH   2   3
ENDBRANCH   1   2
BRANCH   1  27
ATOM     27  C   UNL     1       2.099  -0.551  -2.785  1.00  0.00     0.188 C 
BRANCH  27  28
ATOM     28  O   UNL     1       2.826  -1.747  -3.011  1.00  0.00    -0.376 OA
BRANCH  28  29
ATOM     29  C   UNL     1       4.073  -1.755  -3.689  1.00  0.00     0.202 C 
BRANCH  29  30
ATOM     30  C   UNL     1       4.355  -0.903  -4.936  1.00  0.00     0.261 C 
BRANCH  30  31
ATOM     31  O   UNL     1       3.998   0.481  -4.846  1.00  0.00    -0.460 OA
BRANCH  31  32
ATOM     32  C   UNL     1       2.915   0.856  -5.564  1.00  0.00     0.338 C 
ATOM     33  O   UNL     1       2.223   0.150  -6.283  1.00  0.00    -0.246 OA
BRANCH  32  34
ATOM     34  C   UNL     1       2.548   2.238  -5.207  1.00  0.00     0.060 A 
ATOM     35  C   UNL     1       1.272   2.471  -4.670  1.00  0.00     0.016 A 
ATOM     36  C   UNL     1       3.441   3.294  -5.394  1.00  0.00     0.016 A 
ATOM     37  C   UNL     1       0.887   3.760  -4.310  1.00  0.00     0.010 A 
ATOM     38  C   UNL     1       3.032   4.595  -5.088  1.00  0.00     0.010 A 
ATOM     39  C   UNL     1       1.746   4.833  -4.568  1.00  0.00    -0.014 A 
BRANCH  39  40
ATOM     40  C   UNL     1       1.206   6.211  -4.534  1.00  0.00     0.031 A 
ATOM     41  C   UNL     1       0.648   6.773  -5.813  1.00  0.00     0.074 A 
ATOM     42  C   UNL     1       1.187   6.941  -3.405  1.00  0.00     0.049 A 
ATOM     43  N   UNL     1       0.164   7.962  -6.057  1.00  0.00    -0.248 NA
ATOM     44  C   UNL     1       0.639   5.866  -6.974  1.00  0.00     0.031 C 
ATOM     45  C   UNL     1       1.639   6.489  -2.091  1.00  0.00     0.029 A 
ATOM     46  N   UNL     1       0.769   8.231  -3.195  1.00  0.00    -0.354 N 
ATOM     47  C   UNL     1      -0.200   7.948  -7.397  1.00  0.00     0.074 A 
ATOM     48  C   UNL     1       0.142   6.645  -7.921  1.00  0.00     0.031 C 
ATOM     49  C   UNL     1       1.488   7.496  -1.211  1.00  0.00     0.029 A 
ATOM     50  C   UNL     1       0.963   8.670  -1.908  1.00  0.00     0.049 A 
ATOM     51  H   UNL     1       0.368   8.790  -3.900  1.00  0.00     0.167 HD
ATOM     52  C   UNL     1      -0.770   8.933  -8.129  1.00  0.00     0.031 A 
ATOM     53  C   UNL     1       0.762   9.887  -1.366  1.00  0.00     0.031 A 
ATOM     54  C   UNL     1      -1.086  10.237  -7.615  1.00  0.00     0.049 A 
ATOM     55  C   UNL     1       0.218  10.999  -2.229  1.00  0.00     0.074 A 
ATOM     56  C   UNL     1      -1.670  11.303  -8.275  1.00  0.00     0.029 A 
ATOM     57  N   UNL     1      -0.833  10.656  -6.319  1.00  0.00    -0.354 N 
ATOM     58  N   UNL     1      -0.147  10.970  -3.489  1.00  0.00    -0.248 NA
ATOM     59  C   UNL     1       0.050  12.313  -1.589  1.00  0.00     0.031 C 
ATOM     60  C   UNL     1      -1.708  12.390  -7.397  1.00  0.00     0.029 A 
ATOM     61  C   UNL     1      -1.219  11.976  -6.168  1.00  0.00     0.049 A 
ATOM     62  H   UNL     1      -0.437  10.098  -5.611  1.00  0.00     0.167 HD
ATOM     63  C   UNL     1      -0.621  12.245  -3.778  1.00  0.00     0.074 A 
ATOM     64  C   UNL     1      -0.510  13.019  -2.560  1.00  0.00     0.031 C 
ATOM     65  C   UNL     1      -1.108  12.732  -4.947  1.00  0.00     0.031 A 
BRANCH  52  66
ATOM     66  C   UNL     1      -1.044   8.648  -9.578  1.00  0.00    -0.014 A 
ATOM     67  C   UNL     1      -2.051   7.753  -9.972  1.00  0.00     0.009 A 
ATOM     68  C   UNL     1      -0.302   9.313 -10.567  1.00  0.00     0.009 A 
ATOM     69  C   UNL     1      -2.289   7.508 -11.326  1.00  0.00     0.001 A 
ATOM     70  C   UNL     1      -0.563   9.090 -11.919  1.00  0.00     0.001 A 
ATOM     71  C   UNL     1      -1.550   8.182 -12.297  1.00  0.00     0.000 A 
ENDBRANCH  52  66
BRANCH  53  72
ATOM     72  C   UNL     1       1.104  10.144   0.060  1.00  0.00    -0.014 A 
ATOM     73  C   UNL     1       0.103  10.446   0.997  1.00  0.00     0.009 A 
ATOM     74  C   UNL     1       2.443  10.137   0.482  1.00  0.00     0.009 A 
ATOM     75  C   UNL     1       0.438  10.768   2.314  1.00  0.00     0.001 A 
ATOM     76  C   UNL     1       2.772  10.426   1.808  1.00  0.00     0.001 A 
ATOM     77  C   UNL     1       1.771  10.754   2.720  1.00  0.00     0.000 A 
ENDBRANCH  53  72
BRANCH  65  78
ATOM     78  C   UNL     1      -1.609  14.151  -4.956  1.00  0.00    -0.014 A 
ATOM     79  C   UNL     1      -0.732  15.243  -4.861  1.00  0.00     0.009 A 
ATOM     80  C   UNL     1      -2.983  14.396  -5.116  1.00  0.00     0.009 A 
ATOM     81  C   UNL     1      -1.226  16.549  -4.888  1.00  0.00     0.001 A 
ATOM     82  C   UNL     1      -3.469  15.703  -5.178  1.00  0.00     0.001 A 
ATOM     83  C   UNL     1      -2.592  16.778  -5.053  1.00  0.00     0.000 A 
ENDBRANCH  65  78
ENDBRANCH  39  40
ENDBRANCH  32  34
ENDBRANCH  31  32
ENDBRANCH  30  31
ENDBRANCH  29  30
ENDBRANCH  28  29
ENDBRANCH  27  28
ENDBRANCH   1  27
TORSDOF 21
