REMARK SMILES C[C@@H]1CCc2sc(NC(=O)/C=C/C(=O)OCCOCCOCCOC(=O)c3ccc(-c4c5nc(c(-c6ccccc6)c6ccc([nH]6)c(-c6ccccc6)c6nc(c(-c7ccccc7)c7ccc4[nH]7)C=C6)C=C5)cc3)c(C#N)c2C1
REMARK SMILES IDX 19 1 18 2 17 3 16 4 15 5 13 6 14 7 12 8 11 9 9 10 8 11 10 13
REMARK SMILES IDX 7 14 1 15 2 16 3 17 79 18 4 19 78 20 5 21 75 22 6 23 76 24
REMARK SMILES IDX 77 25 20 26 21 27 22 28 23 29 24 30 25 31 26 32 27 33 28 34
REMARK SMILES IDX 74 35 29 36 73 37 30 38 31 39 32 40 67 41 33 42 72 43 66 44
REMARK SMILES IDX 68 45 34 46 71 47 65 48 64 49 35 51 57 52 42 53 56 54 43 55
REMARK SMILES IDX 46 56 55 57 69 58 44 59 45 60 54 62 70 63 47 64 36 65 37 66
REMARK SMILES IDX 41 67 38 68 40 69 39 70 58 71 59 72 63 73 60 74 62 75 61 76
REMARK SMILES IDX 48 77 49 78 53 79 50 80 52 81 51 82
REMARK H PARENT 8 12 68 50 46 61
REMARK Flexibility Score: inf
ROOT
ATOM      1  C   UNL     1       1.238   5.333   3.684  1.00  0.00     0.188 C 
ENDROOT
BRANCH   1   2
ATOM      2  O   UNL     1       2.447   5.574   4.368  1.00  0.00    -0.376 OA
BRANCH   2   3
ATOM      3  C   UNL     1       3.270   6.687   4.047  1.00  0.00     0.202 C 
BRANCH   3   4
ATOM      4  C   UNL     1       3.136   7.535   2.761  1.00  0.00     0.261 C 
BRANCH   4   5
ATOM      5  O   UNL     1       1.810   7.583   2.233  1.00  0.00    -0.460 OA
BRANCH   5   6
ATOM      6  C   UNL     1       1.663   7.279   0.925  1.00  0.00     0.331 C 
ATOM      7  O   UNL     1       2.539   7.203   0.085  1.00  0.00    -0.247 OA
BRANCH   6   8
ATOM      8  C   UNL     1       0.285   6.799   0.729  1.00  0.00     0.099 C 
ATOM      9  C   UNL     1      -0.600   7.310  -0.120  1.00  0.00     0.079 C 
BRANCH   9  10
ATOM     10  C   UNL     1      -1.967   6.776  -0.301  1.00  0.00     0.249 C 
ATOM     11  N   UNL     1      -2.356   5.476  -0.212  1.00  0.00    -0.313 N 
ATOM     12  H   UNL     1      -3.324   5.382  -0.367  1.00  0.00     0.171 HD
ATOM     13  O   UNL     1      -2.846   7.605  -0.562  1.00  0.00    -0.270 OA
BRANCH  11  14
ATOM     14  C   UNL     1      -1.769   4.255   0.035  1.00  0.00     0.114 A 
ATOM     15  C   UNL     1       0.958  -0.164  -0.162  1.00  0.00     0.008 C 
ATOM     16  C   UNL     1       0.385   0.132   1.225  1.00  0.00    -0.009 C 
ATOM     17  C   UNL     1      -1.065  -0.379   1.410  1.00  0.00     0.009 C 
ATOM     18  C   UNL     1       0.482   1.639   1.518  1.00  0.00     0.041 C 
ATOM     19  C   UNL     1      -2.123   0.386   0.598  1.00  0.00     0.047 C 
ATOM     20  C   UNL     1      -0.610   2.418   0.840  1.00  0.00    -0.014 A 
ATOM     21  C   UNL     1      -1.845   1.856   0.597  1.00  0.00     0.011 A 
ATOM     22  C   UNL     1      -0.528   3.655   0.118  1.00  0.00     0.090 A 
ATOM     23  S   UNL     1      -2.992   3.038   0.192  1.00  0.00    -0.121 S 
BRANCH  22  24
ATOM     24  C   UNL     1       0.700   4.096  -0.476  1.00  0.00     0.103 C 
ATOM     25  N   UNL     1       1.712   4.341  -0.972  1.00  0.00    -0.192 NA
ENDBRANCH  22  24
ENDBRANCH  11  14
ENDBRANCH   9  10
ENDBRANCH   6   8
ENDBRANCH   5   6
ENDBRANCH   4   5
ENDBRANCH   3   4
ENDBRANCH   2   3
ENDBRANCH   1   2
BRANCH   1  26
ATOM     26  C   UNL     1      -0.024   6.188   3.964  1.00  0.00     0.188 C 
BRANCH  26  27
ATOM     27  O   UNL     1      -0.022   7.581   4.202  1.00  0.00    -0.376 OA
BRANCH  27  28
ATOM     28  C   UNL     1       0.662   8.218   5.267  1.00  0.00     0.202 C 
BRANCH  28  29
ATOM     29  C   UNL     1       0.790   7.613   6.662  1.00  0.00     0.261 C 
BRANCH  29  30
ATOM     30  O   UNL     1       0.672   6.210   6.694  1.00  0.00    -0.460 OA
BRANCH  30  31
ATOM     31  C   UNL     1      -0.604   5.794   6.829  1.00  0.00     0.338 C 
ATOM     32  O   UNL     1      -1.614   6.475   6.844  1.00  0.00    -0.246 OA
BRANCH  31  33
ATOM     33  C   UNL     1      -0.592   4.335   6.991  1.00  0.00     0.060 A 
ATOM     34  C   UNL     1      -1.851   3.733   7.005  1.00  0.00     0.016 A 
ATOM     35  C   UNL     1       0.505   3.816   7.678  1.00  0.00     0.016 A 
ATOM     36  C   UNL     1      -2.119   2.884   8.050  1.00  0.00     0.010 A 
ATOM     37  C   UNL     1       0.229   3.000   8.734  1.00  0.00     0.010 A 
ATOM     38  C   UNL     1      -1.102   2.662   8.981  1.00  0.00    -0.014 A 
BRANCH  38  39
ATOM     39  C   UNL     1      -1.390   1.929  10.191  1.00  0.00     0.031 A 
ATOM     40  C   UNL     1      -1.334   0.480   9.911  1.00  0.00     0.074 A 
ATOM     41  C   UNL     1      -1.509   2.534  11.390  1.00  0.00     0.049 A 
ATOM     42  N   UNL     1      -2.341  -0.297   9.682  1.00  0.00    -0.248 NA
ATOM     43  C   UNL     1      -0.032  -0.093   9.508  1.00  0.00     0.031 C 
ATOM     44  C   UNL     1      -1.336   3.950  11.736  1.00  0.00     0.029 A 
ATOM     45  N   UNL     1      -1.724   1.970  12.607  1.00  0.00    -0.354 N 
ATOM     46  C   UNL     1      -1.764  -1.528   9.398  1.00  0.00     0.074 A 
ATOM     47  C   UNL     1      -0.427  -1.241   8.958  1.00  0.00     0.031 C 
ATOM     48  C   UNL     1      -1.198   4.074  13.080  1.00  0.00     0.029 A 
ATOM     49  C   UNL     1      -1.394   2.773  13.696  1.00  0.00     0.049 A 
ATOM     50  H   UNL     1      -2.087   1.061  12.711  1.00  0.00     0.167 HD
ATOM     51  C   UNL     1      -2.232  -2.654  10.005  1.00  0.00     0.031 A 
ATOM     52  C   UNL     1      -1.232   2.354  14.982  1.00  0.00     0.031 A 
ATOM     53  C   UNL     1      -3.547  -2.427  10.559  1.00  0.00     0.049 A 
ATOM     54  C   UNL     1      -1.880   1.023  15.090  1.00  0.00     0.074 A 
ATOM     55  C   UNL     1      -4.773  -2.031  10.063  1.00  0.00     0.029 A 
ATOM     56  N   UNL     1      -3.592  -2.209  11.915  1.00  0.00    -0.354 N 
ATOM     57  N   UNL     1      -3.167   0.853  14.997  1.00  0.00    -0.248 NA
ATOM     58  C   UNL     1      -1.068  -0.143  14.774  1.00  0.00     0.031 C 
ATOM     59  C   UNL     1      -5.338  -1.206  11.080  1.00  0.00     0.029 A 
ATOM     60  C   UNL     1      -4.483  -1.209  12.183  1.00  0.00     0.049 A 
ATOM     61  H   UNL     1      -3.064  -2.696  12.588  1.00  0.00     0.167 HD
ATOM     62  C   UNL     1      -3.313  -0.253  14.172  1.00  0.00     0.074 A 
ATOM     63  C   UNL     1      -1.985  -0.871  14.128  1.00  0.00     0.031 C 
ATOM     64  C   UNL     1      -4.403  -0.369  13.356  1.00  0.00     0.031 A 
BRANCH  51  65
ATOM     65  C   UNL     1      -1.303  -3.706  10.592  1.00  0.00    -0.014 A 
ATOM     66  C   UNL     1      -1.893  -4.773  11.290  1.00  0.00     0.009 A 
ATOM     67  C   UNL     1       0.087  -3.543  10.764  1.00  0.00     0.009 A 
ATOM     68  C   UNL     1      -1.159  -5.541  12.201  1.00  0.00     0.001 A 
ATOM     69  C   UNL     1       0.831  -4.329  11.645  1.00  0.00     0.001 A 
ATOM     70  C   UNL     1       0.198  -5.307  12.392  1.00  0.00     0.000 A 
ENDBRANCH  51  65
BRANCH  52  71
ATOM     71  C   UNL     1      -0.268   2.820  16.015  1.00  0.00    -0.014 A 
ATOM     72  C   UNL     1      -0.400   2.428  17.361  1.00  0.00     0.009 A 
ATOM     73  C   UNL     1       0.953   3.400  15.631  1.00  0.00     0.009 A 
ATOM     74  C   UNL     1       0.660   2.579  18.271  1.00  0.00     0.001 A 
ATOM     75  C   UNL     1       2.011   3.550  16.538  1.00  0.00     0.001 A 
ATOM     76  C   UNL     1       1.870   3.126  17.855  1.00  0.00     0.000 A 
ENDBRANCH  52  71
BRANCH  64  77
ATOM     77  C   UNL     1      -5.552   0.583  13.572  1.00  0.00    -0.014 A 
ATOM     78  C   UNL     1      -5.471   1.974  13.376  1.00  0.00     0.009 A 
ATOM     79  C   UNL     1      -6.807   0.020  13.842  1.00  0.00     0.009 A 
ATOM     80  C   UNL     1      -6.617   2.775  13.473  1.00  0.00     0.001 A 
ATOM     81  C   UNL     1      -7.950   0.814  13.918  1.00  0.00     0.001 A 
ATOM     82  C   UNL     1      -7.855   2.192  13.740  1.00  0.00     0.000 A 
ENDBRANCH  64  77
ENDBRANCH  38  39
ENDBRANCH  31  33
ENDBRANCH  30  31
ENDBRANCH  29  30
ENDBRANCH  28  29
ENDBRANCH  27  28
ENDBRANCH  26  27
ENDBRANCH   1  26
TORSDOF 20
