REMARK SMILES Cc1cccc(C[C@H](C(=O)OCCOCCOCCOC(=O)c2ccc(-c3c4nc(c(-c5ccccc5)c5ccc([nH]5)c(-c5ccccc5)c5nc(c(-c6ccccc6)c6ccc3[nH]6)C=C5)C=C4)cc2)[C@@H]2CCCC[C@@H]2O)c1
REMARK SMILES IDX 15 1 14 2 13 3 12 4 11 5 9 6 10 7 8 8 7 9 6 10 1 11 2 12
REMARK SMILES IDX 3 13 78 14 4 15 5 16 71 17 72 18 76 19 73 20 75 21 74 22
REMARK SMILES IDX 77 23 16 25 17 26 18 27 19 28 20 29 21 30 22 31 23 32 24 33
REMARK SMILES IDX 70 34 25 35 69 36 26 37 27 38 28 39 63 40 29 41 68 42 62 43
REMARK SMILES IDX 64 44 30 45 67 46 61 47 60 48 31 50 53 51 38 52 52 53 39 54
REMARK SMILES IDX 42 55 51 56 65 57 40 58 41 59 50 61 66 62 43 63 32 64 33 65
REMARK SMILES IDX 37 66 34 67 36 68 35 69 54 70 55 71 59 72 56 73 58 74 57 75
REMARK SMILES IDX 44 76 45 77 49 78 46 79 48 80 47 81
REMARK H PARENT 77 24 64 49 42 60
REMARK Flexibility Score: inf
ROOT
ATOM      1  C   UNL     1      -0.382   5.961   4.656  1.00  0.00     0.188 C 
ENDROOT
BRANCH   1   2
ATOM      2  O   UNL     1      -0.881   4.756   5.188  1.00  0.00    -0.376 OA
BRANCH   2   3
ATOM      3  C   UNL     1      -1.373   3.839   4.219  1.00  0.00     0.202 C 
BRANCH   3   4
ATOM      4  C   UNL     1      -1.919   4.368   2.813  1.00  0.00     0.261 C 
BRANCH   4   5
ATOM      5  O   UNL     1      -3.325   4.825   2.225  1.00  0.00    -0.463 OA
BRANCH   5   6
ATOM      6  C   UNL     1      -4.339   4.134   1.524  1.00  0.00     0.309 C 
ATOM      7  O   UNL     1      -5.024   3.315   2.135  1.00  0.00    -0.252 OA
BRANCH   6   8
ATOM      8  C   UNL     1      -4.919   4.564   0.057  1.00  0.00     0.109 C 
BRANCH   8   9
ATOM      9  C   UNL     1      -5.642   5.888   0.322  1.00  0.00     0.051 C 
BRANCH   9  10
ATOM     10  C   UNL     1      -6.764   6.365  -0.565  1.00  0.00    -0.047 A 
ATOM     11  C   UNL     1      -9.173   9.313  -0.591  1.00  0.00     0.044 C 
ATOM     12  C   UNL     1      -8.391   8.120  -1.038  1.00  0.00    -0.051 A 
ATOM     13  C   UNL     1      -8.632   7.567  -2.297  1.00  0.00     0.003 A 
ATOM     14  C   UNL     1      -7.427   7.543  -0.202  1.00  0.00     0.007 A 
ATOM     15  C   UNL     1      -8.040   6.363  -2.637  1.00  0.00     0.001 A 
ATOM     16  C   UNL     1      -7.177   5.739  -1.736  1.00  0.00     0.004 A 
ENDBRANCH   9  10
ENDBRANCH   8   9
BRANCH   8  17
ATOM     17  C   UNL     1      -4.114   4.368  -1.335  1.00  0.00     0.032 C 
ATOM     18  C   UNL     1      -3.225   5.543  -1.775  1.00  0.00     0.007 C 
ATOM     19  C   UNL     1      -4.678   3.685  -2.629  1.00  0.00     0.118 C 
ATOM     20  C   UNL     1      -3.899   6.557  -2.672  1.00  0.00     0.001 C 
ATOM     21  C   UNL     1      -5.007   4.550  -3.867  1.00  0.00     0.032 C 
ATOM     22  C   UNL     1      -4.420   5.955  -3.961  1.00  0.00     0.003 C 
BRANCH  19  23
ATOM     23  O   UNL     1      -5.747   2.784  -2.367  1.00  0.00    -0.393 OA
ATOM     24  H   UNL     1      -6.532   3.284  -2.093  1.00  0.00     0.210 HD
ENDBRANCH  19  23
ENDBRANCH   8  17
ENDBRANCH   6   8
ENDBRANCH   5   6
ENDBRANCH   4   5
ENDBRANCH   3   4
ENDBRANCH   2   3
ENDBRANCH   1   2
BRANCH   1  25
ATOM     25  C   UNL     1       0.997   5.823   3.999  1.00  0.00     0.188 C 
BRANCH  25  26
ATOM     26  O   UNL     1       1.071   4.766   3.035  1.00  0.00    -0.376 OA
BRANCH  26  27
ATOM     27  C   UNL     1       2.404   4.282   2.820  1.00  0.00     0.202 C 
BRANCH  27  28
ATOM     28  C   UNL     1       3.205   5.175   1.862  1.00  0.00     0.261 C 
BRANCH  28  29
ATOM     29  O   UNL     1       2.887   4.801   0.508  1.00  0.00    -0.460 OA
BRANCH  29  30
ATOM     30  C   UNL     1       1.778   5.418   0.036  1.00  0.00     0.338 C 
ATOM     31  O   UNL     1       1.559   6.612   0.074  1.00  0.00    -0.246 OA
BRANCH  30  32
ATOM     32  C   UNL     1       0.749   4.370  -0.210  1.00  0.00     0.060 A 
ATOM     33  C   UNL     1      -0.541   4.793  -0.092  1.00  0.00     0.016 A 
ATOM     34  C   UNL     1       0.974   2.987  -0.274  1.00  0.00     0.016 A 
ATOM     35  C   UNL     1      -1.532   3.832   0.119  1.00  0.00     0.010 A 
ATOM     36  C   UNL     1      -0.065   2.047  -0.006  1.00  0.00     0.010 A 
ATOM     37  C   UNL     1      -1.359   2.456   0.304  1.00  0.00    -0.014 A 
BRANCH  37  38
ATOM     38  C   UNL     1      -2.419   1.477   0.853  1.00  0.00     0.031 A 
ATOM     39  C   UNL     1      -3.192   0.699  -0.167  1.00  0.00     0.074 A 
ATOM     40  C   UNL     1      -2.905   1.222   2.130  1.00  0.00     0.049 A 
ATOM     41  N   UNL     1      -4.435   0.334  -0.045  1.00  0.00    -0.248 NA
ATOM     42  C   UNL     1      -2.617   0.349  -1.464  1.00  0.00     0.031 C 
ATOM     43  C   UNL     1      -3.488  -0.042   2.608  1.00  0.00     0.029 A 
ATOM     44  N   UNL     1      -3.110   2.025   3.263  1.00  0.00    -0.354 N 
ATOM     45  C   UNL     1      -4.631  -0.637  -0.997  1.00  0.00     0.074 A 
ATOM     46  C   UNL     1      -3.573  -0.438  -1.964  1.00  0.00     0.031 C 
ATOM     47  C   UNL     1      -4.031   0.104   3.834  1.00  0.00     0.029 A 
ATOM     48  C   UNL     1      -3.971   1.498   4.238  1.00  0.00     0.049 A 
ATOM     49  H   UNL     1      -2.677   2.903   3.367  1.00  0.00     0.167 HD
ATOM     50  C   UNL     1      -5.448  -1.709  -0.782  1.00  0.00     0.031 A 
ATOM     51  C   UNL     1      -4.854   2.230   5.011  1.00  0.00     0.031 A 
ATOM     52  C   UNL     1      -6.068  -1.744   0.540  1.00  0.00     0.049 A 
ATOM     53  C   UNL     1      -6.261   1.719   4.839  1.00  0.00     0.074 A 
ATOM     54  C   UNL     1      -5.786  -2.501   1.669  1.00  0.00     0.029 A 
ATOM     55  N   UNL     1      -6.992  -0.785   0.945  1.00  0.00    -0.354 N 
ATOM     56  N   UNL     1      -6.549   0.832   3.942  1.00  0.00    -0.248 NA
ATOM     57  C   UNL     1      -7.455   2.213   5.527  1.00  0.00     0.031 C 
ATOM     58  C   UNL     1      -6.587  -2.047   2.734  1.00  0.00     0.029 A 
ATOM     59  C   UNL     1      -7.354  -1.000   2.265  1.00  0.00     0.049 A 
ATOM     60  H   UNL     1      -7.338  -0.059   0.376  1.00  0.00     0.167 HD
ATOM     61  C   UNL     1      -7.894   0.656   3.867  1.00  0.00     0.074 A 
ATOM     62  C   UNL     1      -8.429   1.527   4.896  1.00  0.00     0.031 C 
ATOM     63  C   UNL     1      -8.380  -0.201   2.929  1.00  0.00     0.031 A 
BRANCH  50  64
ATOM     64  C   UNL     1      -5.284  -2.939  -1.651  1.00  0.00    -0.014 A 
ATOM     65  C   UNL     1      -5.196  -4.217  -1.071  1.00  0.00     0.009 A 
ATOM     66  C   UNL     1      -5.117  -2.876  -3.045  1.00  0.00     0.009 A 
ATOM     67  C   UNL     1      -4.821  -5.345  -1.808  1.00  0.00     0.001 A 
ATOM     68  C   UNL     1      -4.703  -3.994  -3.784  1.00  0.00     0.001 A 
ATOM     69  C   UNL     1      -4.536  -5.225  -3.160  1.00  0.00     0.000 A 
ENDBRANCH  50  64
BRANCH  51  70
ATOM     70  C   UNL     1      -4.627   3.670   5.414  1.00  0.00    -0.014 A 
ATOM     71  C   UNL     1      -3.719   3.991   6.438  1.00  0.00     0.009 A 
ATOM     72  C   UNL     1      -5.215   4.754   4.737  1.00  0.00     0.009 A 
ATOM     73  C   UNL     1      -3.319   5.321   6.677  1.00  0.00     0.001 A 
ATOM     74  C   UNL     1      -4.788   6.079   4.945  1.00  0.00     0.001 A 
ATOM     75  C   UNL     1      -3.817   6.361   5.898  1.00  0.00     0.000 A 
ENDBRANCH  51  70
BRANCH  63  76
ATOM     76  C   UNL     1      -9.816  -0.507   2.629  1.00  0.00    -0.014 A 
ATOM     77  C   UNL     1     -10.908   0.261   3.037  1.00  0.00     0.009 A 
ATOM     78  C   UNL     1     -10.093  -1.636   1.823  1.00  0.00     0.009 A 
ATOM     79  C   UNL     1     -12.215  -0.106   2.688  1.00  0.00     0.001 A 
ATOM     80  C   UNL     1     -11.385  -1.984   1.444  1.00  0.00     0.001 A 
ATOM     81  C   UNL     1     -12.452  -1.221   1.888  1.00  0.00     0.000 A 
ENDBRANCH  63  76
ENDBRANCH  37  38
ENDBRANCH  30  32
ENDBRANCH  29  30
ENDBRANCH  28  29
ENDBRANCH  27  28
ENDBRANCH  26  27
ENDBRANCH  25  26
ENDBRANCH   1  25
TORSDOF 21
