REMARK SMILES Cc1nsc(N(C)C(=O)[C@H]2CCOC2)c1C(=O)OCCOCCOCCOC(=O)c1ccc(-c2c3nc(c(-c4ccccc4)c4ccc([nH]4)c(-c4ccccc4)c4nc(c(-c5ccccc5)c5ccc2[nH]5)C=C4)C=C3)cc1
REMARK SMILES IDX 22 1 21 2 20 3 19 4 18 5 16 6 17 7 15 8 1 9 2 10 3 11 4 12
REMARK SMILES IDX 5 13 6 14 7 15 8 16 9 17 10 18 11 19 14 20 12 21 13 22 23 23
REMARK SMILES IDX 24 24 25 25 26 26 27 27 28 28 29 29 30 30 31 31 77 32 32 33
REMARK SMILES IDX 76 34 33 35 34 36 35 37 70 38 36 39 75 40 69 41 71 42 37 43
REMARK SMILES IDX 74 44 68 45 67 46 38 48 60 49 45 50 59 51 46 52 49 53 58 54
REMARK SMILES IDX 72 55 47 56 48 57 57 59 73 60 50 61 39 62 40 63 44 64 41 65
REMARK SMILES IDX 43 66 42 67 61 68 62 69 66 70 63 71 65 72 64 73 51 74 52 75
REMARK SMILES IDX 56 76 53 77 55 78 54 79
REMARK H PARENT 71 47 49 58
REMARK Flexibility Score: inf
ROOT
ATOM      1  C   UNL     1      -7.225  -5.987  -3.433  1.00  0.00     0.188 C 
ENDROOT
BRANCH   1   2
ATOM      2  O   UNL     1      -8.429  -5.255  -3.617  1.00  0.00    -0.376 OA
BRANCH   2   3
ATOM      3  C   UNL     1      -8.285  -3.983  -4.255  1.00  0.00     0.202 C 
BRANCH   3   4
ATOM      4  C   UNL     1      -7.892  -4.054  -5.735  1.00  0.00     0.261 C 
BRANCH   4   5
ATOM      5  O   UNL     1      -6.689  -4.816  -5.881  1.00  0.00    -0.460 OA
BRANCH   5   6
ATOM      6  C   UNL     1      -5.511  -4.184  -6.118  1.00  0.00     0.343 C 
ATOM      7  O   UNL     1      -5.385  -3.061  -6.566  1.00  0.00    -0.246 OA
BRANCH   6   8
ATOM      8  C   UNL     1      -4.416  -5.107  -5.857  1.00  0.00     0.117 A 
ATOM      9  C   UNL     1      -5.077  -6.667  -7.864  1.00  0.00     0.069 C 
ATOM     10  C   UNL     1      -4.204  -6.257  -6.722  1.00  0.00     0.068 A 
ATOM     11  N   UNL     1      -3.178  -7.041  -6.417  1.00  0.00    -0.195 NA
ATOM     12  S   UNL     1      -2.470  -6.477  -5.055  1.00  0.00    -0.017 S 
ATOM     13  C   UNL     1      -3.553  -5.156  -4.754  1.00  0.00     0.133 A 
BRANCH  13  14
ATOM     14  N   UNL     1      -3.400  -4.485  -3.495  1.00  0.00    -0.305 N 
ATOM     15  C   UNL     1      -2.303  -4.819  -2.572  1.00  0.00     0.154 C 
BRANCH  14  16
ATOM     16  C   UNL     1      -4.360  -3.537  -3.099  1.00  0.00     0.232 C 
ATOM     17  O   UNL     1      -5.196  -3.055  -3.861  1.00  0.00    -0.274 OA
BRANCH  16  18
ATOM     18  C   UNL     1      -4.408  -3.103  -1.627  1.00  0.00     0.107 C 
ATOM     19  C   UNL     1      -5.437  -2.011  -1.361  1.00  0.00     0.044 C 
ATOM     20  C   UNL     1      -4.918  -4.191  -0.697  1.00  0.00     0.173 C 
ATOM     21  C   UNL     1      -5.708  -2.158   0.118  1.00  0.00     0.161 C 
ATOM     22  O   UNL     1      -5.520  -3.543   0.434  1.00  0.00    -0.381 OA
ENDBRANCH  16  18
ENDBRANCH  14  16
ENDBRANCH  13  14
ENDBRANCH   6   8
ENDBRANCH   5   6
ENDBRANCH   4   5
ENDBRANCH   3   4
ENDBRANCH   2   3
ENDBRANCH   1   2
BRANCH   1  23
ATOM     23  C   UNL     1      -7.039  -7.244  -4.314  1.00  0.00     0.188 C 
BRANCH  23  24
ATOM     24  O   UNL     1      -8.039  -7.686  -5.221  1.00  0.00    -0.376 OA
BRANCH  24  25
ATOM     25  C   UNL     1      -9.416  -7.577  -4.897  1.00  0.00     0.202 C 
BRANCH  25  26
ATOM     26  C   UNL     1      -9.938  -8.327  -3.678  1.00  0.00     0.261 C 
BRANCH  26  27
ATOM     27  O   UNL     1      -9.275  -7.967  -2.472  1.00  0.00    -0.460 OA
BRANCH  27  28
ATOM     28  C   UNL     1      -8.345  -8.851  -2.055  1.00  0.00     0.338 C 
ATOM     29  O   UNL     1      -7.963  -9.853  -2.634  1.00  0.00    -0.246 OA
BRANCH  28  30
ATOM     30  C   UNL     1      -7.883  -8.474  -0.711  1.00  0.00     0.060 A 
ATOM     31  C   UNL     1      -6.900  -9.289  -0.145  1.00  0.00     0.016 A 
ATOM     32  C   UNL     1      -8.593  -7.534   0.051  1.00  0.00     0.016 A 
ATOM     33  C   UNL     1      -6.825  -9.362   1.227  1.00  0.00     0.010 A 
ATOM     34  C   UNL     1      -8.522  -7.610   1.424  1.00  0.00     0.010 A 
ATOM     35  C   UNL     1      -7.727  -8.608   1.984  1.00  0.00    -0.014 A 
BRANCH  35  36
ATOM     36  C   UNL     1      -7.923  -9.021   3.357  1.00  0.00     0.031 A 
ATOM     37  C   UNL     1      -6.909  -8.577   4.327  1.00  0.00     0.074 A 
ATOM     38  C   UNL     1      -9.004  -9.735   3.724  1.00  0.00     0.049 A 
ATOM     39  N   UNL     1      -6.127  -9.309   5.046  1.00  0.00    -0.248 NA
ATOM     40  C   UNL     1      -6.703  -7.130   4.465  1.00  0.00     0.031 C 
ATOM     41  C   UNL     1     -10.223  -9.988   2.950  1.00  0.00     0.029 A 
ATOM     42  N   UNL     1      -9.280 -10.290   4.936  1.00  0.00    -0.354 N 
ATOM     43  C   UNL     1      -5.428  -8.423   5.854  1.00  0.00     0.074 A 
ATOM     44  C   UNL     1      -5.732  -7.096   5.376  1.00  0.00     0.031 C 
ATOM     45  C   UNL     1     -11.188 -10.431   3.786  1.00  0.00     0.029 A 
ATOM     46  C   UNL     1     -10.614 -10.611   5.110  1.00  0.00     0.049 A 
ATOM     47  H   UNL     1      -8.594 -10.447   5.624  1.00  0.00     0.167 HD
ATOM     48  C   UNL     1      -4.807  -8.820   6.996  1.00  0.00     0.031 A 
ATOM     49  C   UNL     1     -11.220 -10.911   6.283  1.00  0.00     0.031 A 
ATOM     50  C   UNL     1      -4.591 -10.239   7.050  1.00  0.00     0.049 A 
ATOM     51  C   UNL     1     -10.173 -11.291   7.260  1.00  0.00     0.074 A 
ATOM     52  C   UNL     1      -3.907 -11.148   6.268  1.00  0.00     0.029 A 
ATOM     53  N   UNL     1      -5.412 -10.986   7.860  1.00  0.00    -0.354 N 
ATOM     54  N   UNL     1      -9.481 -12.391   7.193  1.00  0.00    -0.248 NA
ATOM     55  C   UNL     1      -9.611 -10.255   8.113  1.00  0.00     0.031 C 
ATOM     56  C   UNL     1      -4.682 -12.344   6.320  1.00  0.00     0.029 A 
ATOM     57  C   UNL     1      -5.780 -12.096   7.144  1.00  0.00     0.049 A 
ATOM     58  H   UNL     1      -5.683 -10.766   8.781  1.00  0.00     0.167 HD
ATOM     59  C   UNL     1      -8.214 -12.045   7.641  1.00  0.00     0.074 A 
ATOM     60  C   UNL     1      -8.389 -10.758   8.307  1.00  0.00     0.031 C 
ATOM     61  C   UNL     1      -7.099 -12.691   7.187  1.00  0.00     0.031 A 
BRANCH  48  62
ATOM     62  C   UNL     1      -4.717  -7.938   8.209  1.00  0.00    -0.014 A 
ATOM     63  C   UNL     1      -3.901  -8.326   9.282  1.00  0.00     0.009 A 
ATOM     64  C   UNL     1      -5.606  -6.868   8.434  1.00  0.00     0.009 A 
ATOM     65  C   UNL     1      -3.995  -7.692  10.527  1.00  0.00     0.001 A 
ATOM     66  C   UNL     1      -5.670  -6.204   9.660  1.00  0.00     0.001 A 
ATOM     67  C   UNL     1      -4.878  -6.632  10.714  1.00  0.00     0.000 A 
ENDBRANCH  48  62
BRANCH  49  68
ATOM     68  C   UNL     1     -12.610 -10.606   6.678  1.00  0.00    -0.014 A 
ATOM     69  C   UNL     1     -13.202 -11.242   7.778  1.00  0.00     0.009 A 
ATOM     70  C   UNL     1     -13.284  -9.504   6.116  1.00  0.00     0.009 A 
ATOM     71  C   UNL     1     -14.411 -10.775   8.310  1.00  0.00     0.001 A 
ATOM     72  C   UNL     1     -14.495  -9.044   6.640  1.00  0.00     0.001 A 
ATOM     73  C   UNL     1     -15.052  -9.673   7.747  1.00  0.00     0.000 A 
ENDBRANCH  49  68
BRANCH  61  74
ATOM     74  C   UNL     1      -7.291 -13.959   6.390  1.00  0.00    -0.014 A 
ATOM     75  C   UNL     1      -8.017 -13.993   5.186  1.00  0.00     0.009 A 
ATOM     76  C   UNL     1      -6.596 -15.115   6.777  1.00  0.00     0.009 A 
ATOM     77  C   UNL     1      -8.078 -15.157   4.415  1.00  0.00     0.001 A 
ATOM     78  C   UNL     1      -6.637 -16.272   5.994  1.00  0.00     0.001 A 
ATOM     79  C   UNL     1      -7.383 -16.295   4.818  1.00  0.00     0.000 A 
ENDBRANCH  61  74
ENDBRANCH  35  36
ENDBRANCH  28  30
ENDBRANCH  27  28
ENDBRANCH  26  27
ENDBRANCH  25  26
ENDBRANCH  24  25
ENDBRANCH  23  24
ENDBRANCH   1  23
TORSDOF 20
