REMARK SMILES Cc1noc(C)c1CNc1ccc(Cl)c(C(=O)OCCOCCOCCOC(=O)c2ccc(-c3c4nc(c(-c5ccccc5)c5ccc([nH]5)c(-c5ccccc5)c5nc(c(-c6ccccc6)c6ccc3[nH]6)C=C5)C=C4)cc2)n1
REMARK SMILES IDX 22 1 21 2 20 3 19 4 18 5 16 6 17 7 15 8 10 9 11 10 78 11
REMARK SMILES IDX 12 12 13 13 14 14 9 15 8 17 7 18 1 19 2 20 3 21 4 22 5 23
REMARK SMILES IDX 6 24 23 25 24 26 25 27 26 28 27 29 28 30 29 31 30 32 31 33
REMARK SMILES IDX 77 34 32 35 76 36 33 37 34 38 35 39 70 40 36 41 75 42 69 43
REMARK SMILES IDX 71 44 37 45 74 46 68 47 67 48 38 50 60 51 45 52 59 53 46 54
REMARK SMILES IDX 49 55 58 56 72 57 47 58 48 59 57 61 73 62 50 63 39 64 40 65
REMARK SMILES IDX 44 66 41 67 43 68 42 69 61 70 62 71 66 72 63 73 65 74 64 75
REMARK SMILES IDX 51 76 52 77 56 78 53 79 55 80 54 81
REMARK H PARENT 9 16 71 49 49 60
REMARK Flexibility Score: inf
ROOT
ATOM      1  C   UNL     1      -5.207   4.054  -4.414  1.00  0.00     0.188 C 
ENDROOT
BRANCH   1   2
ATOM      2  O   UNL     1      -6.506   3.670  -4.859  1.00  0.00    -0.376 OA
BRANCH   2   3
ATOM      3  C   UNL     1      -7.635   3.970  -4.038  1.00  0.00     0.202 C 
BRANCH   3   4
ATOM      4  C   UNL     1      -7.584   3.567  -2.559  1.00  0.00     0.261 C 
BRANCH   4   5
ATOM      5  O   UNL     1      -6.506   4.210  -1.857  1.00  0.00    -0.458 OA
BRANCH   5   6
ATOM      6  C   UNL     1      -5.777   3.409  -1.040  1.00  0.00     0.358 C 
ATOM      7  O   UNL     1      -6.023   2.251  -0.742  1.00  0.00    -0.244 OA
BRANCH   6   8
ATOM      8  C   UNL     1      -4.501   4.083  -0.692  1.00  0.00     0.169 A 
ATOM      9  C   UNL     1      -2.185   3.874  -0.764  1.00  0.00     0.127 A 
ATOM     10  C   UNL     1      -2.045   5.047  -0.035  1.00  0.00     0.048 A 
ATOM     11  N   UNL     1      -3.391   3.406  -1.117  1.00  0.00    -0.222 NA
ATOM     12  C   UNL     1      -3.186   5.760   0.346  1.00  0.00     0.027 A 
ATOM     13  C   UNL     1      -4.449   5.268   0.025  1.00  0.00     0.074 A 
ATOM     14  Cl  UNL     1      -5.836   6.132   0.559  1.00  0.00    -0.082 Cl
BRANCH   9  15
ATOM     15  N   UNL     1      -1.114   3.103  -1.159  1.00  0.00    -0.366 N 
ATOM     16  H   UNL     1      -0.966   2.900  -2.110  1.00  0.00     0.162 HD
BRANCH  15  17
ATOM     17  C   UNL     1      -0.204   2.592  -0.141  1.00  0.00     0.156 C 
BRANCH  17  18
ATOM     18  C   UNL     1      -0.093   1.103  -0.070  1.00  0.00     0.037 A 
ATOM     19  C   UNL     1      -2.610   0.356   0.018  1.00  0.00     0.071 C 
ATOM     20  C   UNL     1      -1.143   0.139   0.007  1.00  0.00     0.086 A 
ATOM     21  N   UNL     1      -0.658  -1.107   0.067  1.00  0.00    -0.085 NA
ATOM     22  O   UNL     1       0.713  -0.982   0.038  1.00  0.00    -0.361 OA
ATOM     23  C   UNL     1       1.050   0.331  -0.040  1.00  0.00     0.138 A 
ATOM     24  C   UNL     1       2.496   0.624  -0.065  1.00  0.00     0.091 C 
ENDBRANCH  17  18
ENDBRANCH  15  17
ENDBRANCH   9  15
ENDBRANCH   6   8
ENDBRANCH   5   6
ENDBRANCH   4   5
ENDBRANCH   3   4
ENDBRANCH   2   3
ENDBRANCH   1   2
BRANCH   1  25
ATOM     25  C   UNL     1      -4.957   5.527  -4.028  1.00  0.00     0.188 C 
BRANCH  25  26
ATOM     26  O   UNL     1      -6.105   6.340  -4.061  1.00  0.00    -0.376 OA
BRANCH  26  27
ATOM     27  C   UNL     1      -6.375   7.151  -5.191  1.00  0.00     0.202 C 
BRANCH  27  28
ATOM     28  C   UNL     1      -5.938   6.830  -6.635  1.00  0.00     0.261 C 
BRANCH  28  29
ATOM     29  O   UNL     1      -4.903   5.864  -6.832  1.00  0.00    -0.460 OA
BRANCH  29  30
ATOM     30  C   UNL     1      -3.642   6.340  -6.944  1.00  0.00     0.338 C 
ATOM     31  O   UNL     1      -3.270   7.492  -6.836  1.00  0.00    -0.246 OA
BRANCH  30  32
ATOM     32  C   UNL     1      -2.734   5.181  -7.058  1.00  0.00     0.060 A 
ATOM     33  C   UNL     1      -1.828   4.930  -6.020  1.00  0.00     0.016 A 
ATOM     34  C   UNL     1      -2.774   4.356  -8.184  1.00  0.00     0.016 A 
ATOM     35  C   UNL     1      -0.942   3.857  -6.115  1.00  0.00     0.010 A 
ATOM     36  C   UNL     1      -1.871   3.293  -8.286  1.00  0.00     0.010 A 
ATOM     37  C   UNL     1      -0.937   3.053  -7.263  1.00  0.00    -0.014 A 
BRANCH  37  38
ATOM     38  C   UNL     1       0.136   2.050  -7.461  1.00  0.00     0.031 A 
ATOM     39  C   UNL     1       1.328   2.420  -8.301  1.00  0.00     0.074 A 
ATOM     40  C   UNL     1       0.053   0.826  -6.910  1.00  0.00     0.049 A 
ATOM     41  N   UNL     1       2.355   1.689  -8.650  1.00  0.00    -0.248 NA
ATOM     42  C   UNL     1       1.365   3.799  -8.817  1.00  0.00     0.031 C 
ATOM     43  C   UNL     1      -1.033   0.352  -6.054  1.00  0.00     0.029 A 
ATOM     44  N   UNL     1       0.899  -0.251  -7.009  1.00  0.00    -0.354 N 
ATOM     45  C   UNL     1       3.152   2.512  -9.436  1.00  0.00     0.074 A 
ATOM     46  C   UNL     1       2.484   3.792  -9.526  1.00  0.00     0.031 C 
ATOM     47  C   UNL     1      -0.798  -0.930  -5.722  1.00  0.00     0.029 A 
ATOM     48  C   UNL     1       0.435  -1.374  -6.369  1.00  0.00     0.049 A 
ATOM     49  H   UNL     1       1.757  -0.220  -7.492  1.00  0.00     0.167 HD
ATOM     50  C   UNL     1       4.334   2.226 -10.030  1.00  0.00     0.031 A 
ATOM     51  C   UNL     1       0.934  -2.625  -6.336  1.00  0.00     0.031 A 
ATOM     52  C   UNL     1       4.997   0.953  -9.950  1.00  0.00     0.049 A 
ATOM     53  C   UNL     1       2.219  -2.932  -7.061  1.00  0.00     0.074 A 
ATOM     54  C   UNL     1       6.219   0.585 -10.485  1.00  0.00     0.029 A 
ATOM     55  N   UNL     1       4.487  -0.162  -9.307  1.00  0.00    -0.354 N 
ATOM     56  N   UNL     1       2.993  -2.130  -7.752  1.00  0.00    -0.248 NA
ATOM     57  C   UNL     1       2.703  -4.320  -6.995  1.00  0.00     0.031 C 
ATOM     58  C   UNL     1       6.421  -0.772 -10.217  1.00  0.00     0.029 A 
ATOM     59  C   UNL     1       5.353  -1.231  -9.463  1.00  0.00     0.049 A 
ATOM     60  H   UNL     1       3.636  -0.191  -8.813  1.00  0.00     0.167 HD
ATOM     61  C   UNL     1       4.064  -2.908  -8.177  1.00  0.00     0.074 A 
ATOM     62  C   UNL     1       3.850  -4.240  -7.653  1.00  0.00     0.031 C 
ATOM     63  C   UNL     1       5.130  -2.550  -8.934  1.00  0.00     0.031 A 
BRANCH  50  64
ATOM     64  C   UNL     1       4.976   3.303 -10.857  1.00  0.00    -0.014 A 
ATOM     65  C   UNL     1       5.599   4.409 -10.260  1.00  0.00     0.009 A 
ATOM     66  C   UNL     1       5.008   3.174 -12.255  1.00  0.00     0.009 A 
ATOM     67  C   UNL     1       6.225   5.376 -11.050  1.00  0.00     0.001 A 
ATOM     68  C   UNL     1       5.655   4.129 -13.039  1.00  0.00     0.001 A 
ATOM     69  C   UNL     1       6.258   5.232 -12.437  1.00  0.00     0.000 A 
ENDBRANCH  50  64
BRANCH  51  70
ATOM     70  C   UNL     1       0.199  -3.708  -5.630  1.00  0.00    -0.014 A 
ATOM     71  C   UNL     1       0.720  -4.293  -4.466  1.00  0.00     0.009 A 
ATOM     72  C   UNL     1      -1.011  -4.195  -6.151  1.00  0.00     0.009 A 
ATOM     73  C   UNL     1       0.063  -5.366  -3.859  1.00  0.00     0.001 A 
ATOM     74  C   UNL     1      -1.680  -5.248  -5.524  1.00  0.00     0.001 A 
ATOM     75  C   UNL     1      -1.137  -5.841  -4.387  1.00  0.00     0.000 A 
ENDBRANCH  51  70
BRANCH  63  76
ATOM     76  C   UNL     1       6.167  -3.603  -9.212  1.00  0.00    -0.014 A 
ATOM     77  C   UNL     1       5.916  -4.657 -10.103  1.00  0.00     0.009 A 
ATOM     78  C   UNL     1       7.430  -3.509  -8.607  1.00  0.00     0.009 A 
ATOM     79  C   UNL     1       6.901  -5.614 -10.358  1.00  0.00     0.001 A 
ATOM     80  C   UNL     1       8.422  -4.449  -8.887  1.00  0.00     0.001 A 
ATOM     81  C   UNL     1       8.154  -5.506  -9.755  1.00  0.00     0.000 A 
ENDBRANCH  63  76
ENDBRANCH  37  38
ENDBRANCH  30  32
ENDBRANCH  29  30
ENDBRANCH  28  29
ENDBRANCH  27  28
ENDBRANCH  26  27
ENDBRANCH  25  26
ENDBRANCH   1  25
TORSDOF 20
