REMARK SMILES Cc1cc(C(=O)OCCOCCOCCOC(=O)c2ccc(-c3c4nc(c(-c5ccccc5)c5ccc([nH]5)c(-c5ccccc5)c5nc(c(-c6ccccc6)c6ccc3[nH]6)C=C5)C=C4)cc2)cc(S(=O)(=O)NNC(=O)c2c[nH]c3ccccc23)c1C
REMARK SMILES IDX 11 1 10 2 9 3 8 4 7 5 5 6 6 7 4 8 1 9 2 10 3 11 85 12 68 13
REMARK SMILES IDX 86 14 67 15 69 16 70 17 71 18 72 19 73 21 74 22 75 24 76 25
REMARK SMILES IDX 77 26 84 27 78 28 79 29 83 30 80 32 82 33 81 34 12 35 13 36
REMARK SMILES IDX 14 37 15 38 16 39 17 40 18 41 19 42 20 43 66 44 21 45 65 46
REMARK SMILES IDX 22 47 23 48 24 49 59 50 25 51 64 52 58 53 60 54 26 55 63 56
REMARK SMILES IDX 57 57 56 58 27 60 49 61 34 62 48 63 35 64 38 65 47 66 61 67
REMARK SMILES IDX 36 68 37 69 46 71 62 72 39 73 28 74 29 75 33 76 30 77 32 78
REMARK SMILES IDX 31 79 50 80 51 81 55 82 52 83 54 84 53 85 40 86 41 87 45 88
REMARK SMILES IDX 42 89 44 90 43 91
REMARK H PARENT 72 20 73 23 78 31 60 59 38 70
REMARK Flexibility Score: inf
ROOT
ATOM      1  C   UNL     1      -4.569   1.064  -1.437  1.00  0.00     0.188 C 
ENDROOT
BRANCH   1   2
ATOM      2  O   UNL     1      -5.659   1.834  -0.967  1.00  0.00    -0.376 OA
BRANCH   2   3
ATOM      3  C   UNL     1      -5.456   2.958  -0.127  1.00  0.00     0.202 C 
BRANCH   3   4
ATOM      4  C   UNL     1      -4.408   2.990   1.000  1.00  0.00     0.261 C 
BRANCH   4   5
ATOM      5  O   UNL     1      -3.193   2.272   0.768  1.00  0.00    -0.460 OA
BRANCH   5   6
ATOM      6  C   UNL     1      -3.060   1.094   1.430  1.00  0.00     0.338 C 
ATOM      7  O   UNL     1      -3.869   0.579   2.180  1.00  0.00    -0.246 OA
BRANCH   6   8
ATOM      8  C   UNL     1      -1.817   0.414   0.985  1.00  0.00     0.061 A 
ATOM      9  C   UNL     1       1.731   1.371   0.017  1.00  0.00     0.044 C 
ATOM     10  C   UNL     1       0.520   0.521   0.300  1.00  0.00    -0.046 A 
ATOM     11  C   UNL     1      -0.662   1.155   0.709  1.00  0.00     0.019 A 
ATOM     12  C   UNL     1       0.550  -0.886   0.189  1.00  0.00    -0.028 A 
ATOM     13  C   UNL     1      -0.646  -1.621   0.414  1.00  0.00     0.088 A 
ATOM     14  C   UNL     1       1.838  -1.608  -0.144  1.00  0.00     0.046 C 
ATOM     15  C   UNL     1      -1.823  -0.978   0.815  1.00  0.00     0.037 A 
BRANCH  13  16
ATOM     16  S   UNL     1      -0.633  -3.368   0.045  1.00  0.00     0.257 S 
ATOM     17  O   UNL     1      -0.294  -3.466  -1.367  1.00  0.00    -0.205 OA
ATOM     18  O   UNL     1       0.137  -4.035   1.057  1.00  0.00    -0.205 OA
BRANCH  16  19
ATOM     19  N   UNL     1      -2.255  -3.946   0.251  1.00  0.00    -0.123 NA
ATOM     20  H   UNL     1      -2.760  -3.270   0.825  1.00  0.00     0.167 HD
BRANCH  19  21
ATOM     21  N   UNL     1      -3.022  -4.145  -1.008  1.00  0.00    -0.273 N 
ATOM     22  C   UNL     1      -2.475  -4.939  -2.001  1.00  0.00     0.268 C 
ATOM     23  H   UNL     1      -3.901  -3.720  -1.132  1.00  0.00     0.186 HD
ATOM     24  O   UNL     1      -2.273  -4.450  -3.114  1.00  0.00    -0.268 OA
BRANCH  22  25
ATOM     25  C   UNL     1      -2.290  -6.377  -1.719  1.00  0.00     0.066 A 
ATOM     26  C   UNL     1      -1.125  -7.130  -1.935  1.00  0.00     0.097 A 
ATOM     27  C   UNL     1      -3.151  -7.245  -2.444  1.00  0.00     0.012 A 
ATOM     28  N   UNL     1      -1.145  -7.160  -3.339  1.00  0.00    -0.360 N 
ATOM     29  C   UNL     1      -2.456  -7.389  -3.663  1.00  0.00     0.046 A 
ATOM     30  C   UNL     1      -4.511  -7.451  -2.383  1.00  0.00     0.011 A 
ATOM     31  H   UNL     1      -0.385  -7.042  -3.953  1.00  0.00     0.166 HD
ATOM     32  C   UNL     1      -3.042  -7.545  -4.883  1.00  0.00     0.027 A 
ATOM     33  C   UNL     1      -5.104  -7.677  -3.587  1.00  0.00     0.001 A 
ATOM     34  C   UNL     1      -4.386  -7.633  -4.752  1.00  0.00     0.002 A 
ENDBRANCH  22  25
ENDBRANCH  19  21
ENDBRANCH  16  19
ENDBRANCH  13  16
ENDBRANCH   6   8
ENDBRANCH   5   6
ENDBRANCH   4   5
ENDBRANCH   3   4
ENDBRANCH   2   3
ENDBRANCH   1   2
BRANCH   1  35
ATOM     35  C   UNL     1      -3.381   1.729  -2.159  1.00  0.00     0.188 C 
BRANCH  35  36
ATOM     36  O   UNL     1      -3.366   3.134  -2.180  1.00  0.00    -0.376 OA
BRANCH  36  37
ATOM     37  C   UNL     1      -4.094   3.841  -3.168  1.00  0.00     0.202 C 
BRANCH  37  38
ATOM     38  C   UNL     1      -5.002   3.223  -4.256  1.00  0.00     0.261 C 
BRANCH  38  39
ATOM     39  O   UNL     1      -5.369   1.838  -4.169  1.00  0.00    -0.460 OA
BRANCH  39  40
ATOM     40  C   UNL     1      -4.766   0.998  -5.053  1.00  0.00     0.338 C 
ATOM     41  O   UNL     1      -3.883   1.285  -5.842  1.00  0.00    -0.246 OA
BRANCH  40  42
ATOM     42  C   UNL     1      -5.246  -0.392  -4.835  1.00  0.00     0.060 A 
ATOM     43  C   UNL     1      -4.361  -1.365  -4.361  1.00  0.00     0.016 A 
ATOM     44  C   UNL     1      -6.553  -0.761  -5.155  1.00  0.00     0.016 A 
ATOM     45  C   UNL     1      -4.797  -2.696  -4.202  1.00  0.00     0.010 A 
ATOM     46  C   UNL     1      -6.973  -2.102  -5.008  1.00  0.00     0.010 A 
ATOM     47  C   UNL     1      -6.104  -3.098  -4.532  1.00  0.00    -0.014 A 
BRANCH  47  48
ATOM     48  C   UNL     1      -6.563  -4.551  -4.480  1.00  0.00     0.031 A 
ATOM     49  C   UNL     1      -6.316  -5.396  -5.791  1.00  0.00     0.074 A 
ATOM     50  C   UNL     1      -7.013  -5.059  -3.285  1.00  0.00     0.049 A 
ATOM     51  N   UNL     1      -6.710  -6.601  -6.160  1.00  0.00    -0.248 NA
ATOM     52  C   UNL     1      -5.393  -4.799  -6.789  1.00  0.00     0.031 C 
ATOM     53  C   UNL     1      -6.829  -4.394  -1.976  1.00  0.00     0.029 A 
ATOM     54  N   UNL     1      -7.566  -6.284  -2.902  1.00  0.00    -0.354 N 
ATOM     55  C   UNL     1      -5.971  -6.967  -7.324  1.00  0.00     0.074 A 
ATOM     56  C   UNL     1      -5.278  -5.745  -7.724  1.00  0.00     0.031 C 
ATOM     57  C   UNL     1      -7.089  -5.266  -0.974  1.00  0.00     0.029 A 
ATOM     58  C   UNL     1      -7.477  -6.574  -1.535  1.00  0.00     0.049 A 
ATOM     59  H   UNL     1      -7.987  -6.898  -3.546  1.00  0.00     0.167 HD
ATOM     60  C   UNL     1      -5.626  -8.224  -7.812  1.00  0.00     0.031 A 
ATOM     61  C   UNL     1      -7.497  -7.753  -0.823  1.00  0.00     0.031 A 
ATOM     62  C   UNL     1      -5.970  -9.530  -7.157  1.00  0.00     0.049 A 
ATOM     63  C   UNL     1      -7.387  -9.146  -1.546  1.00  0.00     0.074 A 
ATOM     64  C   UNL     1      -6.306 -10.767  -7.700  1.00  0.00     0.029 A 
ATOM     65  N   UNL     1      -5.711  -9.897  -5.814  1.00  0.00    -0.354 N 
ATOM     66  N   UNL     1      -7.145  -9.422  -2.811  1.00  0.00    -0.248 NA
ATOM     67  C   UNL     1      -7.435 -10.371  -0.726  1.00  0.00     0.031 C 
ATOM     68  C   UNL     1      -6.574 -11.685  -6.645  1.00  0.00     0.029 A 
ATOM     69  C   UNL     1      -6.376 -11.049  -5.427  1.00  0.00     0.049 A 
ATOM     70  H   UNL     1      -5.120  -9.385  -5.216  1.00  0.00     0.167 HD
ATOM     71  C   UNL     1      -6.859 -10.781  -2.936  1.00  0.00     0.074 A 
ATOM     72  C   UNL     1      -7.050 -11.313  -1.588  1.00  0.00     0.031 C 
ATOM     73  C   UNL     1      -6.524 -11.528  -4.045  1.00  0.00     0.031 A 
BRANCH  60  74
ATOM     74  C   UNL     1      -5.031  -8.253  -9.223  1.00  0.00    -0.014 A 
ATOM     75  C   UNL     1      -3.715  -7.909  -9.593  1.00  0.00     0.009 A 
ATOM     76  C   UNL     1      -5.914  -8.612 -10.256  1.00  0.00     0.009 A 
ATOM     77  C   UNL     1      -3.324  -7.901 -10.949  1.00  0.00     0.001 A 
ATOM     78  C   UNL     1      -5.518  -8.636 -11.598  1.00  0.00     0.001 A 
ATOM     79  C   UNL     1      -4.225  -8.268 -11.948  1.00  0.00     0.000 A 
ENDBRANCH  60  74
BRANCH  61  80
ATOM     80  C   UNL     1      -7.389  -7.731   0.706  1.00  0.00    -0.014 A 
ATOM     81  C   UNL     1      -6.389  -8.421   1.428  1.00  0.00     0.009 A 
ATOM     82  C   UNL     1      -8.360  -7.058   1.472  1.00  0.00     0.009 A 
ATOM     83  C   UNL     1      -6.420  -8.513   2.834  1.00  0.00     0.001 A 
ATOM     84  C   UNL     1      -8.372  -7.121   2.877  1.00  0.00     0.001 A 
ATOM     85  C   UNL     1      -7.420  -7.872   3.558  1.00  0.00     0.000 A 
ENDBRANCH  61  80
BRANCH  73  86
ATOM     86  C   UNL     1      -6.644 -13.025  -3.864  1.00  0.00    -0.014 A 
ATOM     87  C   UNL     1      -7.938 -13.531  -3.639  1.00  0.00     0.009 A 
ATOM     88  C   UNL     1      -5.586 -13.934  -4.010  1.00  0.00     0.009 A 
ATOM     89  C   UNL     1      -8.174 -14.897  -3.522  1.00  0.00     0.001 A 
ATOM     90  C   UNL     1      -5.831 -15.315  -3.916  1.00  0.00     0.001 A 
ATOM     91  C   UNL     1      -7.121 -15.791  -3.667  1.00  0.00     0.000 A 
ENDBRANCH  73  86
ENDBRANCH  47  48
ENDBRANCH  40  42
ENDBRANCH  39  40
ENDBRANCH  38  39
ENDBRANCH  37  38
ENDBRANCH  36  37
ENDBRANCH  35  36
ENDBRANCH   1  35
TORSDOF 21
