REMARK SMILES O=C(OCCOCCOCCOC(=O)c1cccc(Nc2nc(-c3ccc(F)cc3F)cs2)c1)c1ccc(-c2c3nc(c(-c4ccccc4)c4ccc([nH]4)c(-c4ccccc4)c4nc(c(-c5ccccc5)c5ccc2[nH]5)C=C4)C=C3)cc1
REMARK SMILES IDX 8 1 7 2 6 3 5 4 4 5 3 6 2 7 1 8 35 9 36 10 82 11 37 12 81 13
REMARK SMILES IDX 38 14 39 15 40 16 75 17 41 18 80 19 74 20 76 21 42 22 79 23
REMARK SMILES IDX 73 24 72 25 43 27 65 28 50 29 64 30 51 31 54 32 63 33 77 34
REMARK SMILES IDX 52 35 53 36 62 38 78 39 55 40 44 41 45 42 49 43 46 44 48 45
REMARK SMILES IDX 47 46 66 47 67 48 71 49 68 50 70 51 69 52 56 53 57 54 61 55
REMARK SMILES IDX 58 56 60 57 59 58 9 59 10 60 11 61 12 62 13 63 14 64 15 65
REMARK SMILES IDX 16 66 34 67 17 68 19 69 18 70 20 71 21 73 22 74 33 75 23 76
REMARK SMILES IDX 32 77 24 78 25 79 30 80 26 81 29 82 31 83 27 84 28 85
REMARK H PARENT 76 26 54 37 20 72
REMARK Flexibility Score: inf
ROOT
ATOM      1  C   UNL     1       1.907   3.390  -0.179  1.00  0.00     0.188 C 
ENDROOT
BRANCH   1   2
ATOM      2  C   UNL     1       2.356   2.103  -0.877  1.00  0.00     0.188 C 
BRANCH   2   3
ATOM      3  O   UNL     1       3.635   1.667  -0.393  1.00  0.00    -0.376 OA
BRANCH   3   4
ATOM      4  C   UNL     1       4.449   1.059  -1.401  1.00  0.00     0.202 C 
BRANCH   4   5
ATOM      5  C   UNL     1       4.234  -0.452  -1.553  1.00  0.00     0.261 C 
BRANCH   5   6
ATOM      6  O   UNL     1       2.861  -0.824  -1.346  1.00  0.00    -0.460 OA
BRANCH   6   7
ATOM      7  C   UNL     1       2.277  -1.263  -0.203  1.00  0.00     0.338 C 
ATOM      8  O   UNL     1       1.076  -1.531  -0.220  1.00  0.00    -0.246 OA
BRANCH   7   9
ATOM      9  C   UNL     1       3.022  -1.503   1.072  1.00  0.00     0.060 A 
ATOM     10  C   UNL     1       4.170  -0.818   1.469  1.00  0.00     0.016 A 
ATOM     11  C   UNL     1       2.491  -2.462   1.955  1.00  0.00     0.016 A 
ATOM     12  C   UNL     1       4.856  -1.175   2.625  1.00  0.00     0.010 A 
ATOM     13  C   UNL     1       3.135  -2.774   3.159  1.00  0.00     0.010 A 
ATOM     14  C   UNL     1       4.354  -2.165   3.472  1.00  0.00    -0.014 A 
BRANCH  14  15
ATOM     15  C   UNL     1       5.192  -2.594   4.613  1.00  0.00     0.031 A 
ATOM     16  C   UNL     1       5.907  -3.913   4.538  1.00  0.00     0.074 A 
ATOM     17  C   UNL     1       5.443  -1.730   5.614  1.00  0.00     0.049 A 
ATOM     18  N   UNL     1       6.765  -4.436   5.374  1.00  0.00    -0.248 NA
ATOM     19  C   UNL     1       5.637  -4.746   3.354  1.00  0.00     0.031 C 
ATOM     20  C   UNL     1       4.867  -0.389   5.734  1.00  0.00     0.029 A 
ATOM     21  N   UNL     1       6.289  -1.827   6.687  1.00  0.00    -0.354 N 
ATOM     22  C   UNL     1       7.136  -5.653   4.818  1.00  0.00     0.074 A 
ATOM     23  C   UNL     1       6.394  -5.806   3.588  1.00  0.00     0.031 C 
ATOM     24  C   UNL     1       5.420   0.233   6.787  1.00  0.00     0.029 A 
ATOM     25  C   UNL     1       6.348  -0.680   7.443  1.00  0.00     0.049 A 
ATOM     26  H   UNL     1       6.805  -2.639   6.897  1.00  0.00     0.167 HD
ATOM     27  C   UNL     1       8.023  -6.561   5.288  1.00  0.00     0.031 A 
ATOM     28  C   UNL     1       7.067  -0.407   8.547  1.00  0.00     0.031 A 
ATOM     29  C   UNL     1       8.737  -6.418   6.526  1.00  0.00     0.049 A 
ATOM     30  C   UNL     1       7.949  -1.486   9.112  1.00  0.00     0.074 A 
ATOM     31  C   UNL     1       9.586  -7.314   7.148  1.00  0.00     0.029 A 
ATOM     32  N   UNL     1       8.682  -5.289   7.330  1.00  0.00    -0.354 N 
ATOM     33  N   UNL     1       8.241  -2.663   8.611  1.00  0.00    -0.248 NA
ATOM     34  C   UNL     1       8.584  -1.206  10.407  1.00  0.00     0.031 C 
ATOM     35  C   UNL     1      10.020  -6.739   8.348  1.00  0.00     0.029 A 
ATOM     36  C   UNL     1       9.475  -5.468   8.449  1.00  0.00     0.049 A 
ATOM     37  H   UNL     1       8.156  -4.480   7.134  1.00  0.00     0.167 HD
ATOM     38  C   UNL     1       9.098  -3.261   9.525  1.00  0.00     0.074 A 
ATOM     39  C   UNL     1       9.302  -2.304  10.595  1.00  0.00     0.031 C 
ATOM     40  C   UNL     1       9.659  -4.494   9.492  1.00  0.00     0.031 A 
BRANCH  27  41
ATOM     41  C   UNL     1       8.215  -7.804   4.470  1.00  0.00    -0.014 A 
ATOM     42  C   UNL     1       8.960  -7.780   3.280  1.00  0.00     0.009 A 
ATOM     43  C   UNL     1       7.619  -9.007   4.876  1.00  0.00     0.009 A 
ATOM     44  C   UNL     1       9.075  -8.930   2.495  1.00  0.00     0.001 A 
ATOM     45  C   UNL     1       7.751 -10.160   4.100  1.00  0.00     0.001 A 
ATOM     46  C   UNL     1       8.470 -10.118   2.906  1.00  0.00     0.000 A 
ENDBRANCH  27  41
BRANCH  28  47
ATOM     47  C   UNL     1       6.937   0.904   9.237  1.00  0.00    -0.014 A 
ATOM     48  C   UNL     1       8.017   1.794   9.330  1.00  0.00     0.009 A 
ATOM     49  C   UNL     1       5.733   1.245   9.867  1.00  0.00     0.009 A 
ATOM     50  C   UNL     1       7.900   2.975  10.071  1.00  0.00     0.001 A 
ATOM     51  C   UNL     1       5.615   2.425  10.601  1.00  0.00     0.001 A 
ATOM     52  C   UNL     1       6.701   3.288  10.710  1.00  0.00     0.000 A 
ENDBRANCH  28  47
BRANCH  40  53
ATOM     53  C   UNL     1      10.564  -4.853  10.632  1.00  0.00    -0.014 A 
ATOM     54  C   UNL     1      10.043  -5.188  11.890  1.00  0.00     0.009 A 
ATOM     55  C   UNL     1      11.952  -4.879  10.434  1.00  0.00     0.009 A 
ATOM     56  C   UNL     1      10.901  -5.514  12.941  1.00  0.00     0.001 A 
ATOM     57  C   UNL     1      12.806  -5.227  11.480  1.00  0.00     0.001 A 
ATOM     58  C   UNL     1      12.280  -5.536  12.735  1.00  0.00     0.000 A 
ENDBRANCH  40  53
ENDBRANCH  14  15
ENDBRANCH   7   9
ENDBRANCH   6   7
ENDBRANCH   5   6
ENDBRANCH   4   5
ENDBRANCH   3   4
ENDBRANCH   2   3
ENDBRANCH   1   2
BRANCH   1  59
ATOM     59  O   UNL     1       2.635   4.564  -0.543  1.00  0.00    -0.376 OA
BRANCH  59  60
ATOM     60  C   UNL     1       4.023   4.587  -0.220  1.00  0.00     0.202 C 
BRANCH  60  61
ATOM     61  C   UNL     1       4.372   4.795   1.256  1.00  0.00     0.261 C 
BRANCH  61  62
ATOM     62  O   UNL     1       3.806   3.811   2.142  1.00  0.00    -0.460 OA
BRANCH  62  63
ATOM     63  C   UNL     1       2.995   4.321   3.095  1.00  0.00     0.338 C 
ATOM     64  O   UNL     1       2.672   5.499   3.244  1.00  0.00    -0.246 OA
BRANCH  63  65
ATOM     65  C   UNL     1       2.611   3.306   4.085  1.00  0.00     0.062 A 
ATOM     66  C   UNL     1       1.758   2.246   3.786  1.00  0.00     0.016 A 
ATOM     67  C   UNL     1       2.985   3.560   5.409  1.00  0.00     0.041 A 
ATOM     68  C   UNL     1       1.279   1.450   4.829  1.00  0.00     0.003 A 
ATOM     69  C   UNL     1       2.476   2.798   6.469  1.00  0.00     0.041 A 
ATOM     70  C   UNL     1       1.636   1.724   6.159  1.00  0.00     0.026 A 
BRANCH  69  71
ATOM     71  N   UNL     1       2.799   3.211   7.772  1.00  0.00    -0.332 N 
ATOM     72  H   UNL     1       3.522   3.876   7.842  1.00  0.00     0.169 HD
BRANCH  71  73
ATOM     73  C   UNL     1       2.251   2.818   8.942  1.00  0.00     0.187 A 
ATOM     74  N   UNL     1       1.946   1.598   9.331  1.00  0.00    -0.220 NA
ATOM     75  S   UNL     1       1.937   4.049  10.121  1.00  0.00    -0.105 S 
ATOM     76  C   UNL     1       1.477   1.617  10.634  1.00  0.00     0.086 A 
ATOM     77  C   UNL     1       1.339   2.868  11.197  1.00  0.00     0.097 A 
BRANCH  76  78
ATOM     78  C   UNL     1       1.189   0.408  11.380  1.00  0.00     0.037 A 
ATOM     79  C   UNL     1      -0.110   0.140  11.833  1.00  0.00     0.016 A 
ATOM     80  C   UNL     1       2.222  -0.472  11.727  1.00  0.00     0.135 A 
ATOM     81  C   UNL     1      -0.354  -0.986  12.624  1.00  0.00     0.040 A 
ATOM     82  C   UNL     1       1.984  -1.596  12.509  1.00  0.00     0.079 A 
ATOM     83  F   UNL     1       3.485  -0.219  11.366  1.00  0.00    -0.206 F 
ATOM     84  C   UNL     1       0.694  -1.841  12.954  1.00  0.00     0.126 A 
ATOM     85  F   UNL     1       0.456  -2.907  13.728  1.00  0.00    -0.207 F 
ENDBRANCH  76  78
ENDBRANCH  71  73
ENDBRANCH  69  71
ENDBRANCH  63  65
ENDBRANCH  62  63
ENDBRANCH  61  62
ENDBRANCH  60  61
ENDBRANCH  59  60
ENDBRANCH   1  59
TORSDOF 20
