REMARK SMILES O=C(OCCOCCOCCOC(=O)c1ccc(-c2c3nc(c(-c4ccccc4)c4ccc([nH]4)c(-c4ccccc4)c4nc(c(-c5ccccc5)c5ccc2[nH]5)C=C4)C=C3)cc1)C1=Cc2cc(S(F)(F)(F)(F)F)ccc2O[C@@H]1C(F)(F)F
REMARK SMILES IDX 8 1 7 2 6 3 5 4 4 5 3 6 2 7 1 8 63 9 64 10 78 11 65 12 77 13
REMARK SMILES IDX 66 14 76 15 67 16 75 17 74 18 79 19 80 20 81 21 82 22 68 23
REMARK SMILES IDX 69 24 70 25 71 26 72 27 73 28 9 29 10 30 11 31 12 32 13 33
REMARK SMILES IDX 14 34 15 35 16 36 62 37 17 38 61 39 18 40 19 41 20 42 55 43
REMARK SMILES IDX 21 44 60 45 54 46 56 47 22 48 59 49 53 50 52 51 23 53 45 54
REMARK SMILES IDX 30 55 44 56 31 57 34 58 43 59 57 60 32 61 33 62 42 64 58 65
REMARK SMILES IDX 35 66 24 67 25 68 29 69 26 70 28 71 27 72 46 73 47 74 51 75
REMARK SMILES IDX 48 76 50 77 49 78 36 79 37 80 41 81 38 82 40 83 39 84
REMARK H PARENT 56 52 34 63
REMARK Flexibility Score: inf
ROOT
ATOM      1  C   UNL     1       2.555   1.540   1.936  1.00  0.00     0.188 C 
ENDROOT
BRANCH   1   2
ATOM      2  C   UNL     1       3.062   0.202   1.423  1.00  0.00     0.188 C 
BRANCH   2   3
ATOM      3  O   UNL     1       4.482   0.202   1.423  1.00  0.00    -0.376 OA
BRANCH   3   4
ATOM      4  C   UNL     1       4.955   1.243   0.580  1.00  0.00     0.202 C 
BRANCH   4   5
ATOM      5  C   UNL     1       4.449   1.019  -0.835  1.00  0.00     0.261 C 
BRANCH   5   6
ATOM      6  O   UNL     1       3.029   1.019  -0.835  1.00  0.00    -0.460 OA
BRANCH   6   7
ATOM      7  C   UNL     1       2.319   0.063  -0.061  1.00  0.00     0.338 C 
ATOM      8  O   UNL     1       1.048   0.063  -0.061  1.00  0.00    -0.246 OA
BRANCH   7   9
ATOM      9  C   UNL     1       3.079  -0.960   0.767  1.00  0.00     0.087 C 
ATOM     10  C   UNL     1       4.439  -0.960   0.767  1.00  0.00     0.027 C 
ATOM     11  C   UNL     1       2.319  -1.983   1.595  1.00  0.00     0.316 C 
ATOM     12  C   UNL     1       5.199   0.063  -0.061  1.00  0.00     0.019 A 
ATOM     13  O   UNL     1       3.592   1.586   0.801  1.00  0.00    -0.475 OA
ATOM     14  C   UNL     1       6.225  -0.272  -0.930  1.00  0.00     0.036 A 
ATOM     15  C   UNL     1       4.747   1.308   0.023  1.00  0.00     0.128 A 
ATOM     16  C   UNL     1       6.910   0.845  -1.465  1.00  0.00     0.107 A 
ATOM     17  C   UNL     1       5.386   2.331  -0.636  1.00  0.00     0.048 A 
ATOM     18  C   UNL     1       6.444   2.080  -1.465  1.00  0.00     0.028 A 
BRANCH  11  19
ATOM     19  C   UNL     1       2.686  -1.822   3.061  1.00  0.00     0.430 C 
ATOM     20  F   UNL     1       2.365  -0.597   3.466  1.00  0.00    -0.167 F 
ATOM     21  F   UNL     1       2.021  -2.717   3.786  1.00  0.00    -0.167 F 
ATOM     22  F   UNL     1       3.994  -2.011   3.214  1.00  0.00    -0.167 F 
ENDBRANCH  11  19
BRANCH  16  23
ATOM     23  S   UNL     1       8.539   0.560  -2.200  1.00  0.00     0.310 S 
ATOM     24  F   UNL     1       9.248   0.512  -0.782  1.00  0.00    -0.094 F 
ATOM     25  F   UNL     1       8.786   2.116  -2.194  1.00  0.00    -0.094 F 
ATOM     26  F   UNL     1       9.935   0.313  -2.839  1.00  0.00    -0.094 F 
ATOM     27  F   UNL     1       8.332  -1.000  -2.069  1.00  0.00    -0.094 F 
ATOM     28  F   UNL     1       7.168   0.791  -1.448  1.00  0.00    -0.094 F 
ENDBRANCH  16  23
ENDBRANCH   7   9
ENDBRANCH   6   7
ENDBRANCH   5   6
ENDBRANCH   4   5
ENDBRANCH   3   4
ENDBRANCH   2   3
ENDBRANCH   1   2
BRANCH   1  29
ATOM     29  O   UNL     1       3.029   2.580   1.094  1.00  0.00    -0.376 OA
BRANCH  29  30
ATOM     30  C   UNL     1       4.449   2.580   1.094  1.00  0.00     0.202 C 
BRANCH  30  31
ATOM     31  C   UNL     1       4.955   2.804   2.509  1.00  0.00     0.261 C 
BRANCH  31  32
ATOM     32  O   UNL     1       4.482   1.764   3.352  1.00  0.00    -0.460 OA
BRANCH  32  33
ATOM     33  C   UNL     1       3.086   1.562   3.515  1.00  0.00     0.338 C 
ATOM     34  O   UNL     1       2.260   2.313   2.907  1.00  0.00    -0.246 OA
BRANCH  33  35
ATOM     35  C   UNL     1       2.579   0.449   4.417  1.00  0.00     0.060 A 
ATOM     36  C   UNL     1       1.447  -0.278   4.087  1.00  0.00     0.016 A 
ATOM     37  C   UNL     1       3.164   0.313   5.601  1.00  0.00     0.016 A 
ATOM     38  C   UNL     1       0.834  -0.916   5.191  1.00  0.00     0.010 A 
ATOM     39  C   UNL     1       2.575  -0.437   6.590  1.00  0.00     0.010 A 
ATOM     40  C   UNL     1       1.423  -1.134   6.353  1.00  0.00    -0.014 A 
BRANCH  40  41
ATOM     41  C   UNL     1       0.852  -2.108   7.370  1.00  0.00     0.031 A 
ATOM     42  C   UNL     1       0.530  -1.539   8.603  1.00  0.00     0.074 A 
ATOM     43  C   UNL     1       0.539  -3.408   7.012  1.00  0.00     0.049 A 
ATOM     44  N   UNL     1      -0.141  -2.102   9.609  1.00  0.00    -0.248 NA
ATOM     45  C   UNL     1       0.892  -0.170   8.999  1.00  0.00     0.031 C 
ATOM     46  C   UNL     1       0.853  -3.987   5.767  1.00  0.00     0.029 A 
ATOM     47  N   UNL     1      -0.115  -4.358   7.766  1.00  0.00    -0.354 N 
ATOM     48  C   UNL     1      -0.271  -1.238  10.618  1.00  0.00     0.074 A 
ATOM     49  C   UNL     1       0.397   0.015  10.242  1.00  0.00     0.031 C 
ATOM     50  C   UNL     1       0.407  -5.271   5.775  1.00  0.00     0.029 A 
ATOM     51  C   UNL     1      -0.195  -5.516   7.023  1.00  0.00     0.049 A 
ATOM     52  H   UNL     1      -0.464  -4.232   8.678  1.00  0.00     0.167 HD
ATOM     53  C   UNL     1      -0.922  -1.446  11.835  1.00  0.00     0.031 A 
ATOM     54  C   UNL     1      -0.756  -6.726   7.398  1.00  0.00     0.031 A 
ATOM     55  C   UNL     1      -1.521  -2.643  12.192  1.00  0.00     0.049 A 
ATOM     56  C   UNL     1      -1.356  -6.953   8.639  1.00  0.00     0.074 A 
ATOM     57  C   UNL     1      -2.187  -2.867  13.412  1.00  0.00     0.029 A 
ATOM     58  N   UNL     1      -1.579  -3.808  11.459  1.00  0.00    -0.354 N 
ATOM     59  N   UNL     1      -1.520  -6.077   9.631  1.00  0.00    -0.248 NA
ATOM     60  C   UNL     1      -1.924  -8.240   9.058  1.00  0.00     0.031 C 
ATOM     61  C   UNL     1      -2.634  -4.151  13.419  1.00  0.00     0.029 A 
ATOM     62  C   UNL     1      -2.253  -4.751  12.204  1.00  0.00     0.049 A 
ATOM     63  H   UNL     1      -1.205  -3.943  10.559  1.00  0.00     0.167 HD
ATOM     64  C   UNL     1      -2.155  -6.654  10.653  1.00  0.00     0.074 A 
ATOM     65  C   UNL     1      -2.417  -8.056  10.302  1.00  0.00     0.031 C 
ATOM     66  C   UNL     1      -2.529  -6.066  11.863  1.00  0.00     0.031 A 
BRANCH  53  67
ATOM     67  C   UNL     1      -0.977  -0.293  12.825  1.00  0.00    -0.014 A 
ATOM     68  C   UNL     1      -1.570   0.911  12.482  1.00  0.00     0.009 A 
ATOM     69  C   UNL     1      -0.424  -0.474  14.018  1.00  0.00     0.009 A 
ATOM     70  C   UNL     1      -1.272   1.970  13.373  1.00  0.00     0.001 A 
ATOM     71  C   UNL     1      -0.288   0.577  14.893  1.00  0.00     0.001 A 
ATOM     72  C   UNL     1      -0.798   1.810  14.595  1.00  0.00     0.000 A 
ENDBRANCH  53  67
BRANCH  54  73
ATOM     73  C   UNL     1      -0.715  -7.873   6.401  1.00  0.00    -0.014 A 
ATOM     74  C   UNL     1      -1.919  -8.411   5.974  1.00  0.00     0.009 A 
ATOM     75  C   UNL     1       0.445  -8.338   5.951  1.00  0.00     0.009 A 
ATOM     76  C   UNL     1      -1.785  -9.639   5.283  1.00  0.00     0.001 A 
ATOM     77  C   UNL     1       0.490  -9.465   5.168  1.00  0.00     0.001 A 
ATOM     78  C   UNL     1      -0.658 -10.083   4.757  1.00  0.00     0.000 A 
ENDBRANCH  54  73
BRANCH  66  79
ATOM     79  C   UNL     1      -3.285  -6.921  12.868  1.00  0.00    -0.014 A 
ATOM     80  C   UNL     1      -2.796  -8.144  13.296  1.00  0.00     0.009 A 
ATOM     81  C   UNL     1      -4.495  -6.501  13.218  1.00  0.00     0.009 A 
ATOM     82  C   UNL     1      -3.782  -8.989  13.859  1.00  0.00     0.001 A 
ATOM     83  C   UNL     1      -5.358  -7.335  13.887  1.00  0.00     0.001 A 
ATOM     84  C   UNL     1      -4.962  -8.581  14.289  1.00  0.00     0.000 A 
ENDBRANCH  66  79
ENDBRANCH  40  41
ENDBRANCH  33  35
ENDBRANCH  32  33
ENDBRANCH  31  32
ENDBRANCH  30  31
ENDBRANCH  29  30
ENDBRANCH   1  29
TORSDOF 19
