REMARK SMILES C[C@H](CNS(=O)(=O)c1ccc(C(=O)OCCOCCOCCOC(=O)c2ccc(-c3c4nc(c(-c5ccccc5)c5ccc([nH]5)c(-c5ccccc5)c5nc(c(-c6ccccc6)c6ccc3[nH]6)C=C5)C=C4)cc2)cc1F)[NH+](C)C
REMARK SMILES IDX 17 1 16 2 15 3 14 4 12 5 13 6 11 7 8 8 9 9 75 10 10 11 74 12
REMARK SMILES IDX 76 13 5 14 6 15 7 16 4 17 3 19 2 20 1 21 77 22 78 23 79 24
REMARK SMILES IDX 18 26 19 27 20 28 21 29 22 30 23 31 24 32 25 33 26 34 27 35
REMARK SMILES IDX 73 36 28 37 72 38 29 39 30 40 31 41 66 42 32 43 71 44 65 45
REMARK SMILES IDX 67 46 33 47 70 48 64 49 63 50 34 52 56 53 41 54 55 55 42 56
REMARK SMILES IDX 45 57 54 58 68 59 43 60 44 61 53 63 69 64 46 65 35 66 36 67
REMARK SMILES IDX 40 68 37 69 39 70 38 71 57 72 58 73 62 74 59 75 61 76 60 77
REMARK SMILES IDX 47 78 48 79 52 80 49 81 51 82 50 83
REMARK H PARENT 4 18 77 25 67 51 45 62
REMARK Flexibility Score: inf
ROOT
ATOM      1  O   UNL     1       9.858   0.625  -1.658  1.00  0.00    -0.376 OA
ENDROOT
BRANCH   1   2
ATOM      2  C   UNL     1      10.108   1.294  -2.887  1.00  0.00     0.202 C 
BRANCH   2   3
ATOM      3  C   UNL     1       9.158   1.052  -4.059  1.00  0.00     0.261 C 
BRANCH   3   4
ATOM      4  O   UNL     1       7.814   1.471  -3.766  1.00  0.00    -0.460 OA
BRANCH   4   5
ATOM      5  C   UNL     1       6.862   0.548  -4.037  1.00  0.00     0.338 C 
ATOM      6  O   UNL     1       7.026  -0.536  -4.572  1.00  0.00    -0.246 OA
BRANCH   5   7
ATOM      7  C   UNL     1       5.567   0.938  -3.437  1.00  0.00     0.063 A 
ATOM      8  C   UNL     1       3.029   1.493  -2.393  1.00  0.00     0.118 A 
ATOM      9  C   UNL     1       3.528   0.185  -2.366  1.00  0.00     0.026 A 
ATOM     10  C   UNL     1       3.808   2.515  -2.933  1.00  0.00     0.144 A 
ATOM     11  C   UNL     1       4.797  -0.087  -2.875  1.00  0.00     0.017 A 
ATOM     12  C   UNL     1       5.081   2.247  -3.451  1.00  0.00     0.056 A 
ATOM     13  F   UNL     1       3.358   3.773  -3.018  1.00  0.00    -0.205 F 
BRANCH   8  14
ATOM     14  S   UNL     1       1.348   1.768  -1.920  1.00  0.00     0.243 S 
ATOM     15  O   UNL     1       0.532   0.851  -2.682  1.00  0.00    -0.207 OA
ATOM     16  O   UNL     1       1.077   3.188  -1.909  1.00  0.00    -0.207 OA
BRANCH  14  17
ATOM     17  N   UNL     1       1.281   1.323  -0.291  1.00  0.00    -0.205 NA
ATOM     18  H   UNL     1       2.169   1.597   0.129  1.00  0.00     0.141 HD
BRANCH  17  19
ATOM     19  C   UNL     1       1.054  -0.093   0.064  1.00  0.00     0.163 C 
BRANCH  19  20
ATOM     20  C   UNL     1       0.493  -0.301   1.502  1.00  0.00     0.195 C 
ATOM     21  C   UNL     1       1.177   0.605   2.536  1.00  0.00     0.076 C 
BRANCH  20  22
ATOM     22  N   UNL     1      -0.987  -0.322   1.563  1.00  0.00    -0.337 N 
ATOM     23  C   UNL     1      -1.491  -0.779   2.859  1.00  0.00     0.332 C 
ATOM     24  C   UNL     1      -1.653   0.910   1.158  1.00  0.00     0.332 C 
ATOM     25  H   UNL     1      -1.235  -1.009   0.851  1.00  0.00     0.347 HD
ENDBRANCH  20  22
ENDBRANCH  19  20
ENDBRANCH  17  19
ENDBRANCH  14  17
ENDBRANCH   8  14
ENDBRANCH   5   7
ENDBRANCH   4   5
ENDBRANCH   3   4
ENDBRANCH   2   3
ENDBRANCH   1   2
BRANCH   1  26
ATOM     26  C   UNL     1       8.600   0.781  -1.027  1.00  0.00     0.188 C 
BRANCH  26  27
ATOM     27  C   UNL     1       8.021   2.187  -0.765  1.00  0.00     0.188 C 
BRANCH  27  28
ATOM     28  O   UNL     1       8.772   3.355  -1.010  1.00  0.00    -0.376 OA
BRANCH  28  29
ATOM     29  C   UNL     1       9.988   3.627  -0.337  1.00  0.00     0.202 C 
BRANCH  29  30
ATOM     30  C   UNL     1      10.295   3.203   1.105  1.00  0.00     0.261 C 
BRANCH  30  31
ATOM     31  O   UNL     1       9.689   1.996   1.562  1.00  0.00    -0.460 OA
BRANCH  31  32
ATOM     32  C   UNL     1       8.725   2.159   2.500  1.00  0.00     0.338 C 
ATOM     33  O   UNL     1       8.286   3.200   2.952  1.00  0.00    -0.246 OA
BRANCH  32  34
ATOM     34  C   UNL     1       8.156   0.838   2.806  1.00  0.00     0.060 A 
ATOM     35  C   UNL     1       6.810   0.602   2.506  1.00  0.00     0.016 A 
ATOM     36  C   UNL     1       8.945  -0.150   3.397  1.00  0.00     0.016 A 
ATOM     37  C   UNL     1       6.246  -0.639   2.793  1.00  0.00     0.010 A 
ATOM     38  C   UNL     1       8.373  -1.385   3.702  1.00  0.00     0.010 A 
ATOM     39  C   UNL     1       7.020  -1.631   3.410  1.00  0.00    -0.014 A 
BRANCH  39  40
ATOM     40  C   UNL     1       6.404  -2.906   3.833  1.00  0.00     0.031 A 
ATOM     41  C   UNL     1       5.904  -3.050   5.240  1.00  0.00     0.074 A 
ATOM     42  C   UNL     1       6.317  -3.936   2.973  1.00  0.00     0.049 A 
ATOM     43  N   UNL     1       5.403  -4.102   5.834  1.00  0.00    -0.248 NA
ATOM     44  C   UNL     1       5.977  -1.850   6.088  1.00  0.00     0.031 C 
ATOM     45  C   UNL     1       6.735  -3.908   1.572  1.00  0.00     0.029 A 
ATOM     46  N   UNL     1       5.863  -5.216   3.167  1.00  0.00    -0.354 N 
ATOM     47  C   UNL     1       5.102  -3.693   7.126  1.00  0.00     0.074 A 
ATOM     48  C   UNL     1       5.491  -2.303   7.235  1.00  0.00     0.031 C 
ATOM     49  C   UNL     1       6.536  -5.125   1.036  1.00  0.00     0.029 A 
ATOM     50  C   UNL     1       6.013  -6.021   2.065  1.00  0.00     0.049 A 
ATOM     51  H   UNL     1       5.468  -5.527   4.013  1.00  0.00     0.167 HD
ATOM     52  C   UNL     1       4.551  -4.413   8.132  1.00  0.00     0.031 A 
ATOM     53  C   UNL     1       5.786  -7.340   1.916  1.00  0.00     0.031 A 
ATOM     54  C   UNL     1       4.197  -5.803   8.039  1.00  0.00     0.049 A 
ATOM     55  C   UNL     1       5.279  -8.142   3.084  1.00  0.00     0.074 A 
ATOM     56  C   UNL     1       3.615  -6.611   9.000  1.00  0.00     0.029 A 
ATOM     57  N   UNL     1       4.413  -6.596   6.924  1.00  0.00    -0.354 N 
ATOM     58  N   UNL     1       4.962  -7.737   4.290  1.00  0.00    -0.248 NA
ATOM     59  C   UNL     1       5.107  -9.587   2.869  1.00  0.00     0.031 C 
ATOM     60  C   UNL     1       3.529  -7.909   8.484  1.00  0.00     0.029 A 
ATOM     61  C   UNL     1       4.011  -7.895   7.185  1.00  0.00     0.049 A 
ATOM     62  H   UNL     1       4.795  -6.284   6.072  1.00  0.00     0.167 HD
ATOM     63  C   UNL     1       4.537  -8.872   4.971  1.00  0.00     0.074 A 
ATOM     64  C   UNL     1       4.622  -9.978   4.039  1.00  0.00     0.031 C 
ATOM     65  C   UNL     1       4.114  -8.987   6.253  1.00  0.00     0.031 A 
BRANCH  52  66
ATOM     66  C   UNL     1       4.334  -3.709   9.440  1.00  0.00    -0.014 A 
ATOM     67  C   UNL     1       3.295  -2.779   9.598  1.00  0.00     0.009 A 
ATOM     68  C   UNL     1       5.160  -4.003  10.535  1.00  0.00     0.009 A 
ATOM     69  C   UNL     1       3.105  -2.137  10.823  1.00  0.00     0.001 A 
ATOM     70  C   UNL     1       4.954  -3.376  11.764  1.00  0.00     0.001 A 
ATOM     71  C   UNL     1       3.932  -2.438  11.905  1.00  0.00     0.000 A 
ENDBRANCH  52  66
BRANCH  53  72
ATOM     72  C   UNL     1       6.079  -8.004   0.621  1.00  0.00    -0.014 A 
ATOM     73  C   UNL     1       5.037  -8.466  -0.196  1.00  0.00     0.009 A 
ATOM     74  C   UNL     1       7.406  -8.202   0.208  1.00  0.00     0.009 A 
ATOM     75  C   UNL     1       5.319  -9.133  -1.390  1.00  0.00     0.001 A 
ATOM     76  C   UNL     1       7.684  -8.847  -0.998  1.00  0.00     0.001 A 
ATOM     77  C   UNL     1       6.641  -9.319  -1.792  1.00  0.00     0.000 A 
ENDBRANCH  53  72
BRANCH  65  78
ATOM     78  C   UNL     1       3.696 -10.353   6.719  1.00  0.00    -0.014 A 
ATOM     79  C   UNL     1       4.649 -11.346   6.996  1.00  0.00     0.009 A 
ATOM     80  C   UNL     1       2.337 -10.636   6.922  1.00  0.00     0.009 A 
ATOM     81  C   UNL     1       4.244 -12.605   7.442  1.00  0.00     0.001 A 
ATOM     82  C   UNL     1       1.937 -11.888   7.392  1.00  0.00     0.001 A 
ATOM     83  C   UNL     1       2.890 -12.874   7.645  1.00  0.00     0.000 A 
ENDBRANCH  65  78
ENDBRANCH  39  40
ENDBRANCH  32  34
ENDBRANCH  31  32
ENDBRANCH  30  31
ENDBRANCH  29  30
ENDBRANCH  28  29
ENDBRANCH  27  28
ENDBRANCH  26  27
ENDBRANCH   1  26
TORSDOF 22
