REMARK SMILES C[C@@H]1SCCC[C@]1(CC(=O)OCCOCCOCCOC(=O)c1ccc(-c2c3nc(c(-c4ccccc4)c4ccc([nH]4)c(-c4ccccc4)c4nc(c(-c5ccccc5)c5ccc2[nH]5)C=C4)C=C3)cc1)C(C)(C)[NH3+]
REMARK SMILES IDX 15 1 14 2 13 3 12 4 11 5 9 6 10 7 8 8 7 9 1 10 2 11 3 12
REMARK SMILES IDX 4 13 6 14 5 15 71 16 72 17 73 18 74 19 16 23 17 24 18 25
REMARK SMILES IDX 19 26 20 27 21 28 22 29 23 30 24 31 70 32 25 33 69 34 26 35
REMARK SMILES IDX 27 36 28 37 63 38 29 39 68 40 62 41 64 42 30 43 67 44 61 45
REMARK SMILES IDX 60 46 31 48 53 49 38 50 52 51 39 52 42 53 51 54 65 55 40 56
REMARK SMILES IDX 41 57 50 59 66 60 43 61 32 62 33 63 37 64 34 65 36 66 35 67
REMARK SMILES IDX 54 68 55 69 59 70 56 71 58 72 57 73 44 74 45 75 49 76 46 77
REMARK SMILES IDX 48 78 47 79
REMARK H PARENT 74 20 74 21 74 22 64 47 42 58
REMARK Flexibility Score: inf
ROOT
ATOM      1  C   UNL     1      -4.129   0.855  -2.911  1.00  0.00     0.188 C 
ENDROOT
BRANCH   1   2
ATOM      2  O   UNL     1      -4.006   1.251  -4.267  1.00  0.00    -0.376 OA
BRANCH   2   3
ATOM      3  C   UNL     1      -2.681   1.521  -4.730  1.00  0.00     0.202 C 
BRANCH   3   4
ATOM      4  C   UNL     1      -1.818   2.467  -3.872  1.00  0.00     0.261 C 
BRANCH   4   5
ATOM      5  O   UNL     1      -1.509   1.991  -2.530  1.00  0.00    -0.463 OA
BRANCH   5   6
ATOM      6  C   UNL     1      -1.484   2.961  -1.567  1.00  0.00     0.306 C 
ATOM      7  O   UNL     1      -1.698   4.149  -1.801  1.00  0.00    -0.252 OA
BRANCH   6   8
ATOM      8  C   UNL     1      -1.398   2.453  -0.119  1.00  0.00     0.137 C 
BRANCH   8   9
ATOM      9  C   UNL     1      -0.169   1.658   0.543  1.00  0.00     0.046 C 
ATOM     10  C   UNL     1       2.152   0.586  -0.216  1.00  0.00     0.020 C 
ATOM     11  C   UNL     1       0.998   1.544  -0.516  1.00  0.00     0.056 C 
ATOM     12  S   UNL     1       1.768   3.170  -0.914  1.00  0.00    -0.158 SA
ATOM     13  C   UNL     1       2.242   3.681   0.754  1.00  0.00     0.070 C 
ATOM     14  C   UNL     1       0.301   2.460   1.814  1.00  0.00     0.016 C 
ATOM     15  C   UNL     1       1.001   3.797   1.611  1.00  0.00     0.012 C 
BRANCH   9  16
ATOM     16  C   UNL     1      -0.697   0.230   1.134  1.00  0.00     0.096 C 
ATOM     17  C   UNL     1       0.288  -0.647   1.952  1.00  0.00     0.079 C 
ATOM     18  C   UNL     1      -1.918   0.387   2.089  1.00  0.00     0.079 C 
BRANCH  16  19
ATOM     19  N   UNL     1      -1.106  -0.597   0.010  1.00  0.00    -0.353 N 
ATOM     20  H   UNL     1      -0.321  -0.714  -0.630  1.00  0.00     0.344 HD
ATOM     21  H   UNL     1      -1.880  -0.147  -0.480  1.00  0.00     0.344 HD
ATOM     22  H   UNL     1      -1.405  -1.511   0.351  1.00  0.00     0.344 HD
ENDBRANCH  16  19
ENDBRANCH   9  16
ENDBRANCH   8   9
ENDBRANCH   6   8
ENDBRANCH   5   6
ENDBRANCH   4   5
ENDBRANCH   3   4
ENDBRANCH   2   3
ENDBRANCH   1   2
BRANCH   1  23
ATOM     23  C   UNL     1      -3.357  -0.398  -2.470  1.00  0.00     0.188 C 
BRANCH  23  24
ATOM     24  O   UNL     1      -2.417  -0.883  -3.418  1.00  0.00    -0.376 OA
BRANCH  24  25
ATOM     25  C   UNL     1      -1.647  -2.019  -3.042  1.00  0.00     0.202 C 
BRANCH  25  26
ATOM     26  C   UNL     1      -2.432  -3.334  -3.088  1.00  0.00     0.261 C 
BRANCH  26  27
ATOM     27  O   UNL     1      -3.530  -3.396  -2.158  1.00  0.00    -0.460 OA
BRANCH  27  28
ATOM     28  C   UNL     1      -3.206  -3.330  -0.846  1.00  0.00     0.338 C 
ATOM     29  O   UNL     1      -2.094  -3.400  -0.356  1.00  0.00    -0.246 OA
BRANCH  28  30
ATOM     30  C   UNL     1      -4.405  -2.907  -0.091  1.00  0.00     0.060 A 
ATOM     31  C   UNL     1      -4.312  -1.729   0.652  1.00  0.00     0.016 A 
ATOM     32  C   UNL     1      -5.592  -3.631  -0.086  1.00  0.00     0.016 A 
ATOM     33  C   UNL     1      -5.346  -1.307   1.478  1.00  0.00     0.010 A 
ATOM     34  C   UNL     1      -6.652  -3.195   0.721  1.00  0.00     0.010 A 
ATOM     35  C   UNL     1      -6.521  -2.055   1.543  1.00  0.00    -0.014 A 
BRANCH  35  36
ATOM     36  C   UNL     1      -7.539  -1.742   2.577  1.00  0.00     0.031 A 
ATOM     37  C   UNL     1      -7.746  -2.721   3.700  1.00  0.00     0.074 A 
ATOM     38  C   UNL     1      -8.236  -0.590   2.565  1.00  0.00     0.049 A 
ATOM     39  N   UNL     1      -8.681  -2.757   4.614  1.00  0.00    -0.248 NA
ATOM     40  C   UNL     1      -6.762  -3.811   3.799  1.00  0.00     0.031 C 
ATOM     41  C   UNL     1      -8.053   0.511   1.621  1.00  0.00     0.029 A 
ATOM     42  N   UNL     1      -9.248  -0.160   3.389  1.00  0.00    -0.354 N 
ATOM     43  C   UNL     1      -8.432  -3.904   5.359  1.00  0.00     0.074 A 
ATOM     44  C   UNL     1      -7.266  -4.539   4.783  1.00  0.00     0.031 C 
ATOM     45  C   UNL     1      -8.917   1.495   1.925  1.00  0.00     0.029 A 
ATOM     46  C   UNL     1      -9.765   1.062   3.032  1.00  0.00     0.049 A 
ATOM     47  H   UNL     1      -9.571  -0.677   4.162  1.00  0.00     0.167 HD
ATOM     48  C   UNL     1      -9.116  -4.389   6.422  1.00  0.00     0.031 A 
ATOM     49  C   UNL     1     -10.828   1.733   3.514  1.00  0.00     0.031 A 
ATOM     50  C   UNL     1     -10.265  -3.747   7.001  1.00  0.00     0.049 A 
ATOM     51  C   UNL     1     -11.651   1.117   4.614  1.00  0.00     0.074 A 
ATOM     52  C   UNL     1     -11.035  -4.158   8.075  1.00  0.00     0.029 A 
ATOM     53  N   UNL     1     -10.809  -2.552   6.553  1.00  0.00    -0.354 N 
ATOM     54  N   UNL     1     -11.450   0.003   5.277  1.00  0.00    -0.248 NA
ATOM     55  C   UNL     1     -12.859   1.849   5.023  1.00  0.00     0.031 C 
ATOM     56  C   UNL     1     -12.082  -3.245   8.236  1.00  0.00     0.029 A 
ATOM     57  C   UNL     1     -11.923  -2.227   7.309  1.00  0.00     0.049 A 
ATOM     58  H   UNL     1     -10.455  -2.015   5.808  1.00  0.00     0.167 HD
ATOM     59  C   UNL     1     -12.485  -0.082   6.201  1.00  0.00     0.074 A 
ATOM     60  C   UNL     1     -13.305   1.098   6.020  1.00  0.00     0.031 C 
ATOM     61  C   UNL     1     -12.731  -1.049   7.120  1.00  0.00     0.031 A 
BRANCH  48  62
ATOM     62  C   UNL     1      -8.676  -5.720   6.968  1.00  0.00    -0.014 A 
ATOM     63  C   UNL     1      -7.452  -5.883   7.636  1.00  0.00     0.009 A 
ATOM     64  C   UNL     1      -9.502  -6.841   6.789  1.00  0.00     0.009 A 
ATOM     65  C   UNL     1      -7.041  -7.149   8.062  1.00  0.00     0.001 A 
ATOM     66  C   UNL     1      -9.107  -8.098   7.248  1.00  0.00     0.001 A 
ATOM     67  C   UNL     1      -7.870  -8.254   7.870  1.00  0.00     0.000 A 
ENDBRANCH  48  62
BRANCH  49  68
ATOM     68  C   UNL     1     -11.209   3.050   2.935  1.00  0.00    -0.014 A 
ATOM     69  C   UNL     1     -11.105   4.220   3.702  1.00  0.00     0.009 A 
ATOM     70  C   UNL     1     -11.697   3.143   1.622  1.00  0.00     0.009 A 
ATOM     71  C   UNL     1     -11.497   5.452   3.172  1.00  0.00     0.001 A 
ATOM     72  C   UNL     1     -12.058   4.381   1.084  1.00  0.00     0.001 A 
ATOM     73  C   UNL     1     -11.966   5.533   1.862  1.00  0.00     0.000 A 
ENDBRANCH  49  68
BRANCH  61  74
ATOM     74  C   UNL     1     -13.905  -0.846   8.037  1.00  0.00    -0.014 A 
ATOM     75  C   UNL     1     -15.227  -0.954   7.577  1.00  0.00     0.009 A 
ATOM     76  C   UNL     1     -13.681  -0.582   9.398  1.00  0.00     0.009 A 
ATOM     77  C   UNL     1     -16.298  -0.764   8.453  1.00  0.00     0.001 A 
ATOM     78  C   UNL     1     -14.753  -0.426  10.278  1.00  0.00     0.001 A 
ATOM     79  C   UNL     1     -16.060  -0.507   9.803  1.00  0.00     0.000 A 
ENDBRANCH  61  74
ENDBRANCH  35  36
ENDBRANCH  28  30
ENDBRANCH  27  28
ENDBRANCH  26  27
ENDBRANCH  25  26
ENDBRANCH  24  25
ENDBRANCH  23  24
ENDBRANCH   1  23
TORSDOF 20
