REMARK SMILES CC1(C)OC(=O)C(/C=N/[C@@H](CCC(N)=O)C(=O)OCCOCCOCCOC(=O)c2ccc(-c3c4nc(c(-c5ccccc5)c5ccc([nH]5)c(-c5ccccc5)c5nc(c(-c6ccccc6)c6ccc3[nH]6)C=C5)C=C4)cc2)C(=O)O1
REMARK SMILES IDX 22 1 21 2 20 3 19 4 18 5 16 6 17 7 10 8 9 9 8 10 7 11 1 12
REMARK SMILES IDX 2 13 3 14 4 15 80 16 5 17 78 18 6 19 79 20 11 21 12 22 13 23
REMARK SMILES IDX 14 24 15 25 23 28 24 29 25 30 26 31 27 32 28 33 29 34 30 35
REMARK SMILES IDX 31 36 77 37 32 38 76 39 33 40 34 41 35 42 70 43 36 44 75 45
REMARK SMILES IDX 69 46 71 47 37 48 74 49 68 50 67 51 38 53 60 54 45 55 59 56
REMARK SMILES IDX 46 57 49 58 58 59 72 60 47 61 48 62 57 64 73 65 50 66 39 67
REMARK SMILES IDX 40 68 44 69 41 70 43 71 42 72 61 73 62 74 66 75 63 76 65 77
REMARK SMILES IDX 64 78 51 79 52 80 56 81 53 82 55 83 54 84
REMARK H PARENT 14 26 14 27 71 52 49 63
REMARK Flexibility Score: inf
ROOT
ATOM      1  C   UNL     1       3.419   4.831   2.746  1.00  0.00     0.188 C 
ENDROOT
BRANCH   1   2
ATOM      2  O   UNL     1       4.290   4.392   3.778  1.00  0.00    -0.376 OA
BRANCH   2   3
ATOM      3  C   UNL     1       3.917   3.265   4.564  1.00  0.00     0.202 C 
BRANCH   3   4
ATOM      4  C   UNL     1       2.484   3.157   5.108  1.00  0.00     0.261 C 
BRANCH   4   5
ATOM      5  O   UNL     1       1.444   3.119   4.105  1.00  0.00    -0.462 OA
BRANCH   5   6
ATOM      6  C   UNL     1       0.504   4.088   4.189  1.00  0.00     0.330 C 
ATOM      7  O   UNL     1       0.510   4.963   5.056  1.00  0.00    -0.250 OA
BRANCH   6   8
ATOM      8  C   UNL     1      -0.644   4.016   3.184  1.00  0.00     0.215 C 
BRANCH   8   9
ATOM      9  N   UNL     1      -0.513   3.383   1.861  1.00  0.00    -0.281 NA
ATOM     10  C   UNL     1      -0.051   2.213   1.627  1.00  0.00     0.106 C 
BRANCH  10  11
ATOM     11  C   UNL     1      -0.186   1.640   0.237  1.00  0.00     0.250 C 
ATOM     12  C   UNL     1      -0.075  -1.968   1.308  1.00  0.00     0.106 C 
ATOM     13  C   UNL     1      -0.021  -1.157   0.017  1.00  0.00     0.252 C 
ATOM     14  C   UNL     1       0.119  -2.094  -1.184  1.00  0.00     0.106 C 
ATOM     15  O   UNL     1       1.150  -0.344   0.048  1.00  0.00    -0.422 OA
ATOM     16  O   UNL     1      -1.272  -0.489  -0.148  1.00  0.00    -0.422 OA
ATOM     17  C   UNL     1       1.032   0.959  -0.249  1.00  0.00     0.329 C 
ATOM     18  C   UNL     1      -1.414   0.818   0.113  1.00  0.00     0.329 C 
ATOM     19  O   UNL     1       1.936   1.562  -0.816  1.00  0.00    -0.251 OA
ATOM     20  O   UNL     1      -2.538   1.303   0.210  1.00  0.00    -0.251 OA
ENDBRANCH  10  11
ENDBRANCH   8   9
BRANCH   8  21
ATOM     21  C   UNL     1      -1.961   3.627   3.862  1.00  0.00     0.049 C 
BRANCH  21  22
ATOM     22  C   UNL     1      -2.203   2.134   4.072  1.00  0.00     0.102 C 
BRANCH  22  23
ATOM     23  C   UNL     1      -1.115   1.408   4.827  1.00  0.00     0.217 C 
ATOM     24  N   UNL     1      -0.875   1.841   6.093  1.00  0.00    -0.370 N 
ATOM     25  O   UNL     1      -0.481   0.475   4.346  1.00  0.00    -0.275 OA
ATOM     26  H   UNL     1      -1.393   2.591   6.463  1.00  0.00     0.159 HD
ATOM     27  H   UNL     1      -0.183   1.403   6.640  1.00  0.00     0.159 HD
ENDBRANCH  22  23
ENDBRANCH  21  22
ENDBRANCH   8  21
ENDBRANCH   6   8
ENDBRANCH   5   6
ENDBRANCH   4   5
ENDBRANCH   3   4
ENDBRANCH   2   3
ENDBRANCH   1   2
BRANCH   1  28
ATOM     28  C   UNL     1       2.874   3.802   1.740  1.00  0.00     0.188 C 
BRANCH  28  29
ATOM     29  O   UNL     1       3.152   2.453   2.037  1.00  0.00    -0.376 OA
BRANCH  29  30
ATOM     30  C   UNL     1       4.221   1.804   1.364  1.00  0.00     0.202 C 
BRANCH  30  31
ATOM     31  C   UNL     1       5.463   2.530   0.809  1.00  0.00     0.261 C 
BRANCH  31  32
ATOM     32  O   UNL     1       5.365   3.938   0.567  1.00  0.00    -0.460 OA
BRANCH  32  33
ATOM     33  C   UNL     1       4.950   4.333  -0.659  1.00  0.00     0.338 C 
ATOM     34  O   UNL     1       4.672   3.632  -1.617  1.00  0.00    -0.246 OA
BRANCH  33  35
ATOM     35  C   UNL     1       4.708   5.790  -0.591  1.00  0.00     0.060 A 
ATOM     36  C   UNL     1       3.401   6.285  -0.721  1.00  0.00     0.016 A 
ATOM     37  C   UNL     1       5.776   6.662  -0.374  1.00  0.00     0.016 A 
ATOM     38  C   UNL     1       3.163   7.659  -0.656  1.00  0.00     0.010 A 
ATOM     39  C   UNL     1       5.540   8.037  -0.338  1.00  0.00     0.010 A 
ATOM     40  C   UNL     1       4.238   8.544  -0.509  1.00  0.00    -0.014 A 
BRANCH  40  41
ATOM     41  C   UNL     1       4.048   9.997  -0.742  1.00  0.00     0.031 A 
ATOM     42  C   UNL     1       4.407  10.550  -2.094  1.00  0.00     0.074 A 
ATOM     43  C   UNL     1       3.583  10.814   0.218  1.00  0.00     0.049 A 
ATOM     44  N   UNL     1       4.405  11.790  -2.514  1.00  0.00    -0.248 NA
ATOM     45  C   UNL     1       4.833   9.570  -3.107  1.00  0.00     0.031 C 
ATOM     46  C   UNL     1       3.157  10.401   1.553  1.00  0.00     0.029 A 
ATOM     47  N   UNL     1       3.405  12.176   0.211  1.00  0.00    -0.354 N 
ATOM     48  C   UNL     1       4.843  11.739  -3.832  1.00  0.00     0.074 A 
ATOM     49  C   UNL     1       5.131  10.353  -4.131  1.00  0.00     0.031 C 
ATOM     50  C   UNL     1       2.777  11.491   2.243  1.00  0.00     0.029 A 
ATOM     51  C   UNL     1       2.969  12.679   1.412  1.00  0.00     0.049 A 
ATOM     52  H   UNL     1       3.573  12.738  -0.580  1.00  0.00     0.167 HD
ATOM     53  C   UNL     1       4.989  12.753  -4.716  1.00  0.00     0.031 A 
ATOM     54  C   UNL     1       2.774  13.954   1.802  1.00  0.00     0.031 A 
ATOM     55  C   UNL     1       4.725  14.134  -4.413  1.00  0.00     0.049 A 
ATOM     56  C   UNL     1       3.028  15.077   0.828  1.00  0.00     0.074 A 
ATOM     57  C   UNL     1       4.826  15.233  -5.247  1.00  0.00     0.029 A 
ATOM     58  N   UNL     1       4.319  14.605  -3.175  1.00  0.00    -0.354 N 
ATOM     59  N   UNL     1       3.411  15.017  -0.425  1.00  0.00    -0.248 NA
ATOM     60  C   UNL     1       2.814  16.445   1.323  1.00  0.00     0.031 C 
ATOM     61  C   UNL     1       4.550  16.378  -4.494  1.00  0.00     0.029 A 
ATOM     62  C   UNL     1       4.200  15.985  -3.212  1.00  0.00     0.049 A 
ATOM     63  H   UNL     1       4.142  14.044  -2.386  1.00  0.00     0.167 HD
ATOM     64  C   UNL     1       3.450  16.332  -0.876  1.00  0.00     0.074 A 
ATOM     65  C   UNL     1       3.039  17.166   0.234  1.00  0.00     0.031 C 
ATOM     66  C   UNL     1       3.792  16.806  -2.100  1.00  0.00     0.031 A 
BRANCH  53  67
ATOM     67  C   UNL     1       5.504  12.403  -6.086  1.00  0.00    -0.014 A 
ATOM     68  C   UNL     1       4.730  11.665  -6.995  1.00  0.00     0.009 A 
ATOM     69  C   UNL     1       6.781  12.835  -6.477  1.00  0.00     0.009 A 
ATOM     70  C   UNL     1       5.241  11.331  -8.252  1.00  0.00     0.001 A 
ATOM     71  C   UNL     1       7.276  12.531  -7.746  1.00  0.00     0.001 A 
ATOM     72  C   UNL     1       6.511  11.769  -8.628  1.00  0.00     0.000 A 
ENDBRANCH  53  67
BRANCH  54  73
ATOM     73  C   UNL     1       2.329  14.251   3.191  1.00  0.00    -0.014 A 
ATOM     74  C   UNL     1       1.055  14.786   3.437  1.00  0.00     0.009 A 
ATOM     75  C   UNL     1       3.187  14.021   4.279  1.00  0.00     0.009 A 
ATOM     76  C   UNL     1       0.660  15.108   4.737  1.00  0.00     0.001 A 
ATOM     77  C   UNL     1       2.777  14.314   5.581  1.00  0.00     0.001 A 
ATOM     78  C   UNL     1       1.518  14.867   5.809  1.00  0.00     0.000 A 
ENDBRANCH  54  73
BRANCH  66  79
ATOM     79  C   UNL     1       3.694  18.291  -2.324  1.00  0.00    -0.014 A 
ATOM     80  C   UNL     1       4.586  19.188  -1.717  1.00  0.00     0.009 A 
ATOM     81  C   UNL     1       2.717  18.796  -3.198  1.00  0.00     0.009 A 
ATOM     82  C   UNL     1       4.479  20.561  -1.953  1.00  0.00     0.001 A 
ATOM     83  C   UNL     1       2.634  20.165  -3.460  1.00  0.00     0.001 A 
ATOM     84  C   UNL     1       3.508  21.047  -2.828  1.00  0.00     0.000 A 
ENDBRANCH  66  79
ENDBRANCH  40  41
ENDBRANCH  33  35
ENDBRANCH  32  33
ENDBRANCH  31  32
ENDBRANCH  30  31
ENDBRANCH  29  30
ENDBRANCH  28  29
ENDBRANCH   1  28
TORSDOF 22
