REMARK SMILES Cc1cc(N2CC[C@H](CC(=O)OCCOCCOCCOC(=O)c3ccc(-c4c5nc(c(-c6ccccc6)c6ccc([nH]6)c(-c6ccccc6)c6nc(c(-c7ccccc7)c7ccc4[nH]7)C=C6)C=C5)cc3)C2)ncc1[N+](=O)[O-]
REMARK SMILES IDX 16 1 15 2 14 3 13 4 12 5 10 6 11 7 9 8 8 9 5 10 6 11 72 12
REMARK SMILES IDX 7 13 4 14 1 15 2 16 3 17 75 18 74 19 73 20 76 21 77 22 78 23
REMARK SMILES IDX 17 24 18 25 19 26 20 27 21 28 22 29 23 30 24 31 25 32 71 33
REMARK SMILES IDX 26 34 70 35 27 36 28 37 29 38 64 39 30 40 69 41 63 42 65 43
REMARK SMILES IDX 31 44 68 45 62 46 61 47 32 49 54 50 39 51 53 52 40 53 43 54
REMARK SMILES IDX 52 55 66 56 41 57 42 58 51 60 67 61 44 62 33 63 34 64 38 65
REMARK SMILES IDX 35 66 37 67 36 68 55 69 56 70 60 71 57 72 59 73 58 74 45 75
REMARK SMILES IDX 46 76 50 77 47 78 49 79 48 80
REMARK H PARENT 65 48 43 59
REMARK Flexibility Score: inf
ROOT
ATOM      1  C   UNL     1       5.003   7.668   1.150  1.00  0.00     0.188 C 
ENDROOT
BRANCH   1   2
ATOM      2  O   UNL     1       6.391   7.966   1.260  1.00  0.00    -0.376 OA
BRANCH   2   3
ATOM      3  C   UNL     1       7.289   7.085   0.584  1.00  0.00     0.202 C 
BRANCH   3   4
ATOM      4  C   UNL     1       7.284   5.617   1.044  1.00  0.00     0.261 C 
BRANCH   4   5
ATOM      5  O   UNL     1       5.983   4.986   1.019  1.00  0.00    -0.463 OA
BRANCH   5   6
ATOM      6  C   UNL     1       5.533   4.509   2.207  1.00  0.00     0.306 C 
ATOM      7  O   UNL     1       6.175   4.527   3.253  1.00  0.00    -0.252 OA
BRANCH   6   8
ATOM      8  C   UNL     1       4.094   4.028   2.196  1.00  0.00     0.128 C 
BRANCH   8   9
ATOM      9  C   UNL     1       3.342   3.849   0.878  1.00  0.00     0.021 C 
ATOM     10  N   UNL     1       1.715   2.435  -0.150  1.00  0.00    -0.356 N 
ATOM     11  C   UNL     1       2.879   2.487  -1.032  1.00  0.00     0.118 C 
ATOM     12  C   UNL     1       1.987   3.134   1.107  1.00  0.00     0.122 C 
ATOM     13  C   UNL     1       4.026   2.932  -0.132  1.00  0.00     0.027 C 
BRANCH  10  14
ATOM     14  C   UNL     1       1.041   1.228  -0.050  1.00  0.00     0.129 A 
ATOM     15  C   UNL     1      -2.581   0.141   0.038  1.00  0.00     0.052 C 
ATOM     16  C   UNL     1      -1.084   0.010   0.050  1.00  0.00     0.032 A 
ATOM     17  C   UNL     1      -0.352   1.220   0.032  1.00  0.00     0.057 A 
ATOM     18  C   UNL     1      -0.343  -1.180   0.055  1.00  0.00     0.290 A 
ATOM     19  C   UNL     1       1.046  -1.091   0.001  1.00  0.00     0.199 A 
ATOM     20  N   UNL     1       1.737   0.076  -0.061  1.00  0.00    -0.232 NA
BRANCH  18  21
ATOM     21  N   UNL     1      -0.915  -2.526   0.115  1.00  0.00     0.064 N 
ATOM     22  O   UNL     1      -0.184  -3.473  -0.214  1.00  0.00    -0.258 OA
ATOM     23  O   UNL     1      -2.076  -2.663   0.517  1.00  0.00    -0.258 OA
ENDBRANCH  18  21
ENDBRANCH  10  14
ENDBRANCH   8   9
ENDBRANCH   6   8
ENDBRANCH   5   6
ENDBRANCH   4   5
ENDBRANCH   3   4
ENDBRANCH   2   3
ENDBRANCH   1   2
BRANCH   1  24
ATOM     24  C   UNL     1       4.445   7.604  -0.272  1.00  0.00     0.188 C 
BRANCH  24  25
ATOM     25  O   UNL     1       5.189   6.820  -1.190  1.00  0.00    -0.376 OA
BRANCH  25  26
ATOM     26  C   UNL     1       4.810   6.891  -2.567  1.00  0.00     0.202 C 
BRANCH  26  27
ATOM     27  C   UNL     1       4.575   8.288  -3.188  1.00  0.00     0.261 C 
BRANCH  27  28
ATOM     28  O   UNL     1       3.581   9.121  -2.549  1.00  0.00    -0.460 OA
BRANCH  28  29
ATOM     29  C   UNL     1       2.359   8.588  -2.327  1.00  0.00     0.338 C 
ATOM     30  O   UNL     1       1.920   7.562  -2.822  1.00  0.00    -0.246 OA
BRANCH  29  31
ATOM     31  C   UNL     1       1.725   9.288  -1.172  1.00  0.00     0.060 A 
ATOM     32  C   UNL     1       1.014   8.507  -0.248  1.00  0.00     0.016 A 
ATOM     33  C   UNL     1       1.871  10.660  -0.942  1.00  0.00     0.016 A 
ATOM     34  C   UNL     1       0.411   9.096   0.867  1.00  0.00     0.010 A 
ATOM     35  C   UNL     1       1.251  11.254   0.170  1.00  0.00     0.010 A 
ATOM     36  C   UNL     1       0.485  10.481   1.062  1.00  0.00    -0.014 A 
BRANCH  36  37
ATOM     37  C   UNL     1      -0.396  11.121   2.078  1.00  0.00     0.031 A 
ATOM     38  C   UNL     1      -1.690  11.746   1.617  1.00  0.00     0.074 A 
ATOM     39  C   UNL     1      -0.110  11.096   3.394  1.00  0.00     0.049 A 
ATOM     40  N   UNL     1      -2.634  12.322   2.318  1.00  0.00    -0.248 NA
ATOM     41  C   UNL     1      -1.955  11.707   0.169  1.00  0.00     0.031 C 
ATOM     42  C   UNL     1       1.074  10.488   3.996  1.00  0.00     0.029 A 
ATOM     43  N   UNL     1      -0.813  11.596   4.466  1.00  0.00    -0.354 N 
ATOM     44  C   UNL     1      -3.601  12.714   1.400  1.00  0.00     0.074 A 
ATOM     45  C   UNL     1      -3.113  12.343   0.089  1.00  0.00     0.031 C 
ATOM     46  C   UNL     1       1.014  10.647   5.331  1.00  0.00     0.029 A 
ATOM     47  C   UNL     1      -0.195  11.394   5.677  1.00  0.00     0.049 A 
ATOM     48  H   UNL     1      -1.678  12.056   4.374  1.00  0.00     0.167 HD
ATOM     49  C   UNL     1      -4.793  13.319   1.619  1.00  0.00     0.031 A 
ATOM     50  C   UNL     1      -0.554  11.777   6.920  1.00  0.00     0.031 A 
ATOM     51  C   UNL     1      -5.283  13.711   2.914  1.00  0.00     0.049 A 
ATOM     52  C   UNL     1      -1.843  12.533   7.128  1.00  0.00     0.074 A 
ATOM     53  C   UNL     1      -6.485  14.322   3.230  1.00  0.00     0.029 A 
ATOM     54  N   UNL     1      -4.596  13.543   4.105  1.00  0.00    -0.354 N 
ATOM     55  N   UNL     1      -2.761  12.867   6.253  1.00  0.00    -0.248 NA
ATOM     56  C   UNL     1      -2.148  12.955   8.505  1.00  0.00     0.031 C 
ATOM     57  C   UNL     1      -6.497  14.583   4.604  1.00  0.00     0.029 A 
ATOM     58  C   UNL     1      -5.335  14.068   5.153  1.00  0.00     0.049 A 
ATOM     59  H   UNL     1      -3.715  13.114   4.193  1.00  0.00     0.167 HD
ATOM     60  C   UNL     1      -3.762  13.508   6.977  1.00  0.00     0.074 A 
ATOM     61  C   UNL     1      -3.350  13.495   8.364  1.00  0.00     0.031 C 
ATOM     62  C   UNL     1      -4.920  14.056   6.532  1.00  0.00     0.031 A 
BRANCH  49  63
ATOM     63  C   UNL     1      -5.642  13.629   0.417  1.00  0.00    -0.014 A 
ATOM     64  C   UNL     1      -6.281  12.611  -0.309  1.00  0.00     0.009 A 
ATOM     65  C   UNL     1      -5.838  14.964   0.031  1.00  0.00     0.009 A 
ATOM     66  C   UNL     1      -7.072  12.923  -1.418  1.00  0.00     0.001 A 
ATOM     67  C   UNL     1      -6.654  15.275  -1.058  1.00  0.00     0.001 A 
ATOM     68  C   UNL     1      -7.262  14.254  -1.787  1.00  0.00     0.000 A 
ENDBRANCH  49  63
BRANCH  50  69
ATOM     69  C   UNL     1       0.326  11.480   8.084  1.00  0.00    -0.014 A 
ATOM     70  C   UNL     1      -0.091  10.606   9.101  1.00  0.00     0.009 A 
ATOM     71  C   UNL     1       1.570  12.118   8.213  1.00  0.00     0.009 A 
ATOM     72  C   UNL     1       0.702  10.404  10.234  1.00  0.00     0.001 A 
ATOM     73  C   UNL     1       2.376  11.888   9.330  1.00  0.00     0.001 A 
ATOM     74  C   UNL     1       1.937  11.041  10.345  1.00  0.00     0.000 A 
ENDBRANCH  50  69
BRANCH  62  75
ATOM     75  C   UNL     1      -5.846  14.653   7.560  1.00  0.00    -0.014 A 
ATOM     76  C   UNL     1      -5.517  15.830   8.252  1.00  0.00     0.009 A 
ATOM     77  C   UNL     1      -7.081  14.039   7.822  1.00  0.00     0.009 A 
ATOM     78  C   UNL     1      -6.383  16.349   9.217  1.00  0.00     0.001 A 
ATOM     79  C   UNL     1      -7.961  14.580   8.761  1.00  0.00     0.001 A 
ATOM     80  C   UNL     1      -7.605  15.726   9.468  1.00  0.00     0.000 A 
ENDBRANCH  62  75
ENDBRANCH  36  37
ENDBRANCH  29  31
ENDBRANCH  28  29
ENDBRANCH  27  28
ENDBRANCH  26  27
ENDBRANCH  25  26
ENDBRANCH  24  25
ENDBRANCH   1  24
TORSDOF 20
