REMARK SMILES Cc1ccc(O[C@H](C)C(=O)NNC(=O)[C@@H]2[C@@H](C(=O)OCCOCCOCCOC(=O)c3ccc(-c4c5nc(c(-c6ccccc6)c6ccc([nH]6)c(-c6ccccc6)c6nc(c(-c7ccccc7)c7ccc4[nH]7)C=C6)C=C5)cc3)[C@@H]3C=C[C@H]2C3)cc1C
REMARK SMILES IDX 22 1 21 2 20 3 19 4 17 5 18 6 16 7 15 8 82 9 79 10 81 11
REMARK SMILES IDX 83 12 80 13 13 14 12 15 14 17 11 18 9 19 10 20 7 22 8 23
REMARK SMILES IDX 6 24 5 25 1 26 2 27 3 28 85 29 4 30 84 31 86 32 23 33 24 34
REMARK SMILES IDX 25 35 26 36 27 37 28 38 29 39 30 40 31 41 32 42 78 43 33 44
REMARK SMILES IDX 77 45 34 46 35 47 36 48 71 49 37 50 76 51 70 52 72 53 38 54
REMARK SMILES IDX 75 55 69 56 68 57 39 59 61 60 46 61 60 62 47 63 50 64 59 65
REMARK SMILES IDX 73 66 48 67 49 68 58 70 74 71 51 72 40 73 41 74 45 75 42 76
REMARK SMILES IDX 44 77 43 78 62 79 63 80 67 81 64 82 66 83 65 84 52 85 53 86
REMARK SMILES IDX 57 87 54 88 56 89 55 90
REMARK H PARENT 12 16 11 21 72 58 50 69
REMARK Flexibility Score: inf
ROOT
ATOM      1  O   UNL     1       1.482   7.220  -3.364  1.00  0.00    -0.376 OA
ENDROOT
BRANCH   1   2
ATOM      2  C   UNL     1       2.224   6.728  -2.248  1.00  0.00     0.202 C 
BRANCH   2   3
ATOM      3  C   UNL     1       1.450   6.495  -0.936  1.00  0.00     0.261 C 
BRANCH   3   4
ATOM      4  O   UNL     1       0.361   5.537  -0.995  1.00  0.00    -0.463 OA
BRANCH   4   5
ATOM      5  C   UNL     1      -0.869   6.035  -0.693  1.00  0.00     0.310 C 
ATOM      6  O   UNL     1      -1.085   7.220  -0.453  1.00  0.00    -0.252 OA
BRANCH   5   7
ATOM      7  C   UNL     1      -1.997   5.016  -0.652  1.00  0.00     0.119 C 
ATOM      8  C   UNL     1      -1.819   3.603  -1.335  1.00  0.00     0.102 C 
ATOM      9  C   UNL     1      -3.033   3.563  -2.304  1.00  0.00     0.025 C 
ATOM     10  C   UNL     1      -3.228   5.597  -1.409  1.00  0.00     0.027 C 
ATOM     11  C   UNL     1      -4.331   3.587  -1.531  1.00  0.00    -0.027 C 
ATOM     12  C   UNL     1      -3.061   5.005  -2.808  1.00  0.00     0.017 C 
ATOM     13  C   UNL     1      -4.443   4.806  -0.986  1.00  0.00    -0.027 C 
BRANCH   8  14
ATOM     14  C   UNL     1      -1.706   2.533  -0.240  1.00  0.00     0.242 C 
ATOM     15  N   UNL     1      -2.160   1.248  -0.381  1.00  0.00    -0.267 N 
ATOM     16  H   UNL     1      -1.932   0.620   0.342  1.00  0.00     0.191 HD
ATOM     17  O   UNL     1      -1.095   2.791   0.804  1.00  0.00    -0.273 OA
BRANCH  15  18
ATOM     18  N   UNL     1      -2.905   0.742  -1.430  1.00  0.00    -0.264 N 
ATOM     19  C   UNL     1      -3.933  -0.163  -1.291  1.00  0.00     0.279 C 
ATOM     20  O   UNL     1      -4.680  -0.358  -2.254  1.00  0.00    -0.269 OA
ATOM     21  H   UNL     1      -2.684   1.048  -2.339  1.00  0.00     0.191 HD
BRANCH  19  22
ATOM     22  C   UNL     1      -4.045  -1.014  -0.011  1.00  0.00     0.260 C 
ATOM     23  C   UNL     1      -2.817  -1.936   0.035  1.00  0.00     0.064 C 
BRANCH  22  24
ATOM     24  O   UNL     1      -4.158  -0.206   1.160  1.00  0.00    -0.481 OA
BRANCH  24  25
ATOM     25  C   UNL     1      -4.481  -0.817   2.345  1.00  0.00     0.120 A 
ATOM     26  C   UNL     1      -5.138  -2.480   6.293  1.00  0.00     0.044 C 
ATOM     27  C   UNL     1      -4.942  -1.859   4.937  1.00  0.00    -0.048 A 
ATOM     28  C   UNL     1      -4.991  -2.683   3.804  1.00  0.00     0.007 A 
ATOM     29  C   UNL     1      -4.708  -0.483   4.765  1.00  0.00    -0.045 A 
ATOM     30  C   UNL     1      -4.778  -2.166   2.522  1.00  0.00     0.047 A 
ATOM     31  C   UNL     1      -4.475   0.018   3.467  1.00  0.00     0.050 A 
ATOM     32  C   UNL     1      -4.697   0.494   5.909  1.00  0.00     0.045 C 
ENDBRANCH  24  25
ENDBRANCH  22  24
ENDBRANCH  19  22
ENDBRANCH  15  18
ENDBRANCH   8  14
ENDBRANCH   5   7
ENDBRANCH   4   5
ENDBRANCH   3   4
ENDBRANCH   2   3
ENDBRANCH   1   2
BRANCH   1  33
ATOM     33  C   UNL     1       0.423   6.392  -3.817  1.00  0.00     0.188 C 
BRANCH  33  34
ATOM     34  C   UNL     1       0.826   5.005  -4.320  1.00  0.00     0.188 C 
BRANCH  34  35
ATOM     35  O   UNL     1       1.682   4.274  -3.456  1.00  0.00    -0.376 OA
BRANCH  35  36
ATOM     36  C   UNL     1       2.092   2.975  -3.887  1.00  0.00     0.202 C 
BRANCH  36  37
ATOM     37  C   UNL     1       2.600   2.831  -5.337  1.00  0.00     0.261 C 
BRANCH  37  38
ATOM     38  O   UNL     1       1.668   3.202  -6.375  1.00  0.00    -0.460 OA
BRANCH  38  39
ATOM     39  C   UNL     1       0.418   2.677  -6.332  1.00  0.00     0.338 C 
ATOM     40  O   UNL     1       0.037   1.764  -5.635  1.00  0.00    -0.246 OA
BRANCH  39  41
ATOM     41  C   UNL     1      -0.492   3.591  -7.081  1.00  0.00     0.060 A 
ATOM     42  C   UNL     1      -1.775   3.813  -6.558  1.00  0.00     0.016 A 
ATOM     43  C   UNL     1      -0.086   4.273  -8.232  1.00  0.00     0.016 A 
ATOM     44  C   UNL     1      -2.665   4.677  -7.202  1.00  0.00     0.010 A 
ATOM     45  C   UNL     1      -0.983   5.126  -8.886  1.00  0.00     0.010 A 
ATOM     46  C   UNL     1      -2.289   5.305  -8.395  1.00  0.00    -0.014 A 
BRANCH  46  47
ATOM     47  C   UNL     1      -3.318   5.953  -9.249  1.00  0.00     0.031 A 
ATOM     48  C   UNL     1      -3.885   5.157 -10.396  1.00  0.00     0.074 A 
ATOM     49  C   UNL     1      -3.772   7.198  -9.018  1.00  0.00     0.049 A 
ATOM     50  N   UNL     1      -4.726   5.520 -11.329  1.00  0.00    -0.248 NA
ATOM     51  C   UNL     1      -3.438   3.757 -10.498  1.00  0.00     0.031 C 
ATOM     52  C   UNL     1      -3.375   8.058  -7.905  1.00  0.00     0.029 A 
ATOM     53  N   UNL     1      -4.676   7.957  -9.724  1.00  0.00    -0.354 N 
ATOM     54  C   UNL     1      -4.895   4.402 -12.137  1.00  0.00     0.074 A 
ATOM     55  C   UNL     1      -4.053   3.357 -11.598  1.00  0.00     0.031 C 
ATOM     56  C   UNL     1      -4.028   9.230  -8.008  1.00  0.00     0.029 A 
ATOM     57  C   UNL     1      -4.854   9.221  -9.215  1.00  0.00     0.049 A 
ATOM     58  H   UNL     1      -5.152   7.625 -10.519  1.00  0.00     0.167 HD
ATOM     59  C   UNL     1      -5.680   4.252 -13.229  1.00  0.00     0.031 A 
ATOM     60  C   UNL     1      -5.575  10.258  -9.687  1.00  0.00     0.031 A 
ATOM     61  C   UNL     1      -6.510   5.288 -13.780  1.00  0.00     0.049 A 
ATOM     62  C   UNL     1      -6.361  10.102 -10.966  1.00  0.00     0.074 A 
ATOM     63  C   UNL     1      -7.334   5.232 -14.890  1.00  0.00     0.029 A 
ATOM     64  N   UNL     1      -6.618   6.569 -13.264  1.00  0.00    -0.354 N 
ATOM     65  N   UNL     1      -6.508   9.044 -11.726  1.00  0.00    -0.248 NA
ATOM     66  C   UNL     1      -7.082  11.290 -11.452  1.00  0.00     0.031 C 
ATOM     67  C   UNL     1      -7.896   6.498 -15.081  1.00  0.00     0.029 A 
ATOM     68  C   UNL     1      -7.475   7.321 -14.049  1.00  0.00     0.049 A 
ATOM     69  H   UNL     1      -6.155   6.896 -12.459  1.00  0.00     0.167 HD
ATOM     70  C   UNL     1      -7.363   9.428 -12.754  1.00  0.00     0.074 A 
ATOM     71  C   UNL     1      -7.710  10.813 -12.518  1.00  0.00     0.031 C 
ATOM     72  C   UNL     1      -7.823   8.696 -13.799  1.00  0.00     0.031 A 
BRANCH  59  73
ATOM     73  C   UNL     1      -5.633   2.925 -13.931  1.00  0.00    -0.014 A 
ATOM     74  C   UNL     1      -6.199   1.773 -13.362  1.00  0.00     0.009 A 
ATOM     75  C   UNL     1      -5.022   2.830 -15.191  1.00  0.00     0.009 A 
ATOM     76  C   UNL     1      -6.121   0.547 -14.025  1.00  0.00     0.001 A 
ATOM     77  C   UNL     1      -4.973   1.610 -15.866  1.00  0.00     0.001 A 
ATOM     78  C   UNL     1      -5.513   0.468 -15.278  1.00  0.00     0.000 A 
ENDBRANCH  59  73
BRANCH  60  79
ATOM     79  C   UNL     1      -5.567  11.566  -8.974  1.00  0.00    -0.014 A 
ATOM     80  C   UNL     1      -6.730  12.058  -8.361  1.00  0.00     0.009 A 
ATOM     81  C   UNL     1      -4.404  12.352  -8.945  1.00  0.00     0.009 A 
ATOM     82  C   UNL     1      -6.735  13.320  -7.760  1.00  0.00     0.001 A 
ATOM     83  C   UNL     1      -4.404  13.599  -8.316  1.00  0.00     0.001 A 
ATOM     84  C   UNL     1      -5.571  14.087  -7.734  1.00  0.00     0.000 A 
ENDBRANCH  60  79
BRANCH  72  85
ATOM     85  C   UNL     1      -8.796   9.352 -14.740  1.00  0.00    -0.014 A 
ATOM     86  C   UNL     1      -8.388  10.340 -15.649  1.00  0.00     0.009 A 
ATOM     87  C   UNL     1     -10.134   8.924 -14.758  1.00  0.00     0.009 A 
ATOM     88  C   UNL     1      -9.307  10.905 -16.537  1.00  0.00     0.001 A 
ATOM     89  C   UNL     1     -11.043   9.469 -15.666  1.00  0.00     0.001 A 
ATOM     90  C   UNL     1     -10.631  10.465 -16.549  1.00  0.00     0.000 A 
ENDBRANCH  72  85
ENDBRANCH  46  47
ENDBRANCH  39  41
ENDBRANCH  38  39
ENDBRANCH  37  38
ENDBRANCH  36  37
ENDBRANCH  35  36
ENDBRANCH  34  35
ENDBRANCH  33  34
ENDBRANCH   1  33
TORSDOF 22
