REMARK SMILES O=C(OCCOCCOCCOC(=O)c1cncc(Nc2cc(Cl)ccc2Cl)n1)c1ccc(-c2c3nc(c(-c4ccccc4)c4ccc([nH]4)c(-c4ccccc4)c4nc(c(-c5ccccc5)c5ccc2[nH]5)C=C4)C=C3)cc1
REMARK SMILES IDX 7 1 6 2 5 3 4 4 3 5 2 6 1 7 30 8 31 9 77 10 32 11 76 12
REMARK SMILES IDX 33 13 34 14 35 15 70 16 36 17 75 18 69 19 71 20 37 21 74 22
REMARK SMILES IDX 68 23 67 24 38 26 60 27 45 28 59 29 46 30 49 31 58 32 72 33
REMARK SMILES IDX 47 34 48 35 57 37 73 38 50 39 39 40 40 41 44 42 41 43 43 44
REMARK SMILES IDX 42 45 61 46 62 47 66 48 63 49 65 50 64 51 51 52 52 53 56 54
REMARK SMILES IDX 53 55 55 56 54 57 8 58 9 59 10 60 11 61 12 62 13 63 14 64
REMARK SMILES IDX 15 65 16 66 29 67 17 68 19 69 18 70 20 71 21 73 22 74 27 75
REMARK SMILES IDX 23 76 26 77 28 78 24 79 25 80
REMARK H PARENT 71 25 49 36 20 72
REMARK Flexibility Score: inf
ROOT
ATOM      1  C   UNL     1       2.459  -0.027  -2.177  1.00  0.00     0.188 C 
ENDROOT
BRANCH   1   2
ATOM      2  O   UNL     1       3.783   0.201  -1.673  1.00  0.00    -0.376 OA
BRANCH   2   3
ATOM      3  C   UNL     1       4.568  -0.989  -1.554  1.00  0.00     0.202 C 
BRANCH   3   4
ATOM      4  C   UNL     1       4.442  -1.681  -0.193  1.00  0.00     0.261 C 
BRANCH   4   5
ATOM      5  O   UNL     1       3.079  -1.696   0.263  1.00  0.00    -0.460 OA
BRANCH   5   6
ATOM      6  C   UNL     1       2.469  -0.810   1.089  1.00  0.00     0.338 C 
ATOM      7  O   UNL     1       1.272  -0.956   1.329  1.00  0.00    -0.246 OA
BRANCH   6   8
ATOM      8  C   UNL     1       3.191   0.291   1.796  1.00  0.00     0.060 A 
ATOM      9  C   UNL     1       4.307   0.977   1.314  1.00  0.00     0.016 A 
ATOM     10  C   UNL     1       2.673   0.677   3.042  1.00  0.00     0.016 A 
ATOM     11  C   UNL     1       4.988   1.899   2.108  1.00  0.00     0.010 A 
ATOM     12  C   UNL     1       3.314   1.649   3.815  1.00  0.00     0.010 A 
ATOM     13  C   UNL     1       4.511   2.227   3.377  1.00  0.00    -0.014 A 
BRANCH  13  14
ATOM     14  C   UNL     1       5.348   3.049   4.282  1.00  0.00     0.031 A 
ATOM     15  C   UNL     1       5.954   2.396   5.494  1.00  0.00     0.074 A 
ATOM     16  C   UNL     1       5.651   4.324   3.972  1.00  0.00     0.049 A 
ATOM     17  N   UNL     1       6.743   2.907   6.404  1.00  0.00    -0.248 NA
ATOM     18  C   UNL     1       5.634   0.975   5.709  1.00  0.00     0.031 C 
ATOM     19  C   UNL     1       5.179   5.038   2.786  1.00  0.00     0.029 A 
ATOM     20  N   UNL     1       6.464   5.231   4.603  1.00  0.00    -0.354 N 
ATOM     21  C   UNL     1       6.980   1.882   7.310  1.00  0.00     0.074 A 
ATOM     22  C   UNL     1       6.237   0.729   6.860  1.00  0.00     0.031 C 
ATOM     23  C   UNL     1       5.753   6.251   2.744  1.00  0.00     0.029 A 
ATOM     24  C   UNL     1       6.596   6.418   3.922  1.00  0.00     0.049 A 
ATOM     25  H   UNL     1       6.910   5.049   5.461  1.00  0.00     0.167 HD
ATOM     26  C   UNL     1       7.758   1.891   8.417  1.00  0.00     0.031 A 
ATOM     27  C   UNL     1       7.324   7.511   4.216  1.00  0.00     0.031 A 
ATOM     28  C   UNL     1       8.515   3.028   8.853  1.00  0.00     0.049 A 
ATOM     29  C   UNL     1       8.159   7.508   5.467  1.00  0.00     0.074 A 
ATOM     30  C   UNL     1       9.304   3.165   9.980  1.00  0.00     0.029 A 
ATOM     31  N   UNL     1       8.582   4.229   8.162  1.00  0.00    -0.354 N 
ATOM     32  N   UNL     1       8.344   6.540   6.333  1.00  0.00    -0.248 NA
ATOM     33  C   UNL     1       8.885   8.746   5.780  1.00  0.00     0.031 C 
ATOM     34  C   UNL     1       9.833   4.461   9.982  1.00  0.00     0.029 A 
ATOM     35  C   UNL     1       9.399   5.115   8.839  1.00  0.00     0.049 A 
ATOM     36  H   UNL     1       8.118   4.421   7.315  1.00  0.00     0.167 HD
ATOM     37  C   UNL     1       9.220   7.045   7.283  1.00  0.00     0.074 A 
ATOM     38  C   UNL     1       9.546   8.398   6.876  1.00  0.00     0.031 C 
ATOM     39  C   UNL     1       9.710   6.449   8.398  1.00  0.00     0.031 A 
BRANCH  26  40
ATOM     40  C   UNL     1       7.771   0.634   9.236  1.00  0.00    -0.014 A 
ATOM     41  C   UNL     1       8.458  -0.512   8.805  1.00  0.00     0.009 A 
ATOM     42  C   UNL     1       7.030   0.578  10.427  1.00  0.00     0.009 A 
ATOM     43  C   UNL     1       8.363  -1.704   9.526  1.00  0.00     0.001 A 
ATOM     44  C   UNL     1       6.957  -0.609  11.158  1.00  0.00     0.001 A 
ATOM     45  C   UNL     1       7.611  -1.752  10.700  1.00  0.00     0.000 A 
ENDBRANCH  26  40
BRANCH  27  46
ATOM     46  C   UNL     1       7.308   8.693   3.313  1.00  0.00    -0.014 A 
ATOM     47  C   UNL     1       8.450   9.046   2.576  1.00  0.00     0.009 A 
ATOM     48  C   UNL     1       6.156   9.486   3.193  1.00  0.00     0.009 A 
ATOM     49  C   UNL     1       8.445  10.179   1.758  1.00  0.00     0.001 A 
ATOM     50  C   UNL     1       6.145  10.602   2.354  1.00  0.00     0.001 A 
ATOM     51  C   UNL     1       7.292  10.954   1.644  1.00  0.00     0.000 A 
ENDBRANCH  27  46
BRANCH  39  52
ATOM     52  C   UNL     1      10.668   7.247   9.229  1.00  0.00    -0.014 A 
ATOM     53  C   UNL     1      10.213   8.273  10.071  1.00  0.00     0.009 A 
ATOM     54  C   UNL     1      12.036   6.935   9.203  1.00  0.00     0.009 A 
ATOM     55  C   UNL     1      11.117   8.990  10.854  1.00  0.00     0.001 A 
ATOM     56  C   UNL     1      12.934   7.640  10.003  1.00  0.00     0.001 A 
ATOM     57  C   UNL     1      12.475   8.671  10.823  1.00  0.00     0.000 A 
ENDBRANCH  39  52
ENDBRANCH  13  14
ENDBRANCH   6   8
ENDBRANCH   5   6
ENDBRANCH   4   5
ENDBRANCH   3   4
ENDBRANCH   2   3
ENDBRANCH   1   2
BRANCH   1  58
ATOM     58  C   UNL     1       1.990   1.156  -3.026  1.00  0.00     0.188 C 
BRANCH  58  59
ATOM     59  O   UNL     1       2.639   1.264  -4.294  1.00  0.00    -0.376 OA
BRANCH  59  60
ATOM     60  C   UNL     1       4.026   1.592  -4.281  1.00  0.00     0.202 C 
BRANCH  60  61
ATOM     61  C   UNL     1       4.357   3.062  -4.012  1.00  0.00     0.261 C 
BRANCH  61  62
ATOM     62  O   UNL     1       4.013   3.524  -2.691  1.00  0.00    -0.458 OA
BRANCH  62  63
ATOM     63  C   UNL     1       3.007   4.437  -2.651  1.00  0.00     0.358 C 
ATOM     64  O   UNL     1       2.312   4.809  -3.583  1.00  0.00    -0.244 OA
BRANCH  63  65
ATOM     65  C   UNL     1       2.974   5.104  -1.340  1.00  0.00     0.169 A 
ATOM     66  C   UNL     1       3.700   6.281  -1.240  1.00  0.00     0.147 A 
ATOM     67  N   UNL     1       2.091   4.679  -0.386  1.00  0.00    -0.220 NA
ATOM     68  N   UNL     1       3.589   7.101  -0.176  1.00  0.00    -0.258 NA
ATOM     69  C   UNL     1       1.935   5.511   0.671  1.00  0.00     0.149 A 
ATOM     70  C   UNL     1       2.686   6.696   0.752  1.00  0.00     0.158 A 
BRANCH  69  71
ATOM     71  N   UNL     1       1.028   5.153   1.679  1.00  0.00    -0.338 N 
ATOM     72  H   UNL     1       0.758   4.207   1.688  1.00  0.00     0.168 HD
BRANCH  71  73
ATOM     73  C   UNL     1       0.447   5.958   2.680  1.00  0.00     0.060 A 
ATOM     74  C   UNL     1      -0.055   7.232   2.361  1.00  0.00     0.048 A 
ATOM     75  C   UNL     1       0.417   5.562   4.029  1.00  0.00     0.064 A 
ATOM     76  C   UNL     1      -0.515   8.094   3.358  1.00  0.00     0.043 A 
ATOM     77  C   UNL     1      -0.020   6.438   5.030  1.00  0.00     0.024 A 
ATOM     78  Cl  UNL     1       0.947   3.998   4.512  1.00  0.00    -0.082 Cl
ATOM     79  Cl  UNL     1      -1.113   9.648   2.930  1.00  0.00    -0.084 Cl
ATOM     80  C   UNL     1      -0.478   7.711   4.694  1.00  0.00     0.022 A 
ENDBRANCH  71  73
ENDBRANCH  69  71
ENDBRANCH  63  65
ENDBRANCH  62  63
ENDBRANCH  61  62
ENDBRANCH  60  61
ENDBRANCH  59  60
ENDBRANCH  58  59
ENDBRANCH   1  58
TORSDOF 19
