REMARK SMILES CC1(C)[C@@]2(CC[C@@H]2C(=O)NCc2ccco2)[C@]1(C)C(=O)OCCOCCOCCOC(=O)c1ccc(-c2c3nc(c(-c4ccccc4)c4ccc([nH]4)c(-c4ccccc4)c4nc(c(-c5ccccc5)c5ccc2[nH]5)C=C4)C=C3)cc1
REMARK SMILES IDX 25 1 24 2 23 3 22 4 21 5 19 6 20 7 17 8 1 9 2 10 3 11 4 12
REMARK SMILES IDX 18 13 5 14 7 15 6 16 8 17 9 18 10 19 11 21 12 22 13 23 16 24
REMARK SMILES IDX 14 25 15 26 26 27 27 28 28 29 29 30 30 31 31 32 32 33 33 34
REMARK SMILES IDX 34 35 80 36 35 37 79 38 36 39 37 40 38 41 73 42 39 43 78 44
REMARK SMILES IDX 72 45 74 46 40 47 77 48 71 49 70 50 41 52 63 53 48 54 62 55
REMARK SMILES IDX 49 56 52 57 61 58 75 59 50 60 51 61 60 63 76 64 53 65 42 66
REMARK SMILES IDX 43 67 47 68 44 69 46 70 45 71 64 72 65 73 69 74 66 75 68 76
REMARK SMILES IDX 67 77 54 78 55 79 59 80 56 81 58 82 57 83
REMARK H PARENT 10 20 74 51 52 62
REMARK Flexibility Score: inf
ROOT
ATOM      1  C   UNL     1      -4.328   0.182  -1.654  1.00  0.00     0.188 C 
ENDROOT
BRANCH   1   2
ATOM      2  O   UNL     1      -5.206   0.082  -0.559  1.00  0.00    -0.376 OA
BRANCH   2   3
ATOM      3  C   UNL     1      -4.742   0.319   0.759  1.00  0.00     0.202 C 
BRANCH   3   4
ATOM      4  C   UNL     1      -3.261   0.339   1.185  1.00  0.00     0.261 C 
BRANCH   4   5
ATOM      5  O   UNL     1      -2.301   0.662   0.173  1.00  0.00    -0.463 OA
BRANCH   5   6
ATOM      6  C   UNL     1      -1.380  -0.296  -0.101  1.00  0.00     0.313 C 
ATOM      7  O   UNL     1      -1.274  -1.369   0.486  1.00  0.00    -0.252 OA
BRANCH   6   8
ATOM      8  C   UNL     1      -0.561  -0.028  -1.345  1.00  0.00     0.078 C 
ATOM      9  C   UNL     1       1.425   0.187   0.317  1.00  0.00     0.013 C 
ATOM     10  C   UNL     1       0.953   0.168  -1.129  1.00  0.00    -0.011 C 
ATOM     11  C   UNL     1       1.930  -0.548  -2.029  1.00  0.00     0.013 C 
ATOM     12  C   UNL     1       0.121   1.317  -1.667  1.00  0.00     0.005 C 
ATOM     13  C   UNL     1      -0.998  -0.887  -2.533  1.00  0.00     0.025 C 
ATOM     14  C   UNL     1       0.002   1.884  -3.049  1.00  0.00     0.010 C 
ATOM     15  C   UNL     1       0.003   2.669  -1.021  1.00  0.00     0.086 C 
ATOM     16  C   UNL     1      -0.312   3.233  -2.410  1.00  0.00     0.015 C 
BRANCH  15  17
ATOM     17  C   UNL     1       1.191   3.272  -0.226  1.00  0.00     0.224 C 
ATOM     18  O   UNL     1       1.040   3.707   0.929  1.00  0.00    -0.275 OA
ATOM     19  N   UNL     1       2.469   3.398  -0.714  1.00  0.00    -0.349 N 
ATOM     20  H   UNL     1       3.096   3.809  -0.076  1.00  0.00     0.163 HD
BRANCH  19  21
ATOM     21  C   UNL     1       3.077   3.048  -1.978  1.00  0.00     0.191 C 
BRANCH  21  22
ATOM     22  C   UNL     1       3.290   4.257  -2.814  1.00  0.00     0.122 A 
ATOM     23  C   UNL     1       2.927   5.586  -2.715  1.00  0.00     0.047 A 
ATOM     24  O   UNL     1       4.016   4.067  -3.957  1.00  0.00    -0.467 OA
ATOM     25  C   UNL     1       3.467   6.240  -3.849  1.00  0.00     0.042 A 
ATOM     26  C   UNL     1       4.121   5.272  -4.573  1.00  0.00     0.195 A 
ENDBRANCH  21  22
ENDBRANCH  19  21
ENDBRANCH  15  17
ENDBRANCH   6   8
ENDBRANCH   5   6
ENDBRANCH   4   5
ENDBRANCH   3   4
ENDBRANCH   2   3
ENDBRANCH   1   2
BRANCH   1  27
ATOM     27  C   UNL     1      -3.775   1.569  -2.045  1.00  0.00     0.188 C 
BRANCH  27  28
ATOM     28  O   UNL     1      -4.218   2.745  -1.400  1.00  0.00    -0.376 OA
BRANCH  28  29
ATOM     29  C   UNL     1      -5.607   2.990  -1.282  1.00  0.00     0.202 C 
BRANCH  29  30
ATOM     30  C   UNL     1      -6.548   2.833  -2.487  1.00  0.00     0.261 C 
BRANCH  30  31
ATOM     31  O   UNL     1      -6.352   1.664  -3.297  1.00  0.00    -0.460 OA
BRANCH  31  32
ATOM     32  C   UNL     1      -5.822   1.888  -4.525  1.00  0.00     0.338 C 
ATOM     33  O   UNL     1      -5.497   2.962  -5.007  1.00  0.00    -0.246 OA
BRANCH  32  34
ATOM     34  C   UNL     1      -5.509   0.601  -5.177  1.00  0.00     0.060 A 
ATOM     35  C   UNL     1      -4.172   0.308  -5.488  1.00  0.00     0.016 A 
ATOM     36  C   UNL     1      -6.527  -0.278  -5.545  1.00  0.00     0.016 A 
ATOM     37  C   UNL     1      -3.852  -0.855  -6.190  1.00  0.00     0.010 A 
ATOM     38  C   UNL     1      -6.207  -1.431  -6.270  1.00  0.00     0.010 A 
ATOM     39  C   UNL     1      -4.873  -1.711  -6.622  1.00  0.00    -0.014 A 
BRANCH  39  40
ATOM     40  C   UNL     1      -4.571  -2.803  -7.580  1.00  0.00     0.031 A 
ATOM     41  C   UNL     1      -4.838  -2.575  -9.044  1.00  0.00     0.074 A 
ATOM     42  C   UNL     1      -4.070  -3.981  -7.165  1.00  0.00     0.049 A 
ATOM     43  N   UNL     1      -4.722  -3.405 -10.049  1.00  0.00    -0.248 NA
ATOM     44  C   UNL     1      -5.300  -1.229  -9.425  1.00  0.00     0.031 C 
ATOM     45  C   UNL     1      -3.718  -4.316  -5.787  1.00  0.00     0.029 A 
ATOM     46  N   UNL     1      -3.783  -5.123  -7.874  1.00  0.00    -0.354 N 
ATOM     47  C   UNL     1      -5.118  -2.693 -11.175  1.00  0.00     0.074 A 
ATOM     48  C   UNL     1      -5.488  -1.367 -10.730  1.00  0.00     0.031 C 
ATOM     49  C   UNL     1      -3.279  -5.587  -5.747  1.00  0.00     0.029 A 
ATOM     50  C   UNL     1      -3.356  -6.165  -7.087  1.00  0.00     0.049 A 
ATOM     51  H   UNL     1      -3.874  -5.188  -8.852  1.00  0.00     0.167 HD
ATOM     52  C   UNL     1      -5.173  -3.106 -12.463  1.00  0.00     0.031 A 
ATOM     53  C   UNL     1      -3.091  -7.448  -7.408  1.00  0.00     0.031 A 
ATOM     54  C   UNL     1      -4.811  -4.425 -12.908  1.00  0.00     0.049 A 
ATOM     55  C   UNL     1      -3.238  -7.902  -8.839  1.00  0.00     0.074 A 
ATOM     56  C   UNL     1      -4.801  -4.923 -14.200  1.00  0.00     0.029 A 
ATOM     57  N   UNL     1      -4.410  -5.458 -12.077  1.00  0.00    -0.354 N 
ATOM     58  N   UNL     1      -3.567  -7.206  -9.901  1.00  0.00    -0.248 NA
ATOM     59  C   UNL     1      -2.970  -9.322  -9.116  1.00  0.00     0.031 C 
ATOM     60  C   UNL     1      -4.465  -6.279 -14.143  1.00  0.00     0.029 A 
ATOM     61  C   UNL     1      -4.191  -6.604 -12.824  1.00  0.00     0.049 A 
ATOM     62  H   UNL     1      -4.299  -5.389 -11.102  1.00  0.00     0.167 HD
ATOM     63  C   UNL     1      -3.507  -8.093 -10.971  1.00  0.00     0.074 A 
ATOM     64  C   UNL     1      -3.095  -9.372 -10.434  1.00  0.00     0.031 C 
ATOM     65  C   UNL     1      -3.770  -7.869 -12.282  1.00  0.00     0.031 A 
BRANCH  52  66
ATOM     66  C   UNL     1      -5.691  -2.136 -13.488  1.00  0.00    -0.014 A 
ATOM     67  C   UNL     1      -4.937  -1.027 -13.900  1.00  0.00     0.009 A 
ATOM     68  C   UNL     1      -6.933  -2.378 -14.097  1.00  0.00     0.009 A 
ATOM     69  C   UNL     1      -5.429  -0.166 -14.884  1.00  0.00     0.001 A 
ATOM     70  C   UNL     1      -7.408  -1.533 -15.100  1.00  0.00     0.001 A 
ATOM     71  C   UNL     1      -6.659  -0.424 -15.488  1.00  0.00     0.000 A 
ENDBRANCH  52  66
BRANCH  53  72
ATOM     72  C   UNL     1      -2.700  -8.426  -6.355  1.00  0.00    -0.014 A 
ATOM     73  C   UNL     1      -1.429  -9.021  -6.362  1.00  0.00     0.009 A 
ATOM     74  C   UNL     1      -3.625  -8.820  -5.374  1.00  0.00     0.009 A 
ATOM     75  C   UNL     1      -1.108 -10.020  -5.437  1.00  0.00     0.001 A 
ATOM     76  C   UNL     1      -3.289  -9.792  -4.429  1.00  0.00     0.001 A 
ATOM     77  C   UNL     1      -2.037 -10.402  -4.471  1.00  0.00     0.000 A 
ENDBRANCH  53  72
BRANCH  65  78
ATOM     78  C   UNL     1      -3.567  -9.012 -13.239  1.00  0.00    -0.014 A 
ATOM     79  C   UNL     1      -4.424 -10.123 -13.253  1.00  0.00     0.009 A 
ATOM     80  C   UNL     1      -2.523  -8.950 -14.178  1.00  0.00     0.009 A 
ATOM     81  C   UNL     1      -4.218 -11.164 -14.161  1.00  0.00     0.001 A 
ATOM     82  C   UNL     1      -2.341  -9.976 -15.107  1.00  0.00     0.001 A 
ATOM     83  C   UNL     1      -3.181 -11.087 -15.090  1.00  0.00     0.000 A 
ENDBRANCH  65  78
ENDBRANCH  39  40
ENDBRANCH  32  34
ENDBRANCH  31  32
ENDBRANCH  30  31
ENDBRANCH  29  30
ENDBRANCH  28  29
ENDBRANCH  27  28
ENDBRANCH   1  27
TORSDOF 20
