REMARK SMILES C[C@H](O)[C@H](C)C(C)(C)C(=O)OCCOCCOCCOC(=O)c1ccc(-c2c3nc(c(-c4ccccc4)c4ccc([nH]4)c(-c4ccccc4)c4nc(c(-c5ccccc5)c5ccc2[nH]5)C=C4)C=C3)cc1
REMARK SMILES IDX 15 1 14 2 13 3 12 4 11 5 9 6 10 7 6 8 7 9 8 10 4 11 5 12
REMARK SMILES IDX 2 13 1 14 3 15 16 17 17 18 18 19 19 20 20 21 21 22 22 23
REMARK SMILES IDX 23 24 24 25 70 26 25 27 69 28 26 29 27 30 28 31 63 32 29 33
REMARK SMILES IDX 68 34 62 35 64 36 30 37 67 38 61 39 60 40 31 42 53 43 38 44
REMARK SMILES IDX 52 45 39 46 42 47 51 48 65 49 40 50 41 51 50 53 66 54 43 55
REMARK SMILES IDX 32 56 33 57 37 58 34 59 36 60 35 61 54 62 55 63 59 64 56 65
REMARK SMILES IDX 58 66 57 67 44 68 45 69 49 70 46 71 48 72 47 73
REMARK H PARENT 3 16 64 41 42 52
REMARK Flexibility Score: inf
ROOT
ATOM      1  C   UNL     1      -1.403   4.522  -2.509  1.00  0.00     0.188 C 
ENDROOT
BRANCH   1   2
ATOM      2  O   UNL     1      -0.708   5.243  -3.509  1.00  0.00    -0.376 OA
BRANCH   2   3
ATOM      3  C   UNL     1      -0.749   4.756  -4.840  1.00  0.00     0.202 C 
BRANCH   3   4
ATOM      4  C   UNL     1      -0.200   3.351  -5.128  1.00  0.00     0.261 C 
BRANCH   4   5
ATOM      5  O   UNL     1      -0.914   2.256  -4.508  1.00  0.00    -0.463 OA
BRANCH   5   6
ATOM      6  C   UNL     1      -0.197   1.474  -3.651  1.00  0.00     0.311 C 
ATOM      7  O   UNL     1       0.943   1.747  -3.299  1.00  0.00    -0.252 OA
BRANCH   6   8
ATOM      8  C   UNL     1      -0.919   0.162  -3.249  1.00  0.00     0.067 C 
ATOM      9  C   UNL     1      -0.516  -0.860  -4.347  1.00  0.00     0.024 C 
ATOM     10  C   UNL     1      -2.462   0.218  -3.343  1.00  0.00     0.024 C 
BRANCH   8  11
ATOM     11  C   UNL     1      -0.433  -0.377  -1.825  1.00  0.00     0.031 C 
ATOM     12  C   UNL     1       1.083  -0.681  -1.758  1.00  0.00     0.011 C 
BRANCH  11  13
ATOM     13  C   UNL     1      -0.885   0.324  -0.492  1.00  0.00     0.115 C 
ATOM     14  C   UNL     1      -1.744   1.559  -0.565  1.00  0.00     0.038 C 
BRANCH  13  15
ATOM     15  O   UNL     1       0.228   0.667   0.340  1.00  0.00    -0.393 OA
ATOM     16  H   UNL     1       0.744   1.371  -0.083  1.00  0.00     0.210 HD
ENDBRANCH  13  15
ENDBRANCH  11  13
ENDBRANCH   8  11
ENDBRANCH   6   8
ENDBRANCH   5   6
ENDBRANCH   4   5
ENDBRANCH   3   4
ENDBRANCH   2   3
ENDBRANCH   1   2
BRANCH   1  17
ATOM     17  C   UNL     1      -2.805   3.947  -2.812  1.00  0.00     0.188 C 
BRANCH  17  18
ATOM     18  O   UNL     1      -3.718   4.661  -3.627  1.00  0.00    -0.376 OA
BRANCH  18  19
ATOM     19  C   UNL     1      -3.790   6.065  -3.475  1.00  0.00     0.202 C 
BRANCH  19  20
ATOM     20  C   UNL     1      -4.359   6.596  -2.157  1.00  0.00     0.261 C 
BRANCH  20  21
ATOM     21  O   UNL     1      -3.696   6.104  -0.978  1.00  0.00    -0.460 OA
BRANCH  21  22
ATOM     22  C   UNL     1      -4.433   5.255  -0.210  1.00  0.00     0.338 C 
ATOM     23  O   UNL     1      -5.554   4.854  -0.441  1.00  0.00    -0.246 OA
BRANCH  22  24
ATOM     24  C   UNL     1      -3.628   4.752   0.933  1.00  0.00     0.060 A 
ATOM     25  C   UNL     1      -3.813   3.418   1.318  1.00  0.00     0.016 A 
ATOM     26  C   UNL     1      -2.750   5.566   1.655  1.00  0.00     0.016 A 
ATOM     27  C   UNL     1      -3.117   2.893   2.411  1.00  0.00     0.010 A 
ATOM     28  C   UNL     1      -2.076   5.047   2.773  1.00  0.00     0.010 A 
ATOM     29  C   UNL     1      -2.262   3.709   3.163  1.00  0.00    -0.014 A 
BRANCH  29  30
ATOM     30  C   UNL     1      -1.728   3.198   4.452  1.00  0.00     0.031 A 
ATOM     31  C   UNL     1      -2.608   3.279   5.669  1.00  0.00     0.074 A 
ATOM     32  C   UNL     1      -0.516   2.620   4.548  1.00  0.00     0.049 A 
ATOM     33  N   UNL     1      -2.394   2.838   6.883  1.00  0.00    -0.248 NA
ATOM     34  C   UNL     1      -3.913   3.933   5.484  1.00  0.00     0.031 C 
ATOM     35  C   UNL     1       0.413   2.408   3.442  1.00  0.00     0.029 A 
ATOM     36  N   UNL     1       0.131   2.087   5.638  1.00  0.00    -0.354 N 
ATOM     37  C   UNL     1      -3.545   3.140   7.599  1.00  0.00     0.074 A 
ATOM     38  C   UNL     1      -4.441   3.828   6.693  1.00  0.00     0.031 C 
ATOM     39  C   UNL     1       1.512   1.788   3.909  1.00  0.00     0.029 A 
ATOM     40  C   UNL     1       1.377   1.581   5.350  1.00  0.00     0.049 A 
ATOM     41  H   UNL     1      -0.261   2.070   6.541  1.00  0.00     0.167 HD
ATOM     42  C   UNL     1      -3.837   2.872   8.894  1.00  0.00     0.031 A 
ATOM     43  C   UNL     1       2.301   1.022   6.157  1.00  0.00     0.031 A 
ATOM     44  C   UNL     1      -2.930   2.252   9.822  1.00  0.00     0.049 A 
ATOM     45  C   UNL     1       2.001   0.851   7.627  1.00  0.00     0.074 A 
ATOM     46  C   UNL     1      -3.126   1.974  11.164  1.00  0.00     0.029 A 
ATOM     47  N   UNL     1      -1.645   1.835   9.511  1.00  0.00    -0.354 N 
ATOM     48  N   UNL     1       0.900   1.119   8.287  1.00  0.00    -0.248 NA
ATOM     49  C   UNL     1       3.074   0.287   8.461  1.00  0.00     0.031 C 
ATOM     50  C   UNL     1      -1.936   1.450  11.680  1.00  0.00     0.029 A 
ATOM     51  C   UNL     1      -1.025   1.331  10.643  1.00  0.00     0.049 A 
ATOM     52  H   UNL     1      -1.235   1.888   8.617  1.00  0.00     0.167 HD
ATOM     53  C   UNL     1       1.136   0.724   9.600  1.00  0.00     0.074 A 
ATOM     54  C   UNL     1       2.478   0.182   9.639  1.00  0.00     0.031 C 
ATOM     55  C   UNL     1       0.314   0.799  10.676  1.00  0.00     0.031 A 
BRANCH  42  56
ATOM     56  C   UNL     1      -5.184   3.316   9.391  1.00  0.00    -0.014 A 
ATOM     57  C   UNL     1      -6.363   2.677   8.973  1.00  0.00     0.009 A 
ATOM     58  C   UNL     1      -5.275   4.392  10.287  1.00  0.00     0.009 A 
ATOM     59  C   UNL     1      -7.607   3.134   9.412  1.00  0.00     0.001 A 
ATOM     60  C   UNL     1      -6.518   4.827  10.748  1.00  0.00     0.001 A 
ATOM     61  C   UNL     1      -7.683   4.206  10.301  1.00  0.00     0.000 A 
ENDBRANCH  42  56
BRANCH  43  62
ATOM     62  C   UNL     1       3.623   0.597   5.616  1.00  0.00    -0.014 A 
ATOM     63  C   UNL     1       3.997  -0.757   5.602  1.00  0.00     0.009 A 
ATOM     64  C   UNL     1       4.546   1.554   5.167  1.00  0.00     0.009 A 
ATOM     65  C   UNL     1       5.276  -1.137   5.184  1.00  0.00     0.001 A 
ATOM     66  C   UNL     1       5.812   1.169   4.718  1.00  0.00     0.001 A 
ATOM     67  C   UNL     1       6.181  -0.174   4.739  1.00  0.00     0.000 A 
ENDBRANCH  43  62
BRANCH  55  68
ATOM     68  C   UNL     1       0.824   0.245  11.981  1.00  0.00    -0.014 A 
ATOM     69  C   UNL     1       1.863   0.867  12.692  1.00  0.00     0.009 A 
ATOM     70  C   UNL     1       0.231  -0.907  12.523  1.00  0.00     0.009 A 
ATOM     71  C   UNL     1       2.327   0.320  13.891  1.00  0.00     0.001 A 
ATOM     72  C   UNL     1       0.673  -1.432  13.739  1.00  0.00     0.001 A 
ATOM     73  C   UNL     1       1.729  -0.826  14.415  1.00  0.00     0.000 A 
ENDBRANCH  55  68
ENDBRANCH  29  30
ENDBRANCH  22  24
ENDBRANCH  21  22
ENDBRANCH  20  21
ENDBRANCH  19  20
ENDBRANCH  18  19
ENDBRANCH  17  18
ENDBRANCH   1  17
TORSDOF 20
