REMARK SMILES Cc1ccc(C(=O)NC2CC2)cc1NC(=O)[C@@H]1[C@@H](C(=O)OCCOCCOCCOC(=O)c2ccc(-c3c4nc(c(-c5ccccc5)c5ccc([nH]5)c(-c5ccccc5)c5nc(c(-c6ccccc6)c6ccc3[nH]6)C=C5)C=C4)cc2)[C@H]2C=C[C@@H]1C2
REMARK SMILES IDX 25 1 24 2 23 3 22 4 21 5 19 6 20 7 18 8 17 9 84 10 81 11
REMARK SMILES IDX 83 12 85 13 82 14 15 15 14 16 16 18 13 19 1 20 2 21 3 22
REMARK SMILES IDX 4 23 12 24 5 25 6 26 7 27 8 28 9 30 10 31 11 32 26 33 27 34
REMARK SMILES IDX 28 35 29 36 30 37 31 38 32 39 33 40 34 41 80 42 35 43 79 44
REMARK SMILES IDX 36 45 37 46 38 47 73 48 39 49 78 50 72 51 74 52 40 53 77 54
REMARK SMILES IDX 71 55 70 56 41 58 63 59 48 60 62 61 49 62 52 63 61 64 75 65
REMARK SMILES IDX 50 66 51 67 60 69 76 70 53 71 42 72 43 73 47 74 44 75 46 76
REMARK SMILES IDX 45 77 64 78 65 79 69 80 66 81 68 82 67 83 54 84 55 85 59 86
REMARK SMILES IDX 56 87 58 88 57 89
REMARK H PARENT 14 17 8 29 74 57 52 68
REMARK Flexibility Score: inf
ROOT
ATOM      1  C   UNL     1      -1.033   6.668  -5.306  1.00  0.00     0.188 C 
ENDROOT
BRANCH   1   2
ATOM      2  O   UNL     1      -2.371   7.090  -5.501  1.00  0.00    -0.376 OA
BRANCH   2   3
ATOM      3  C   UNL     1      -3.248   6.574  -4.504  1.00  0.00     0.202 C 
BRANCH   3   4
ATOM      4  C   UNL     1      -2.800   6.704  -3.027  1.00  0.00     0.261 C 
BRANCH   4   5
ATOM      5  O   UNL     1      -1.821   5.608  -2.422  1.00  0.00    -0.463 OA
BRANCH   5   6
ATOM      6  C   UNL     1      -1.160   4.763  -1.588  1.00  0.00     0.310 C 
ATOM      7  O   UNL     1      -0.391   4.016  -2.215  1.00  0.00    -0.252 OA
BRANCH   6   8
ATOM      8  C   UNL     1      -1.079   4.550   0.023  1.00  0.00     0.119 C 
ATOM      9  C   UNL     1      -0.562   3.109   0.433  1.00  0.00     0.100 C 
ATOM     10  C   UNL     1      -0.590   3.090   2.004  1.00  0.00     0.025 C 
ATOM     11  C   UNL     1      -1.835   4.852   1.411  1.00  0.00     0.027 C 
ATOM     12  C   UNL     1      -1.983   2.807   2.474  1.00  0.00    -0.027 C 
ATOM     13  C   UNL     1      -0.630   4.571   2.362  1.00  0.00     0.017 C 
ATOM     14  C   UNL     1      -2.736   3.827   2.052  1.00  0.00    -0.027 C 
BRANCH   9  15
ATOM     15  C   UNL     1       0.825   2.774  -0.034  1.00  0.00     0.228 C 
ATOM     16  N   UNL     1       1.227   1.486  -0.239  1.00  0.00    -0.326 N 
ATOM     17  H   UNL     1       2.163   1.431  -0.537  1.00  0.00     0.169 HD
ATOM     18  O   UNL     1       1.688   3.657  -0.105  1.00  0.00    -0.274 OA
BRANCH  16  19
ATOM     19  C   UNL     1       0.626   0.209  -0.126  1.00  0.00     0.044 A 
ATOM     20  C   UNL     1       2.970  -0.817   0.154  1.00  0.00     0.046 C 
ATOM     21  C   UNL     1       1.466  -0.898   0.105  1.00  0.00    -0.027 A 
ATOM     22  C   UNL     1       0.901  -2.177   0.267  1.00  0.00     0.006 A 
ATOM     23  C   UNL     1      -0.478  -2.368   0.240  1.00  0.00     0.014 A 
ATOM     24  C   UNL     1      -0.751  -0.035  -0.252  1.00  0.00     0.040 A 
ATOM     25  C   UNL     1      -1.328  -1.294  -0.008  1.00  0.00     0.041 A 
BRANCH  25  26
ATOM     26  C   UNL     1      -2.797  -1.595  -0.030  1.00  0.00     0.251 C 
ATOM     27  O   UNL     1      -3.182  -2.726  -0.327  1.00  0.00    -0.269 OA
ATOM     28  N   UNL     1      -3.742  -0.665   0.334  1.00  0.00    -0.349 N 
ATOM     29  H   UNL     1      -4.666  -1.000   0.395  1.00  0.00     0.164 HD
BRANCH  28  30
ATOM     30  C   UNL     1      -3.571   0.706   0.633  1.00  0.00     0.082 C 
ATOM     31  C   UNL     1      -3.725   1.654  -0.507  1.00  0.00     0.027 C 
ATOM     32  C   UNL     1      -4.708   1.685   0.593  1.00  0.00     0.027 C 
ENDBRANCH  28  30
ENDBRANCH  25  26
ENDBRANCH  16  19
ENDBRANCH   9  15
ENDBRANCH   6   8
ENDBRANCH   5   6
ENDBRANCH   4   5
ENDBRANCH   3   4
ENDBRANCH   2   3
ENDBRANCH   1   2
BRANCH   1  33
ATOM     33  C   UNL     1      -0.189   7.736  -4.602  1.00  0.00     0.188 C 
BRANCH  33  34
ATOM     34  O   UNL     1      -0.920   8.595  -3.745  1.00  0.00    -0.376 OA
BRANCH  34  35
ATOM     35  C   UNL     1      -1.518   9.753  -4.323  1.00  0.00     0.202 C 
BRANCH  35  36
ATOM     36  C   UNL     1      -0.636  10.946  -3.958  1.00  0.00     0.261 C 
BRANCH  36  37
ATOM     37  O   UNL     1      -0.776  11.226  -2.546  1.00  0.00    -0.460 OA
BRANCH  37  38
ATOM     38  C   UNL     1      -0.132  10.343  -1.746  1.00  0.00     0.338 C 
ATOM     39  O   UNL     1       1.062  10.062  -1.815  1.00  0.00    -0.246 OA
BRANCH  38  40
ATOM     40  C   UNL     1      -1.137   9.573  -0.954  1.00  0.00     0.060 A 
ATOM     41  C   UNL     1      -0.696   8.433  -0.339  1.00  0.00     0.016 A 
ATOM     42  C   UNL     1      -2.523   9.780  -0.998  1.00  0.00     0.016 A 
ATOM     43  C   UNL     1      -1.635   7.465   0.036  1.00  0.00     0.010 A 
ATOM     44  C   UNL     1      -3.442   8.734  -0.683  1.00  0.00     0.010 A 
ATOM     45  C   UNL     1      -3.010   7.459  -0.278  1.00  0.00    -0.014 A 
BRANCH  45  46
ATOM     46  C   UNL     1      -4.055   6.273  -0.257  1.00  0.00     0.031 A 
ATOM     47  C   UNL     1      -4.940   6.176   0.944  1.00  0.00     0.074 A 
ATOM     48  C   UNL     1      -4.474   5.280  -1.159  1.00  0.00     0.049 A 
ATOM     49  N   UNL     1      -5.768   5.194   1.159  1.00  0.00    -0.248 NA
ATOM     50  C   UNL     1      -4.859   7.112   2.061  1.00  0.00     0.031 C 
ATOM     51  C   UNL     1      -5.924   5.165  -1.465  1.00  0.00     0.029 A 
ATOM     52  N   UNL     1      -3.982   4.459  -2.199  1.00  0.00    -0.354 N 
ATOM     53  C   UNL     1      -6.598   5.615   2.149  1.00  0.00     0.074 A 
ATOM     54  C   UNL     1      -5.812   6.606   2.851  1.00  0.00     0.031 C 
ATOM     55  C   UNL     1      -6.152   4.257  -2.422  1.00  0.00     0.029 A 
ATOM     56  C   UNL     1      -4.912   3.638  -2.824  1.00  0.00     0.049 A 
ATOM     57  H   UNL     1      -3.034   4.468  -2.466  1.00  0.00     0.167 HD
ATOM     58  C   UNL     1      -7.928   5.319   2.101  1.00  0.00     0.031 A 
ATOM     59  C   UNL     1      -4.755   2.476  -3.536  1.00  0.00     0.031 A 
ATOM     60  C   UNL     1      -8.328   4.377   1.027  1.00  0.00     0.049 A 
ATOM     61  C   UNL     1      -5.803   1.451  -3.076  1.00  0.00     0.074 A 
ATOM     62  C   UNL     1      -9.117   4.522  -0.105  1.00  0.00     0.029 A 
ATOM     63  N   UNL     1      -7.800   3.089   0.940  1.00  0.00    -0.354 N 
ATOM     64  N   UNL     1      -6.897   1.780  -2.442  1.00  0.00    -0.248 NA
ATOM     65  C   UNL     1      -5.596  -0.004  -3.046  1.00  0.00     0.031 C 
ATOM     66  C   UNL     1      -9.087   3.310  -0.850  1.00  0.00     0.029 A 
ATOM     67  C   UNL     1      -8.294   2.400  -0.177  1.00  0.00     0.049 A 
ATOM     68  H   UNL     1      -7.160   2.709   1.583  1.00  0.00     0.167 HD
ATOM     69  C   UNL     1      -7.255   0.746  -1.609  1.00  0.00     0.074 A 
ATOM     70  C   UNL     1      -6.530  -0.393  -2.154  1.00  0.00     0.031 C 
ATOM     71  C   UNL     1      -7.929   0.984  -0.431  1.00  0.00     0.031 A 
BRANCH  58  72
ATOM     72  C   UNL     1      -8.956   6.135   2.876  1.00  0.00    -0.014 A 
ATOM     73  C   UNL     1     -10.319   5.809   2.773  1.00  0.00     0.009 A 
ATOM     74  C   UNL     1      -8.671   7.280   3.647  1.00  0.00     0.009 A 
ATOM     75  C   UNL     1     -11.317   6.583   3.388  1.00  0.00     0.001 A 
ATOM     76  C   UNL     1      -9.653   8.037   4.294  1.00  0.00     0.001 A 
ATOM     77  C   UNL     1     -10.983   7.693   4.155  1.00  0.00     0.000 A 
ENDBRANCH  58  72
BRANCH  59  78
ATOM     78  C   UNL     1      -3.399   2.177  -4.125  1.00  0.00    -0.014 A 
ATOM     79  C   UNL     1      -3.028   2.874  -5.292  1.00  0.00     0.009 A 
ATOM     80  C   UNL     1      -2.379   1.442  -3.499  1.00  0.00     0.009 A 
ATOM     81  C   UNL     1      -1.689   2.968  -5.707  1.00  0.00     0.001 A 
ATOM     82  C   UNL     1      -1.033   1.567  -3.885  1.00  0.00     0.001 A 
ATOM     83  C   UNL     1      -0.683   2.364  -4.966  1.00  0.00     0.000 A 
ENDBRANCH  59  78
BRANCH  71  84
ATOM     84  C   UNL     1      -8.212  -0.024   0.683  1.00  0.00    -0.014 A 
ATOM     85  C   UNL     1      -7.640  -1.296   0.825  1.00  0.00     0.009 A 
ATOM     86  C   UNL     1      -9.080   0.373   1.730  1.00  0.00     0.009 A 
ATOM     87  C   UNL     1      -7.925  -2.117   1.932  1.00  0.00     0.001 A 
ATOM     88  C   UNL     1      -9.335  -0.419   2.854  1.00  0.00     0.001 A 
ATOM     89  C   UNL     1      -8.763  -1.675   2.950  1.00  0.00     0.000 A 
ENDBRANCH  71  84
ENDBRANCH  45  46
ENDBRANCH  38  40
ENDBRANCH  37  38
ENDBRANCH  36  37
ENDBRANCH  35  36
ENDBRANCH  34  35
ENDBRANCH  33  34
ENDBRANCH   1  33
TORSDOF 21
