REMARK SMILES Cc1ccc(C)c(/C=C2\SC(=S)N(CC(=O)OCCOCCOCCOC(=O)c3ccc(-c4c5nc(c(-c6ccccc6)c6ccc([nH]6)c(-c6ccccc6)c6nc(c(-c7ccccc7)c7ccc4[nH]7)C=C6)C=C5)cc3)C2=O)c1
REMARK SMILES IDX 21 1 20 2 19 3 18 4 17 5 15 6 16 7 14 8 13 9 8 10 9 11 10 12
REMARK SMILES IDX 77 13 11 14 78 15 12 16 7 17 1 18 2 19 3 20 79 21 4 22 5 23
REMARK SMILES IDX 6 24 22 25 23 26 24 27 25 28 26 29 27 30 28 31 29 32 30 33
REMARK SMILES IDX 76 34 31 35 75 36 32 37 33 38 34 39 69 40 35 41 74 42 68 43
REMARK SMILES IDX 70 44 36 45 73 46 67 47 66 48 37 50 59 51 44 52 58 53 45 54
REMARK SMILES IDX 48 55 57 56 71 57 46 58 47 59 56 61 72 62 49 63 38 64 39 65
REMARK SMILES IDX 43 66 40 67 42 68 41 69 60 70 61 71 65 72 62 73 64 74 63 75
REMARK SMILES IDX 50 76 51 77 55 78 52 79 54 80 53 81
REMARK H PARENT 70 49 48 60
REMARK Flexibility Score: inf
ROOT
ATOM      1  C   UNL     1      -6.265   6.630   0.733  1.00  0.00     0.188 C 
ENDROOT
BRANCH   1   2
ATOM      2  O   UNL     1      -6.970   7.587  -0.057  1.00  0.00    -0.376 OA
BRANCH   2   3
ATOM      3  C   UNL     1      -6.790   7.468  -1.472  1.00  0.00     0.202 C 
BRANCH   3   4
ATOM      4  C   UNL     1      -5.534   8.174  -2.051  1.00  0.00     0.261 C 
BRANCH   4   5
ATOM      5  O   UNL     1      -4.236   7.517  -1.833  1.00  0.00    -0.462 OA
BRANCH   5   6
ATOM      6  C   UNL     1      -3.221   8.113  -2.538  1.00  0.00     0.326 C 
ATOM      7  O   UNL     1      -3.306   9.288  -2.902  1.00  0.00    -0.250 OA
BRANCH   6   8
ATOM      8  C   UNL     1      -2.107   7.188  -3.150  1.00  0.00     0.250 C 
BRANCH   8   9
ATOM      9  N   UNL     1      -1.226   6.154  -2.513  1.00  0.00    -0.282 N 
ATOM     10  C   UNL     1      -0.895   2.686  -1.439  1.00  0.00     0.029 C 
ATOM     11  C   UNL     1      -0.581   3.956  -1.773  1.00  0.00     0.081 C 
ATOM     12  S   UNL     1       0.850   4.864  -1.589  1.00  0.00    -0.054 SA
ATOM     13  C   UNL     1      -1.554   4.814  -2.538  1.00  0.00     0.266 C 
ATOM     14  C   UNL     1       0.143   6.299  -2.368  1.00  0.00     0.148 C 
ATOM     15  O   UNL     1      -2.362   4.308  -3.304  1.00  0.00    -0.268 OA
ATOM     16  S   UNL     1       1.126   7.531  -2.926  1.00  0.00    -0.052 S 
BRANCH  10  17
ATOM     17  C   UNL     1      -0.202   1.506  -0.815  1.00  0.00    -0.021 A 
ATOM     18  C   UNL     1       3.352   0.230  -0.066  1.00  0.00     0.044 C 
ATOM     19  C   UNL     1       1.859   0.292  -0.197  1.00  0.00    -0.051 A 
ATOM     20  C   UNL     1       1.128  -0.860   0.082  1.00  0.00     0.004 A 
ATOM     21  C   UNL     1       1.196   1.455  -0.654  1.00  0.00     0.011 A 
ATOM     22  C   UNL     1      -0.248  -0.838  -0.037  1.00  0.00     0.004 A 
ATOM     23  C   UNL     1      -0.923   0.327  -0.458  1.00  0.00    -0.044 A 
ATOM     24  C   UNL     1      -2.415   0.160  -0.523  1.00  0.00     0.045 C 
ENDBRANCH  10  17
ENDBRANCH   8   9
ENDBRANCH   6   8
ENDBRANCH   5   6
ENDBRANCH   4   5
ENDBRANCH   3   4
ENDBRANCH   2   3
ENDBRANCH   1   2
BRANCH   1  25
ATOM     25  C   UNL     1      -6.985   5.273   0.918  1.00  0.00     0.188 C 
BRANCH  25  26
ATOM     26  O   UNL     1      -7.072   4.577  -0.317  1.00  0.00    -0.376 OA
BRANCH  26  27
ATOM     27  C   UNL     1      -7.681   3.297  -0.311  1.00  0.00     0.202 C 
BRANCH  27  28
ATOM     28  C   UNL     1      -7.088   2.196   0.583  1.00  0.00     0.261 C 
BRANCH  28  29
ATOM     29  O   UNL     1      -5.704   2.226   1.004  1.00  0.00    -0.460 OA
BRANCH  29  30
ATOM     30  C   UNL     1      -4.623   2.689   0.356  1.00  0.00     0.338 C 
ATOM     31  O   UNL     1      -3.575   2.948   0.943  1.00  0.00    -0.246 OA
BRANCH  30  32
ATOM     32  C   UNL     1      -4.756   2.998  -1.068  1.00  0.00     0.060 A 
ATOM     33  C   UNL     1      -4.522   4.323  -1.382  1.00  0.00     0.016 A 
ATOM     34  C   UNL     1      -5.179   2.088  -2.049  1.00  0.00     0.016 A 
ATOM     35  C   UNL     1      -4.914   4.770  -2.621  1.00  0.00     0.010 A 
ATOM     36  C   UNL     1      -5.521   2.557  -3.325  1.00  0.00     0.010 A 
ATOM     37  C   UNL     1      -5.438   3.922  -3.582  1.00  0.00    -0.014 A 
BRANCH  37  38
ATOM     38  C   UNL     1      -5.832   4.638  -4.796  1.00  0.00     0.031 A 
ATOM     39  C   UNL     1      -4.737   5.108  -5.686  1.00  0.00     0.074 A 
ATOM     40  C   UNL     1      -7.111   5.016  -4.987  1.00  0.00     0.049 A 
ATOM     41  N   UNL     1      -4.572   6.301  -6.175  1.00  0.00    -0.248 NA
ATOM     42  C   UNL     1      -3.671   4.157  -6.028  1.00  0.00     0.031 C 
ATOM     43  C   UNL     1      -8.249   4.593  -4.173  1.00  0.00     0.029 A 
ATOM     44  N   UNL     1      -7.684   5.778  -5.976  1.00  0.00    -0.354 N 
ATOM     45  C   UNL     1      -3.498   6.189  -7.050  1.00  0.00     0.074 A 
ATOM     46  C   UNL     1      -2.912   4.889  -6.841  1.00  0.00     0.031 C 
ATOM     47  C   UNL     1      -9.387   4.896  -4.822  1.00  0.00     0.029 A 
ATOM     48  C   UNL     1      -9.057   5.599  -6.051  1.00  0.00     0.049 A 
ATOM     49  H   UNL     1      -7.178   6.383  -6.564  1.00  0.00     0.167 HD
ATOM     50  C   UNL     1      -3.350   7.014  -8.118  1.00  0.00     0.031 A 
ATOM     51  C   UNL     1      -9.896   5.907  -7.066  1.00  0.00     0.031 A 
ATOM     52  C   UNL     1      -3.954   8.304  -7.968  1.00  0.00     0.049 A 
ATOM     53  C   UNL     1      -9.313   6.963  -7.916  1.00  0.00     0.074 A 
ATOM     54  C   UNL     1      -3.607   9.527  -7.441  1.00  0.00     0.029 A 
ATOM     55  N   UNL     1      -5.277   8.362  -8.297  1.00  0.00    -0.354 N 
ATOM     56  N   UNL     1      -9.226   8.211  -7.558  1.00  0.00    -0.248 NA
ATOM     57  C   UNL     1      -8.588   6.609  -9.133  1.00  0.00     0.031 C 
ATOM     58  C   UNL     1      -4.806  10.296  -7.371  1.00  0.00     0.029 A 
ATOM     59  C   UNL     1      -5.856   9.520  -7.847  1.00  0.00     0.049 A 
ATOM     60  H   UNL     1      -5.755   7.661  -8.796  1.00  0.00     0.167 HD
ATOM     61  C   UNL     1      -8.134   8.689  -8.253  1.00  0.00     0.074 A 
ATOM     62  C   UNL     1      -7.898   7.735  -9.325  1.00  0.00     0.031 C 
ATOM     63  C   UNL     1      -7.292   9.601  -7.694  1.00  0.00     0.031 A 
BRANCH  50  64
ATOM     64  C   UNL     1      -3.138   6.423  -9.492  1.00  0.00    -0.014 A 
ATOM     65  C   UNL     1      -2.799   7.260 -10.566  1.00  0.00     0.009 A 
ATOM     66  C   UNL     1      -3.568   5.116  -9.809  1.00  0.00     0.009 A 
ATOM     67  C   UNL     1      -2.897   6.808 -11.890  1.00  0.00     0.001 A 
ATOM     68  C   UNL     1      -3.635   4.653 -11.123  1.00  0.00     0.001 A 
ATOM     69  C   UNL     1      -3.313   5.507 -12.166  1.00  0.00     0.000 A 
ENDBRANCH  50  64
BRANCH  51  70
ATOM     70  C   UNL     1     -11.160   5.219  -7.407  1.00  0.00    -0.014 A 
ATOM     71  C   UNL     1     -12.122   5.827  -8.224  1.00  0.00     0.009 A 
ATOM     72  C   UNL     1     -11.342   3.860  -7.084  1.00  0.00     0.009 A 
ATOM     73  C   UNL     1     -13.219   5.098  -8.702  1.00  0.00     0.001 A 
ATOM     74  C   UNL     1     -12.445   3.138  -7.540  1.00  0.00     0.001 A 
ATOM     75  C   UNL     1     -13.379   3.756  -8.361  1.00  0.00     0.000 A 
ENDBRANCH  51  70
BRANCH  63  76
ATOM     76  C   UNL     1      -7.850  10.537  -6.669  1.00  0.00    -0.014 A 
ATOM     77  C   UNL     1      -8.327  10.105  -5.423  1.00  0.00     0.009 A 
ATOM     78  C   UNL     1      -7.835  11.913  -6.947  1.00  0.00     0.009 A 
ATOM     79  C   UNL     1      -8.801  11.028  -4.487  1.00  0.00     0.001 A 
ATOM     80  C   UNL     1      -8.292  12.835  -6.005  1.00  0.00     0.001 A 
ATOM     81  C   UNL     1      -8.779  12.392  -4.777  1.00  0.00     0.000 A 
ENDBRANCH  63  76
ENDBRANCH  37  38
ENDBRANCH  30  32
ENDBRANCH  29  30
ENDBRANCH  28  29
ENDBRANCH  27  28
ENDBRANCH  26  27
ENDBRANCH  25  26
ENDBRANCH   1  25
TORSDOF 19
