REMARK SMILES CC(=O)c1cc(C(=O)N(CC(=O)OCCOCCOCCOC(=O)c2ccc(-c3c4nc(c(-c5ccccc5)c5ccc([nH]5)c(-c5ccccc5)c5nc(c(-c6ccccc6)c6ccc3[nH]6)C=C5)C=C4)cc2)C(C)(C)C)n(C)c1
REMARK SMILES IDX 17 1 16 2 15 3 14 4 13 5 11 6 12 7 10 8 9 9 7 10 8 11 6 12
REMARK SMILES IDX 4 13 5 14 79 15 77 16 78 17 2 18 1 19 3 20 73 21 74 22 75 23
REMARK SMILES IDX 76 24 18 25 19 26 20 27 21 28 22 29 23 30 24 31 25 32 26 33
REMARK SMILES IDX 72 34 27 35 71 36 28 37 29 38 30 39 65 40 31 41 70 42 64 43
REMARK SMILES IDX 66 44 32 45 69 46 63 47 62 48 33 50 55 51 40 52 54 53 41 54
REMARK SMILES IDX 44 55 53 56 67 57 42 58 43 59 52 61 68 62 45 63 34 64 35 65
REMARK SMILES IDX 39 66 36 67 38 68 37 69 56 70 57 71 61 72 58 73 60 74 59 75
REMARK SMILES IDX 46 76 47 77 51 78 48 79 50 80 49 81
REMARK H PARENT 66 49 44 60
REMARK Flexibility Score: inf
ROOT
ATOM      1  C   UNL     1       1.356   2.882  10.079  1.00  0.00     0.188 C 
ENDROOT
BRANCH   1   2
ATOM      2  O   UNL     1       0.057   2.294  10.058  1.00  0.00    -0.376 OA
BRANCH   2   3
ATOM      3  C   UNL     1      -0.098   0.997   9.508  1.00  0.00     0.202 C 
BRANCH   3   4
ATOM      4  C   UNL     1      -0.354   0.970   7.996  1.00  0.00     0.261 C 
BRANCH   4   5
ATOM      5  O   UNL     1       0.650   1.616   7.177  1.00  0.00    -0.462 OA
BRANCH   5   6
ATOM      6  C   UNL     1       0.403   2.925   6.921  1.00  0.00     0.325 C 
ATOM      7  O   UNL     1      -0.514   3.567   7.431  1.00  0.00    -0.250 OA
BRANCH   6   8
ATOM      8  C   UNL     1       1.138   3.493   5.706  1.00  0.00     0.243 C 
BRANCH   8   9
ATOM      9  N   UNL     1       2.481   3.293   5.123  1.00  0.00    -0.321 N 
BRANCH   9  10
ATOM     10  C   UNL     1       2.670   2.713   3.857  1.00  0.00     0.271 C 
ATOM     11  O   UNL     1       3.781   2.276   3.551  1.00  0.00    -0.267 OA
BRANCH  10  12
ATOM     12  C   UNL     1       1.590   2.588   2.875  1.00  0.00     0.107 A 
ATOM     13  C   UNL     1       0.484   1.690   1.067  1.00  0.00     0.036 A 
ATOM     14  C   UNL     1       1.637   1.613   1.879  1.00  0.00     0.045 A 
ATOM     15  C   UNL     1      -0.251   2.740   1.572  1.00  0.00     0.097 A 
ATOM     16  N   UNL     1       0.466   3.346   2.580  1.00  0.00    -0.346 N 
ATOM     17  C   UNL     1       0.037   4.622   3.120  1.00  0.00     0.150 C 
BRANCH  13  18
ATOM     18  C   UNL     1       0.119   0.863  -0.077  1.00  0.00     0.161 C 
ATOM     19  C   UNL     1       1.001  -0.321  -0.388  1.00  0.00     0.093 C 
ATOM     20  O   UNL     1      -0.878   1.103  -0.756  1.00  0.00    -0.294 OA
ENDBRANCH  13  18
ENDBRANCH  10  12
ENDBRANCH   9  10
BRANCH   9  21
ATOM     21  C   UNL     1       3.712   3.757   5.859  1.00  0.00     0.036 C 
ATOM     22  C   UNL     1       4.490   2.562   6.449  1.00  0.00     0.034 C 
ATOM     23  C   UNL     1       4.684   4.573   4.955  1.00  0.00     0.034 C 
ATOM     24  C   UNL     1       3.359   4.734   6.986  1.00  0.00     0.034 C 
ENDBRANCH   9  21
ENDBRANCH   8   9
ENDBRANCH   6   8
ENDBRANCH   5   6
ENDBRANCH   4   5
ENDBRANCH   3   4
ENDBRANCH   2   3
ENDBRANCH   1   2
BRANCH   1  25
ATOM     25  C   UNL     1       2.558   2.078   9.583  1.00  0.00     0.188 C 
BRANCH  25  26
ATOM     26  O   UNL     1       2.830   0.986  10.457  1.00  0.00    -0.376 OA
BRANCH  26  27
ATOM     27  C   UNL     1       4.226   0.770  10.637  1.00  0.00     0.202 C 
BRANCH  27  28
ATOM     28  C   UNL     1       4.699   1.475  11.913  1.00  0.00     0.261 C 
BRANCH  28  29
ATOM     29  O   UNL     1       4.309   2.864  12.002  1.00  0.00    -0.460 OA
BRANCH  29  30
ATOM     30  C   UNL     1       5.074   3.733  11.318  1.00  0.00     0.338 C 
ATOM     31  O   UNL     1       6.020   3.459  10.585  1.00  0.00    -0.246 OA
BRANCH  30  32
ATOM     32  C   UNL     1       4.537   5.100  11.447  1.00  0.00     0.060 A 
ATOM     33  C   UNL     1       3.926   5.667  10.331  1.00  0.00     0.016 A 
ATOM     34  C   UNL     1       4.765   5.878  12.576  1.00  0.00     0.016 A 
ATOM     35  C   UNL     1       3.628   7.027  10.281  1.00  0.00     0.010 A 
ATOM     36  C   UNL     1       4.426   7.241  12.549  1.00  0.00     0.010 A 
ATOM     37  C   UNL     1       3.902   7.841  11.384  1.00  0.00    -0.014 A 
BRANCH  37  38
ATOM     38  C   UNL     1       3.781   9.324  11.283  1.00  0.00     0.031 A 
ATOM     39  C   UNL     1       5.022  10.171  11.419  1.00  0.00     0.074 A 
ATOM     40  C   UNL     1       2.603   9.930  11.034  1.00  0.00     0.049 A 
ATOM     41  N   UNL     1       5.133  11.464  11.591  1.00  0.00    -0.248 NA
ATOM     42  C   UNL     1       6.309   9.460  11.358  1.00  0.00     0.031 C 
ATOM     43  C   UNL     1       1.335   9.254  10.766  1.00  0.00     0.029 A 
ATOM     44  N   UNL     1       2.288  11.267  10.968  1.00  0.00    -0.354 N 
ATOM     45  C   UNL     1       6.495  11.711  11.728  1.00  0.00     0.074 A 
ATOM     46  C   UNL     1       7.170  10.436  11.609  1.00  0.00     0.031 C 
ATOM     47  C   UNL     1       0.382  10.177  10.551  1.00  0.00     0.029 A 
ATOM     48  C   UNL     1       0.952  11.506  10.752  1.00  0.00     0.049 A 
ATOM     49  H   UNL     1       2.955  11.984  11.067  1.00  0.00     0.167 HD
ATOM     50  C   UNL     1       7.126  12.889  11.945  1.00  0.00     0.031 A 
ATOM     51  C   UNL     1       0.253  12.659  10.766  1.00  0.00     0.031 A 
ATOM     52  C   UNL     1       6.461  14.163  12.023  1.00  0.00     0.049 A 
ATOM     53  C   UNL     1       0.959  13.949  11.081  1.00  0.00     0.074 A 
ATOM     54  C   UNL     1       7.010  15.412  12.258  1.00  0.00     0.029 A 
ATOM     55  N   UNL     1       5.100  14.350  11.845  1.00  0.00    -0.354 N 
ATOM     56  N   UNL     1       2.233  14.161  11.305  1.00  0.00    -0.248 NA
ATOM     57  C   UNL     1       0.125  15.158  11.164  1.00  0.00     0.031 C 
ATOM     58  C   UNL     1       5.973  16.351  12.261  1.00  0.00     0.029 A 
ATOM     59  C   UNL     1       4.787  15.692  11.977  1.00  0.00     0.049 A 
ATOM     60  H   UNL     1       4.451  13.635  11.654  1.00  0.00     0.167 HD
ATOM     61  C   UNL     1       2.355  15.525  11.540  1.00  0.00     0.074 A 
ATOM     62  C   UNL     1       1.029  16.094  11.412  1.00  0.00     0.031 C 
ATOM     63  C   UNL     1       3.465  16.242  11.842  1.00  0.00     0.031 A 
BRANCH  50  64
ATOM     64  C   UNL     1       8.611  12.845  12.178  1.00  0.00    -0.014 A 
ATOM     65  C   UNL     1       9.517  12.607  11.134  1.00  0.00     0.009 A 
ATOM     66  C   UNL     1       9.108  13.064  13.474  1.00  0.00     0.009 A 
ATOM     67  C   UNL     1      10.890  12.552  11.391  1.00  0.00     0.001 A 
ATOM     68  C   UNL     1      10.481  13.036  13.722  1.00  0.00     0.001 A 
ATOM     69  C   UNL     1      11.370  12.770  12.683  1.00  0.00     0.000 A 
ENDBRANCH  50  64
BRANCH  51  70
ATOM     70  C   UNL     1      -1.219  12.641  10.544  1.00  0.00    -0.014 A 
ATOM     71  C   UNL     1      -1.776  13.212   9.390  1.00  0.00     0.009 A 
ATOM     72  C   UNL     1      -2.075  12.067  11.498  1.00  0.00     0.009 A 
ATOM     73  C   UNL     1      -3.162  13.220   9.203  1.00  0.00     0.001 A 
ATOM     74  C   UNL     1      -3.456  12.049  11.293  1.00  0.00     0.001 A 
ATOM     75  C   UNL     1      -3.999  12.633  10.151  1.00  0.00     0.000 A 
ENDBRANCH  51  70
BRANCH  63  76
ATOM     76  C   UNL     1       3.299  17.725  12.012  1.00  0.00    -0.014 A 
ATOM     77  C   UNL     1       2.705  18.264  13.163  1.00  0.00     0.009 A 
ATOM     78  C   UNL     1       3.780  18.595  11.021  1.00  0.00     0.009 A 
ATOM     79  C   UNL     1       2.569  19.647  13.304  1.00  0.00     0.001 A 
ATOM     80  C   UNL     1       3.665  19.977  11.176  1.00  0.00     0.001 A 
ATOM     81  C   UNL     1       3.052  20.502  12.313  1.00  0.00     0.000 A 
ENDBRANCH  63  76
ENDBRANCH  37  38
ENDBRANCH  30  32
ENDBRANCH  29  30
ENDBRANCH  28  29
ENDBRANCH  27  28
ENDBRANCH  26  27
ENDBRANCH  25  26
ENDBRANCH   1  25
TORSDOF 22
