REMARK SMILES CC1(C)O[C@H]2C[C@H]3[C@@H]4CCC5=CC(=O)C=C[C@]5(C)[C@@]4(F)[C@H](O)C[C@@]3(C)[C@@]2(C(=O)OCCOCCOCCOC(=O)c2ccc(-c3c4nc(c(-c5ccccc5)c5ccc([nH]5)c(-c5ccccc5)c5nc(c(-c6ccccc6)c6ccc3[nH]6)C=C5)C=C4)cc2)O1
REMARK SMILES IDX 34 1 33 2 32 3 31 4 30 5 29 6 27 7 28 8 26 9 1 10 2 11 3 12
REMARK SMILES IDX 4 13 89 14 5 15 6 16 24 17 7 18 23 19 25 20 8 21 21 22 9 23
REMARK SMILES IDX 19 24 10 25 17 26 20 27 11 28 16 29 18 30 12 31 15 32 13 33
REMARK SMILES IDX 14 34 22 35 35 37 36 38 37 39 38 40 39 41 40 42 41 43 42 44
REMARK SMILES IDX 88 45 43 46 87 47 44 48 45 49 46 50 81 51 47 52 86 53 80 54
REMARK SMILES IDX 82 55 48 56 85 57 79 58 78 59 49 61 71 62 56 63 70 64 57 65
REMARK SMILES IDX 60 66 69 67 83 68 58 69 59 70 68 72 84 73 61 74 50 75 51 76
REMARK SMILES IDX 55 77 52 78 54 79 53 80 72 81 73 82 77 83 74 84 76 85 75 86
REMARK SMILES IDX 62 87 63 88 67 89 64 90 66 91 65 92
REMARK H PARENT 22 36 82 60 60 71
REMARK Flexibility Score: inf
ROOT
ATOM      1  C   UNL     1      -1.495   0.569  -4.693  1.00  0.00     0.188 C 
ENDROOT
BRANCH   1   2
ATOM      2  C   UNL     1      -1.373  -0.613  -5.678  1.00  0.00     0.188 C 
BRANCH   2   3
ATOM      3  O   UNL     1      -2.497  -0.974  -6.466  1.00  0.00    -0.376 OA
BRANCH   3   4
ATOM      4  C   UNL     1      -3.767  -1.000  -5.839  1.00  0.00     0.202 C 
BRANCH   4   5
ATOM      5  C   UNL     1      -3.940  -2.064  -4.759  1.00  0.00     0.261 C 
BRANCH   5   6
ATOM      6  O   UNL     1      -3.166  -1.774  -3.580  1.00  0.00    -0.461 OA
BRANCH   6   7
ATOM      7  C   UNL     1      -2.231  -2.690  -3.189  1.00  0.00     0.341 C 
ATOM      8  O   UNL     1      -1.901  -3.669  -3.844  1.00  0.00    -0.249 OA
BRANCH   7   9
ATOM      9  C   UNL     1      -1.737  -2.374  -1.765  1.00  0.00     0.200 C 
ATOM     10  C   UNL     1       0.752  -0.765   0.130  1.00  0.00     0.075 C 
ATOM     11  C   UNL     1       0.268  -1.202  -1.273  1.00  0.00     0.165 C 
ATOM     12  C   UNL     1       1.020  -0.259  -2.182  1.00  0.00     0.075 C 
ATOM     13  O   UNL     1       0.611  -2.572  -1.470  1.00  0.00    -0.344 OA
ATOM     14  O   UNL     1      -1.151  -1.043  -1.575  1.00  0.00    -0.329 OA
ATOM     15  C   UNL     1      -0.601  -3.331  -1.286  1.00  0.00     0.166 C 
ATOM     16  C   UNL     1      -0.904  -3.634   0.256  1.00  0.00     0.040 C 
ATOM     17  C   UNL     1      -2.900  -2.651  -0.706  1.00  0.00     0.016 C 
ATOM     18  C   UNL     1      -2.019  -2.603   0.566  1.00  0.00     0.008 C 
ATOM     19  C   UNL     1      -4.102  -1.698  -0.641  1.00  0.00     0.046 C 
ATOM     20  C   UNL     1      -3.518  -4.060  -0.962  1.00  0.00     0.015 C 
ATOM     21  C   UNL     1      -2.195  -1.502   1.654  1.00  0.00     0.035 C 
ATOM     22  C   UNL     1      -3.911  -0.427   0.158  1.00  0.00     0.154 C 
ATOM     23  C   UNL     1      -1.661  -1.827   3.036  1.00  0.00     0.012 C 
ATOM     24  C   UNL     1      -3.519  -0.718   1.645  1.00  0.00     0.152 C 
ATOM     25  C   UNL     1      -1.289  -0.494   3.697  1.00  0.00     0.032 C 
ATOM     26  C   UNL     1      -3.387   0.614   2.518  1.00  0.00     0.044 C 
ATOM     27  F   UNL     1      -4.458  -1.541   2.204  1.00  0.00    -0.239 F 
ATOM     28  C   UNL     1      -2.456   0.464   3.750  1.00  0.00    -0.053 C 
ATOM     29  C   UNL     1      -4.755   1.109   2.984  1.00  0.00    -0.009 C 
ATOM     30  C   UNL     1      -2.782   1.774   1.664  1.00  0.00     0.024 C 
ATOM     31  C   UNL     1      -2.622   1.227   4.847  1.00  0.00     0.052 C 
ATOM     32  C   UNL     1      -4.936   1.838   4.094  1.00  0.00     0.048 C 
ATOM     33  C   UNL     1      -3.788   2.128   4.975  1.00  0.00     0.178 C 
ATOM     34  O   UNL     1      -3.818   3.024   5.809  1.00  0.00    -0.290 OA
BRANCH  22  35
ATOM     35  O   UNL     1      -5.124   0.325   0.061  1.00  0.00    -0.390 OA
ATOM     36  H   UNL     1      -5.857  -0.196   0.426  1.00  0.00     0.211 HD
ENDBRANCH  22  35
ENDBRANCH   7   9
ENDBRANCH   6   7
ENDBRANCH   5   6
ENDBRANCH   4   5
ENDBRANCH   3   4
ENDBRANCH   2   3
ENDBRANCH   1   2
BRANCH   1  37
ATOM     37  O   UNL     1      -2.310   1.673  -5.042  1.00  0.00    -0.376 OA
BRANCH  37  38
ATOM     38  C   UNL     1      -2.059   2.289  -6.298  1.00  0.00     0.202 C 
BRANCH  38  39
ATOM     39  C   UNL     1      -0.628   2.789  -6.540  1.00  0.00     0.261 C 
BRANCH  39  40
ATOM     40  O   UNL     1       0.299   1.708  -6.799  1.00  0.00    -0.460 OA
BRANCH  40  41
ATOM     41  C   UNL     1       1.455   1.746  -6.095  1.00  0.00     0.338 C 
ATOM     42  O   UNL     1       1.796   2.594  -5.287  1.00  0.00    -0.246 OA
BRANCH  41  43
ATOM     43  C   UNL     1       2.259   0.523  -6.301  1.00  0.00     0.060 A 
ATOM     44  C   UNL     1       2.162  -0.488  -5.349  1.00  0.00     0.016 A 
ATOM     45  C   UNL     1       3.273   0.465  -7.245  1.00  0.00     0.016 A 
ATOM     46  C   UNL     1       3.131  -1.474  -5.221  1.00  0.00     0.010 A 
ATOM     47  C   UNL     1       4.207  -0.582  -7.183  1.00  0.00     0.010 A 
ATOM     48  C   UNL     1       4.181  -1.526  -6.133  1.00  0.00    -0.014 A 
BRANCH  48  49
ATOM     49  C   UNL     1       5.305  -2.477  -5.922  1.00  0.00     0.031 A 
ATOM     50  C   UNL     1       6.690  -1.932  -5.697  1.00  0.00     0.074 A 
ATOM     51  C   UNL     1       5.103  -3.809  -5.878  1.00  0.00     0.049 A 
ATOM     52  N   UNL     1       7.842  -2.552  -5.724  1.00  0.00    -0.248 NA
ATOM     53  C   UNL     1       6.789  -0.491  -5.408  1.00  0.00     0.031 C 
ATOM     54  C   UNL     1       3.804  -4.481  -5.944  1.00  0.00     0.029 A 
ATOM     55  N   UNL     1       6.003  -4.841  -5.767  1.00  0.00    -0.354 N 
ATOM     56  C   UNL     1       8.803  -1.568  -5.525  1.00  0.00     0.074 A 
ATOM     57  C   UNL     1       8.101  -0.312  -5.374  1.00  0.00     0.031 C 
ATOM     58  C   UNL     1       3.990  -5.808  -5.863  1.00  0.00     0.029 A 
ATOM     59  C   UNL     1       5.421  -6.085  -5.835  1.00  0.00     0.049 A 
ATOM     60  H   UNL     1       6.971  -4.704  -5.650  1.00  0.00     0.167 HD
ATOM     61  C   UNL     1      10.150  -1.700  -5.486  1.00  0.00     0.031 A 
ATOM     62  C   UNL     1       5.978  -7.308  -5.925  1.00  0.00     0.031 A 
ATOM     63  C   UNL     1      10.838  -2.958  -5.604  1.00  0.00     0.049 A 
ATOM     64  C   UNL     1       7.476  -7.426  -5.977  1.00  0.00     0.074 A 
ATOM     65  C   UNL     1      12.200  -3.203  -5.599  1.00  0.00     0.029 A 
ATOM     66  N   UNL     1      10.210  -4.187  -5.732  1.00  0.00    -0.354 N 
ATOM     67  N   UNL     1       8.383  -6.483  -5.885  1.00  0.00    -0.248 NA
ATOM     68  C   UNL     1       8.027  -8.775  -6.164  1.00  0.00     0.031 C 
ATOM     69  C   UNL     1      12.396  -4.577  -5.772  1.00  0.00     0.029 A 
ATOM     70  C   UNL     1      11.156  -5.193  -5.826  1.00  0.00     0.049 A 
ATOM     71  H   UNL     1       9.235  -4.324  -5.753  1.00  0.00     0.167 HD
ATOM     72  C   UNL     1       9.610  -7.126  -5.981  1.00  0.00     0.074 A 
ATOM     73  C   UNL     1       9.331  -8.541  -6.121  1.00  0.00     0.031 C 
ATOM     74  C   UNL     1      10.856  -6.595  -5.959  1.00  0.00     0.031 A 
BRANCH  61  75
ATOM     75  C   UNL     1      10.966  -0.441  -5.378  1.00  0.00    -0.014 A 
ATOM     76  C   UNL     1      11.029   0.303  -4.189  1.00  0.00     0.009 A 
ATOM     77  C   UNL     1      11.694   0.001  -6.494  1.00  0.00     0.009 A 
ATOM     78  C   UNL     1      11.774   1.484  -4.135  1.00  0.00     0.001 A 
ATOM     79  C   UNL     1      12.461   1.165  -6.428  1.00  0.00     0.001 A 
ATOM     80  C   UNL     1      12.492   1.911  -5.252  1.00  0.00     0.000 A 
ENDBRANCH  61  75
BRANCH  62  81
ATOM     81  C   UNL     1       5.116  -8.515  -6.051  1.00  0.00    -0.014 A 
ATOM     82  C   UNL     1       5.075  -9.477  -5.030  1.00  0.00     0.009 A 
ATOM     83  C   UNL     1       4.340  -8.720  -7.203  1.00  0.00     0.009 A 
ATOM     84  C   UNL     1       4.290 -10.625  -5.169  1.00  0.00     0.001 A 
ATOM     85  C   UNL     1       3.531  -9.852  -7.326  1.00  0.00     0.001 A 
ATOM     86  C   UNL     1       3.514 -10.808  -6.313  1.00  0.00     0.000 A 
ENDBRANCH  62  81
BRANCH  74  87
ATOM     87  C   UNL     1      12.010  -7.552  -6.042  1.00  0.00    -0.014 A 
ATOM     88  C   UNL     1      12.341  -8.196  -7.244  1.00  0.00     0.009 A 
ATOM     89  C   UNL     1      12.801  -7.782  -4.904  1.00  0.00     0.009 A 
ATOM     90  C   UNL     1      13.424  -9.076  -7.296  1.00  0.00     0.001 A 
ATOM     91  C   UNL     1      13.899  -8.640  -4.968  1.00  0.00     0.001 A 
ATOM     92  C   UNL     1      14.204  -9.293  -6.161  1.00  0.00     0.000 A 
ENDBRANCH  74  87
ENDBRANCH  48  49
ENDBRANCH  41  43
ENDBRANCH  40  41
ENDBRANCH  39  40
ENDBRANCH  38  39
ENDBRANCH  37  38
ENDBRANCH   1  37
TORSDOF 18
