REMARK SMILES CC(=O)c1ccc(N2/C(=[NH+]/C(=O)CCC(=O)OCCOCCOCCOC(=O)c3ccc(-c4c5nc(c(-c6ccccc6)c6ccc([nH]6)c(-c6ccccc6)c6nc(c(-c7ccccc7)c7ccc4[nH]7)C=C6)C=C5)cc3)S[C@H]3CS(=O)(=O)C[C@@H]32)cc1
REMARK SMILES IDX 21 1 20 2 19 3 18 4 17 5 15 6 16 7 14 8 13 9 11 10 8 11 9 12
REMARK SMILES IDX 84 13 10 14 77 15 78 16 83 17 79 19 80 20 12 21 81 22 82 23
REMARK SMILES IDX 7 24 4 25 5 26 86 27 6 28 85 29 2 30 1 31 3 32 22 33 23 34
REMARK SMILES IDX 24 35 25 36 26 37 27 38 28 39 29 40 30 41 76 42 31 43 75 44
REMARK SMILES IDX 32 45 33 46 34 47 69 48 35 49 74 50 68 51 70 52 36 53 73 54
REMARK SMILES IDX 67 55 66 56 37 58 59 59 44 60 58 61 45 62 48 63 57 64 71 65
REMARK SMILES IDX 46 66 47 67 56 69 72 70 49 71 38 72 39 73 43 74 40 75 42 76
REMARK SMILES IDX 41 77 60 78 61 79 65 80 62 81 64 82 63 83 50 84 51 85 55 86
REMARK SMILES IDX 52 87 54 88 53 89
REMARK H PARENT 10 18 70 57 48 68
REMARK Flexibility Score: inf
ROOT
ATOM      1  C   UNL     1       4.700   6.301  -1.987  1.00  0.00     0.188 C 
ENDROOT
BRANCH   1   2
ATOM      2  O   UNL     1       4.189   4.981  -2.171  1.00  0.00    -0.376 OA
BRANCH   2   3
ATOM      3  C   UNL     1       3.778   4.298  -0.981  1.00  0.00     0.202 C 
BRANCH   3   4
ATOM      4  C   UNL     1       4.916   4.048   0.009  1.00  0.00     0.261 C 
BRANCH   4   5
ATOM      5  O   UNL     1       5.402   5.277   0.572  1.00  0.00    -0.463 OA
BRANCH   5   6
ATOM      6  C   UNL     1       6.742   5.409   0.694  1.00  0.00     0.306 C 
ATOM      7  O   UNL     1       7.554   4.525   0.447  1.00  0.00    -0.252 OA
BRANCH   6   8
ATOM      8  C   UNL     1       7.169   6.815   1.058  1.00  0.00     0.135 C 
BRANCH   8   9
ATOM      9  C   UNL     1       6.078   7.772   1.523  1.00  0.00     0.139 C 
BRANCH   9  10
ATOM     10  C   UNL     1       5.513   7.331   2.854  1.00  0.00     0.308 C 
ATOM     11  N   UNL     1       2.426   5.606   3.847  1.00  0.00    -0.217 N 
ATOM     12  C   UNL     1       3.541   6.452   3.737  1.00  0.00     0.319 C 
ATOM     13  C   UNL     1       1.712   5.730   5.121  1.00  0.00     0.212 C 
ATOM     14  N   UNL     1       4.386   6.546   2.769  1.00  0.00    -0.204 N 
ATOM     15  S   UNL     1       3.631   7.426   5.252  1.00  0.00    -0.029 SA
ATOM     16  C   UNL     1       2.823   6.080   6.115  1.00  0.00     0.120 C 
ATOM     17  C   UNL     1       1.054   4.508   5.727  1.00  0.00     0.188 C 
ATOM     18  H   UNL     1       4.220   6.039   1.942  1.00  0.00     0.316 HD
ATOM     19  C   UNL     1       2.170   6.282   7.450  1.00  0.00     0.156 C 
ATOM     20  S   UNL     1       0.995   4.923   7.475  1.00  0.00     0.155 S 
ATOM     21  O   UNL     1       6.158   7.569   3.873  1.00  0.00    -0.247 OA
ATOM     22  O   UNL     1       1.580   3.820   8.215  1.00  0.00    -0.229 OA
ATOM     23  O   UNL     1      -0.310   5.456   7.777  1.00  0.00    -0.229 OA
BRANCH  11  24
ATOM     24  C   UNL     1       1.982   4.636   2.941  1.00  0.00     0.128 A 
ATOM     25  C   UNL     1       0.986   2.584   1.240  1.00  0.00     0.018 A 
ATOM     26  C   UNL     1       0.245   3.748   1.469  1.00  0.00     0.016 A 
ATOM     27  C   UNL     1       2.205   2.426   1.904  1.00  0.00     0.016 A 
ATOM     28  C   UNL     1       0.729   4.748   2.325  1.00  0.00     0.052 A 
ATOM     29  C   UNL     1       2.700   3.453   2.732  1.00  0.00     0.052 A 
BRANCH  25  30
ATOM     30  C   UNL     1       0.447   1.581   0.268  1.00  0.00     0.159 C 
ATOM     31  C   UNL     1       1.067   0.211   0.184  1.00  0.00     0.093 C 
ATOM     32  O   UNL     1      -0.510   1.886  -0.443  1.00  0.00    -0.295 OA
ENDBRANCH  25  30
ENDBRANCH  11  24
ENDBRANCH   9  10
ENDBRANCH   8   9
ENDBRANCH   6   8
ENDBRANCH   5   6
ENDBRANCH   4   5
ENDBRANCH   3   4
ENDBRANCH   2   3
ENDBRANCH   1   2
BRANCH   1  33
ATOM     33  C   UNL     1       3.667   7.300  -1.475  1.00  0.00     0.188 C 
BRANCH  33  34
ATOM     34  O   UNL     1       2.952   6.911  -0.321  1.00  0.00    -0.376 OA
BRANCH  34  35
ATOM     35  C   UNL     1       1.758   7.619   0.002  1.00  0.00     0.202 C 
BRANCH  35  36
ATOM     36  C   UNL     1       0.752   8.063  -1.089  1.00  0.00     0.261 C 
BRANCH  36  37
ATOM     37  O   UNL     1       1.266   8.656  -2.295  1.00  0.00    -0.460 OA
BRANCH  37  38
ATOM     38  C   UNL     1       2.045   9.758  -2.188  1.00  0.00     0.338 C 
ATOM     39  O   UNL     1       2.183  10.448  -1.195  1.00  0.00    -0.246 OA
BRANCH  38  40
ATOM     40  C   UNL     1       2.943   9.797  -3.385  1.00  0.00     0.060 A 
ATOM     41  C   UNL     1       4.292  10.132  -3.183  1.00  0.00     0.016 A 
ATOM     42  C   UNL     1       2.521   9.384  -4.654  1.00  0.00     0.016 A 
ATOM     43  C   UNL     1       5.208  10.075  -4.238  1.00  0.00     0.010 A 
ATOM     44  C   UNL     1       3.432   9.356  -5.718  1.00  0.00     0.010 A 
ATOM     45  C   UNL     1       4.774   9.729  -5.523  1.00  0.00    -0.014 A 
BRANCH  45  46
ATOM     46  C   UNL     1       5.644   9.993  -6.699  1.00  0.00     0.031 A 
ATOM     47  C   UNL     1       5.437  11.289  -7.439  1.00  0.00     0.074 A 
ATOM     48  C   UNL     1       6.595   9.134  -7.111  1.00  0.00     0.049 A 
ATOM     49  N   UNL     1       5.992  11.719  -8.543  1.00  0.00    -0.248 NA
ATOM     50  C   UNL     1       4.462  12.223  -6.850  1.00  0.00     0.031 C 
ATOM     51  C   UNL     1       6.951   7.878  -6.456  1.00  0.00     0.029 A 
ATOM     52  N   UNL     1       7.430   9.195  -8.201  1.00  0.00    -0.354 N 
ATOM     53  C   UNL     1       5.420  12.961  -8.788  1.00  0.00     0.074 A 
ATOM     54  C   UNL     1       4.460  13.206  -7.735  1.00  0.00     0.031 C 
ATOM     55  C   UNL     1       7.923   7.278  -7.168  1.00  0.00     0.029 A 
ATOM     56  C   UNL     1       8.226   8.085  -8.351  1.00  0.00     0.049 A 
ATOM     57  H   UNL     1       7.456   9.963  -8.818  1.00  0.00     0.167 HD
ATOM     58  C   UNL     1       5.668  13.825  -9.800  1.00  0.00     0.031 A 
ATOM     59  C   UNL     1       9.075   7.745  -9.343  1.00  0.00     0.031 A 
ATOM     60  C   UNL     1       6.606  13.579 -10.860  1.00  0.00     0.049 A 
ATOM     61  C   UNL     1       9.262   8.678 -10.515  1.00  0.00     0.074 A 
ATOM     62  C   UNL     1       6.934  14.398 -11.926  1.00  0.00     0.029 A 
ATOM     63  N   UNL     1       7.359  12.423 -10.995  1.00  0.00    -0.354 N 
ATOM     64  N   UNL     1       8.730   9.857 -10.730  1.00  0.00    -0.248 NA
ATOM     65  C   UNL     1      10.172   8.231 -11.583  1.00  0.00     0.031 C 
ATOM     66  C   UNL     1       7.833  13.708 -12.744  1.00  0.00     0.029 A 
ATOM     67  C   UNL     1       8.125  12.493 -12.145  1.00  0.00     0.049 A 
ATOM     68  H   UNL     1       7.349  11.665 -10.366  1.00  0.00     0.167 HD
ATOM     69  C   UNL     1       9.266  10.305 -11.934  1.00  0.00     0.074 A 
ATOM     70  C   UNL     1      10.173   9.277 -12.397  1.00  0.00     0.031 C 
ATOM     71  C   UNL     1       9.030  11.466 -12.594  1.00  0.00     0.031 A 
BRANCH  58  72
ATOM     72  C   UNL     1       4.868  15.097  -9.833  1.00  0.00    -0.014 A 
ATOM     73  C   UNL     1       5.065  16.114  -8.885  1.00  0.00     0.009 A 
ATOM     74  C   UNL     1       3.917  15.290 -10.848  1.00  0.00     0.009 A 
ATOM     75  C   UNL     1       4.299  17.281  -8.932  1.00  0.00     0.001 A 
ATOM     76  C   UNL     1       3.177  16.471 -10.912  1.00  0.00     0.001 A 
ATOM     77  C   UNL     1       3.361  17.461  -9.948  1.00  0.00     0.000 A 
ENDBRANCH  58  72
BRANCH  59  78
ATOM     78  C   UNL     1       9.796   6.442  -9.304  1.00  0.00    -0.014 A 
ATOM     79  C   UNL     1      11.193   6.395  -9.168  1.00  0.00     0.009 A 
ATOM     80  C   UNL     1       9.092   5.235  -9.443  1.00  0.00     0.009 A 
ATOM     81  C   UNL     1      11.869   5.172  -9.199  1.00  0.00     0.001 A 
ATOM     82  C   UNL     1       9.767   4.012  -9.440  1.00  0.00     0.001 A 
ATOM     83  C   UNL     1      11.156   3.982  -9.329  1.00  0.00     0.000 A 
ENDBRANCH  59  78
BRANCH  71  84
ATOM     84  C   UNL     1       9.800  11.722 -13.862  1.00  0.00    -0.014 A 
ATOM     85  C   UNL     1       9.532  11.012 -15.042  1.00  0.00     0.009 A 
ATOM     86  C   UNL     1      10.766  12.742 -13.889  1.00  0.00     0.009 A 
ATOM     87  C   UNL     1      10.237  11.299 -16.214  1.00  0.00     0.001 A 
ATOM     88  C   UNL     1      11.444  13.049 -15.069  1.00  0.00     0.001 A 
ATOM     89  C   UNL     1      11.186  12.321 -16.229  1.00  0.00     0.000 A 
ENDBRANCH  71  84
ENDBRANCH  45  46
ENDBRANCH  38  40
ENDBRANCH  37  38
ENDBRANCH  36  37
ENDBRANCH  35  36
ENDBRANCH  34  35
ENDBRANCH  33  34
ENDBRANCH   1  33
TORSDOF 21
