REMARK SMILES CS(=O)(=O)c1ccc(/C=C(/C(=O)OCCOCCOCCOC(=O)c2ccc(-c3c4nc(c(-c5ccccc5)c5ccc([nH]5)c(-c5ccccc5)c5nc(c(-c6ccccc6)c6ccc3[nH]6)C=C5)C=C4)cc2)c2cccc(-c3ccc(S(C)(=O)=O)cc3)c2)cc1
REMARK SMILES IDX 17 1 16 2 15 3 14 4 13 5 11 6 12 7 10 8 9 9 8 10 5 11 6 12
REMARK SMILES IDX 90 13 7 14 89 15 2 16 1 17 3 18 4 19 73 20 74 21 88 22 75 23
REMARK SMILES IDX 77 24 76 25 78 26 79 27 87 28 80 29 86 30 81 31 82 32 83 33
REMARK SMILES IDX 84 34 85 35 18 36 19 37 20 38 21 39 22 40 23 41 24 42 25 43
REMARK SMILES IDX 26 44 72 45 27 46 71 47 28 48 29 49 30 50 65 51 31 52 70 53
REMARK SMILES IDX 64 54 66 55 32 56 69 57 63 58 62 59 33 61 55 62 40 63 54 64
REMARK SMILES IDX 41 65 44 66 53 67 67 68 42 69 43 70 52 72 68 73 45 74 34 75
REMARK SMILES IDX 35 76 39 77 36 78 38 79 37 80 56 81 57 82 61 83 58 84 60 85
REMARK SMILES IDX 59 86 46 87 47 88 51 89 48 90 50 91 49 92
REMARK H PARENT 66 60 44 71
REMARK Flexibility Score: inf
ROOT
ATOM      1  C   UNL     1       5.566   8.991  -2.675  1.00  0.00     0.188 C 
ENDROOT
BRANCH   1   2
ATOM      2  O   UNL     1       5.402  10.354  -2.978  1.00  0.00    -0.376 OA
BRANCH   2   3
ATOM      3  C   UNL     1       4.562  10.720  -4.059  1.00  0.00     0.202 C 
BRANCH   3   4
ATOM      4  C   UNL     1       3.305   9.932  -4.493  1.00  0.00     0.261 C 
BRANCH   4   5
ATOM      5  O   UNL     1       3.093   8.632  -3.928  1.00  0.00    -0.460 OA
BRANCH   5   6
ATOM      6  C   UNL     1       3.437   7.568  -4.698  1.00  0.00     0.338 C 
ATOM      7  O   UNL     1       3.906   7.635  -5.825  1.00  0.00    -0.246 OA
BRANCH   6   8
ATOM      8  C   UNL     1       3.318   6.281  -3.933  1.00  0.00     0.067 C 
ATOM      9  C   UNL     1       2.242   6.072  -3.131  1.00  0.00     0.024 C 
BRANCH   9  10
ATOM     10  C   UNL     1       1.810   4.813  -2.463  1.00  0.00    -0.025 A 
ATOM     11  C   UNL     1       0.839   2.273  -1.750  1.00  0.00     0.067 A 
ATOM     12  C   UNL     1       2.210   2.514  -1.752  1.00  0.00     0.021 A 
ATOM     13  C   UNL     1      -0.059   3.315  -1.980  1.00  0.00     0.021 A 
ATOM     14  C   UNL     1       2.682   3.796  -2.050  1.00  0.00     0.009 A 
ATOM     15  C   UNL     1       0.430   4.578  -2.338  1.00  0.00     0.009 A 
BRANCH  11  16
ATOM     16  S   UNL     1       0.254   0.606  -1.567  1.00  0.00     0.175 S 
ATOM     17  C   UNL     1       0.860   0.091   0.015  1.00  0.00     0.163 C 
ATOM     18  O   UNL     1       0.927  -0.182  -2.582  1.00  0.00    -0.224 OA
ATOM     19  O   UNL     1      -1.193   0.652  -1.488  1.00  0.00    -0.224 OA
ENDBRANCH  11  16
ENDBRANCH   9  10
BRANCH   8  20
ATOM     20  C   UNL     1       4.366   5.266  -4.161  1.00  0.00    -0.010 A 
ATOM     21  C   UNL     1       5.634   5.381  -3.573  1.00  0.00     0.009 A 
ATOM     22  C   UNL     1       4.061   4.107  -4.872  1.00  0.00     0.017 A 
ATOM     23  C   UNL     1       6.559   4.343  -3.671  1.00  0.00     0.001 A 
ATOM     24  C   UNL     1       4.968   3.037  -4.946  1.00  0.00    -0.018 A 
ATOM     25  C   UNL     1       6.224   3.170  -4.341  1.00  0.00     0.009 A 
BRANCH  24  26
ATOM     26  C   UNL     1       4.546   1.803  -5.608  1.00  0.00    -0.018 A 
ATOM     27  C   UNL     1       4.545   0.574  -4.929  1.00  0.00     0.010 A 
ATOM     28  C   UNL     1       4.033   1.861  -6.914  1.00  0.00     0.010 A 
ATOM     29  C   UNL     1       4.018  -0.568  -5.534  1.00  0.00     0.021 A 
ATOM     30  C   UNL     1       3.507   0.729  -7.525  1.00  0.00     0.021 A 
ATOM     31  C   UNL     1       3.505  -0.480  -6.831  1.00  0.00     0.067 A 
BRANCH  31  32
ATOM     32  S   UNL     1       2.829  -1.924  -7.604  1.00  0.00     0.175 S 
ATOM     33  C   UNL     1       4.262  -2.924  -7.897  1.00  0.00     0.163 C 
ATOM     34  O   UNL     1       1.995  -2.595  -6.626  1.00  0.00    -0.224 OA
ATOM     35  O   UNL     1       2.300  -1.530  -8.896  1.00  0.00    -0.224 OA
ENDBRANCH  31  32
ENDBRANCH  24  26
ENDBRANCH   8  20
ENDBRANCH   6   8
ENDBRANCH   5   6
ENDBRANCH   4   5
ENDBRANCH   3   4
ENDBRANCH   2   3
ENDBRANCH   1   2
BRANCH   1  36
ATOM     36  C   UNL     1       4.660   8.499  -1.524  1.00  0.00     0.188 C 
BRANCH  36  37
ATOM     37  O   UNL     1       3.754   9.388  -0.893  1.00  0.00    -0.376 OA
BRANCH  37  38
ATOM     38  C   UNL     1       4.207  10.674  -0.499  1.00  0.00     0.202 C 
BRANCH  38  39
ATOM     39  C   UNL     1       5.536  10.857   0.262  1.00  0.00     0.261 C 
BRANCH  39  40
ATOM     40  O   UNL     1       6.625   9.993  -0.103  1.00  0.00    -0.460 OA
BRANCH  40  41
ATOM     41  C   UNL     1       6.890   8.982   0.766  1.00  0.00     0.338 C 
ATOM     42  O   UNL     1       6.319   8.735   1.808  1.00  0.00    -0.246 OA
BRANCH  41  43
ATOM     43  C   UNL     1       7.885   8.066   0.160  1.00  0.00     0.060 A 
ATOM     44  C   UNL     1       7.513   6.732  -0.069  1.00  0.00     0.016 A 
ATOM     45  C   UNL     1       9.179   8.494  -0.134  1.00  0.00     0.016 A 
ATOM     46  C   UNL     1       8.438   5.823  -0.584  1.00  0.00     0.010 A 
ATOM     47  C   UNL     1      10.114   7.573  -0.625  1.00  0.00     0.010 A 
ATOM     48  C   UNL     1       9.754   6.230  -0.836  1.00  0.00    -0.014 A 
BRANCH  48  49
ATOM     49  C   UNL     1      10.789   5.215  -1.155  1.00  0.00     0.031 A 
ATOM     50  C   UNL     1      11.590   4.623  -0.029  1.00  0.00     0.074 A 
ATOM     51  C   UNL     1      11.010   4.808  -2.418  1.00  0.00     0.049 A 
ATOM     52  N   UNL     1      12.565   3.751  -0.072  1.00  0.00    -0.248 NA
ATOM     53  C   UNL     1      11.245   5.079   1.327  1.00  0.00     0.031 C 
ATOM     54  C   UNL     1      10.280   5.268  -3.596  1.00  0.00     0.029 A 
ATOM     55  N   UNL     1      11.920   3.907  -2.916  1.00  0.00    -0.354 N 
ATOM     56  C   UNL     1      12.960   3.564   1.247  1.00  0.00     0.074 A 
ATOM     57  C   UNL     1      12.130   4.424   2.063  1.00  0.00     0.031 C 
ATOM     58  C   UNL     1      10.763   4.637  -4.681  1.00  0.00     0.029 A 
ATOM     59  C   UNL     1      11.873   3.773  -4.282  1.00  0.00     0.049 A 
ATOM     60  H   UNL     1      12.547   3.405  -2.346  1.00  0.00     0.167 HD
ATOM     61  C   UNL     1      13.929   2.755   1.737  1.00  0.00     0.031 A 
ATOM     62  C   UNL     1      12.657   3.061  -5.117  1.00  0.00     0.031 A 
ATOM     63  C   UNL     1      14.783   1.927   0.927  1.00  0.00     0.049 A 
ATOM     64  C   UNL     1      13.793   2.243  -4.555  1.00  0.00     0.074 A 
ATOM     65  C   UNL     1      15.794   1.075   1.335  1.00  0.00     0.029 A 
ATOM     66  N   UNL     1      14.739   1.862  -0.457  1.00  0.00    -0.354 N 
ATOM     67  N   UNL     1      14.139   2.053  -3.304  1.00  0.00    -0.248 NA
ATOM     68  C   UNL     1      14.649   1.543  -5.525  1.00  0.00     0.031 C 
ATOM     69  C   UNL     1      16.407   0.546   0.195  1.00  0.00     0.029 A 
ATOM     70  C   UNL     1      15.727   1.008  -0.920  1.00  0.00     0.049 A 
ATOM     71  H   UNL     1      14.101   2.349  -1.026  1.00  0.00     0.167 HD
ATOM     72  C   UNL     1      15.231   1.191  -3.338  1.00  0.00     0.074 A 
ATOM     73  C   UNL     1      15.477   0.880  -4.730  1.00  0.00     0.031 C 
ATOM     74  C   UNL     1      15.964   0.701  -2.307  1.00  0.00     0.031 A 
BRANCH  61  75
ATOM     75  C   UNL     1      14.153   2.773   3.224  1.00  0.00    -0.014 A 
ATOM     76  C   UNL     1      13.216   2.224   4.113  1.00  0.00     0.009 A 
ATOM     77  C   UNL     1      15.335   3.329   3.740  1.00  0.00     0.009 A 
ATOM     78  C   UNL     1      13.441   2.268   5.491  1.00  0.00     0.001 A 
ATOM     79  C   UNL     1      15.571   3.342   5.115  1.00  0.00     0.001 A 
ATOM     80  C   UNL     1      14.619   2.822   5.990  1.00  0.00     0.000 A 
ENDBRANCH  61  75
BRANCH  62  81
ATOM     81  C   UNL     1      12.431   3.111  -6.588  1.00  0.00    -0.014 A 
ATOM     82  C   UNL     1      12.023   1.967  -7.292  1.00  0.00     0.009 A 
ATOM     83  C   UNL     1      12.665   4.296  -7.304  1.00  0.00     0.009 A 
ATOM     84  C   UNL     1      11.886   2.001  -8.682  1.00  0.00     0.001 A 
ATOM     85  C   UNL     1      12.493   4.336  -8.690  1.00  0.00     0.001 A 
ATOM     86  C   UNL     1      12.115   3.186  -9.379  1.00  0.00     0.000 A 
ENDBRANCH  62  81
BRANCH  74  87
ATOM     87  C   UNL     1      17.074  -0.263  -2.636  1.00  0.00    -0.014 A 
ATOM     88  C   UNL     1      18.247   0.156  -3.282  1.00  0.00     0.009 A 
ATOM     89  C   UNL     1      16.960  -1.607  -2.245  1.00  0.00     0.009 A 
ATOM     90  C   UNL     1      19.266  -0.759  -3.562  1.00  0.00     0.001 A 
ATOM     91  C   UNL     1      17.993  -2.512  -2.495  1.00  0.00     0.001 A 
ATOM     92  C   UNL     1      19.141  -2.089  -3.162  1.00  0.00     0.000 A 
ENDBRANCH  74  87
ENDBRANCH  48  49
ENDBRANCH  41  43
ENDBRANCH  40  41
ENDBRANCH  39  40
ENDBRANCH  38  39
ENDBRANCH  37  38
ENDBRANCH  36  37
ENDBRANCH   1  36
TORSDOF 22
