REMARK SMILES O=C(OCCOCCOCCOC(=O)c1cnccc1C(=O)Nc1ccc(Cl)c(Cl)c1)c1ccc(-c2c3nc(c(-c4ccccc4)c4ccc([nH]4)c(-c4ccccc4)c4nc(c(-c5ccccc5)c5ccc2[nH]5)C=C4)C=C3)cc1
REMARK SMILES IDX 7 1 6 2 5 3 4 4 3 5 2 6 1 7 32 8 33 9 79 10 34 11 78 12
REMARK SMILES IDX 35 13 36 14 37 15 72 16 38 17 77 18 71 19 73 20 39 21 76 22
REMARK SMILES IDX 70 23 69 24 40 26 62 27 47 28 61 29 48 30 51 31 60 32 74 33
REMARK SMILES IDX 49 34 50 35 59 37 75 38 52 39 41 40 42 41 46 42 43 43 45 44
REMARK SMILES IDX 44 45 63 46 64 47 68 48 65 49 67 50 66 51 53 52 54 53 58 54
REMARK SMILES IDX 55 55 57 56 56 57 8 58 9 59 10 60 11 61 12 62 13 63 14 64
REMARK SMILES IDX 15 65 16 66 20 67 17 68 19 69 18 70 21 71 22 72 23 73 24 75
REMARK SMILES IDX 25 76 31 77 26 78 29 79 27 80 30 81 28 82
REMARK H PARENT 73 25 51 36 23 74
REMARK Flexibility Score: inf
ROOT
ATOM      1  C   UNL     1       2.615   1.670  -0.554  1.00  0.00     0.188 C 
ENDROOT
BRANCH   1   2
ATOM      2  O   UNL     1       3.624   0.689  -0.574  1.00  0.00    -0.376 OA
BRANCH   2   3
ATOM      3  C   UNL     1       4.356   0.437  -1.747  1.00  0.00     0.202 C 
BRANCH   3   4
ATOM      4  C   UNL     1       3.960  -0.936  -2.275  1.00  0.00     0.261 C 
BRANCH   4   5
ATOM      5  O   UNL     1       2.584  -1.246  -1.967  1.00  0.00    -0.460 OA
BRANCH   5   6
ATOM      6  C   UNL     1       2.102  -1.937  -0.900  1.00  0.00     0.338 C 
ATOM      7  O   UNL     1       0.898  -2.188  -0.854  1.00  0.00    -0.246 OA
BRANCH   6   8
ATOM      8  C   UNL     1       2.956  -2.492   0.198  1.00  0.00     0.060 A 
ATOM      9  C   UNL     1       4.088  -1.868   0.716  1.00  0.00     0.016 A 
ATOM     10  C   UNL     1       2.544  -3.691   0.803  1.00  0.00     0.016 A 
ATOM     11  C   UNL     1       4.847  -2.437   1.723  1.00  0.00     0.010 A 
ATOM     12  C   UNL     1       3.281  -4.263   1.850  1.00  0.00     0.010 A 
ATOM     13  C   UNL     1       4.462  -3.647   2.283  1.00  0.00    -0.014 A 
BRANCH  13  14
ATOM     14  C   UNL     1       5.451  -4.315   3.146  1.00  0.00     0.031 A 
ATOM     15  C   UNL     1       6.222  -5.457   2.555  1.00  0.00     0.074 A 
ATOM     16  C   UNL     1       5.798  -3.765   4.324  1.00  0.00     0.049 A 
ATOM     17  N   UNL     1       7.125  -6.220   3.107  1.00  0.00    -0.248 NA
ATOM     18  C   UNL     1       5.957  -5.764   1.137  1.00  0.00     0.031 C 
ATOM     19  C   UNL     1       5.232  -2.531   4.881  1.00  0.00     0.029 A 
ATOM     20  N   UNL     1       6.741  -4.139   5.242  1.00  0.00    -0.354 N 
ATOM     21  C   UNL     1       7.511  -7.112   2.114  1.00  0.00     0.074 A 
ATOM     22  C   UNL     1       6.740  -6.810   0.932  1.00  0.00     0.031 C 
ATOM     23  C   UNL     1       5.853  -2.248   6.037  1.00  0.00     0.029 A 
ATOM     24  C   UNL     1       6.783  -3.323   6.346  1.00  0.00     0.049 A 
ATOM     25  H   UNL     1       7.331  -4.918   5.123  1.00  0.00     0.167 HD
ATOM     26  C   UNL     1       8.430  -8.099   2.195  1.00  0.00     0.031 A 
ATOM     27  C   UNL     1       7.458  -3.470   7.500  1.00  0.00     0.031 A 
ATOM     28  C   UNL     1       9.163  -8.381   3.396  1.00  0.00     0.049 A 
ATOM     29  C   UNL     1       8.348  -4.675   7.624  1.00  0.00     0.074 A 
ATOM     30  C   UNL     1      10.042  -9.413   3.657  1.00  0.00     0.029 A 
ATOM     31  N   UNL     1       9.092  -7.605   4.546  1.00  0.00    -0.354 N 
ATOM     32  N   UNL     1       8.633  -5.587   6.723  1.00  0.00    -0.248 NA
ATOM     33  C   UNL     1       9.005  -4.878   8.919  1.00  0.00     0.031 C 
ATOM     34  C   UNL     1      10.460  -9.292   4.987  1.00  0.00     0.029 A 
ATOM     35  C   UNL     1       9.898  -8.144   5.529  1.00  0.00     0.049 A 
ATOM     36  H   UNL     1       8.547  -6.791   4.646  1.00  0.00     0.167 HD
ATOM     37  C   UNL     1       9.519  -6.461   7.333  1.00  0.00     0.074 A 
ATOM     38  C   UNL     1       9.748  -5.947   8.671  1.00  0.00     0.031 C 
ATOM     39  C   UNL     1      10.089  -7.591   6.846  1.00  0.00     0.031 A 
BRANCH  26  40
ATOM     40  C   UNL     1       8.600  -8.972   0.985  1.00  0.00    -0.014 A 
ATOM     41  C   UNL     1       9.211  -8.498  -0.188  1.00  0.00     0.009 A 
ATOM     42  C   UNL     1       8.091 -10.280   1.003  1.00  0.00     0.009 A 
ATOM     43  C   UNL     1       9.275  -9.305  -1.327  1.00  0.00     0.001 A 
ATOM     44  C   UNL     1       8.181 -11.093  -0.128  1.00  0.00     0.001 A 
ATOM     45  C   UNL     1       8.763 -10.601  -1.295  1.00  0.00     0.000 A 
ENDBRANCH  26  40
BRANCH  27  46
ATOM     46  C   UNL     1       7.242  -2.539   8.643  1.00  0.00    -0.014 A 
ATOM     47  C   UNL     1       8.293  -1.781   9.180  1.00  0.00     0.009 A 
ATOM     48  C   UNL     1       5.975  -2.447   9.249  1.00  0.00     0.009 A 
ATOM     49  C   UNL     1       8.093  -0.991  10.316  1.00  0.00     0.001 A 
ATOM     50  C   UNL     1       5.768  -1.628  10.360  1.00  0.00     0.001 A 
ATOM     51  C   UNL     1       6.831  -0.913  10.903  1.00  0.00     0.000 A 
ENDBRANCH  27  46
BRANCH  39  52
ATOM     52  C   UNL     1      11.042  -8.304   7.760  1.00  0.00    -0.014 A 
ATOM     53  C   UNL     1      10.589  -8.984   8.901  1.00  0.00     0.009 A 
ATOM     54  C   UNL     1      12.411  -8.312   7.454  1.00  0.00     0.009 A 
ATOM     55  C   UNL     1      11.500  -9.619   9.745  1.00  0.00     0.001 A 
ATOM     56  C   UNL     1      13.313  -8.982   8.277  1.00  0.00     0.001 A 
ATOM     57  C   UNL     1      12.858  -9.622   9.429  1.00  0.00     0.000 A 
ENDBRANCH  39  52
ENDBRANCH  13  14
ENDBRANCH   6   8
ENDBRANCH   5   6
ENDBRANCH   4   5
ENDBRANCH   3   4
ENDBRANCH   2   3
ENDBRANCH   1   2
BRANCH   1  58
ATOM     58  C   UNL     1       3.079   3.152  -0.854  1.00  0.00     0.188 C 
BRANCH  58  59
ATOM     59  O   UNL     1       4.237   3.684  -0.147  1.00  0.00    -0.376 OA
BRANCH  59  60
ATOM     60  C   UNL     1       4.268   4.657   0.946  1.00  0.00     0.202 C 
BRANCH  60  61
ATOM     61  C   UNL     1       4.554   4.266   2.721  1.00  0.00     0.261 C 
BRANCH  61  62
ATOM     62  O   UNL     1       3.449   2.978   3.828  1.00  0.00    -0.460 OA
BRANCH  62  63
ATOM     63  C   UNL     1       2.373   2.273   4.382  1.00  0.00     0.340 C 
ATOM     64  O   UNL     1       1.180   2.491   4.171  1.00  0.00    -0.246 OA
BRANCH  63  65
ATOM     65  C   UNL     1       2.697   1.044   5.109  1.00  0.00     0.091 A 
ATOM     66  C   UNL     1       1.846  -0.017   4.742  1.00  0.00     0.127 A 
ATOM     67  C   UNL     1       3.459   0.919   6.267  1.00  0.00     0.057 A 
ATOM     68  N   UNL     1       1.603  -1.112   5.491  1.00  0.00    -0.264 NA
ATOM     69  C   UNL     1       3.123  -0.184   7.091  1.00  0.00     0.035 A 
ATOM     70  C   UNL     1       2.197  -1.137   6.688  1.00  0.00     0.112 A 
BRANCH  67  71
ATOM     71  C   UNL     1       4.597   1.755   6.809  1.00  0.00     0.256 C 
ATOM     72  O   UNL     1       5.054   1.438   7.913  1.00  0.00    -0.269 OA
ATOM     73  N   UNL     1       5.240   2.811   6.194  1.00  0.00    -0.322 N 
ATOM     74  H   UNL     1       5.970   3.232   6.704  1.00  0.00     0.170 HD
BRANCH  73  75
ATOM     75  C   UNL     1       4.980   3.350   4.940  1.00  0.00     0.043 A 
ATOM     76  C   UNL     1       3.708   4.591   4.904  1.00  0.00     0.028 A 
ATOM     77  C   UNL     1       5.178   2.181   3.642  1.00  0.00     0.048 A 
ATOM     78  C   UNL     1       2.555   4.674   3.534  1.00  0.00     0.024 A 
ATOM     79  C   UNL     1       4.058   2.187   2.235  1.00  0.00     0.061 A 
ATOM     80  C   UNL     1       2.674   3.443   2.187  1.00  0.00     0.059 A 
ATOM     81  Cl  UNL     1       5.323   1.684   1.079  1.00  0.00    -0.083 Cl
ATOM     82  Cl  UNL     1       1.128   3.460   1.368  1.00  0.00    -0.083 Cl
ENDBRANCH  73  75
ENDBRANCH  67  71
ENDBRANCH  63  65
ENDBRANCH  62  63
ENDBRANCH  61  62
ENDBRANCH  60  61
ENDBRANCH  59  60
ENDBRANCH  58  59
ENDBRANCH   1  58
TORSDOF 19
