REMARK SMILES CCCn1cc(Br)cc1C(=O)NC[C@H]1CC[C@@H](C(=O)OCCOCCOCCOC(=O)c2ccc(-c3c4nc(c(-c5ccccc5)c5ccc([nH]5)c(-c5ccccc5)c5nc(c(-c6ccccc6)c6ccc3[nH]6)C=C5)C=C4)cc2)O1
REMARK SMILES IDX 23 1 22 2 21 3 20 4 18 5 19 6 17 7 14 8 15 9 80 10 16 11
REMARK SMILES IDX 13 12 12 13 10 14 11 15 9 17 4 18 5 19 6 20 8 21 7 22 3 23
REMARK SMILES IDX 2 24 1 25 24 26 25 27 26 28 27 29 28 30 29 31 30 32 31 33
REMARK SMILES IDX 32 34 33 35 79 36 34 37 78 38 35 39 36 40 37 41 72 42 38 43
REMARK SMILES IDX 77 44 71 45 73 46 39 47 76 48 70 49 69 50 40 52 62 53 47 54
REMARK SMILES IDX 61 55 48 56 51 57 60 58 74 59 49 60 50 61 59 63 75 64 52 65
REMARK SMILES IDX 41 66 42 67 46 68 43 69 45 70 44 71 63 72 64 73 68 74 65 75
REMARK SMILES IDX 67 76 66 77 53 78 54 79 58 80 55 81 57 82 56 83
REMARK H PARENT 12 16 73 51 51 62
REMARK Flexibility Score: inf
ROOT
ATOM      1  O   UNL     1       8.119   4.643   0.281  1.00  0.00    -0.376 OA
ENDROOT
BRANCH   1   2
ATOM      2  C   UNL     1       8.317   3.333  -0.239  1.00  0.00     0.202 C 
BRANCH   2   3
ATOM      3  C   UNL     1       7.124   2.372  -0.425  1.00  0.00     0.261 C 
BRANCH   3   4
ATOM      4  O   UNL     1       5.974   2.894  -1.129  1.00  0.00    -0.461 OA
BRANCH   4   5
ATOM      5  C   UNL     1       4.801   2.910  -0.438  1.00  0.00     0.335 C 
ATOM      6  O   UNL     1       4.701   2.559   0.730  1.00  0.00    -0.249 OA
BRANCH   5   7
ATOM      7  C   UNL     1       3.618   3.430  -1.287  1.00  0.00     0.228 C 
ATOM      8  C   UNL     1       1.675   3.972  -0.082  1.00  0.00     0.138 C 
ATOM      9  C   UNL     1       1.964   5.164  -0.983  1.00  0.00     0.037 C 
ATOM     10  O   UNL     1       2.397   2.903  -0.705  1.00  0.00    -0.361 OA
ATOM     11  C   UNL     1       3.428   4.952  -1.320  1.00  0.00     0.047 C 
BRANCH   8  12
ATOM     12  C   UNL     1       2.200   4.312   1.321  1.00  0.00     0.148 C 
BRANCH  12  13
ATOM     13  N   UNL     1       2.180   3.326   2.354  1.00  0.00    -0.348 N 
ATOM     14  C   UNL     1       3.020   3.196   3.439  1.00  0.00     0.268 C 
ATOM     15  O   UNL     1       2.739   2.254   4.189  1.00  0.00    -0.268 OA
ATOM     16  H   UNL     1       1.470   2.647   2.281  1.00  0.00     0.163 HD
BRANCH  14  17
ATOM     17  C   UNL     1       4.215   4.024   3.694  1.00  0.00     0.108 A 
ATOM     18  N   UNL     1       4.597   5.344   3.397  1.00  0.00    -0.342 N 
ATOM     19  C   UNL     1       5.926   5.515   3.719  1.00  0.00     0.102 A 
ATOM     20  C   UNL     1       6.342   4.418   4.412  1.00  0.00     0.036 A 
ATOM     21  C   UNL     1       5.293   3.499   4.423  1.00  0.00     0.049 A 
ATOM     22  Br  UNL     1       8.026   4.138   5.175  1.00  0.00    -0.049 Br
BRANCH  18  23
ATOM     23  C   UNL     1       3.802   6.390   2.781  1.00  0.00     0.122 C 
BRANCH  23  24
ATOM     24  C   UNL     1       3.927   7.864   3.188  1.00  0.00     0.018 C 
ATOM     25  C   UNL     1       5.216   8.565   2.783  1.00  0.00     0.006 C 
ENDBRANCH  23  24
ENDBRANCH  18  23
ENDBRANCH  14  17
ENDBRANCH  12  13
ENDBRANCH   8  12
ENDBRANCH   5   7
ENDBRANCH   4   5
ENDBRANCH   3   4
ENDBRANCH   2   3
ENDBRANCH   1   2
BRANCH   1  26
ATOM     26  C   UNL     1       7.036   5.412  -0.217  1.00  0.00     0.188 C 
BRANCH  26  27
ATOM     27  C   UNL     1       6.817   5.497  -1.746  1.00  0.00     0.188 C 
BRANCH  27  28
ATOM     28  O   UNL     1       7.609   4.623  -2.517  1.00  0.00    -0.376 OA
BRANCH  28  29
ATOM     29  C   UNL     1       8.684   5.076  -3.313  1.00  0.00     0.202 C 
BRANCH  29  30
ATOM     30  C   UNL     1       9.625   6.190  -2.871  1.00  0.00     0.261 C 
BRANCH  30  31
ATOM     31  O   UNL     1       9.141   7.007  -1.828  1.00  0.00    -0.460 OA
BRANCH  31  32
ATOM     32  C   UNL     1       8.372   8.038  -2.215  1.00  0.00     0.338 C 
ATOM     33  O   UNL     1       7.892   8.232  -3.327  1.00  0.00    -0.246 OA
BRANCH  32  34
ATOM     34  C   UNL     1       8.260   8.961  -1.086  1.00  0.00     0.060 A 
ATOM     35  C   UNL     1       7.451  10.081  -1.277  1.00  0.00     0.016 A 
ATOM     36  C   UNL     1       9.256   8.905  -0.100  1.00  0.00     0.016 A 
ATOM     37  C   UNL     1       7.863  11.259  -0.707  1.00  0.00     0.010 A 
ATOM     38  C   UNL     1       9.694  10.087   0.427  1.00  0.00     0.010 A 
ATOM     39  C   UNL     1       9.056  11.254   0.020  1.00  0.00    -0.014 A 
BRANCH  39  40
ATOM     40  C   UNL     1       9.639  12.520   0.378  1.00  0.00     0.031 A 
ATOM     41  C   UNL     1       9.062  13.073   1.612  1.00  0.00     0.074 A 
ATOM     42  C   UNL     1      10.668  13.054  -0.303  1.00  0.00     0.049 A 
ATOM     43  N   UNL     1       8.229  14.053   1.708  1.00  0.00    -0.248 NA
ATOM     44  C   UNL     1       9.269  12.319   2.859  1.00  0.00     0.031 C 
ATOM     45  C   UNL     1      11.499  12.441  -1.344  1.00  0.00     0.029 A 
ATOM     46  N   UNL     1      11.264  14.256  -0.107  1.00  0.00    -0.354 N 
ATOM     47  C   UNL     1       7.979  14.177   3.066  1.00  0.00     0.074 A 
ATOM     48  C   UNL     1       8.436  12.957   3.679  1.00  0.00     0.031 C 
ATOM     49  C   UNL     1      12.625  13.179  -1.499  1.00  0.00     0.029 A 
ATOM     50  C   UNL     1      12.527  14.369  -0.669  1.00  0.00     0.049 A 
ATOM     51  H   UNL     1      10.835  14.988   0.392  1.00  0.00     0.167 HD
ATOM     52  C   UNL     1       7.724  15.391   3.621  1.00  0.00     0.031 A 
ATOM     53  C   UNL     1      13.436  15.335  -0.384  1.00  0.00     0.031 A 
ATOM     54  C   UNL     1       7.378  16.373   2.623  1.00  0.00     0.049 A 
ATOM     55  C   UNL     1      12.712  16.455   0.269  1.00  0.00     0.074 A 
ATOM     56  C   UNL     1       6.395  16.474   1.658  1.00  0.00     0.029 A 
ATOM     57  N   UNL     1       8.358  17.267   2.259  1.00  0.00    -0.354 N 
ATOM     58  N   UNL     1      11.867  17.223  -0.356  1.00  0.00    -0.248 NA
ATOM     59  C   UNL     1      12.567  16.422   1.718  1.00  0.00     0.031 C 
ATOM     60  C   UNL     1       7.041  17.063   0.531  1.00  0.00     0.029 A 
ATOM     61  C   UNL     1       8.358  17.352   0.890  1.00  0.00     0.049 A 
ATOM     62  H   UNL     1       8.953  17.757   2.871  1.00  0.00     0.167 HD
ATOM     63  C   UNL     1      10.823  17.403   0.540  1.00  0.00     0.074 A 
ATOM     64  C   UNL     1      11.354  16.971   1.833  1.00  0.00     0.031 C 
ATOM     65  C   UNL     1       9.544  17.599   0.100  1.00  0.00     0.031 A 
BRANCH  52  66
ATOM     66  C   UNL     1       8.244  15.778   4.983  1.00  0.00    -0.014 A 
ATOM     67  C   UNL     1       7.897  17.037   5.497  1.00  0.00     0.009 A 
ATOM     68  C   UNL     1       9.274  15.084   5.651  1.00  0.00     0.009 A 
ATOM     69  C   UNL     1       8.597  17.599   6.569  1.00  0.00     0.001 A 
ATOM     70  C   UNL     1       9.944  15.621   6.750  1.00  0.00     0.001 A 
ATOM     71  C   UNL     1       9.624  16.895   7.191  1.00  0.00     0.000 A 
ENDBRANCH  52  66
BRANCH  53  72
ATOM     72  C   UNL     1      14.912  15.243  -0.343  1.00  0.00    -0.014 A 
ATOM     73  C   UNL     1      15.700  16.405  -0.314  1.00  0.00     0.009 A 
ATOM     74  C   UNL     1      15.539  14.020  -0.042  1.00  0.00     0.009 A 
ATOM     75  C   UNL     1      17.053  16.351   0.049  1.00  0.00     0.001 A 
ATOM     76  C   UNL     1      16.890  13.965   0.317  1.00  0.00     0.001 A 
ATOM     77  C   UNL     1      17.643  15.133   0.379  1.00  0.00     0.000 A 
ENDBRANCH  53  72
BRANCH  65  78
ATOM     78  C   UNL     1       9.339  17.851  -1.375  1.00  0.00    -0.014 A 
ATOM     79  C   UNL     1       9.727  16.943  -2.378  1.00  0.00     0.009 A 
ATOM     80  C   UNL     1       8.615  18.989  -1.757  1.00  0.00     0.009 A 
ATOM     81  C   UNL     1       9.437  17.193  -3.724  1.00  0.00     0.001 A 
ATOM     82  C   UNL     1       8.306  19.228  -3.097  1.00  0.00     0.001 A 
ATOM     83  C   UNL     1       8.724  18.335  -4.081  1.00  0.00     0.000 A 
ENDBRANCH  65  78
ENDBRANCH  39  40
ENDBRANCH  32  34
ENDBRANCH  31  32
ENDBRANCH  30  31
ENDBRANCH  29  30
ENDBRANCH  28  29
ENDBRANCH  27  28
ENDBRANCH  26  27
ENDBRANCH   1  26
TORSDOF 22
