REMARK SMILES O=C(OCCOCCOCCOC(=O)c1ccc2c(=O)n(CCC[NH+]3CCOCC3)c(=O)[nH]c2c1)c1ccc(-c2c3nc(c(-c4ccccc4)c4ccc([nH]4)c(-c4ccccc4)c4nc(c(-c5ccccc5)c5ccc2[nH]5)C=C4)C=C3)cc1
REMARK SMILES IDX 8 1 7 2 6 3 5 4 4 5 3 6 2 7 1 8 36 9 37 10 83 11 38 12 82 13
REMARK SMILES IDX 39 14 40 15 41 16 76 17 42 18 81 19 75 20 77 21 43 22 80 23
REMARK SMILES IDX 74 24 73 25 44 27 66 28 51 29 65 30 52 31 55 32 64 33 78 34
REMARK SMILES IDX 53 35 54 36 63 38 79 39 56 40 45 41 46 42 50 43 47 44 49 45
REMARK SMILES IDX 48 46 67 47 68 48 72 49 69 50 71 51 70 52 57 53 58 54 62 55
REMARK SMILES IDX 59 56 61 57 60 58 9 59 10 60 11 61 12 62 13 63 14 64 15 65
REMARK SMILES IDX 16 66 35 67 17 68 34 69 18 70 33 71 19 72 31 73 20 75 21 76
REMARK SMILES IDX 32 77 22 78 23 79 24 80 25 81 26 82 30 83 27 85 29 86 28 87
REMARK H PARENT 77 26 55 37 33 74 25 84
REMARK Flexibility Score: inf
ROOT
ATOM      1  C   UNL     1       2.527   2.505   0.517  1.00  0.00     0.188 C 
ENDROOT
BRANCH   1   2
ATOM      2  C   UNL     1       3.106   1.266   1.194  1.00  0.00     0.188 C 
BRANCH   2   3
ATOM      3  O   UNL     1       4.497   1.010   1.082  1.00  0.00    -0.376 OA
BRANCH   3   4
ATOM      4  C   UNL     1       5.116   1.012  -0.193  1.00  0.00     0.202 C 
BRANCH   4   5
ATOM      5  C   UNL     1       4.435   0.337  -1.398  1.00  0.00     0.261 C 
BRANCH   5   6
ATOM      6  O   UNL     1       3.112  -0.218  -1.243  1.00  0.00    -0.460 OA
BRANCH   6   7
ATOM      7  C   UNL     1       2.793  -1.472  -0.822  1.00  0.00     0.338 C 
ATOM      8  O   UNL     1       1.828  -2.067  -1.287  1.00  0.00    -0.246 OA
BRANCH   7   9
ATOM      9  C   UNL     1       3.372  -1.921   0.470  1.00  0.00     0.060 A 
ATOM     10  C   UNL     1       2.485  -2.308   1.493  1.00  0.00     0.016 A 
ATOM     11  C   UNL     1       4.737  -1.879   0.729  1.00  0.00     0.016 A 
ATOM     12  C   UNL     1       2.962  -2.568   2.783  1.00  0.00     0.010 A 
ATOM     13  C   UNL     1       5.206  -2.049   2.029  1.00  0.00     0.010 A 
ATOM     14  C   UNL     1       4.328  -2.416   3.060  1.00  0.00    -0.014 A 
BRANCH  14  15
ATOM     15  C   UNL     1       4.931  -2.976   4.287  1.00  0.00     0.031 A 
ATOM     16  C   UNL     1       5.292  -2.166   5.490  1.00  0.00     0.074 A 
ATOM     17  C   UNL     1       5.325  -4.258   4.194  1.00  0.00     0.049 A 
ATOM     18  N   UNL     1       5.742  -2.585   6.647  1.00  0.00    -0.248 NA
ATOM     19  C   UNL     1       5.171  -0.708   5.381  1.00  0.00     0.031 C 
ATOM     20  C   UNL     1       5.151  -5.098   3.004  1.00  0.00     0.029 A 
ATOM     21  N   UNL     1       6.000  -5.055   5.074  1.00  0.00    -0.354 N 
ATOM     22  C   UNL     1       5.876  -1.450   7.437  1.00  0.00     0.074 A 
ATOM     23  C   UNL     1       5.574  -0.318   6.587  1.00  0.00     0.031 C 
ATOM     24  C   UNL     1       5.739  -6.279   3.216  1.00  0.00     0.029 A 
ATOM     25  C   UNL     1       6.301  -6.289   4.561  1.00  0.00     0.049 A 
ATOM     26  H   UNL     1       6.244  -4.772   5.985  1.00  0.00     0.167 HD
ATOM     27  C   UNL     1       6.198  -1.379   8.753  1.00  0.00     0.031 A 
ATOM     28  C   UNL     1       6.939  -7.331   5.116  1.00  0.00     0.031 A 
ATOM     29  C   UNL     1       6.617  -2.524   9.525  1.00  0.00     0.049 A 
ATOM     30  C   UNL     1       7.334  -7.238   6.555  1.00  0.00     0.074 A 
ATOM     31  C   UNL     1       6.899  -2.600  10.878  1.00  0.00     0.029 A 
ATOM     32  N   UNL     1       6.871  -3.781   8.994  1.00  0.00    -0.354 N 
ATOM     33  N   UNL     1       7.224  -6.218   7.372  1.00  0.00    -0.248 NA
ATOM     34  C   UNL     1       7.888  -8.450   7.165  1.00  0.00     0.031 C 
ATOM     35  C   UNL     1       7.437  -3.864  11.138  1.00  0.00     0.029 A 
ATOM     36  C   UNL     1       7.388  -4.614   9.973  1.00  0.00     0.049 A 
ATOM     37  H   UNL     1       6.708  -4.043   8.059  1.00  0.00     0.167 HD
ATOM     38  C   UNL     1       7.678  -6.668   8.603  1.00  0.00     0.074 A 
ATOM     39  C   UNL     1       8.035  -8.063   8.426  1.00  0.00     0.031 C 
ATOM     40  C   UNL     1       7.786  -5.987   9.772  1.00  0.00     0.031 A 
BRANCH  27  41
ATOM     41  C   UNL     1       6.102  -0.049   9.464  1.00  0.00    -0.014 A 
ATOM     42  C   UNL     1       7.229   0.531  10.067  1.00  0.00     0.009 A 
ATOM     43  C   UNL     1       4.855   0.558   9.677  1.00  0.00     0.009 A 
ATOM     44  C   UNL     1       7.108   1.675  10.866  1.00  0.00     0.001 A 
ATOM     45  C   UNL     1       4.741   1.729  10.434  1.00  0.00     0.001 A 
ATOM     46  C   UNL     1       5.865   2.278  11.041  1.00  0.00     0.000 A 
ENDBRANCH  27  41
BRANCH  28  47
ATOM     47  C   UNL     1       7.096  -8.563   4.305  1.00  0.00    -0.014 A 
ATOM     48  C   UNL     1       7.953  -8.577   3.190  1.00  0.00     0.009 A 
ATOM     49  C   UNL     1       6.262  -9.665   4.537  1.00  0.00     0.009 A 
ATOM     50  C   UNL     1       7.941  -9.655   2.304  1.00  0.00     0.001 A 
ATOM     51  C   UNL     1       6.276 -10.755   3.666  1.00  0.00     0.001 A 
ATOM     52  C   UNL     1       7.103 -10.743   2.543  1.00  0.00     0.000 A 
ENDBRANCH  28  47
BRANCH  40  53
ATOM     53  C   UNL     1       8.354  -6.731  10.951  1.00  0.00    -0.014 A 
ATOM     54  C   UNL     1       7.561  -6.960  12.087  1.00  0.00     0.009 A 
ATOM     55  C   UNL     1       9.695  -7.146  10.966  1.00  0.00     0.009 A 
ATOM     56  C   UNL     1       8.101  -7.577  13.216  1.00  0.00     0.001 A 
ATOM     57  C   UNL     1      10.221  -7.803  12.080  1.00  0.00     0.001 A 
ATOM     58  C   UNL     1       9.427  -8.007  13.208  1.00  0.00     0.000 A 
ENDBRANCH  40  53
ENDBRANCH  14  15
ENDBRANCH   7   9
ENDBRANCH   6   7
ENDBRANCH   5   6
ENDBRANCH   4   5
ENDBRANCH   3   4
ENDBRANCH   2   3
ENDBRANCH   1   2
BRANCH   1  59
ATOM     59  O   UNL     1       3.522   3.282  -0.105  1.00  0.00    -0.376 OA
BRANCH  59  60
ATOM     60  C   UNL     1       4.081   4.362   0.620  1.00  0.00     0.202 C 
BRANCH  60  61
ATOM     61  C   UNL     1       4.467   4.286   2.113  1.00  0.00     0.261 C 
BRANCH  61  62
ATOM     62  O   UNL     1       3.791   3.367   2.982  1.00  0.00    -0.460 OA
BRANCH  62  63
ATOM     63  C   UNL     1       2.620   3.737   3.555  1.00  0.00     0.338 C 
ATOM     64  O   UNL     1       1.966   4.726   3.332  1.00  0.00    -0.246 OA
BRANCH  63  65
ATOM     65  C   UNL     1       2.248   2.646   4.491  1.00  0.00     0.062 A 
ATOM     66  C   UNL     1       3.001   2.493   5.657  1.00  0.00     0.016 A 
ATOM     67  C   UNL     1       1.204   1.750   4.189  1.00  0.00     0.042 A 
ATOM     68  C   UNL     1       2.740   1.418   6.501  1.00  0.00     0.017 A 
ATOM     69  C   UNL     1       0.963   0.670   5.044  1.00  0.00     0.056 A 
ATOM     70  C   UNL     1       1.752   0.489   6.168  1.00  0.00     0.064 A 
ATOM     71  N   UNL     1      -0.067  -0.241   4.811  1.00  0.00    -0.307 N 
ATOM     72  C   UNL     1       1.528  -0.714   6.989  1.00  0.00     0.264 A 
ATOM     73  C   UNL     1      -0.464  -1.185   5.726  1.00  0.00     0.328 A 
ATOM     74  H   UNL     1      -0.533  -0.205   3.945  1.00  0.00     0.171 HD
ATOM     75  O   UNL     1       2.462  -1.140   7.653  1.00  0.00    -0.268 OA
ATOM     76  N   UNL     1       0.276  -1.283   6.902  1.00  0.00    -0.260 N 
ATOM     77  O   UNL     1      -1.437  -1.893   5.467  1.00  0.00    -0.248 OA
BRANCH  76  78
ATOM     78  C   UNL     1      -0.249  -2.196   7.922  1.00  0.00     0.137 C 
BRANCH  78  79
ATOM     79  C   UNL     1       0.446  -2.437   9.272  1.00  0.00     0.083 C 
BRANCH  79  80
ATOM     80  C   UNL     1       0.953  -1.299  10.176  1.00  0.00     0.264 C 
BRANCH  80  81
ATOM     81  N   UNL     1       0.121  -0.248  10.751  1.00  0.00    -0.331 N 
ATOM     82  C   UNL     1      -1.289  -0.124  10.409  1.00  0.00     0.291 C 
ATOM     83  C   UNL     1       0.777   1.070  10.793  1.00  0.00     0.291 C 
ATOM     84  H   UNL     1       0.046  -0.652  11.685  1.00  0.00     0.348 HD
ATOM     85  C   UNL     1      -1.575   0.817   9.227  1.00  0.00     0.221 C 
ATOM     86  C   UNL     1       0.459   1.944   9.572  1.00  0.00     0.221 C 
ATOM     87  O   UNL     1      -0.954   2.098   9.397  1.00  0.00    -0.370 OA
ENDBRANCH  80  81
ENDBRANCH  79  80
ENDBRANCH  78  79
ENDBRANCH  76  78
ENDBRANCH  63  65
ENDBRANCH  62  63
ENDBRANCH  61  62
ENDBRANCH  60  61
ENDBRANCH  59  60
ENDBRANCH   1  59
TORSDOF 21
