REMARK SMILES CC[NH2+][C@]1(C(=O)OCCOCCOCCOC(=O)c2ccc(-c3c4nc(c(-c5ccccc5)c5ccc([nH]5)c(-c5ccccc5)c5nc(c(-c6ccccc6)c6ccc3[nH]6)C=C5)C=C4)cc2)CC[C@@H]([N@@H+]2CCO[C@@H](CC)C2)C1
REMARK SMILES IDX 11 1 10 2 9 3 8 4 7 5 5 6 6 7 4 8 67 9 78 10 68 11 69 12
REMARK SMILES IDX 3 13 2 16 1 17 70 18 71 19 77 20 72 22 74 23 73 24 75 25
REMARK SMILES IDX 76 26 12 27 13 28 14 29 15 30 16 31 17 32 18 33 19 34 20 35
REMARK SMILES IDX 66 36 21 37 65 38 22 39 23 40 24 41 59 42 25 43 64 44 58 45
REMARK SMILES IDX 60 46 26 47 63 48 57 49 56 50 27 52 49 53 34 54 48 55 35 56
REMARK SMILES IDX 38 57 47 58 61 59 36 60 37 61 46 63 62 64 39 65 28 66 29 67
REMARK SMILES IDX 33 68 30 69 32 70 31 71 50 72 51 73 55 74 52 75 54 76 53 77
REMARK SMILES IDX 40 78 41 79 45 80 42 81 44 82 43 83
REMARK H PARENT 3 14 3 15 70 21 60 51 38 62
REMARK Flexibility Score: inf
ROOT
ATOM      1  C   UNL     1       0.153  -1.473   1.918  1.00  0.00     0.188 C 
ENDROOT
BRANCH   1   2
ATOM      2  O   UNL     1       1.180  -0.550   2.261  1.00  0.00    -0.376 OA
BRANCH   2   3
ATOM      3  C   UNL     1       1.644   0.301   1.212  1.00  0.00     0.202 C 
BRANCH   3   4
ATOM      4  C   UNL     1       2.253  -0.384  -0.027  1.00  0.00     0.261 C 
BRANCH   4   5
ATOM      5  O   UNL     1       1.392  -1.345  -0.686  1.00  0.00    -0.459 OA
BRANCH   5   6
ATOM      6  C   UNL     1       1.842  -2.632  -0.690  1.00  0.00     0.368 C 
ATOM      7  O   UNL     1       2.955  -2.946  -0.281  1.00  0.00    -0.245 OA
BRANCH   6   8
ATOM      8  C   UNL     1       0.821  -3.692  -1.228  1.00  0.00     0.200 C 
ATOM      9  C   UNL     1       1.569  -4.510  -2.298  1.00  0.00     0.087 C 
ATOM     10  C   UNL     1       0.498  -4.705  -0.100  1.00  0.00     0.146 C 
ATOM     11  C   UNL     1       1.189  -5.968  -2.096  1.00  0.00     0.072 C 
ATOM     12  C   UNL     1       0.786  -6.124  -0.618  1.00  0.00     0.191 C 
BRANCH   8  13
ATOM     13  N   UNL     1      -0.466  -3.070  -1.631  1.00  0.00    -0.332 N 
ATOM     14  H   UNL     1      -0.975  -2.829  -0.780  1.00  0.00     0.347 HD
ATOM     15  H   UNL     1      -0.214  -2.268  -2.208  1.00  0.00     0.347 HD
BRANCH  13  16
ATOM     16  C   UNL     1      -1.343  -3.892  -2.459  1.00  0.00     0.257 C 
ATOM     17  C   UNL     1      -2.780  -3.406  -2.362  1.00  0.00     0.071 C 
ENDBRANCH  13  16
ENDBRANCH   8  13
BRANCH  12  18
ATOM     18  N   UNL     1       1.665  -6.998   0.168  1.00  0.00    -0.328 N 
ATOM     19  C   UNL     1       1.172  -7.341   1.516  1.00  0.00     0.291 C 
ATOM     20  C   UNL     1       3.096  -6.657   0.231  1.00  0.00     0.294 C 
ATOM     21  H   UNL     1       1.610  -7.830  -0.420  1.00  0.00     0.348 HD
ATOM     22  C   UNL     1       1.653  -6.429   2.663  1.00  0.00     0.222 C 
ATOM     23  C   UNL     1       3.463  -5.661   1.347  1.00  0.00     0.173 C 
ATOM     24  O   UNL     1       3.068  -6.197   2.625  1.00  0.00    -0.367 OA
BRANCH  23  25
ATOM     25  C   UNL     1       4.954  -5.308   1.400  1.00  0.00     0.034 C 
ATOM     26  C   UNL     1       5.566  -4.941   0.054  1.00  0.00     0.007 C 
ENDBRANCH  23  25
ENDBRANCH  12  18
ENDBRANCH   6   8
ENDBRANCH   5   6
ENDBRANCH   4   5
ENDBRANCH   3   4
ENDBRANCH   2   3
ENDBRANCH   1   2
BRANCH   1  27
ATOM     27  C   UNL     1      -1.106  -0.884   1.279  1.00  0.00     0.188 C 
BRANCH  27  28
ATOM     28  O   UNL     1      -0.872   0.015   0.203  1.00  0.00    -0.376 OA
BRANCH  28  29
ATOM     29  C   UNL     1      -2.014   0.597  -0.422  1.00  0.00     0.202 C 
BRANCH  29  30
ATOM     30  C   UNL     1      -3.015   1.306   0.510  1.00  0.00     0.261 C 
BRANCH  30  31
ATOM     31  O   UNL     1      -3.621   0.466   1.513  1.00  0.00    -0.460 OA
BRANCH  31  32
ATOM     32  C   UNL     1      -4.201  -0.682   1.096  1.00  0.00     0.338 C 
ATOM     33  O   UNL     1      -4.509  -0.967  -0.049  1.00  0.00    -0.246 OA
BRANCH  32  34
ATOM     34  C   UNL     1      -4.189  -1.655   2.222  1.00  0.00     0.060 A 
ATOM     35  C   UNL     1      -3.978  -3.008   1.920  1.00  0.00     0.016 A 
ATOM     36  C   UNL     1      -4.332  -1.256   3.555  1.00  0.00     0.016 A 
ATOM     37  C   UNL     1      -4.004  -3.970   2.930  1.00  0.00     0.010 A 
ATOM     38  C   UNL     1      -4.363  -2.220   4.570  1.00  0.00     0.010 A 
ATOM     39  C   UNL     1      -4.264  -3.586   4.251  1.00  0.00    -0.014 A 
BRANCH  39  40
ATOM     40  C   UNL     1      -4.731  -4.615   5.215  1.00  0.00     0.031 A 
ATOM     41  C   UNL     1      -6.218  -4.779   5.394  1.00  0.00     0.074 A 
ATOM     42  C   UNL     1      -3.888  -5.430   5.872  1.00  0.00     0.049 A 
ATOM     43  N   UNL     1      -6.882  -5.625   6.140  1.00  0.00    -0.248 NA
ATOM     44  C   UNL     1      -7.071  -3.859   4.622  1.00  0.00     0.031 C 
ATOM     45  C   UNL     1      -2.431  -5.413   5.769  1.00  0.00     0.029 A 
ATOM     46  N   UNL     1      -4.155  -6.441   6.763  1.00  0.00    -0.354 N 
ATOM     47  C   UNL     1      -8.225  -5.335   5.928  1.00  0.00     0.074 A 
ATOM     48  C   UNL     1      -8.280  -4.208   5.025  1.00  0.00     0.031 C 
ATOM     49  C   UNL     1      -1.930  -6.370   6.572  1.00  0.00     0.029 A 
ATOM     50  C   UNL     1      -3.029  -7.050   7.260  1.00  0.00     0.049 A 
ATOM     51  H   UNL     1      -5.068  -6.704   7.021  1.00  0.00     0.167 HD
ATOM     52  C   UNL     1      -9.322  -5.953   6.426  1.00  0.00     0.031 A 
ATOM     53  C   UNL     1      -2.901  -8.034   8.171  1.00  0.00     0.031 A 
ATOM     54  C   UNL     1      -9.282  -7.057   7.345  1.00  0.00     0.049 A 
ATOM     55  C   UNL     1      -4.131  -8.666   8.772  1.00  0.00     0.074 A 
ATOM     56  C   UNL     1     -10.339  -7.752   7.905  1.00  0.00     0.029 A 
ATOM     57  N   UNL     1      -8.119  -7.618   7.849  1.00  0.00    -0.354 N 
ATOM     58  N   UNL     1      -5.396  -8.404   8.542  1.00  0.00    -0.248 NA
ATOM     59  C   UNL     1      -3.912  -9.748   9.745  1.00  0.00     0.031 C 
ATOM     60  C   UNL     1      -9.816  -8.696   8.795  1.00  0.00     0.029 A 
ATOM     61  C   UNL     1      -8.433  -8.637   8.733  1.00  0.00     0.049 A 
ATOM     62  H   UNL     1      -7.206  -7.334   7.615  1.00  0.00     0.167 HD
ATOM     63  C   UNL     1      -6.120  -9.308   9.312  1.00  0.00     0.074 A 
ATOM     64  C   UNL     1      -5.153 -10.132  10.008  1.00  0.00     0.031 C 
ATOM     65  C   UNL     1      -7.465  -9.450   9.424  1.00  0.00     0.031 A 
BRANCH  52  66
ATOM     66  C   UNL     1     -10.657  -5.399   6.009  1.00  0.00    -0.014 A 
ATOM     67  C   UNL     1     -11.118  -5.515   4.687  1.00  0.00     0.009 A 
ATOM     68  C   UNL     1     -11.452  -4.726   6.948  1.00  0.00     0.009 A 
ATOM     69  C   UNL     1     -12.322  -4.919   4.303  1.00  0.00     0.001 A 
ATOM     70  C   UNL     1     -12.671  -4.162   6.570  1.00  0.00     0.001 A 
ATOM     71  C   UNL     1     -13.097  -4.245   5.245  1.00  0.00     0.000 A 
ENDBRANCH  52  66
BRANCH  53  72
ATOM     72  C   UNL     1      -1.545  -8.486   8.582  1.00  0.00    -0.014 A 
ATOM     73  C   UNL     1      -1.061  -9.749   8.206  1.00  0.00     0.009 A 
ATOM     74  C   UNL     1      -0.729  -7.652   9.361  1.00  0.00     0.009 A 
ATOM     75  C   UNL     1       0.205 -10.172   8.618  1.00  0.00     0.001 A 
ATOM     76  C   UNL     1       0.547  -8.067   9.748  1.00  0.00     0.001 A 
ATOM     77  C   UNL     1       1.010  -9.329   9.382  1.00  0.00     0.000 A 
ENDBRANCH  53  72
BRANCH  65  78
ATOM     78  C   UNL     1      -7.978 -10.570  10.291  1.00  0.00    -0.014 A 
ATOM     79  C   UNL     1      -7.858 -10.538  11.689  1.00  0.00     0.009 A 
ATOM     80  C   UNL     1      -8.631 -11.660   9.693  1.00  0.00     0.009 A 
ATOM     81  C   UNL     1      -8.344 -11.595  12.464  1.00  0.00     0.001 A 
ATOM     82  C   UNL     1      -9.144 -12.698  10.472  1.00  0.00     0.001 A 
ATOM     83  C   UNL     1      -8.990 -12.671  11.856  1.00  0.00     0.000 A 
ENDBRANCH  65  78
ENDBRANCH  39  40
ENDBRANCH  32  34
ENDBRANCH  31  32
ENDBRANCH  30  31
ENDBRANCH  29  30
ENDBRANCH  28  29
ENDBRANCH  27  28
ENDBRANCH   1  27
TORSDOF 21
