REMARK SMILES O=C(N[C@@H](Cc1c[nH]c2ccccc12)C(=O)N[C@@H](CS)C(=O)N[C@@H](CO)C(=O)OCCOCCOCCOC(=O)c1ccc(-c2c3nc(c(-c4ccccc4)c4ccc([nH]4)c(-c4ccccc4)c4nc(c(-c5ccccc5)c5ccc2[nH]5)C=C4)C=C3)cc1)c1ccc(F)cc1
REMARK SMILES IDX 31 1 30 2 29 3 27 4 28 5 24 6 23 7 21 8 22 9 18 11 17 12
REMARK SMILES IDX 15 13 16 14 4 16 3 17 1 18 2 19 89 21 90 22 95 23 91 24
REMARK SMILES IDX 94 25 92 26 93 27 5 28 6 29 7 30 14 31 8 32 9 33 13 34 10 36
REMARK SMILES IDX 12 37 11 38 19 39 20 40 25 42 26 43 32 45 33 46 34 47 35 48
REMARK SMILES IDX 36 49 37 50 38 51 39 52 40 53 41 54 42 55 88 56 43 57 87 58
REMARK SMILES IDX 44 59 45 60 46 61 81 62 47 63 86 64 80 65 82 66 48 67 85 68
REMARK SMILES IDX 79 69 78 70 49 72 71 73 56 74 70 75 57 76 60 77 69 78 83 79
REMARK SMILES IDX 58 80 59 81 68 83 84 84 61 85 50 86 51 87 55 88 52 89 54 90
REMARK SMILES IDX 53 91 72 92 73 93 77 94 74 95 76 96 75 97 62 98 63 99 67 100
REMARK SMILES IDX 64 101 66 102 65 103
REMARK H PARENT 23 10 17 15 3 20 8 35 20 41 26 44 82 71 60 82
REMARK Flexibility Score: inf
ROOT
ATOM      1  C   UNL     1       3.268  -5.069  -9.988  1.00  0.00     0.202 C 
ENDROOT
BRANCH   1   2
ATOM      2  C   UNL     1       4.285  -3.920  -9.927  1.00  0.00     0.261 C 
BRANCH   2   3
ATOM      3  O   UNL     1       4.919  -3.728  -8.633  1.00  0.00    -0.462 OA
BRANCH   3   4
ATOM      4  C   UNL     1       5.614  -2.548  -8.543  1.00  0.00     0.331 C 
ATOM      5  O   UNL     1       5.593  -1.693  -9.427  1.00  0.00    -0.250 OA
BRANCH   4   6
ATOM      6  C   UNL     1       6.387  -2.310  -7.207  1.00  0.00     0.218 C 
BRANCH   6   7
ATOM      7  N   UNL     1       6.362  -3.334  -6.130  1.00  0.00    -0.339 N 
ATOM      8  C   UNL     1       6.319  -3.115  -4.767  1.00  0.00     0.244 C 
ATOM      9  O   UNL     1       7.349  -3.484  -4.174  1.00  0.00    -0.273 OA
ATOM     10  H   UNL     1       6.378  -4.274  -6.421  1.00  0.00     0.164 HD
BRANCH   8  11
ATOM     11  C   UNL     1       4.951  -2.499  -3.763  1.00  0.00     0.181 C 
BRANCH  11  12
ATOM     12  N   UNL     1       5.859  -1.267  -2.929  1.00  0.00    -0.342 N 
ATOM     13  C   UNL     1       5.920  -0.633  -1.692  1.00  0.00     0.243 C 
ATOM     14  O   UNL     1       6.736   0.306  -1.645  1.00  0.00    -0.273 OA
ATOM     15  H   UNL     1       6.553  -0.902  -3.525  1.00  0.00     0.164 HD
BRANCH  13  16
ATOM     16  C   UNL     1       4.997  -0.860  -0.369  1.00  0.00     0.176 C 
BRANCH  16  17
ATOM     17  N   UNL     1       3.606  -0.311  -0.310  1.00  0.00    -0.340 N 
ATOM     18  O   UNL     1       1.716   0.684   0.314  1.00  0.00    -0.269 OA
ATOM     19  C   UNL     1       2.933   0.596   0.436  1.00  0.00     0.251 C 
ATOM     20  H   UNL     1       3.027  -0.717  -0.996  1.00  0.00     0.164 HD
BRANCH  19  21
ATOM     21  C   UNL     1       3.625   1.383   1.444  1.00  0.00     0.040 A 
ATOM     22  C   UNL     1       4.751   2.135   1.113  1.00  0.00     0.017 A 
ATOM     23  C   UNL     1       3.112   1.357   2.745  1.00  0.00     0.017 A 
ATOM     24  C   UNL     1       5.417   2.818   2.124  1.00  0.00     0.040 A 
ATOM     25  C   UNL     1       3.784   2.039   3.751  1.00  0.00     0.040 A 
ATOM     26  C   UNL     1       4.938   2.751   3.432  1.00  0.00     0.123 A 
ATOM     27  F   UNL     1       5.605   3.382   4.406  1.00  0.00    -0.207 F 
ENDBRANCH  19  21
ENDBRANCH  16  17
BRANCH  16  28
ATOM     28  C   UNL     1       4.919  -2.317   0.069  1.00  0.00     0.072 C 
BRANCH  28  29
ATOM     29  C   UNL     1       4.060  -3.114  -0.856  1.00  0.00    -0.020 A 
ATOM     30  C   UNL     1       3.907  -4.496  -0.785  1.00  0.00     0.087 A 
ATOM     31  C   UNL     1       3.586  -2.641  -2.127  1.00  0.00     0.003 A 
ATOM     32  N   UNL     1       3.624  -5.076  -2.008  1.00  0.00    -0.361 N 
ATOM     33  C   UNL     1       3.700  -4.133  -2.998  1.00  0.00     0.046 A 
ATOM     34  C   UNL     1       3.608  -1.048  -3.039  1.00  0.00     0.010 A 
ATOM     35  H   UNL     1       3.401  -6.025  -2.147  1.00  0.00     0.166 HD
ATOM     36  C   UNL     1       3.975  -4.125  -4.746  1.00  0.00     0.026 A 
ATOM     37  C   UNL     1       3.934  -1.014  -4.787  1.00  0.00     0.001 A 
ATOM     38  C   UNL     1       4.027  -2.564  -5.637  1.00  0.00     0.002 A 
ENDBRANCH  28  29
ENDBRANCH  16  28
ENDBRANCH  13  16
ENDBRANCH  11  12
BRANCH  11  39
ATOM     39  C   UNL     1       2.774  -2.553  -4.068  1.00  0.00     0.101 C 
BRANCH  39  40
ATOM     40  S   UNL     1       1.389  -1.744  -5.543  1.00  0.00    -0.177 SA
ATOM     41  H   UNL     1       1.173  -0.425  -5.288  1.00  0.00     0.102 HD
ENDBRANCH  39  40
ENDBRANCH  11  39
ENDBRANCH   8  11
ENDBRANCH   6   7
BRANCH   6  42
ATOM     42  C   UNL     1       7.847  -2.033  -7.589  1.00  0.00     0.193 C 
BRANCH  42  43
ATOM     43  O   UNL     1       8.514  -3.264  -7.874  1.00  0.00    -0.394 OA
ATOM     44  H   UNL     1       8.493  -3.833  -7.089  1.00  0.00     0.210 HD
ENDBRANCH  42  43
ENDBRANCH   6  42
ENDBRANCH   4   6
ENDBRANCH   3   4
ENDBRANCH   2   3
ENDBRANCH   1   2
BRANCH   1  45
ATOM     45  O   UNL     1       1.930  -4.746  -9.616  1.00  0.00    -0.376 OA
BRANCH  45  46
ATOM     46  C   UNL     1       1.664  -4.445  -8.256  1.00  0.00     0.188 C 
BRANCH  46  47
ATOM     47  C   UNL     1       2.388  -5.277  -7.199  1.00  0.00     0.188 C 
BRANCH  47  48
ATOM     48  O   UNL     1       2.587  -6.672  -7.372  1.00  0.00    -0.376 OA
BRANCH  48  49
ATOM     49  C   UNL     1       1.471  -7.434  -7.804  1.00  0.00     0.202 C 
BRANCH  49  50
ATOM     50  C   UNL     1       0.393  -7.652  -6.741  1.00  0.00     0.261 C 
BRANCH  50  51
ATOM     51  O   UNL     1      -0.177  -6.422  -6.256  1.00  0.00    -0.460 OA
BRANCH  51  52
ATOM     52  C   UNL     1      -0.919  -6.580  -5.124  1.00  0.00     0.338 C 
ATOM     53  O   UNL     1      -1.161  -7.630  -4.554  1.00  0.00    -0.246 OA
BRANCH  52  54
ATOM     54  C   UNL     1      -1.347  -5.270  -4.588  1.00  0.00     0.060 A 
ATOM     55  C   UNL     1      -0.369  -4.403  -4.129  1.00  0.00     0.016 A 
ATOM     56  C   UNL     1      -2.689  -4.957  -4.363  1.00  0.00     0.016 A 
ATOM     57  C   UNL     1      -0.721  -3.217  -3.476  1.00  0.00     0.010 A 
ATOM     58  C   UNL     1      -3.041  -3.737  -3.743  1.00  0.00     0.010 A 
ATOM     59  C   UNL     1      -2.053  -2.840  -3.303  1.00  0.00    -0.014 A 
BRANCH  59  60
ATOM     60  C   UNL     1      -2.326  -1.609  -2.496  1.00  0.00     0.031 A 
ATOM     61  C   UNL     1      -2.756  -1.757  -1.066  1.00  0.00     0.074 A 
ATOM     62  C   UNL     1      -2.020  -0.367  -2.932  1.00  0.00     0.049 A 
ATOM     63  N   UNL     1      -3.114  -0.839  -0.205  1.00  0.00    -0.248 NA
ATOM     64  C   UNL     1      -2.781  -3.128  -0.539  1.00  0.00     0.031 C 
ATOM     65  C   UNL     1      -1.454  -0.047  -4.236  1.00  0.00     0.029 A 
ATOM     66  N   UNL     1      -2.091   0.855  -2.297  1.00  0.00    -0.354 N 
ATOM     67  C   UNL     1      -3.473  -1.525   0.945  1.00  0.00     0.074 A 
ATOM     68  C   UNL     1      -3.264  -2.934   0.677  1.00  0.00     0.031 C 
ATOM     69  C   UNL     1      -1.145   1.261  -4.276  1.00  0.00     0.029 A 
ATOM     70  C   UNL     1      -1.601   1.902  -3.044  1.00  0.00     0.049 A 
ATOM     71  H   UNL     1      -2.458   0.968  -1.391  1.00  0.00     0.167 HD
ATOM     72  C   UNL     1      -3.964  -1.033   2.108  1.00  0.00     0.031 A 
ATOM     73  C   UNL     1      -1.562   3.229  -2.793  1.00  0.00     0.031 A 
ATOM     74  C   UNL     1      -4.151   0.364   2.397  1.00  0.00     0.049 A 
ATOM     75  C   UNL     1      -2.184   3.763  -1.527  1.00  0.00     0.074 A 
ATOM     76  C   UNL     1      -4.720   0.946   3.517  1.00  0.00     0.029 A 
ATOM     77  N   UNL     1      -3.752   1.402   1.569  1.00  0.00    -0.354 N 
ATOM     78  N   UNL     1      -2.688   3.109  -0.510  1.00  0.00    -0.248 NA
ATOM     79  C   UNL     1      -2.276   5.228  -1.399  1.00  0.00     0.031 C 
ATOM     80  C   UNL     1      -4.717   2.335   3.341  1.00  0.00     0.029 A 
ATOM     81  C   UNL     1      -4.088   2.620   2.141  1.00  0.00     0.049 A 
ATOM     82  H   UNL     1      -3.298   1.291   0.703  1.00  0.00     0.167 HD
ATOM     83  C   UNL     1      -3.157   4.075   0.372  1.00  0.00     0.074 A 
ATOM     84  C   UNL     1      -2.847   5.363  -0.210  1.00  0.00     0.031 C 
ATOM     85  C   UNL     1      -3.803   3.905   1.552  1.00  0.00     0.031 A 
BRANCH  72  86
ATOM     86  C   UNL     1      -4.464  -2.050   3.092  1.00  0.00    -0.014 A 
ATOM     87  C   UNL     1      -3.599  -2.868   3.833  1.00  0.00     0.009 A 
ATOM     88  C   UNL     1      -5.851  -2.229   3.223  1.00  0.00     0.009 A 
ATOM     89  C   UNL     1      -4.115  -3.886   4.639  1.00  0.00     0.001 A 
ATOM     90  C   UNL     1      -6.364  -3.223   4.054  1.00  0.00     0.001 A 
ATOM     91  C   UNL     1      -5.495  -4.062   4.748  1.00  0.00     0.000 A 
ENDBRANCH  72  86
BRANCH  73  92
ATOM     92  C   UNL     1      -1.021   4.179  -3.811  1.00  0.00    -0.014 A 
ATOM     93  C   UNL     1       0.099   4.981  -3.538  1.00  0.00     0.009 A 
ATOM     94  C   UNL     1      -1.667   4.329  -5.049  1.00  0.00     0.009 A 
ATOM     95  C   UNL     1       0.548   5.917  -4.476  1.00  0.00     0.001 A 
ATOM     96  C   UNL     1      -1.193   5.236  -5.999  1.00  0.00     0.001 A 
ATOM     97  C   UNL     1      -0.092   6.037  -5.708  1.00  0.00     0.000 A 
ENDBRANCH  73  92
BRANCH  85  98
ATOM     98  C   UNL     1      -4.218   5.145   2.299  1.00  0.00    -0.014 A 
ATOM     99  C   UNL     1      -5.254   5.969   1.829  1.00  0.00     0.009 A 
ATOM    100  C   UNL     1      -3.577   5.486   3.500  1.00  0.00     0.009 A 
ATOM    101  C   UNL     1      -5.611   7.127   2.525  1.00  0.00     0.001 A 
ATOM    102  C   UNL     1      -3.955   6.628   4.209  1.00  0.00     0.001 A 
ATOM    103  C   UNL     1      -4.964   7.454   3.716  1.00  0.00     0.000 A 
ENDBRANCH  85  98
ENDBRANCH  59  60
ENDBRANCH  52  54
ENDBRANCH  51  52
ENDBRANCH  50  51
ENDBRANCH  49  50
ENDBRANCH  48  49
ENDBRANCH  47  48
ENDBRANCH  46  47
ENDBRANCH  45  46
ENDBRANCH   1  45
TORSDOF 29
