REMARK SMILES C[C@H]1Oc2ccccc2C=C1/C=C/C(=O)N[C@H](C(=O)OCCOCCOCCOC(=O)c1ccc(-c2c3nc(c(-c4ccccc4)c4ccc([nH]4)c(-c4ccccc4)c4nc(c(-c5ccccc5)c5ccc2[nH]5)C=C4)C=C3)cc1)c1ccccc1
REMARK SMILES IDX 24 1 23 2 22 3 21 4 20 5 18 6 19 7 17 8 16 9 14 10 15 11
REMARK SMILES IDX 13 13 12 14 11 15 1 16 2 17 3 18 4 19 10 20 5 21 9 22 6 23
REMARK SMILES IDX 8 24 7 25 80 26 81 27 85 28 82 29 84 30 83 31 25 32 26 33
REMARK SMILES IDX 27 34 28 35 29 36 30 37 31 38 32 39 33 40 79 41 34 42 78 43
REMARK SMILES IDX 35 44 36 45 37 46 72 47 38 48 77 49 71 50 73 51 39 52 76 53
REMARK SMILES IDX 70 54 69 55 40 57 62 58 47 59 61 60 48 61 51 62 60 63 74 64
REMARK SMILES IDX 49 65 50 66 59 68 75 69 52 70 41 71 42 72 46 73 43 74 45 75
REMARK SMILES IDX 44 76 63 77 64 78 68 79 65 80 67 81 66 82 53 83 54 84 58 85
REMARK SMILES IDX 55 86 57 87 56 88
REMARK H PARENT 16 12 73 56 51 67
REMARK Flexibility Score: inf
ROOT
ATOM      1  C   UNL     1       2.538  -5.750   4.910  1.00  0.00     0.188 C 
ENDROOT
BRANCH   1   2
ATOM      2  O   UNL     1       3.907  -5.565   5.250  1.00  0.00    -0.376 OA
BRANCH   2   3
ATOM      3  C   UNL     1       4.411  -4.273   5.525  1.00  0.00     0.202 C 
BRANCH   3   4
ATOM      4  C   UNL     1       4.443  -3.263   4.376  1.00  0.00     0.261 C 
BRANCH   4   5
ATOM      5  O   UNL     1       3.209  -3.084   3.660  1.00  0.00    -0.461 OA
BRANCH   5   6
ATOM      6  C   UNL     1       3.083  -3.783   2.491  1.00  0.00     0.333 C 
ATOM      7  O   UNL     1       3.885  -4.616   2.082  1.00  0.00    -0.249 OA
BRANCH   6   8
ATOM      8  C   UNL     1       1.822  -3.362   1.726  1.00  0.00     0.223 C 
BRANCH   8   9
ATOM      9  N   UNL     1       2.056  -3.646   0.307  1.00  0.00    -0.335 N 
ATOM     10  C   UNL     1       1.774  -2.911  -0.794  1.00  0.00     0.244 C 
ATOM     11  O   UNL     1       2.003  -3.353  -1.915  1.00  0.00    -0.270 OA
ATOM     12  H   UNL     1       2.489  -4.511   0.126  1.00  0.00     0.165 HD
BRANCH  10  13
ATOM     13  C   UNL     1       1.333  -1.514  -0.623  1.00  0.00     0.071 C 
ATOM     14  C   UNL     1       0.307  -1.143   0.155  1.00  0.00     0.013 C 
BRANCH  14  15
ATOM     15  C   UNL     1      -0.054   0.236   0.409  1.00  0.00    -0.007 C 
ATOM     16  C   UNL     1       1.057   0.679   2.661  1.00  0.00     0.058 C 
ATOM     17  C   UNL     1      -0.250   0.679   1.855  1.00  0.00     0.200 C 
ATOM     18  O   UNL     1      -0.849   1.977   2.051  1.00  0.00    -0.485 OA
ATOM     19  C   UNL     1      -1.048   2.776   0.964  1.00  0.00     0.127 A 
ATOM     20  C   UNL     1      -0.285   1.054  -0.623  1.00  0.00     0.019 C 
ATOM     21  C   UNL     1      -1.590   4.035   1.216  1.00  0.00     0.047 A 
ATOM     22  C   UNL     1      -0.771   2.389  -0.347  1.00  0.00     0.017 A 
ATOM     23  C   UNL     1      -1.856   4.906   0.159  1.00  0.00     0.004 A 
ATOM     24  C   UNL     1      -1.024   3.267  -1.404  1.00  0.00     0.012 A 
ATOM     25  C   UNL     1      -1.570   4.524  -1.150  1.00  0.00     0.001 A 
ENDBRANCH  14  15
ENDBRANCH  10  13
ENDBRANCH   8   9
BRANCH   8  26
ATOM     26  C   UNL     1       0.495  -3.998   2.144  1.00  0.00    -0.014 A 
ATOM     27  C   UNL     1       0.113  -5.270   1.682  1.00  0.00     0.006 A 
ATOM     28  C   UNL     1      -0.445  -3.268   2.900  1.00  0.00     0.006 A 
ATOM     29  C   UNL     1      -1.179  -5.757   1.907  1.00  0.00     0.000 A 
ATOM     30  C   UNL     1      -1.726  -3.773   3.151  1.00  0.00     0.000 A 
ATOM     31  C   UNL     1      -2.096  -5.013   2.644  1.00  0.00     0.000 A 
ENDBRANCH   8  26
ENDBRANCH   6   8
ENDBRANCH   5   6
ENDBRANCH   4   5
ENDBRANCH   3   4
ENDBRANCH   2   3
ENDBRANCH   1   2
BRANCH   1  32
ATOM     32  C   UNL     1       1.448  -4.769   5.389  1.00  0.00     0.188 C 
BRANCH  32  33
ATOM     33  O   UNL     1       1.796  -3.966   6.484  1.00  0.00    -0.376 OA
BRANCH  33  34
ATOM     34  C   UNL     1       1.411  -4.314   7.791  1.00  0.00     0.202 C 
BRANCH  34  35
ATOM     35  C   UNL     1       1.046  -5.738   8.250  1.00  0.00     0.261 C 
BRANCH  35  36
ATOM     36  O   UNL     1       1.112  -6.802   7.293  1.00  0.00    -0.460 OA
BRANCH  36  37
ATOM     37  C   UNL     1      -0.069  -7.297   6.851  1.00  0.00     0.338 C 
ATOM     38  O   UNL     1      -1.190  -6.905   7.149  1.00  0.00    -0.246 OA
BRANCH  37  39
ATOM     39  C   UNL     1       0.184  -8.297   5.792  1.00  0.00     0.060 A 
ATOM     40  C   UNL     1       0.715  -9.551   6.087  1.00  0.00     0.016 A 
ATOM     41  C   UNL     1      -0.140  -7.970   4.471  1.00  0.00     0.016 A 
ATOM     42  C   UNL     1       0.904 -10.479   5.052  1.00  0.00     0.010 A 
ATOM     43  C   UNL     1       0.065  -8.891   3.437  1.00  0.00     0.010 A 
ATOM     44  C   UNL     1       0.571 -10.165   3.718  1.00  0.00    -0.014 A 
BRANCH  44  45
ATOM     45  C   UNL     1       0.580 -11.222   2.668  1.00  0.00     0.031 A 
ATOM     46  C   UNL     1       1.613 -11.278   1.578  1.00  0.00     0.074 A 
ATOM     47  C   UNL     1      -0.398 -12.151   2.701  1.00  0.00     0.049 A 
ATOM     48  N   UNL     1       1.829 -12.236   0.708  1.00  0.00    -0.248 NA
ATOM     49  C   UNL     1       2.508 -10.121   1.427  1.00  0.00     0.031 C 
ATOM     50  C   UNL     1      -1.506 -12.162   3.657  1.00  0.00     0.029 A 
ATOM     51  N   UNL     1      -0.607 -13.273   1.935  1.00  0.00    -0.354 N 
ATOM     52  C   UNL     1       2.902 -11.816  -0.069  1.00  0.00     0.074 A 
ATOM     53  C   UNL     1       3.254 -10.488   0.389  1.00  0.00     0.031 C 
ATOM     54  C   UNL     1      -2.237 -13.271   3.468  1.00  0.00     0.029 A 
ATOM     55  C   UNL     1      -1.669 -14.037   2.361  1.00  0.00     0.049 A 
ATOM     56  H   UNL     1      -0.051 -13.508   1.157  1.00  0.00     0.167 HD
ATOM     57  C   UNL     1       3.547 -12.492  -1.051  1.00  0.00     0.031 A 
ATOM     58  C   UNL     1      -2.122 -15.234   1.938  1.00  0.00     0.031 A 
ATOM     59  C   UNL     1       3.181 -13.810  -1.512  1.00  0.00     0.049 A 
ATOM     60  C   UNL     1      -1.393 -15.951   0.834  1.00  0.00     0.074 A 
ATOM     61  C   UNL     1       3.822 -14.594  -2.458  1.00  0.00     0.029 A 
ATOM     62  N   UNL     1       2.083 -14.533  -1.076  1.00  0.00    -0.354 N 
ATOM     63  N   UNL     1      -0.298 -15.601   0.205  1.00  0.00    -0.248 NA
ATOM     64  C   UNL     1      -1.948 -17.242   0.398  1.00  0.00     0.031 C 
ATOM     65  C   UNL     1       3.073 -15.755  -2.648  1.00  0.00     0.029 A 
ATOM     66  C   UNL     1       2.012 -15.737  -1.759  1.00  0.00     0.049 A 
ATOM     67  H   UNL     1       1.447 -14.236  -0.386  1.00  0.00     0.167 HD
ATOM     68  C   UNL     1      -0.016 -16.641  -0.672  1.00  0.00     0.074 A 
ATOM     69  C   UNL     1      -1.040 -17.645  -0.480  1.00  0.00     0.031 C 
ATOM     70  C   UNL     1       1.003 -16.746  -1.559  1.00  0.00     0.031 A 
BRANCH  57  71
ATOM     71  C   UNL     1       4.766 -11.873  -1.686  1.00  0.00    -0.014 A 
ATOM     72  C   UNL     1       4.772 -11.566  -3.058  1.00  0.00     0.009 A 
ATOM     73  C   UNL     1       5.971 -11.789  -0.971  1.00  0.00     0.009 A 
ATOM     74  C   UNL     1       5.964 -11.229  -3.706  1.00  0.00     0.001 A 
ATOM     75  C   UNL     1       7.155 -11.424  -1.615  1.00  0.00     0.001 A 
ATOM     76  C   UNL     1       7.154 -11.161  -2.985  1.00  0.00     0.000 A 
ENDBRANCH  57  71
BRANCH  58  77
ATOM     77  C   UNL     1      -3.284 -15.868   2.621  1.00  0.00    -0.014 A 
ATOM     78  C   UNL     1      -4.563 -15.293   2.554  1.00  0.00     0.009 A 
ATOM     79  C   UNL     1      -3.112 -17.045   3.366  1.00  0.00     0.009 A 
ATOM     80  C   UNL     1      -5.638 -15.871   3.233  1.00  0.00     0.001 A 
ATOM     81  C   UNL     1      -4.197 -17.643   4.011  1.00  0.00     0.001 A 
ATOM     82  C   UNL     1      -5.457 -17.051   3.952  1.00  0.00     0.000 A 
ENDBRANCH  58  77
BRANCH  70  83
ATOM     83  C   UNL     1       1.101 -17.997  -2.393  1.00  0.00    -0.014 A 
ATOM     84  C   UNL     1       2.204 -18.853  -2.237  1.00  0.00     0.009 A 
ATOM     85  C   UNL     1       0.173 -18.268  -3.410  1.00  0.00     0.009 A 
ATOM     86  C   UNL     1       2.390 -19.937  -3.097  1.00  0.00     0.001 A 
ATOM     87  C   UNL     1       0.342 -19.375  -4.245  1.00  0.00     0.001 A 
ATOM     88  C   UNL     1       1.457 -20.200  -4.098  1.00  0.00     0.000 A 
ENDBRANCH  70  83
ENDBRANCH  44  45
ENDBRANCH  37  39
ENDBRANCH  36  37
ENDBRANCH  35  36
ENDBRANCH  34  35
ENDBRANCH  33  34
ENDBRANCH  32  33
ENDBRANCH   1  32
TORSDOF 21
