REMARK SMILES Cc1cnn(C2(C(=O)OCCOCCOCCOC(=O)c3ccc(-c4c5nc(c(-c6ccccc6)c6ccc([nH]6)c(-c6ccccc6)c6nc(c(-c7ccccc7)c7ccc4[nH]7)C=C6)C=C5)cc3)CCN(C(=O)c3cc4ccccc4[nH]3)CC2)c1
REMARK SMILES IDX 14 1 13 2 12 3 11 4 10 5 9 6 7 7 8 8 6 9 69 10 84 11 70 12
REMARK SMILES IDX 83 13 71 14 72 15 73 16 5 17 1 18 2 19 3 20 85 21 4 22 74 23
REMARK SMILES IDX 75 24 82 25 76 26 81 27 77 29 80 30 78 31 79 32 15 33 16 34
REMARK SMILES IDX 17 35 18 36 19 37 20 38 21 39 22 40 68 41 23 42 67 43 24 44
REMARK SMILES IDX 25 45 26 46 61 47 27 48 66 49 60 50 62 51 28 52 65 53 59 54
REMARK SMILES IDX 58 55 29 57 51 58 36 59 50 60 37 61 40 62 49 63 63 64 38 65
REMARK SMILES IDX 39 66 48 68 64 69 41 70 30 71 31 72 35 73 32 74 34 75 33 76
REMARK SMILES IDX 52 77 53 78 57 79 54 80 56 81 55 82 42 83 43 84 47 85 44 86
REMARK SMILES IDX 46 87 45 88
REMARK H PARENT 82 28 62 56 40 67
REMARK Flexibility Score: inf
ROOT
ATOM      1  C   UNL     1       1.303   0.962  -6.884  1.00  0.00     0.188 C 
ENDROOT
BRANCH   1   2
ATOM      2  C   UNL     1       0.010   0.219  -6.547  1.00  0.00     0.188 C 
BRANCH   2   3
ATOM      3  O   UNL     1      -0.941   0.195  -7.611  1.00  0.00    -0.376 OA
BRANCH   3   4
ATOM      4  C   UNL     1      -1.339   1.475  -8.099  1.00  0.00     0.202 C 
BRANCH   4   5
ATOM      5  C   UNL     1      -1.973   2.447  -7.082  1.00  0.00     0.261 C 
BRANCH   5   6
ATOM      6  O   UNL     1      -1.124   2.811  -5.966  1.00  0.00    -0.461 OA
BRANCH   6   7
ATOM      7  C   UNL     1      -1.558   2.494  -4.711  1.00  0.00     0.334 C 
ATOM      8  O   UNL     1      -2.683   2.047  -4.495  1.00  0.00    -0.249 OA
BRANCH   7   9
ATOM      9  C   UNL     1      -0.556   2.859  -3.573  1.00  0.00     0.163 C 
ATOM     10  C   UNL     1       0.741   3.549  -4.070  1.00  0.00     0.064 C 
ATOM     11  C   UNL     1      -1.415   3.849  -2.748  1.00  0.00     0.064 C 
ATOM     12  C   UNL     1       1.445   4.390  -3.002  1.00  0.00     0.123 C 
ATOM     13  C   UNL     1      -0.666   4.684  -1.735  1.00  0.00     0.123 C 
ATOM     14  N   UNL     1       0.517   5.293  -2.329  1.00  0.00    -0.337 N 
ATOM     15  C   UNL     1       0.779   6.665  -2.314  1.00  0.00     0.270 C 
ATOM     16  O   UNL     1       1.665   7.173  -2.995  1.00  0.00    -0.267 OA
BRANCH   9  17
ATOM     17  N   UNL     1      -0.212   1.647  -2.785  1.00  0.00    -0.255 N 
ATOM     18  C   UNL     1       0.986  -0.348   0.047  1.00  0.00     0.048 C 
ATOM     19  C   UNL     1       0.467   0.234  -1.210  1.00  0.00    -0.013 A 
ATOM     20  C   UNL     1      -0.034  -0.428  -2.341  1.00  0.00     0.138 A 
ATOM     21  C   UNL     1       0.385   1.567  -1.551  1.00  0.00     0.113 A 
ATOM     22  N   UNL     1      -0.388   0.416  -3.310  1.00  0.00    -0.180 NA
ENDBRANCH   9  17
BRANCH  15  23
ATOM     23  C   UNL     1      -0.104   7.477  -1.512  1.00  0.00     0.105 A 
ATOM     24  C   UNL     1      -0.377   7.439  -0.155  1.00  0.00     0.042 A 
ATOM     25  N   UNL     1      -0.874   8.481  -2.045  1.00  0.00    -0.351 N 
ATOM     26  C   UNL     1      -1.444   8.340   0.103  1.00  0.00     0.000 A 
ATOM     27  C   UNL     1      -1.760   8.956  -1.107  1.00  0.00     0.046 A 
ATOM     28  H   UNL     1      -0.802   8.814  -2.969  1.00  0.00     0.167 HD
ATOM     29  C   UNL     1      -2.190   8.672   1.250  1.00  0.00     0.010 A 
ATOM     30  C   UNL     1      -2.803   9.878  -1.236  1.00  0.00     0.026 A 
ATOM     31  C   UNL     1      -3.233   9.598   1.140  1.00  0.00     0.001 A 
ATOM     32  C   UNL     1      -3.537  10.186  -0.087  1.00  0.00     0.002 A 
ENDBRANCH  15  23
ENDBRANCH   7   9
ENDBRANCH   6   7
ENDBRANCH   5   6
ENDBRANCH   4   5
ENDBRANCH   3   4
ENDBRANCH   2   3
ENDBRANCH   1   2
BRANCH   1  33
ATOM     33  O   UNL     1       1.160   2.353  -7.119  1.00  0.00    -0.376 OA
BRANCH  33  34
ATOM     34  C   UNL     1       1.880   3.049  -8.139  1.00  0.00     0.202 C 
BRANCH  34  35
ATOM     35  C   UNL     1       2.787   2.391  -9.189  1.00  0.00     0.261 C 
BRANCH  35  36
ATOM     36  O   UNL     1       3.450   1.207  -8.800  1.00  0.00    -0.460 OA
BRANCH  36  37
ATOM     37  C   UNL     1       4.096   1.206  -7.623  1.00  0.00     0.338 C 
ATOM     38  O   UNL     1       4.447   2.171  -6.960  1.00  0.00    -0.246 OA
BRANCH  37  39
ATOM     39  C   UNL     1       4.303  -0.213  -7.293  1.00  0.00     0.060 A 
ATOM     40  C   UNL     1       5.314  -0.501  -6.388  1.00  0.00     0.016 A 
ATOM     41  C   UNL     1       3.678  -1.216  -8.069  1.00  0.00     0.016 A 
ATOM     42  C   UNL     1       5.946  -1.708  -6.535  1.00  0.00     0.010 A 
ATOM     43  C   UNL     1       4.303  -2.419  -8.214  1.00  0.00     0.010 A 
ATOM     44  C   UNL     1       5.509  -2.562  -7.555  1.00  0.00    -0.014 A 
BRANCH  44  45
ATOM     45  C   UNL     1       6.444  -3.537  -8.039  1.00  0.00     0.031 A 
ATOM     46  C   UNL     1       6.483  -4.764  -7.247  1.00  0.00     0.074 A 
ATOM     47  C   UNL     1       7.191  -3.306  -9.131  1.00  0.00     0.049 A 
ATOM     48  N   UNL     1       7.392  -5.096  -6.400  1.00  0.00    -0.248 NA
ATOM     49  C   UNL     1       5.296  -5.625  -7.263  1.00  0.00     0.031 C 
ATOM     50  C   UNL     1       7.042  -2.265 -10.153  1.00  0.00     0.029 A 
ATOM     51  N   UNL     1       8.209  -4.061  -9.604  1.00  0.00    -0.354 N 
ATOM     52  C   UNL     1       6.984  -6.317  -5.892  1.00  0.00     0.074 A 
ATOM     53  C   UNL     1       5.613  -6.494  -6.304  1.00  0.00     0.031 C 
ATOM     54  C   UNL     1       7.780  -2.610 -11.235  1.00  0.00     0.029 A 
ATOM     55  C   UNL     1       8.538  -3.811 -10.923  1.00  0.00     0.049 A 
ATOM     56  H   UNL     1       8.676  -4.732  -9.054  1.00  0.00     0.167 HD
ATOM     57  C   UNL     1       7.885  -7.201  -5.392  1.00  0.00     0.031 A 
ATOM     58  C   UNL     1       9.298  -4.617 -11.703  1.00  0.00     0.031 A 
ATOM     59  C   UNL     1       9.170  -6.589  -5.161  1.00  0.00     0.049 A 
ATOM     60  C   UNL     1      10.090  -5.496 -10.801  1.00  0.00     0.074 A 
ATOM     61  C   UNL     1       9.617  -5.545  -4.374  1.00  0.00     0.029 A 
ATOM     62  N   UNL     1      10.146  -6.796  -6.109  1.00  0.00    -0.354 N 
ATOM     63  N   UNL     1      11.051  -5.057 -10.038  1.00  0.00    -0.248 NA
ATOM     64  C   UNL     1       9.514  -6.772 -10.393  1.00  0.00     0.031 C 
ATOM     65  C   UNL     1      10.607  -4.886  -5.159  1.00  0.00     0.029 A 
ATOM     66  C   UNL     1      10.745  -5.588  -6.358  1.00  0.00     0.049 A 
ATOM     67  H   UNL     1      10.373  -7.656  -6.532  1.00  0.00     0.167 HD
ATOM     68  C   UNL     1      10.903  -5.748  -8.841  1.00  0.00     0.074 A 
ATOM     69  C   UNL     1      10.016  -6.866  -9.157  1.00  0.00     0.031 C 
ATOM     70  C   UNL     1      11.267  -5.187  -7.649  1.00  0.00     0.031 A 
BRANCH  57  71
ATOM     71  C   UNL     1       7.708  -8.687  -5.505  1.00  0.00    -0.014 A 
ATOM     72  C   UNL     1       8.645  -9.522  -4.876  1.00  0.00     0.009 A 
ATOM     73  C   UNL     1       6.822  -9.293  -6.416  1.00  0.00     0.009 A 
ATOM     74  C   UNL     1       8.728 -10.880  -5.195  1.00  0.00     0.001 A 
ATOM     75  C   UNL     1       6.871 -10.657  -6.702  1.00  0.00     0.001 A 
ATOM     76  C   UNL     1       7.845 -11.446  -6.111  1.00  0.00     0.000 A 
ENDBRANCH  57  71
BRANCH  58  77
ATOM     77  C   UNL     1       9.128  -4.885 -13.148  1.00  0.00    -0.014 A 
ATOM     78  C   UNL     1      10.113  -5.579 -13.867  1.00  0.00     0.009 A 
ATOM     79  C   UNL     1       7.883  -4.684 -13.774  1.00  0.00     0.009 A 
ATOM     80  C   UNL     1       9.846  -6.084 -15.147  1.00  0.00     0.001 A 
ATOM     81  C   UNL     1       7.619  -5.179 -15.055  1.00  0.00     0.001 A 
ATOM     82  C   UNL     1       8.597  -5.894 -15.735  1.00  0.00     0.000 A 
ENDBRANCH  58  77
BRANCH  70  83
ATOM     83  C   UNL     1      12.033  -3.886  -7.684  1.00  0.00    -0.014 A 
ATOM     84  C   UNL     1      11.514  -2.713  -8.264  1.00  0.00     0.009 A 
ATOM     85  C   UNL     1      13.236  -3.793  -6.968  1.00  0.00     0.009 A 
ATOM     86  C   UNL     1      12.195  -1.496  -8.158  1.00  0.00     0.001 A 
ATOM     87  C   UNL     1      13.904  -2.573  -6.843  1.00  0.00     0.001 A 
ATOM     88  C   UNL     1      13.387  -1.426  -7.442  1.00  0.00     0.000 A 
ENDBRANCH  70  83
ENDBRANCH  44  45
ENDBRANCH  37  39
ENDBRANCH  36  37
ENDBRANCH  35  36
ENDBRANCH  34  35
ENDBRANCH  33  34
ENDBRANCH   1  33
TORSDOF 19
