REMARK SMILES O=C(/C=C/c1ccc(O)c(O)c1)OCCOCCOCCOC(=O)c1ccc(-c2c3nc(c(-c4ccccc4)c4ccc([nH]4)c(-c4ccccc4)c4nc(c(-c5ccccc5)c5ccc2[nH]5)C=C4)C=C3)cc1
REMARK SMILES IDX 17 1 16 2 15 3 14 4 13 5 2 6 1 7 3 8 4 9 5 10 6 11 12 12
REMARK SMILES IDX 7 13 10 14 8 15 11 16 9 18 18 20 19 21 20 22 21 23 22 24
REMARK SMILES IDX 23 25 24 26 25 27 26 28 72 29 27 30 71 31 28 32 29 33 30 34
REMARK SMILES IDX 65 35 31 36 70 37 64 38 66 39 32 40 69 41 63 42 62 43 33 45
REMARK SMILES IDX 55 46 40 47 54 48 41 49 44 50 53 51 67 52 42 53 43 54 52 56
REMARK SMILES IDX 68 57 45 58 34 59 35 60 39 61 36 62 38 63 37 64 56 65 57 66
REMARK SMILES IDX 61 67 58 68 60 69 59 70 46 71 47 72 51 73 48 74 50 75 49 76
REMARK H PARENT 11 17 9 19 66 44 44 55
REMARK Flexibility Score: inf
ROOT
ATOM      1  C   UNL     1       2.879   1.543  -0.438  1.00  0.00     0.188 C 
ENDROOT
BRANCH   1   2
ATOM      2  O   UNL     1       4.280   1.505  -0.250  1.00  0.00    -0.376 OA
BRANCH   2   3
ATOM      3  C   UNL     1       5.028   0.384  -0.709  1.00  0.00     0.202 C 
BRANCH   3   4
ATOM      4  C   UNL     1       4.357  -0.876  -1.253  1.00  0.00     0.261 C 
BRANCH   4   5
ATOM      5  O   UNL     1       3.423  -1.679  -0.479  1.00  0.00    -0.460 OA
BRANCH   5   6
ATOM      6  C   UNL     1       2.930  -1.638   0.768  1.00  0.00     0.330 C 
ATOM      7  O   UNL     1       1.898  -2.239   1.055  1.00  0.00    -0.247 OA
BRANCH   6   8
ATOM      8  C   UNL     1       3.579  -0.841   1.802  1.00  0.00     0.094 C 
ATOM      9  C   UNL     1       4.851  -1.025   2.172  1.00  0.00     0.016 C 
BRANCH   9  10
ATOM     10  C   UNL     1       5.425  -0.234   3.261  1.00  0.00    -0.021 A 
ATOM     11  C   UNL     1       5.054  -0.486   4.591  1.00  0.00     0.012 A 
ATOM     12  C   UNL     1       6.340   0.785   2.978  1.00  0.00     0.058 A 
ATOM     13  C   UNL     1       5.612   0.257   5.636  1.00  0.00     0.051 A 
ATOM     14  C   UNL     1       6.888   1.516   4.021  1.00  0.00     0.157 A 
ATOM     15  C   UNL     1       6.537   1.251   5.341  1.00  0.00     0.157 A 
BRANCH  14  16
ATOM     16  O   UNL     1       7.790   2.503   3.740  1.00  0.00    -0.504 OA
ATOM     17  H   UNL     1       8.168   3.005   4.435  1.00  0.00     0.293 HD
ENDBRANCH  14  16
BRANCH  15  18
ATOM     18  O   UNL     1       7.137   1.994   6.319  1.00  0.00    -0.504 OA
ATOM     19  H   UNL     1       6.926   1.843   7.219  1.00  0.00     0.293 HD
ENDBRANCH  15  18
ENDBRANCH   9  10
ENDBRANCH   6   8
ENDBRANCH   5   6
ENDBRANCH   4   5
ENDBRANCH   3   4
ENDBRANCH   2   3
ENDBRANCH   1   2
BRANCH   1  20
ATOM     20  C   UNL     1       2.335   2.478  -1.526  1.00  0.00     0.188 C 
BRANCH  20  21
ATOM     21  O   UNL     1       3.135   2.717  -2.670  1.00  0.00    -0.376 OA
BRANCH  21  22
ATOM     22  C   UNL     1       4.349   3.446  -2.491  1.00  0.00     0.202 C 
BRANCH  22  23
ATOM     23  C   UNL     1       4.307   4.792  -1.754  1.00  0.00     0.261 C 
BRANCH  23  24
ATOM     24  O   UNL     1       3.971   4.673  -0.357  1.00  0.00    -0.460 OA
BRANCH  24  25
ATOM     25  C   UNL     1       2.938   5.449   0.047  1.00  0.00     0.338 C 
ATOM     26  O   UNL     1       2.271   6.209  -0.635  1.00  0.00    -0.246 OA
BRANCH  25  27
ATOM     27  C   UNL     1       2.599   5.189   1.457  1.00  0.00     0.060 A 
ATOM     28  C   UNL     1       1.320   4.696   1.744  1.00  0.00     0.016 A 
ATOM     29  C   UNL     1       3.444   5.613   2.484  1.00  0.00     0.016 A 
ATOM     30  C   UNL     1       0.861   4.678   3.061  1.00  0.00     0.010 A 
ATOM     31  C   UNL     1       2.977   5.603   3.804  1.00  0.00     0.010 A 
ATOM     32  C   UNL     1       1.669   5.178   4.093  1.00  0.00    -0.014 A 
BRANCH  32  33
ATOM     33  C   UNL     1       1.078   5.402   5.436  1.00  0.00     0.031 A 
ATOM     34  C   UNL     1       0.545   6.767   5.787  1.00  0.00     0.074 A 
ATOM     35  C   UNL     1       0.967   4.395   6.320  1.00  0.00     0.049 A 
ATOM     36  N   UNL     1      -0.033   7.173   6.890  1.00  0.00    -0.248 NA
ATOM     37  C   UNL     1       0.676   7.809   4.756  1.00  0.00     0.031 C 
ATOM     38  C   UNL     1       1.403   3.018   6.095  1.00  0.00     0.029 A 
ATOM     39  N   UNL     1       0.444   4.383   7.589  1.00  0.00    -0.354 N 
ATOM     40  C   UNL     1      -0.342   8.512   6.682  1.00  0.00     0.074 A 
ATOM     41  C   UNL     1       0.142   8.859   5.363  1.00  0.00     0.031 C 
ATOM     42  C   UNL     1       1.127   2.292   7.193  1.00  0.00     0.029 A 
ATOM     43  C   UNL     1       0.520   3.158   8.203  1.00  0.00     0.049 A 
ATOM     44  H   UNL     1       0.051   5.178   8.018  1.00  0.00     0.167 HD
ATOM     45  C   UNL     1      -0.980   9.377   7.508  1.00  0.00     0.031 A 
ATOM     46  C   UNL     1       0.151   2.781   9.442  1.00  0.00     0.031 A 
ATOM     47  C   UNL     1      -1.443   9.053   8.830  1.00  0.00     0.049 A 
ATOM     48  C   UNL     1      -0.482   3.781  10.372  1.00  0.00     0.074 A 
ATOM     49  C   UNL     1      -2.089   9.869   9.743  1.00  0.00     0.029 A 
ATOM     50  N   UNL     1      -1.304   7.813   9.431  1.00  0.00    -0.354 N 
ATOM     51  N   UNL     1      -0.781   5.039  10.156  1.00  0.00    -0.248 NA
ATOM     52  C   UNL     1      -0.836   3.302  11.717  1.00  0.00     0.031 C 
ATOM     53  C   UNL     1      -2.304   9.132  10.913  1.00  0.00     0.029 A 
ATOM     54  C   UNL     1      -1.834   7.846  10.709  1.00  0.00     0.049 A 
ATOM     55  H   UNL     1      -0.889   7.025   9.011  1.00  0.00     0.167 HD
ATOM     56  C   UNL     1      -1.380   5.492  11.325  1.00  0.00     0.074 A 
ATOM     57  C   UNL     1      -1.414   4.373  12.242  1.00  0.00     0.031 C 
ATOM     58  C   UNL     1      -1.861   6.726  11.613  1.00  0.00     0.031 A 
BRANCH  45  59
ATOM     59  C   UNL     1      -1.194  10.775   7.004  1.00  0.00    -0.014 A 
ATOM     60  C   UNL     1      -2.171  11.051   6.035  1.00  0.00     0.009 A 
ATOM     61  C   UNL     1      -0.435  11.833   7.526  1.00  0.00     0.009 A 
ATOM     62  C   UNL     1      -2.364  12.356   5.578  1.00  0.00     0.001 A 
ATOM     63  C   UNL     1      -0.644  13.140   7.083  1.00  0.00     0.001 A 
ATOM     64  C   UNL     1      -1.603  13.399   6.105  1.00  0.00     0.000 A 
ENDBRANCH  45  59
BRANCH  46  65
ATOM     65  C   UNL     1       0.389   1.387   9.896  1.00  0.00    -0.014 A 
ATOM     66  C   UNL     1      -0.683   0.502  10.085  1.00  0.00     0.009 A 
ATOM     67  C   UNL     1       1.692   0.950  10.181  1.00  0.00     0.009 A 
ATOM     68  C   UNL     1      -0.457  -0.786  10.576  1.00  0.00     0.001 A 
ATOM     69  C   UNL     1       1.917  -0.346  10.647  1.00  0.00     0.001 A 
ATOM     70  C   UNL     1       0.842  -1.209  10.854  1.00  0.00     0.000 A 
ENDBRANCH  46  65
BRANCH  58  71
ATOM     71  C   UNL     1      -2.492   6.922  12.962  1.00  0.00    -0.014 A 
ATOM     72  C   UNL     1      -1.712   7.005  14.125  1.00  0.00     0.009 A 
ATOM     73  C   UNL     1      -3.886   7.057  13.065  1.00  0.00     0.009 A 
ATOM     74  C   UNL     1      -2.319   7.188  15.370  1.00  0.00     0.001 A 
ATOM     75  C   UNL     1      -4.487   7.263  14.307  1.00  0.00     0.001 A 
ATOM     76  C   UNL     1      -3.704   7.320  15.459  1.00  0.00     0.000 A 
ENDBRANCH  58  71
ENDBRANCH  32  33
ENDBRANCH  25  27
ENDBRANCH  24  25
ENDBRANCH  23  24
ENDBRANCH  22  23
ENDBRANCH  21  22
ENDBRANCH  20  21
ENDBRANCH   1  20
TORSDOF 20
