REMARK SMILES C=CCN1C(=O)/C(=C/c2ccccn2)S/C1=[NH+]\c1ccc(C(=O)OCCOCCOCCOC(=O)c2ccc(-c3c4nc(c(-c5ccccc5)c5ccc([nH]5)c(-c5ccccc5)c5nc(c(-c6ccccc6)c6ccc3[nH]6)C=C5)C=C4)cc2)cc1
REMARK SMILES IDX 28 1 27 2 26 3 25 4 24 5 22 6 23 7 21 8 18 9 19 10 85 11
REMARK SMILES IDX 20 12 84 13 17 14 4 15 5 16 16 17 6 18 7 19 15 20 8 21 3 23
REMARK SMILES IDX 2 24 1 25 9 26 10 27 14 28 11 29 13 30 12 31 29 32 30 33
REMARK SMILES IDX 31 34 32 35 33 36 34 37 35 38 36 39 37 40 83 41 38 42 82 43
REMARK SMILES IDX 39 44 40 45 41 46 76 47 42 48 81 49 75 50 77 51 43 52 80 53
REMARK SMILES IDX 74 54 73 55 44 57 66 58 51 59 65 60 52 61 55 62 64 63 78 64
REMARK SMILES IDX 53 65 54 66 63 68 79 69 56 70 45 71 46 72 50 73 47 74 49 75
REMARK SMILES IDX 48 76 67 77 68 78 72 79 69 80 71 81 70 82 57 83 58 84 62 85
REMARK SMILES IDX 59 86 61 87 60 88
REMARK H PARENT 17 22 77 56 55 67
REMARK Flexibility Score: inf
ROOT
ATOM      1  C   UNL     1      -6.906   0.788   7.210  1.00  0.00     0.188 C 
ENDROOT
BRANCH   1   2
ATOM      2  O   UNL     1      -7.439   1.437   8.352  1.00  0.00    -0.376 OA
BRANCH   2   3
ATOM      3  C   UNL     1      -7.933   2.764   8.251  1.00  0.00     0.202 C 
BRANCH   3   4
ATOM      4  C   UNL     1      -7.078   3.866   7.618  1.00  0.00     0.261 C 
BRANCH   4   5
ATOM      5  O   UNL     1      -6.566   3.530   6.321  1.00  0.00    -0.460 OA
BRANCH   5   6
ATOM      6  C   UNL     1      -5.215   3.496   6.234  1.00  0.00     0.338 C 
ATOM      7  O   UNL     1      -4.417   3.791   7.111  1.00  0.00    -0.246 OA
BRANCH   6   8
ATOM      8  C   UNL     1      -4.787   2.885   4.955  1.00  0.00     0.060 A 
ATOM      9  C   UNL     1      -3.722   1.862   2.580  1.00  0.00     0.125 A 
ATOM     10  C   UNL     1      -3.127   1.552   3.803  1.00  0.00     0.052 A 
ATOM     11  C   UNL     1      -4.930   2.577   2.565  1.00  0.00     0.052 A 
ATOM     12  C   UNL     1      -3.650   2.068   4.986  1.00  0.00     0.020 A 
ATOM     13  C   UNL     1      -5.455   3.109   3.748  1.00  0.00     0.020 A 
BRANCH   9  14
ATOM     14  N   UNL     1      -3.038   1.532   1.397  1.00  0.00    -0.234 N 
ATOM     15  N   UNL     1      -1.716   2.295  -0.399  1.00  0.00    -0.182 N 
ATOM     16  C   UNL     1      -1.359   3.434  -1.097  1.00  0.00     0.349 C 
ATOM     17  C   UNL     1      -2.439   2.483   0.750  1.00  0.00     0.324 C 
ATOM     18  O   UNL     1      -0.819   3.474  -2.195  1.00  0.00    -0.240 OA
ATOM     19  C   UNL     1      -1.732   4.647  -0.322  1.00  0.00     0.111 C 
ATOM     20  S   UNL     1      -2.429   4.187   1.172  1.00  0.00     0.007 SA
ATOM     21  C   UNL     1      -1.568   5.890  -0.793  1.00  0.00     0.052 C 
ATOM     22  H   UNL     1      -3.014   0.604   1.069  1.00  0.00     0.313 HD
BRANCH  15  23
ATOM     23  C   UNL     1      -1.369   0.981  -0.910  1.00  0.00     0.275 C 
BRANCH  23  24
ATOM     24  C   UNL     1       0.123   0.796  -0.799  1.00  0.00     0.011 C 
ATOM     25  C   UNL     1       0.747  -0.051   0.030  1.00  0.00     0.008 C 
ENDBRANCH  23  24
ENDBRANCH  15  23
BRANCH  21  26
ATOM     26  C   UNL     1      -1.956   7.124  -0.109  1.00  0.00     0.064 A 
ATOM     27  C   UNL     1      -1.496   7.454   1.163  1.00  0.00     0.028 A 
ATOM     28  N   UNL     1      -2.771   7.932  -0.823  1.00  0.00    -0.257 NA
ATOM     29  C   UNL     1      -1.928   8.641   1.747  1.00  0.00     0.004 A 
ATOM     30  C   UNL     1      -3.173   9.079  -0.232  1.00  0.00     0.111 A 
ATOM     31  C   UNL     1      -2.788   9.471   1.039  1.00  0.00     0.020 A 
ENDBRANCH  21  26
ENDBRANCH   9  14
ENDBRANCH   6   8
ENDBRANCH   5   6
ENDBRANCH   4   5
ENDBRANCH   3   4
ENDBRANCH   2   3
ENDBRANCH   1   2
BRANCH   1  32
ATOM     32  C   UNL     1      -7.684   0.754   5.878  1.00  0.00     0.188 C 
BRANCH  32  33
ATOM     33  O   UNL     1      -8.935   1.392   5.788  1.00  0.00    -0.376 OA
BRANCH  33  34
ATOM     34  C   UNL     1     -10.100   0.835   6.370  1.00  0.00     0.202 C 
BRANCH  34  35
ATOM     35  C   UNL     1     -10.253  -0.604   6.891  1.00  0.00     0.261 C 
BRANCH  35  36
ATOM     36  O   UNL     1      -9.065  -1.326   7.211  1.00  0.00    -0.460 OA
BRANCH  36  37
ATOM     37  C   UNL     1      -8.757  -2.329   6.353  1.00  0.00     0.338 C 
ATOM     38  O   UNL     1      -9.346  -2.647   5.335  1.00  0.00    -0.246 OA
BRANCH  37  39
ATOM     39  C   UNL     1      -7.468  -2.913   6.753  1.00  0.00     0.060 A 
ATOM     40  C   UNL     1      -6.379  -2.790   5.881  1.00  0.00     0.016 A 
ATOM     41  C   UNL     1      -7.349  -3.615   7.954  1.00  0.00     0.016 A 
ATOM     42  C   UNL     1      -5.165  -3.396   6.200  1.00  0.00     0.010 A 
ATOM     43  C   UNL     1      -6.138  -4.237   8.261  1.00  0.00     0.010 A 
ATOM     44  C   UNL     1      -5.050  -4.153   7.373  1.00  0.00    -0.014 A 
BRANCH  44  45
ATOM     45  C   UNL     1      -3.852  -4.994   7.593  1.00  0.00     0.031 A 
ATOM     46  C   UNL     1      -3.909  -6.446   7.206  1.00  0.00     0.074 A 
ATOM     47  C   UNL     1      -2.729  -4.479   8.123  1.00  0.00     0.049 A 
ATOM     48  N   UNL     1      -3.002  -7.378   7.348  1.00  0.00    -0.248 NA
ATOM     49  C   UNL     1      -5.156  -6.906   6.573  1.00  0.00     0.031 C 
ATOM     50  C   UNL     1      -2.533  -3.081   8.501  1.00  0.00     0.029 A 
ATOM     51  N   UNL     1      -1.541  -5.087   8.442  1.00  0.00    -0.354 N 
ATOM     52  C   UNL     1      -3.570  -8.534   6.830  1.00  0.00     0.074 A 
ATOM     53  C   UNL     1      -4.907  -8.194   6.394  1.00  0.00     0.031 C 
ATOM     54  C   UNL     1      -1.298  -2.940   9.014  1.00  0.00     0.029 A 
ATOM     55  C   UNL     1      -0.633  -4.242   9.029  1.00  0.00     0.049 A 
ATOM     56  H   UNL     1      -1.358  -6.038   8.267  1.00  0.00     0.167 HD
ATOM     57  C   UNL     1      -3.027  -9.770   6.722  1.00  0.00     0.031 A 
ATOM     58  C   UNL     1       0.586  -4.497   9.542  1.00  0.00     0.031 A 
ATOM     59  C   UNL     1      -1.707 -10.117   7.176  1.00  0.00     0.049 A 
ATOM     60  C   UNL     1       1.135  -5.899   9.490  1.00  0.00     0.074 A 
ATOM     61  C   UNL     1      -1.065 -11.341   7.102  1.00  0.00     0.029 A 
ATOM     62  N   UNL     1      -0.833  -9.242   7.799  1.00  0.00    -0.354 N 
ATOM     63  N   UNL     1       0.601  -6.979   8.972  1.00  0.00    -0.248 NA
ATOM     64  C   UNL     1       2.459  -6.114  10.092  1.00  0.00     0.031 C 
ATOM     65  C   UNL     1       0.178 -11.219   7.731  1.00  0.00     0.029 A 
ATOM     66  C   UNL     1       0.333  -9.905   8.141  1.00  0.00     0.049 A 
ATOM     67  H   UNL     1      -1.014  -8.290   7.973  1.00  0.00     0.167 HD
ATOM     68  C   UNL     1       1.535  -7.992   9.158  1.00  0.00     0.074 A 
ATOM     69  C   UNL     1       2.673  -7.395   9.825  1.00  0.00     0.031 C 
ATOM     70  C   UNL     1       1.458  -9.298   8.804  1.00  0.00     0.031 A 
BRANCH  57  71
ATOM     71  C   UNL     1      -3.883 -10.847   6.120  1.00  0.00    -0.014 A 
ATOM     72  C   UNL     1      -4.176 -10.862   4.747  1.00  0.00     0.009 A 
ATOM     73  C   UNL     1      -4.385 -11.873   6.934  1.00  0.00     0.009 A 
ATOM     74  C   UNL     1      -4.983 -11.868   4.209  1.00  0.00     0.001 A 
ATOM     75  C   UNL     1      -5.168 -12.892   6.389  1.00  0.00     0.001 A 
ATOM     76  C   UNL     1      -5.473 -12.883   5.029  1.00  0.00     0.000 A 
ENDBRANCH  57  71
BRANCH  58  77
ATOM     77  C   UNL     1       1.372  -3.406  10.175  1.00  0.00    -0.014 A 
ATOM     78  C   UNL     1       2.543  -2.924   9.572  1.00  0.00     0.009 A 
ATOM     79  C   UNL     1       0.968  -2.860  11.404  1.00  0.00     0.009 A 
ATOM     80  C   UNL     1       3.307  -1.936  10.199  1.00  0.00     0.001 A 
ATOM     81  C   UNL     1       1.718  -1.853  12.014  1.00  0.00     0.001 A 
ATOM     82  C   UNL     1       2.891  -1.399  11.416  1.00  0.00     0.000 A 
ENDBRANCH  58  77
BRANCH  70  83
ATOM     83  C   UNL     1       2.652 -10.165   9.093  1.00  0.00    -0.014 A 
ATOM     84  C   UNL     1       2.967 -10.564  10.401  1.00  0.00     0.009 A 
ATOM     85  C   UNL     1       3.447 -10.627   8.032  1.00  0.00     0.009 A 
ATOM     86  C   UNL     1       4.072 -11.383  10.642  1.00  0.00     0.001 A 
ATOM     87  C   UNL     1       4.533 -11.469   8.273  1.00  0.00     0.001 A 
ATOM     88  C   UNL     1       4.851 -11.839   9.578  1.00  0.00     0.000 A 
ENDBRANCH  70  83
ENDBRANCH  44  45
ENDBRANCH  37  39
ENDBRANCH  36  37
ENDBRANCH  35  36
ENDBRANCH  34  35
ENDBRANCH  33  34
ENDBRANCH  32  33
ENDBRANCH   1  32
TORSDOF 21
