REMARK SMILES O=C(Cn1c(-c2nc(-c3ccc(C(F)(F)F)cc3)no2)cc2ccccc21)OCCOCCOCCOC(=O)c1ccc(-c2c3nc(c(-c4ccccc4)c4ccc([nH]4)c(-c4ccccc4)c4nc(c(-c5ccccc5)c5ccc2[nH]5)C=C4)C=C3)cc1
REMARK SMILES IDX 32 1 31 2 30 3 29 4 28 5 2 6 1 7 3 8 4 9 5 10 27 11 21 12
REMARK SMILES IDX 22 13 26 14 23 15 25 16 24 17 6 18 7 19 20 20 8 21 19 22
REMARK SMILES IDX 9 23 10 24 18 25 11 26 17 27 12 28 13 29 14 30 15 31 16 32
REMARK SMILES IDX 33 33 34 34 35 35 36 36 37 37 38 38 39 39 40 40 41 41 87 42
REMARK SMILES IDX 42 43 86 44 43 45 44 46 45 47 80 48 46 49 85 50 79 51 81 52
REMARK SMILES IDX 47 53 84 54 78 55 77 56 48 58 70 59 55 60 69 61 56 62 59 63
REMARK SMILES IDX 68 64 82 65 57 66 58 67 67 69 83 70 60 71 49 72 50 73 54 74
REMARK SMILES IDX 51 75 53 76 52 77 71 78 72 79 76 80 73 81 75 82 74 83 61 84
REMARK SMILES IDX 62 85 66 86 63 87 65 88 64 89
REMARK H PARENT 81 57 59 68
REMARK Flexibility Score: inf
ROOT
ATOM      1  C   UNL     1       3.945  -1.307   1.637  1.00  0.00     0.188 C 
ENDROOT
BRANCH   1   2
ATOM      2  O   UNL     1       5.132  -0.535   1.781  1.00  0.00    -0.376 OA
BRANCH   2   3
ATOM      3  C   UNL     1       5.529   0.098   0.572  1.00  0.00     0.202 C 
BRANCH   3   4
ATOM      4  C   UNL     1       4.971   1.510   0.558  1.00  0.00     0.261 C 
BRANCH   4   5
ATOM      5  O   UNL     1       3.527   1.589   0.684  1.00  0.00    -0.462 OA
BRANCH   5   6
ATOM      6  C   UNL     1       2.532   1.077  -0.065  1.00  0.00     0.326 C 
ATOM      7  O   UNL     1       1.428   0.932   0.468  1.00  0.00    -0.250 OA
BRANCH   6   8
ATOM      8  C   UNL     1       2.735   0.594  -1.476  1.00  0.00     0.245 C 
BRANCH   8   9
ATOM      9  N   UNL     1       3.797   1.189  -2.274  1.00  0.00    -0.325 N 
ATOM     10  C   UNL     1       4.053   2.539  -2.402  1.00  0.00     0.109 A 
ATOM     11  C   UNL     1       4.704   0.451  -3.025  1.00  0.00     0.049 A 
ATOM     12  C   UNL     1       5.181   2.661  -3.191  1.00  0.00     0.042 A 
ATOM     13  C   UNL     1       5.583   1.364  -3.608  1.00  0.00     0.000 A 
ATOM     14  C   UNL     1       4.840  -0.935  -3.237  1.00  0.00     0.027 A 
ATOM     15  C   UNL     1       6.625   0.887  -4.429  1.00  0.00     0.010 A 
ATOM     16  C   UNL     1       5.889  -1.386  -4.045  1.00  0.00     0.002 A 
ATOM     17  C   UNL     1       6.769  -0.488  -4.637  1.00  0.00     0.001 A 
BRANCH  10  18
ATOM     18  C   UNL     1       3.363   3.572  -1.685  1.00  0.00     0.274 A 
ATOM     19  N   UNL     1       2.090   3.541  -1.343  1.00  0.00    -0.185 NA
ATOM     20  O   UNL     1       4.031   4.614  -1.106  1.00  0.00    -0.332 OA
ATOM     21  C   UNL     1       1.975   4.609  -0.471  1.00  0.00     0.202 A 
ATOM     22  N   UNL     1       3.125   5.279  -0.296  1.00  0.00    -0.057 NA
BRANCH  21  23
ATOM     23  C   UNL     1       0.723   5.008   0.172  1.00  0.00     0.023 A 
ATOM     24  C   UNL     1       0.675   6.179   0.945  1.00  0.00     0.013 A 
ATOM     25  C   UNL     1      -0.459   4.274   0.008  1.00  0.00     0.013 A 
ATOM     26  C   UNL     1      -0.528   6.639   1.488  1.00  0.00     0.014 A 
ATOM     27  C   UNL     1      -1.670   4.733   0.552  1.00  0.00     0.014 A 
ATOM     28  C   UNL     1      -1.720   5.936   1.274  1.00  0.00     0.056 A 
BRANCH  28  29
ATOM     29  C   UNL     1      -3.015   6.490   1.819  1.00  0.00     0.416 C 
ATOM     30  F   UNL     1      -3.084   6.423   3.177  1.00  0.00    -0.166 F 
ATOM     31  F   UNL     1      -3.190   7.806   1.504  1.00  0.00    -0.166 F 
ATOM     32  F   UNL     1      -4.124   5.850   1.355  1.00  0.00    -0.166 F 
ENDBRANCH  28  29
ENDBRANCH  21  23
ENDBRANCH  10  18
ENDBRANCH   8   9
ENDBRANCH   6   8
ENDBRANCH   5   6
ENDBRANCH   4   5
ENDBRANCH   3   4
ENDBRANCH   2   3
ENDBRANCH   1   2
BRANCH   1  33
ATOM     33  C   UNL     1       2.971  -1.057   2.794  1.00  0.00     0.188 C 
BRANCH  33  34
ATOM     34  O   UNL     1       3.397  -1.359   4.122  1.00  0.00    -0.376 OA
BRANCH  34  35
ATOM     35  C   UNL     1       4.435  -2.319   4.288  1.00  0.00     0.202 C 
BRANCH  35  36
ATOM     36  C   UNL     1       4.001  -3.780   4.097  1.00  0.00     0.261 C 
BRANCH  36  37
ATOM     37  O   UNL     1       3.506  -4.008   2.765  1.00  0.00    -0.460 OA
BRANCH  37  38
ATOM     38  C   UNL     1       2.256  -4.530   2.662  1.00  0.00     0.338 C 
ATOM     39  O   UNL     1       1.632  -5.114   3.516  1.00  0.00    -0.246 OA
BRANCH  38  40
ATOM     40  C   UNL     1       1.662  -4.026   1.395  1.00  0.00     0.060 A 
ATOM     41  C   UNL     1       2.373  -3.989   0.194  1.00  0.00     0.016 A 
ATOM     42  C   UNL     1       0.386  -3.450   1.470  1.00  0.00     0.016 A 
ATOM     43  C   UNL     1       1.813  -3.342  -0.911  1.00  0.00     0.010 A 
ATOM     44  C   UNL     1      -0.165  -2.793   0.366  1.00  0.00     0.010 A 
ATOM     45  C   UNL     1       0.549  -2.720  -0.830  1.00  0.00    -0.014 A 
BRANCH  45  46
ATOM     46  C   UNL     1      -0.012  -2.155  -2.073  1.00  0.00     0.031 A 
ATOM     47  C   UNL     1      -0.134  -3.119  -3.202  1.00  0.00     0.074 A 
ATOM     48  C   UNL     1      -0.587  -0.951  -2.280  1.00  0.00     0.049 A 
ATOM     49  N   UNL     1       0.400  -3.057  -4.378  1.00  0.00    -0.248 NA
ATOM     50  C   UNL     1      -0.948  -4.319  -2.958  1.00  0.00     0.031 C 
ATOM     51  C   UNL     1      -0.996   0.032  -1.281  1.00  0.00     0.029 A 
ATOM     52  N   UNL     1      -1.000  -0.385  -3.467  1.00  0.00    -0.354 N 
ATOM     53  C   UNL     1      -0.138  -4.128  -5.088  1.00  0.00     0.074 A 
ATOM     54  C   UNL     1      -0.878  -4.925  -4.141  1.00  0.00     0.031 C 
ATOM     55  C   UNL     1      -1.740   0.989  -1.877  1.00  0.00     0.029 A 
ATOM     56  C   UNL     1      -1.779   0.751  -3.311  1.00  0.00     0.049 A 
ATOM     57  H   UNL     1      -0.762  -0.755  -4.348  1.00  0.00     0.167 HD
ATOM     58  C   UNL     1      -0.098  -4.213  -6.444  1.00  0.00     0.031 A 
ATOM     59  C   UNL     1      -2.462   1.444  -4.254  1.00  0.00     0.031 A 
ATOM     60  C   UNL     1       0.882  -3.347  -7.035  1.00  0.00     0.049 A 
ATOM     61  C   UNL     1      -1.976   1.078  -5.601  1.00  0.00     0.074 A 
ATOM     62  C   UNL     1       2.247  -3.192  -6.915  1.00  0.00     0.029 A 
ATOM     63  N   UNL     1       0.437  -2.253  -7.732  1.00  0.00    -0.354 N 
ATOM     64  N   UNL     1      -0.853   1.473  -6.125  1.00  0.00    -0.248 NA
ATOM     65  C   UNL     1      -2.669   0.033  -6.338  1.00  0.00     0.031 C 
ATOM     66  C   UNL     1       2.494  -1.811  -7.156  1.00  0.00     0.029 A 
ATOM     67  C   UNL     1       1.268  -1.203  -7.435  1.00  0.00     0.049 A 
ATOM     68  H   UNL     1      -0.340  -2.226  -8.337  1.00  0.00     0.167 HD
ATOM     69  C   UNL     1      -0.494   0.466  -7.006  1.00  0.00     0.074 A 
ATOM     70  C   UNL     1      -1.716  -0.299  -7.210  1.00  0.00     0.031 C 
ATOM     71  C   UNL     1       0.817   0.166  -7.255  1.00  0.00     0.031 A 
BRANCH  58  72
ATOM     72  C   UNL     1      -1.175  -4.887  -7.253  1.00  0.00    -0.014 A 
ATOM     73  C   UNL     1      -2.489  -5.058  -6.772  1.00  0.00     0.009 A 
ATOM     74  C   UNL     1      -0.961  -5.149  -8.617  1.00  0.00     0.009 A 
ATOM     75  C   UNL     1      -3.528  -5.502  -7.593  1.00  0.00     0.001 A 
ATOM     76  C   UNL     1      -2.011  -5.550  -9.454  1.00  0.00     0.001 A 
ATOM     77  C   UNL     1      -3.292  -5.732  -8.941  1.00  0.00     0.000 A 
ENDBRANCH  58  72
BRANCH  59  78
ATOM     78  C   UNL     1      -3.650   2.311  -4.076  1.00  0.00    -0.014 A 
ATOM     79  C   UNL     1      -4.575   2.040  -3.052  1.00  0.00     0.009 A 
ATOM     80  C   UNL     1      -4.006   3.273  -5.036  1.00  0.00     0.009 A 
ATOM     81  C   UNL     1      -5.807   2.696  -2.986  1.00  0.00     0.001 A 
ATOM     82  C   UNL     1      -5.248   3.920  -4.979  1.00  0.00     0.001 A 
ATOM     83  C   UNL     1      -6.150   3.627  -3.958  1.00  0.00     0.000 A 
ENDBRANCH  59  78
BRANCH  71  84
ATOM     84  C   UNL     1       1.879   1.221  -7.020  1.00  0.00    -0.014 A 
ATOM     85  C   UNL     1       2.926   1.333  -7.956  1.00  0.00     0.009 A 
ATOM     86  C   UNL     1       1.936   2.046  -5.887  1.00  0.00     0.009 A 
ATOM     87  C   UNL     1       3.983   2.228  -7.766  1.00  0.00     0.001 A 
ATOM     88  C   UNL     1       2.953   2.991  -5.734  1.00  0.00     0.001 A 
ATOM     89  C   UNL     1       3.989   3.068  -6.659  1.00  0.00     0.000 A 
ENDBRANCH  71  84
ENDBRANCH  45  46
ENDBRANCH  38  40
ENDBRANCH  37  38
ENDBRANCH  36  37
ENDBRANCH  35  36
ENDBRANCH  34  35
ENDBRANCH  33  34
ENDBRANCH   1  33
TORSDOF 21
