REMARK SMILES Cc1c(NC(=O)c2cccc(-c3cc4ccccc4oc3=O)c2)cccc1C(=O)OCCOCCOCCOC(=O)c1ccc(-c2c3nc(c(-c4ccccc4)c4ccc([nH]4)c(-c4ccccc4)c4nc(c(-c5ccccc5)c5ccc2[nH]5)C=C4)C=C3)cc1
REMARK SMILES IDX 34 1 33 2 32 3 31 4 30 5 28 6 29 7 27 8 1 9 2 10 3 11 24 12
REMARK SMILES IDX 26 13 25 14 4 15 5 16 6 18 7 19 8 20 23 21 9 22 11 23 10 24
REMARK SMILES IDX 12 25 13 26 21 27 14 28 20 29 22 30 15 31 19 32 16 33 18 34
REMARK SMILES IDX 17 35 35 36 36 37 37 38 38 39 39 40 40 41 41 42 42 43 43 44
REMARK SMILES IDX 89 45 44 46 88 47 45 48 46 49 47 50 82 51 48 52 87 53 81 54
REMARK SMILES IDX 83 55 49 56 86 57 80 58 79 59 50 61 72 62 57 63 71 64 58 65
REMARK SMILES IDX 61 66 70 67 84 68 59 69 60 70 69 72 85 73 62 74 51 75 52 76
REMARK SMILES IDX 56 77 53 78 55 79 54 80 73 81 74 82 78 83 75 84 77 85 76 86
REMARK SMILES IDX 63 87 64 88 68 89 65 90 67 91 66 92
REMARK H PARENT 4 17 83 60 61 71
REMARK Flexibility Score: inf
ROOT
ATOM      1  C   UNL     1       3.223   5.837  -1.960  1.00  0.00     0.188 C 
ENDROOT
BRANCH   1   2
ATOM      2  O   UNL     1       4.043   5.015  -1.094  1.00  0.00    -0.376 OA
BRANCH   2   3
ATOM      3  C   UNL     1       4.615   3.741  -1.465  1.00  0.00     0.202 C 
BRANCH   3   4
ATOM      4  C   UNL     1       4.383   2.301  -0.626  1.00  0.00     0.261 C 
BRANCH   4   5
ATOM      5  O   UNL     1       3.146   1.036  -0.638  1.00  0.00    -0.460 OA
BRANCH   5   6
ATOM      6  C   UNL     1       1.820   0.793  -0.109  1.00  0.00     0.338 C 
ATOM      7  O   UNL     1       0.989   1.658   0.151  1.00  0.00    -0.246 OA
BRANCH   6   8
ATOM      8  C   UNL     1       1.147  -0.466   0.378  1.00  0.00     0.065 A 
ATOM      9  C   UNL     1       2.841  -2.075  -0.484  1.00  0.00     0.047 C 
ATOM     10  C   UNL     1       1.479  -1.765   0.044  1.00  0.00    -0.013 A 
ATOM     11  C   UNL     1       0.500  -2.776   0.279  1.00  0.00     0.045 A 
ATOM     12  C   UNL     1      -0.722  -2.516   0.929  1.00  0.00     0.026 A 
ATOM     13  C   UNL     1      -0.068  -0.259   1.141  1.00  0.00     0.016 A 
ATOM     14  C   UNL     1      -0.994  -1.255   1.403  1.00  0.00     0.003 A 
BRANCH  11  15
ATOM     15  N   UNL     1       0.798  -4.092  -0.087  1.00  0.00    -0.322 N 
ATOM     16  C   UNL     1      -0.024  -5.161  -0.350  1.00  0.00     0.255 C 
ATOM     17  H   UNL     1       1.760  -4.285  -0.171  1.00  0.00     0.170 HD
ATOM     18  O   UNL     1       0.430  -6.292  -0.166  1.00  0.00    -0.269 OA
BRANCH  16  19
ATOM     19  C   UNL     1      -1.372  -5.027  -0.990  1.00  0.00     0.040 A 
ATOM     20  C   UNL     1      -2.253  -6.104  -0.834  1.00  0.00     0.014 A 
ATOM     21  C   UNL     1      -1.705  -4.007  -1.898  1.00  0.00     0.022 A 
ATOM     22  C   UNL     1      -3.433  -6.174  -1.573  1.00  0.00     0.001 A 
ATOM     23  C   UNL     1      -2.886  -4.082  -2.673  1.00  0.00    -0.010 A 
ATOM     24  C   UNL     1      -3.743  -5.174  -2.493  1.00  0.00     0.009 A 
BRANCH  23  25
ATOM     25  C   UNL     1      -3.233  -3.167  -3.794  1.00  0.00     0.068 A 
ATOM     26  C   UNL     1      -3.463  -1.845  -3.637  1.00  0.00     0.028 A 
ATOM     27  C   UNL     1      -2.491  -3.401  -5.076  1.00  0.00     0.344 A 
ATOM     28  C   UNL     1      -2.179  -1.139  -3.494  1.00  0.00     0.018 A 
ATOM     29  O   UNL     1      -1.306  -2.665  -5.179  1.00  0.00    -0.422 OA
ATOM     30  O   UNL     1      -2.860  -4.207  -5.919  1.00  0.00    -0.246 OA
ATOM     31  C   UNL     1      -1.996  -0.123  -2.573  1.00  0.00     0.012 A 
ATOM     32  C   UNL     1      -1.095  -1.635  -4.238  1.00  0.00     0.138 A 
ATOM     33  C   UNL     1      -0.703   0.325  -2.349  1.00  0.00     0.001 A 
ATOM     34  C   UNL     1       0.198  -1.210  -4.003  1.00  0.00     0.048 A 
ATOM     35  C   UNL     1       0.389  -0.248  -3.023  1.00  0.00     0.004 A 
ENDBRANCH  23  25
ENDBRANCH  16  19
ENDBRANCH  11  15
ENDBRANCH   6   8
ENDBRANCH   5   6
ENDBRANCH   4   5
ENDBRANCH   3   4
ENDBRANCH   2   3
ENDBRANCH   1   2
BRANCH   1  36
ATOM     36  C   UNL     1       3.391   5.933  -3.485  1.00  0.00     0.188 C 
BRANCH  36  37
ATOM     37  O   UNL     1       3.625   4.659  -4.047  1.00  0.00    -0.376 OA
BRANCH  37  38
ATOM     38  C   UNL     1       3.862   4.610  -5.442  1.00  0.00     0.202 C 
BRANCH  38  39
ATOM     39  C   UNL     1       2.573   4.556  -6.280  1.00  0.00     0.261 C 
BRANCH  39  40
ATOM     40  O   UNL     1       1.773   3.395  -5.974  1.00  0.00    -0.460 OA
BRANCH  40  41
ATOM     41  C   UNL     1       0.560   3.660  -5.361  1.00  0.00     0.338 C 
ATOM     42  O   UNL     1      -0.401   4.100  -5.914  1.00  0.00    -0.246 OA
BRANCH  41  43
ATOM     43  C   UNL     1       0.683   3.406  -3.897  1.00  0.00     0.060 A 
ATOM     44  C   UNL     1      -0.094   3.993  -2.895  1.00  0.00     0.016 A 
ATOM     45  C   UNL     1       1.737   2.663  -3.483  1.00  0.00     0.016 A 
ATOM     46  C   UNL     1       0.325   3.983  -1.508  1.00  0.00     0.010 A 
ATOM     47  C   UNL     1       2.149   2.771  -2.157  1.00  0.00     0.010 A 
ATOM     48  C   UNL     1       1.559   3.467  -1.062  1.00  0.00    -0.014 A 
BRANCH  48  49
ATOM     49  C   UNL     1       2.165   3.687   0.553  1.00  0.00     0.031 A 
ATOM     50  C   UNL     1       2.756   2.613   1.810  1.00  0.00     0.074 A 
ATOM     51  C   UNL     1       1.948   4.926   1.054  1.00  0.00     0.049 A 
ATOM     52  N   UNL     1       2.551   2.777   3.112  1.00  0.00    -0.248 NA
ATOM     53  C   UNL     1       3.509   1.284   1.739  1.00  0.00     0.031 C 
ATOM     54  C   UNL     1       2.454   5.508   2.292  1.00  0.00     0.029 A 
ATOM     55  N   UNL     1       1.011   5.870   0.605  1.00  0.00    -0.354 N 
ATOM     56  C   UNL     1       3.249   1.753   3.787  1.00  0.00     0.074 A 
ATOM     57  C   UNL     1       3.364   0.683   2.901  1.00  0.00     0.031 C 
ATOM     58  C   UNL     1       1.627   6.502   2.660  1.00  0.00     0.029 A 
ATOM     59  C   UNL     1       0.486   6.459   1.760  1.00  0.00     0.049 A 
ATOM     60  H   UNL     1       0.773   6.076  -0.328  1.00  0.00     0.167 HD
ATOM     61  C   UNL     1       4.022   1.920   4.899  1.00  0.00     0.031 A 
ATOM     62  C   UNL     1      -0.818   6.299   2.123  1.00  0.00     0.031 A 
ATOM     63  C   UNL     1       3.526   3.044   5.626  1.00  0.00     0.049 A 
ATOM     64  C   UNL     1      -0.983   5.837   3.552  1.00  0.00     0.074 A 
ATOM     65  C   UNL     1       3.899   4.364   5.731  1.00  0.00     0.029 A 
ATOM     66  N   UNL     1       2.216   2.944   6.048  1.00  0.00    -0.354 N 
ATOM     67  N   UNL     1      -0.037   5.272   4.253  1.00  0.00    -0.248 NA
ATOM     68  C   UNL     1      -2.225   5.974   4.306  1.00  0.00     0.031 C 
ATOM     69  C   UNL     1       2.707   5.094   6.020  1.00  0.00     0.029 A 
ATOM     70  C   UNL     1       1.661   4.196   6.166  1.00  0.00     0.049 A 
ATOM     71  H   UNL     1       1.747   2.100   6.238  1.00  0.00     0.167 HD
ATOM     72  C   UNL     1      -0.516   4.949   5.491  1.00  0.00     0.074 A 
ATOM     73  C   UNL     1      -1.884   5.428   5.486  1.00  0.00     0.031 C 
ATOM     74  C   UNL     1       0.231   4.276   6.412  1.00  0.00     0.031 A 
BRANCH  61  75
ATOM     75  C   UNL     1       5.298   1.118   5.234  1.00  0.00    -0.014 A 
ATOM     76  C   UNL     1       6.024   1.427   6.398  1.00  0.00     0.009 A 
ATOM     77  C   UNL     1       5.918   0.144   4.408  1.00  0.00     0.009 A 
ATOM     78  C   UNL     1       7.254   0.806   6.711  1.00  0.00     0.001 A 
ATOM     79  C   UNL     1       7.121  -0.511   4.731  1.00  0.00     0.001 A 
ATOM     80  C   UNL     1       7.797  -0.172   5.886  1.00  0.00     0.000 A 
ENDBRANCH  61  75
BRANCH  62  81
ATOM     81  C   UNL     1      -1.793   6.064   1.009  1.00  0.00    -0.014 A 
ATOM     82  C   UNL     1      -1.872   7.019  -0.030  1.00  0.00     0.009 A 
ATOM     83  C   UNL     1      -2.434   4.831   0.806  1.00  0.00     0.009 A 
ATOM     84  C   UNL     1      -2.493   6.729  -1.252  1.00  0.00     0.001 A 
ATOM     85  C   UNL     1      -3.072   4.546  -0.417  1.00  0.00     0.001 A 
ATOM     86  C   UNL     1      -3.086   5.487  -1.449  1.00  0.00     0.000 A 
ENDBRANCH  62  81
BRANCH  74  87
ATOM     87  C   UNL     1      -0.336   3.537   7.601  1.00  0.00    -0.014 A 
ATOM     88  C   UNL     1      -1.655   3.070   7.660  1.00  0.00     0.009 A 
ATOM     89  C   UNL     1       0.540   3.102   8.621  1.00  0.00     0.009 A 
ATOM     90  C   UNL     1      -2.090   2.247   8.706  1.00  0.00     0.001 A 
ATOM     91  C   UNL     1       0.128   2.227   9.628  1.00  0.00     0.001 A 
ATOM     92  C   UNL     1      -1.195   1.812   9.678  1.00  0.00     0.000 A 
ENDBRANCH  74  87
ENDBRANCH  48  49
ENDBRANCH  41  43
ENDBRANCH  40  41
ENDBRANCH  39  40
ENDBRANCH  38  39
ENDBRANCH  37  38
ENDBRANCH  36  37
ENDBRANCH   1  36
TORSDOF 20
