REMARK SMILES COc1ccc(OC)c([C@H](C(=O)OCCOCCOCCOC(=O)c2ccc(-c3c4nc(c(-c5ccccc5)c5ccc([nH]5)c(-c5ccccc5)c5nc(c(-c6ccccc6)c6ccc3[nH]6)C=C5)C=C4)cc2)[NH+]2CC[NH+](Cc3nccn3C)CC2)c1
REMARK SMILES IDX 17 1 16 2 15 3 14 4 13 5 11 6 12 7 10 8 9 9 3 10 4 11 86 12
REMARK SMILES IDX 5 13 6 14 2 15 1 16 7 17 8 18 73 19 74 20 85 21 75 23 84 24
REMARK SMILES IDX 76 25 77 27 78 28 79 29 82 30 80 31 81 32 83 33 18 34 19 35
REMARK SMILES IDX 20 36 21 37 22 38 23 39 24 40 25 41 26 42 72 43 27 44 71 45
REMARK SMILES IDX 28 46 29 47 30 48 65 49 31 50 70 51 64 52 66 53 32 54 69 55
REMARK SMILES IDX 63 56 62 57 33 59 55 60 40 61 54 62 41 63 44 64 53 65 67 66
REMARK SMILES IDX 42 67 43 68 52 70 68 71 45 72 34 73 35 74 39 75 36 76 38 77
REMARK SMILES IDX 37 78 56 79 57 80 61 81 58 82 60 83 59 84 46 85 47 86 51 87
REMARK SMILES IDX 48 88 50 89 49 90
REMARK H PARENT 73 22 76 26 66 58 44 69
REMARK Flexibility Score: inf
ROOT
ATOM      1  C   UNL     1      -0.347  -0.424  -3.710  1.00  0.00     0.188 C 
ENDROOT
BRANCH   1   2
ATOM      2  O   UNL     1      -0.770  -1.349  -2.713  1.00  0.00    -0.376 OA
BRANCH   2   3
ATOM      3  C   UNL     1      -0.041  -1.394  -1.495  1.00  0.00     0.202 C 
BRANCH   3   4
ATOM      4  C   UNL     1       1.253  -2.215  -1.502  1.00  0.00     0.261 C 
BRANCH   4   5
ATOM      5  O   UNL     1       2.400  -1.625  -2.150  1.00  0.00    -0.459 OA
BRANCH   5   6
ATOM      6  C   UNL     1       2.729  -2.194  -3.352  1.00  0.00     0.370 C 
ATOM      7  O   UNL     1       1.895  -2.719  -4.084  1.00  0.00    -0.245 OA
BRANCH   6   8
ATOM      8  C   UNL     1       4.266  -2.174  -3.609  1.00  0.00     0.330 C 
BRANCH   8   9
ATOM      9  C   UNL     1       4.857  -3.555  -3.978  1.00  0.00     0.067 A 
ATOM     10  C   UNL     1       4.534  -5.793  -4.917  1.00  0.00     0.119 A 
ATOM     11  C   UNL     1       5.889  -5.857  -5.232  1.00  0.00     0.050 A 
ATOM     12  C   UNL     1       4.039  -4.665  -4.262  1.00  0.00     0.060 A 
ATOM     13  C   UNL     1       6.749  -4.822  -4.854  1.00  0.00     0.051 A 
ATOM     14  C   UNL     1       6.239  -3.690  -4.215  1.00  0.00     0.128 A 
BRANCH  10  15
ATOM     15  O   UNL     1       3.776  -6.874  -5.280  1.00  0.00    -0.497 OA
ATOM     16  C   UNL     1       2.379  -6.626  -5.443  1.00  0.00     0.278 C 
ENDBRANCH  10  15
BRANCH  14  17
ATOM     17  O   UNL     1       7.110  -2.765  -3.700  1.00  0.00    -0.496 OA
ATOM     18  C   UNL     1       7.629  -1.873  -4.685  1.00  0.00     0.278 C 
ENDBRANCH  14  17
ENDBRANCH   8   9
BRANCH   8  19
ATOM     19  N   UNL     1       4.664  -1.218  -4.668  1.00  0.00    -0.310 N 
ATOM     20  C   UNL     1       4.115  -1.410  -6.005  1.00  0.00     0.325 C 
ATOM     21  C   UNL     1       4.774   0.189  -4.329  1.00  0.00     0.325 C 
ATOM     22  H   UNL     1       5.629  -1.542  -4.720  1.00  0.00     0.349 HD
ATOM     23  C   UNL     1       2.842  -0.608  -6.313  1.00  0.00     0.324 C 
ATOM     24  C   UNL     1       3.461   0.955  -4.486  1.00  0.00     0.324 C 
ATOM     25  N   UNL     1       2.680   0.723  -5.705  1.00  0.00    -0.319 N 
ATOM     26  H   UNL     1       1.716   0.717  -5.371  1.00  0.00     0.348 HD
BRANCH  25  27
ATOM     27  C   UNL     1       2.759   1.821  -6.673  1.00  0.00     0.339 C 
BRANCH  27  28
ATOM     28  C   UNL     1       4.114   2.113  -7.224  1.00  0.00     0.164 A 
ATOM     29  N   UNL     1       4.903   1.250  -7.840  1.00  0.00    -0.236 NA
ATOM     30  N   UNL     1       4.689   3.361  -7.211  1.00  0.00    -0.333 N 
ATOM     31  C   UNL     1       6.030   1.944  -8.178  1.00  0.00     0.131 A 
ATOM     32  C   UNL     1       5.925   3.256  -7.785  1.00  0.00     0.107 A 
ATOM     33  C   UNL     1       4.110   4.580  -6.702  1.00  0.00     0.151 C 
ENDBRANCH  27  28
ENDBRANCH  25  27
ENDBRANCH   8  19
ENDBRANCH   6   8
ENDBRANCH   5   6
ENDBRANCH   4   5
ENDBRANCH   3   4
ENDBRANCH   2   3
ENDBRANCH   1   2
BRANCH   1  34
ATOM     34  C   UNL     1       0.231   0.914  -3.234  1.00  0.00     0.188 C 
BRANCH  34  35
ATOM     35  O   UNL     1      -0.564   1.675  -2.330  1.00  0.00    -0.376 OA
BRANCH  35  36
ATOM     36  C   UNL     1      -1.889   1.977  -2.752  1.00  0.00     0.202 C 
BRANCH  36  37
ATOM     37  C   UNL     1      -1.962   2.823  -4.024  1.00  0.00     0.261 C 
BRANCH  37  38
ATOM     38  O   UNL     1      -1.718   2.023  -5.200  1.00  0.00    -0.460 OA
BRANCH  38  39
ATOM     39  C   UNL     1      -1.371   2.753  -6.288  1.00  0.00     0.338 C 
ATOM     40  O   UNL     1      -1.247   3.966  -6.332  1.00  0.00    -0.246 OA
BRANCH  39  41
ATOM     41  C   UNL     1      -1.138   1.907  -7.481  1.00  0.00     0.060 A 
ATOM     42  C   UNL     1      -0.368   0.751  -7.424  1.00  0.00     0.016 A 
ATOM     43  C   UNL     1      -1.531   2.401  -8.726  1.00  0.00     0.016 A 
ATOM     44  C   UNL     1       0.127   0.185  -8.611  1.00  0.00     0.010 A 
ATOM     45  C   UNL     1      -1.110   1.770  -9.904  1.00  0.00     0.010 A 
ATOM     46  C   UNL     1      -0.215   0.686  -9.875  1.00  0.00    -0.014 A 
BRANCH  46  47
ATOM     47  C   UNL     1       0.374   0.176 -11.161  1.00  0.00     0.031 A 
ATOM     48  C   UNL     1       0.849   1.163 -12.208  1.00  0.00     0.074 A 
ATOM     49  C   UNL     1       0.511  -1.134 -11.459  1.00  0.00     0.049 A 
ATOM     50  N   UNL     1       0.920   1.032 -13.509  1.00  0.00    -0.248 NA
ATOM     51  C   UNL     1       1.292   2.478 -11.715  1.00  0.00     0.031 C 
ATOM     52  C   UNL     1       0.303  -2.263 -10.555  1.00  0.00     0.029 A 
ATOM     53  N   UNL     1       0.847  -1.734 -12.656  1.00  0.00    -0.354 N 
ATOM     54  C   UNL     1       1.318   2.273 -13.997  1.00  0.00     0.074 A 
ATOM     55  C   UNL     1       1.508   3.134 -12.848  1.00  0.00     0.031 C 
ATOM     56  C   UNL     1       0.531  -3.408 -11.215  1.00  0.00     0.029 A 
ATOM     57  C   UNL     1       0.735  -3.104 -12.624  1.00  0.00     0.049 A 
ATOM     58  H   UNL     1       1.136  -1.232 -13.452  1.00  0.00     0.167 HD
ATOM     59  C   UNL     1       1.479   2.662 -15.286  1.00  0.00     0.031 A 
ATOM     60  C   UNL     1       0.678  -4.019 -13.612  1.00  0.00     0.031 A 
ATOM     61  C   UNL     1       1.361   1.777 -16.418  1.00  0.00     0.049 A 
ATOM     62  C   UNL     1       0.710  -3.571 -15.045  1.00  0.00     0.074 A 
ATOM     63  C   UNL     1       1.461   2.076 -17.767  1.00  0.00     0.029 A 
ATOM     64  N   UNL     1       1.154   0.411 -16.328  1.00  0.00    -0.354 N 
ATOM     65  N   UNL     1       0.873  -2.366 -15.530  1.00  0.00    -0.248 NA
ATOM     66  C   UNL     1       0.507  -4.610 -16.067  1.00  0.00     0.031 C 
ATOM     67  C   UNL     1       1.269   0.895 -18.494  1.00  0.00     0.029 A 
ATOM     68  C   UNL     1       1.107  -0.145 -17.594  1.00  0.00     0.049 A 
ATOM     69  H   UNL     1       1.054  -0.090 -15.486  1.00  0.00     0.167 HD
ATOM     70  C   UNL     1       0.812  -2.503 -16.911  1.00  0.00     0.074 A 
ATOM     71  C   UNL     1       0.608  -3.909 -17.188  1.00  0.00     0.031 C 
ATOM     72  C   UNL     1       0.915  -1.545 -17.864  1.00  0.00     0.031 A 
BRANCH  59  73
ATOM     73  C   UNL     1       1.712   4.123 -15.561  1.00  0.00    -0.014 A 
ATOM     74  C   UNL     1       2.942   4.748 -15.315  1.00  0.00     0.009 A 
ATOM     75  C   UNL     1       0.674   4.875 -16.141  1.00  0.00     0.009 A 
ATOM     76  C   UNL     1       3.118   6.102 -15.619  1.00  0.00     0.001 A 
ATOM     77  C   UNL     1       0.861   6.218 -16.469  1.00  0.00     0.001 A 
ATOM     78  C   UNL     1       2.081   6.833 -16.200  1.00  0.00     0.000 A 
ENDBRANCH  59  73
BRANCH  60  79
ATOM     79  C   UNL     1       0.429  -5.448 -13.274  1.00  0.00    -0.014 A 
ATOM     80  C   UNL     1       1.407  -6.425 -13.507  1.00  0.00     0.009 A 
ATOM     81  C   UNL     1      -0.797  -5.838 -12.707  1.00  0.00     0.009 A 
ATOM     82  C   UNL     1       1.160  -7.761 -13.182  1.00  0.00     0.001 A 
ATOM     83  C   UNL     1      -1.026  -7.166 -12.347  1.00  0.00     0.001 A 
ATOM     84  C   UNL     1      -0.050  -8.128 -12.592  1.00  0.00     0.000 A 
ENDBRANCH  60  79
BRANCH  72  85
ATOM     85  C   UNL     1       0.873  -1.989 -19.297  1.00  0.00    -0.014 A 
ATOM     86  C   UNL     1      -0.331  -2.366 -19.910  1.00  0.00     0.009 A 
ATOM     87  C   UNL     1       2.055  -1.992 -20.054  1.00  0.00     0.009 A 
ATOM     88  C   UNL     1      -0.345  -2.762 -21.250  1.00  0.00     0.001 A 
ATOM     89  C   UNL     1       2.034  -2.364 -21.399  1.00  0.00     0.001 A 
ATOM     90  C   UNL     1       0.835  -2.756 -21.993  1.00  0.00     0.000 A 
ENDBRANCH  72  85
ENDBRANCH  46  47
ENDBRANCH  39  41
ENDBRANCH  38  39
ENDBRANCH  37  38
ENDBRANCH  36  37
ENDBRANCH  35  36
ENDBRANCH  34  35
ENDBRANCH   1  34
TORSDOF 23
