REMARK SMILES O=C(Cn1c2ccccc2c(=O)c2ccccc21)N[C@@H](Cc1ccccc1)C(=O)OCCOCCOCCOC(=O)c1ccc(-c2c3nc(c(-c4ccccc4)c4ccc([nH]4)c(-c4ccccc4)c4nc(c(-c5ccccc5)c5ccc2[nH]5)C=C4)C=C3)cc1
REMARK SMILES IDX 34 1 33 2 32 3 31 4 30 5 28 6 29 7 20 8 19 9 1 10 2 11 3 13
REMARK SMILES IDX 4 14 5 15 18 16 6 17 10 18 13 19 17 20 7 21 9 22 11 23 14 24
REMARK SMILES IDX 16 25 8 26 12 27 15 28 21 29 22 30 23 31 27 32 24 33 26 34
REMARK SMILES IDX 25 35 35 36 36 37 37 38 38 39 39 40 40 41 41 42 42 43 43 44
REMARK SMILES IDX 89 45 44 46 88 47 45 48 46 49 47 50 82 51 48 52 87 53 81 54
REMARK SMILES IDX 83 55 49 56 86 57 80 58 79 59 50 61 72 62 57 63 71 64 58 65
REMARK SMILES IDX 61 66 70 67 84 68 59 69 60 70 69 72 85 73 62 74 51 75 52 76
REMARK SMILES IDX 56 77 53 78 55 79 54 80 73 81 74 82 78 83 75 84 77 85 76 86
REMARK SMILES IDX 63 87 64 88 68 89 65 90 67 91 66 92
REMARK H PARENT 19 12 83 60 61 71
REMARK Flexibility Score: inf
ROOT
ATOM      1  C   UNL     1       2.105  -0.306  -4.672  1.00  0.00     0.188 C 
ENDROOT
BRANCH   1   2
ATOM      2  O   UNL     1       2.512   0.241  -5.918  1.00  0.00    -0.376 OA
BRANCH   2   3
ATOM      3  C   UNL     1       3.595   1.157  -5.960  1.00  0.00     0.202 C 
BRANCH   3   4
ATOM      4  C   UNL     1       3.519   2.392  -5.066  1.00  0.00     0.261 C 
BRANCH   4   5
ATOM      5  O   UNL     1       3.413   2.058  -3.671  1.00  0.00    -0.462 OA
BRANCH   5   6
ATOM      6  C   UNL     1       2.409   2.664  -2.984  1.00  0.00     0.329 C 
ATOM      7  O   UNL     1       1.598   3.437  -3.484  1.00  0.00    -0.250 OA
BRANCH   6   8
ATOM      8  C   UNL     1       2.504   2.449  -1.460  1.00  0.00     0.196 C 
BRANCH   8   9
ATOM      9  N   UNL     1       3.144   1.261  -0.855  1.00  0.00    -0.341 N 
ATOM     10  O   UNL     1       1.256   0.047  -0.424  1.00  0.00    -0.273 OA
ATOM     11  C   UNL     1       2.461   0.222  -0.249  1.00  0.00     0.240 C 
ATOM     12  H   UNL     1       4.127   1.206  -0.885  1.00  0.00     0.164 HD
BRANCH  11  13
ATOM     13  C   UNL     1       3.275  -0.621   0.766  1.00  0.00     0.222 C 
BRANCH  13  14
ATOM     14  N   UNL     1       4.097  -1.706   0.173  1.00  0.00    -0.331 N 
ATOM     15  C   UNL     1       5.351  -1.373  -0.402  1.00  0.00     0.053 A 
ATOM     16  C   UNL     1       3.647  -3.054   0.230  1.00  0.00     0.053 A 
ATOM     17  C   UNL     1       6.010  -0.149  -0.201  1.00  0.00     0.027 A 
ATOM     18  C   UNL     1       6.037  -2.312  -1.192  1.00  0.00     0.046 A 
ATOM     19  C   UNL     1       4.380  -4.066  -0.429  1.00  0.00     0.046 A 
ATOM     20  C   UNL     1       2.529  -3.494   0.962  1.00  0.00     0.027 A 
ATOM     21  C   UNL     1       7.208   0.168  -0.857  1.00  0.00     0.002 A 
ATOM     22  C   UNL     1       7.226  -1.997  -1.871  1.00  0.00     0.014 A 
ATOM     23  C   UNL     1       5.548  -3.699  -1.254  1.00  0.00     0.197 A 
ATOM     24  C   UNL     1       4.047  -5.429  -0.334  1.00  0.00     0.014 A 
ATOM     25  C   UNL     1       2.191  -4.857   1.060  1.00  0.00     0.002 A 
ATOM     26  C   UNL     1       7.799  -0.743  -1.720  1.00  0.00     0.001 A 
ATOM     27  O   UNL     1       6.139  -4.533  -1.935  1.00  0.00    -0.288 OA
ATOM     28  C   UNL     1       2.952  -5.825   0.418  1.00  0.00     0.001 A 
ENDBRANCH  13  14
ENDBRANCH  11  13
ENDBRANCH   8   9
BRANCH   8  29
ATOM     29  C   UNL     1       3.144   3.740  -0.891  1.00  0.00     0.072 C 
BRANCH  29  30
ATOM     30  C   UNL     1       4.514   4.181  -1.394  1.00  0.00    -0.045 A 
ATOM     31  C   UNL     1       4.820   5.551  -1.356  1.00  0.00     0.004 A 
ATOM     32  C   UNL     1       5.508   3.312  -1.866  1.00  0.00     0.004 A 
ATOM     33  C   UNL     1       6.064   6.029  -1.781  1.00  0.00     0.000 A 
ATOM     34  C   UNL     1       6.755   3.786  -2.284  1.00  0.00     0.000 A 
ATOM     35  C   UNL     1       7.034   5.144  -2.240  1.00  0.00     0.000 A 
ENDBRANCH  29  30
ENDBRANCH   8  29
ENDBRANCH   6   8
ENDBRANCH   5   6
ENDBRANCH   4   5
ENDBRANCH   3   4
ENDBRANCH   2   3
ENDBRANCH   1   2
BRANCH   1  36
ATOM     36  C   UNL     1       3.150  -0.807  -3.654  1.00  0.00     0.188 C 
BRANCH  36  37
ATOM     37  O   UNL     1       4.493  -1.019  -4.048  1.00  0.00    -0.376 OA
BRANCH  37  38
ATOM     38  C   UNL     1       4.737  -1.970  -5.079  1.00  0.00     0.202 C 
BRANCH  38  39
ATOM     39  C   UNL     1       4.212  -3.384  -4.839  1.00  0.00     0.261 C 
BRANCH  39  40
ATOM     40  O   UNL     1       2.774  -3.392  -4.845  1.00  0.00    -0.460 OA
BRANCH  40  41
ATOM     41  C   UNL     1       2.194  -4.049  -3.815  1.00  0.00     0.338 C 
ATOM     42  O   UNL     1       2.726  -4.763  -2.986  1.00  0.00    -0.246 OA
BRANCH  41  43
ATOM     43  C   UNL     1       0.782  -3.652  -3.741  1.00  0.00     0.060 A 
ATOM     44  C   UNL     1      -0.085  -4.032  -4.761  1.00  0.00     0.016 A 
ATOM     45  C   UNL     1       0.324  -2.924  -2.633  1.00  0.00     0.016 A 
ATOM     46  C   UNL     1      -1.434  -3.708  -4.655  1.00  0.00     0.010 A 
ATOM     47  C   UNL     1      -1.026  -2.585  -2.537  1.00  0.00     0.010 A 
ATOM     48  C   UNL     1      -1.915  -3.003  -3.535  1.00  0.00    -0.014 A 
BRANCH  48  49
ATOM     49  C   UNL     1      -3.377  -2.886  -3.355  1.00  0.00     0.031 A 
ATOM     50  C   UNL     1      -4.125  -1.668  -3.785  1.00  0.00     0.074 A 
ATOM     51  C   UNL     1      -4.028  -3.957  -2.864  1.00  0.00     0.049 A 
ATOM     52  N   UNL     1      -5.416  -1.518  -3.933  1.00  0.00    -0.248 NA
ATOM     53  C   UNL     1      -3.334  -0.468  -4.089  1.00  0.00     0.031 C 
ATOM     54  C   UNL     1      -3.380  -5.184  -2.397  1.00  0.00     0.029 A 
ATOM     55  N   UNL     1      -5.368  -4.204  -2.716  1.00  0.00    -0.354 N 
ATOM     56  C   UNL     1      -5.595  -0.218  -4.382  1.00  0.00     0.074 A 
ATOM     57  C   UNL     1      -4.284   0.396  -4.432  1.00  0.00     0.031 C 
ATOM     58  C   UNL     1      -4.325  -6.075  -2.063  1.00  0.00     0.029 A 
ATOM     59  C   UNL     1      -5.639  -5.478  -2.279  1.00  0.00     0.049 A 
ATOM     60  H   UNL     1      -6.066  -3.536  -2.903  1.00  0.00     0.167 HD
ATOM     61  C   UNL     1      -6.752   0.389  -4.737  1.00  0.00     0.031 A 
ATOM     62  C   UNL     1      -6.815  -6.111  -2.104  1.00  0.00     0.031 A 
ATOM     63  C   UNL     1      -8.050  -0.231  -4.646  1.00  0.00     0.049 A 
ATOM     64  C   UNL     1      -8.085  -5.399  -2.470  1.00  0.00     0.074 A 
ATOM     65  C   UNL     1      -9.277   0.289  -5.019  1.00  0.00     0.029 A 
ATOM     66  N   UNL     1      -8.291  -1.496  -4.130  1.00  0.00    -0.354 N 
ATOM     67  N   UNL     1      -8.237  -4.207  -2.994  1.00  0.00    -0.248 NA
ATOM     68  C   UNL     1      -9.343  -6.124  -2.244  1.00  0.00     0.031 C 
ATOM     69  C   UNL     1     -10.267  -0.629  -4.662  1.00  0.00     0.029 A 
ATOM     70  C   UNL     1      -9.652  -1.756  -4.137  1.00  0.00     0.049 A 
ATOM     71  H   UNL     1      -7.599  -2.117  -3.808  1.00  0.00     0.167 HD
ATOM     72  C   UNL     1      -9.603  -4.043  -3.176  1.00  0.00     0.074 A 
ATOM     73  C   UNL     1     -10.235  -5.267  -2.726  1.00  0.00     0.031 C 
ATOM     74  C   UNL     1     -10.270  -2.973  -3.673  1.00  0.00     0.031 A 
BRANCH  61  75
ATOM     75  C   UNL     1      -6.684   1.795  -5.266  1.00  0.00    -0.014 A 
ATOM     76  C   UNL     1      -7.262   2.848  -4.539  1.00  0.00     0.009 A 
ATOM     77  C   UNL     1      -6.160   2.059  -6.541  1.00  0.00     0.009 A 
ATOM     78  C   UNL     1      -7.332   4.132  -5.084  1.00  0.00     0.001 A 
ATOM     79  C   UNL     1      -6.208   3.350  -7.073  1.00  0.00     0.001 A 
ATOM     80  C   UNL     1      -6.804   4.383  -6.349  1.00  0.00     0.000 A 
ENDBRANCH  61  75
BRANCH  62  81
ATOM     81  C   UNL     1      -6.816  -7.514  -1.615  1.00  0.00    -0.014 A 
ATOM     82  C   UNL     1      -6.400  -7.810  -0.306  1.00  0.00     0.009 A 
ATOM     83  C   UNL     1      -7.162  -8.570  -2.470  1.00  0.00     0.009 A 
ATOM     84  C   UNL     1      -6.304  -9.134   0.127  1.00  0.00     0.001 A 
ATOM     85  C   UNL     1      -7.094  -9.892  -2.025  1.00  0.00     0.001 A 
ATOM     86  C   UNL     1      -6.655 -10.173  -0.731  1.00  0.00     0.000 A 
ENDBRANCH  62  81
BRANCH  74  87
ATOM     87  C   UNL     1     -11.770  -3.059  -3.758  1.00  0.00    -0.014 A 
ATOM     88  C   UNL     1     -12.398  -3.089  -5.014  1.00  0.00     0.009 A 
ATOM     89  C   UNL     1     -12.563  -2.997  -2.603  1.00  0.00     0.009 A 
ATOM     90  C   UNL     1     -13.789  -3.034  -5.112  1.00  0.00     0.001 A 
ATOM     91  C   UNL     1     -13.956  -2.975  -2.703  1.00  0.00     0.001 A 
ATOM     92  C   UNL     1     -14.567  -2.981  -3.957  1.00  0.00     0.000 A 
ENDBRANCH  74  87
ENDBRANCH  48  49
ENDBRANCH  41  43
ENDBRANCH  40  41
ENDBRANCH  39  40
ENDBRANCH  38  39
ENDBRANCH  37  38
ENDBRANCH  36  37
ENDBRANCH   1  36
TORSDOF 22
