REMARK SMILES CCCCCCNC(=O)Oc1cccc(-c2ccc([C@@H](C)C(=O)OCCOCCOCCOC(=O)c3ccc(-c4c5nc(c(-c6ccccc6)c6ccc([nH]6)c(-c6ccccc6)c6nc(c(-c7ccccc7)c7ccc4[nH]7)C=C6)C=C5)cc3)cc2[N+](=O)[O-])c1
REMARK SMILES IDX 25 1 24 2 22 3 23 4 20 5 21 6 19 7 16 8 17 9 85 10 18 11
REMARK SMILES IDX 84 12 15 13 11 14 12 15 89 16 13 17 14 18 10 19 8 20 7 21
REMARK SMILES IDX 9 23 6 24 5 25 4 26 3 27 2 28 1 29 86 30 87 31 88 32 26 33
REMARK SMILES IDX 27 34 28 35 29 36 30 37 31 38 32 39 33 40 34 41 35 42 36 43
REMARK SMILES IDX 37 44 83 45 38 46 82 47 39 48 40 49 41 50 76 51 42 52 81 53
REMARK SMILES IDX 75 54 77 55 43 56 80 57 74 58 73 59 44 61 66 62 51 63 65 64
REMARK SMILES IDX 52 65 55 66 64 67 78 68 53 69 54 70 63 72 79 73 56 74 45 75
REMARK SMILES IDX 46 76 50 77 47 78 49 79 48 80 67 81 68 82 72 83 69 84 71 85
REMARK SMILES IDX 70 86 57 87 58 88 62 89 59 90 61 91 60 92
REMARK H PARENT 7 22 77 60 55 71
REMARK Flexibility Score: inf
ROOT
ATOM      1  C   UNL     1      -1.839 -13.330  -8.412  1.00  0.00     0.261 C 
ENDROOT
BRANCH   1   2
ATOM      2  O   UNL     1      -2.924 -12.604  -7.785  1.00  0.00    -0.463 OA
BRANCH   2   3
ATOM      3  C   UNL     1      -3.725 -13.317  -6.952  1.00  0.00     0.313 C 
ATOM      4  O   UNL     1      -3.589 -14.524  -6.757  1.00  0.00    -0.252 OA
BRANCH   3   5
ATOM      5  C   UNL     1      -4.826 -12.536  -6.226  1.00  0.00     0.126 C 
ATOM      6  C   UNL     1      -6.180 -13.136  -6.600  1.00  0.00     0.025 C 
BRANCH   5   7
ATOM      7  C   UNL     1      -4.893 -11.008  -6.262  1.00  0.00    -0.027 A 
ATOM      8  C   UNL     1      -5.017  -8.120  -6.198  1.00  0.00     0.060 A 
ATOM      9  C   UNL     1      -4.963  -8.848  -7.407  1.00  0.00     0.016 A 
ATOM     10  C   UNL     1      -5.030  -8.884  -5.019  1.00  0.00     0.277 A 
ATOM     11  C   UNL     1      -4.916 -10.258  -7.442  1.00  0.00     0.006 A 
ATOM     12  C   UNL     1      -4.968 -10.297  -5.046  1.00  0.00     0.091 A 
BRANCH   8  13
ATOM     13  C   UNL     1      -5.091  -6.643  -6.243  1.00  0.00    -0.008 A 
ATOM     14  C   UNL     1      -4.254  -4.432  -5.678  1.00  0.00     0.133 A 
ATOM     15  C   UNL     1      -5.377  -3.829  -6.239  1.00  0.00     0.047 A 
ATOM     16  C   UNL     1      -4.096  -5.823  -5.679  1.00  0.00     0.056 A 
ATOM     17  C   UNL     1      -6.355  -4.626  -6.825  1.00  0.00     0.004 A 
ATOM     18  C   UNL     1      -6.214  -6.018  -6.822  1.00  0.00     0.009 A 
BRANCH  14  19
ATOM     19  O   UNL     1      -3.376  -3.589  -4.971  1.00  0.00    -0.410 OA
BRANCH  19  20
ATOM     20  C   UNL     1      -2.028  -3.619  -5.281  1.00  0.00     0.412 C 
ATOM     21  N   UNL     1      -1.266  -2.825  -4.469  1.00  0.00    -0.321 N 
ATOM     22  H   UNL     1      -0.293  -2.854  -4.615  1.00  0.00     0.167 HD
ATOM     23  O   UNL     1      -1.516  -4.258  -6.201  1.00  0.00    -0.224 OA
BRANCH  21  24
ATOM     24  C   UNL     1      -1.736  -1.944  -3.415  1.00  0.00     0.119 C 
BRANCH  24  25
ATOM     25  C   UNL     1      -1.123  -2.276  -2.053  1.00  0.00     0.021 C 
BRANCH  25  26
ATOM     26  C   UNL     1       0.404  -2.158  -1.978  1.00  0.00     0.002 C 
BRANCH  26  27
ATOM     27  C   UNL     1       0.982  -0.775  -2.302  1.00  0.00    -0.000 C 
BRANCH  27  28
ATOM     28  C   UNL     1       0.514   0.365  -1.394  1.00  0.00    -0.003 C 
ATOM     29  C   UNL     1       0.922   0.186   0.060  1.00  0.00     0.004 C 
ENDBRANCH  27  28
ENDBRANCH  26  27
ENDBRANCH  25  26
ENDBRANCH  24  25
ENDBRANCH  21  24
ENDBRANCH  19  20
ENDBRANCH  14  19
ENDBRANCH   8  13
BRANCH  10  30
ATOM     30  N   UNL     1      -5.138  -8.258  -3.699  1.00  0.00     0.063 N 
ATOM     31  O   UNL     1      -4.417  -8.723  -2.803  1.00  0.00    -0.258 OA
ATOM     32  O   UNL     1      -5.970  -7.357  -3.540  1.00  0.00    -0.258 OA
ENDBRANCH  10  30
ENDBRANCH   5   7
ENDBRANCH   3   5
ENDBRANCH   2   3
ENDBRANCH   1   2
BRANCH   1  33
ATOM     33  C   UNL     1      -0.423 -12.813  -8.107  1.00  0.00     0.202 C 
BRANCH  33  34
ATOM     34  O   UNL     1      -0.015 -12.722  -6.747  1.00  0.00    -0.376 OA
BRANCH  34  35
ATOM     35  C   UNL     1      -0.790 -11.952  -5.836  1.00  0.00     0.188 C 
BRANCH  35  36
ATOM     36  C   UNL     1      -1.456 -10.656  -6.319  1.00  0.00     0.188 C 
BRANCH  36  37
ATOM     37  O   UNL     1      -1.054 -10.232  -7.601  1.00  0.00    -0.376 OA
BRANCH  37  38
ATOM     38  C   UNL     1      -0.546  -8.916  -7.714  1.00  0.00     0.202 C 
BRANCH  38  39
ATOM     39  C   UNL     1       0.790  -8.664  -6.998  1.00  0.00     0.261 C 
BRANCH  39  40
ATOM     40  O   UNL     1       0.860  -9.076  -5.620  1.00  0.00    -0.460 OA
BRANCH  40  41
ATOM     41  C   UNL     1       0.149  -8.354  -4.728  1.00  0.00     0.338 C 
ATOM     42  O   UNL     1      -0.549  -7.376  -4.961  1.00  0.00    -0.246 OA
BRANCH  41  43
ATOM     43  C   UNL     1       0.136  -9.081  -3.442  1.00  0.00     0.060 A 
ATOM     44  C   UNL     1      -1.101  -9.431  -2.886  1.00  0.00     0.016 A 
ATOM     45  C   UNL     1       1.319  -9.410  -2.780  1.00  0.00     0.016 A 
ATOM     46  C   UNL     1      -1.168 -10.066  -1.647  1.00  0.00     0.010 A 
ATOM     47  C   UNL     1       1.254 -10.033  -1.528  1.00  0.00     0.010 A 
ATOM     48  C   UNL     1       0.010 -10.329  -0.939  1.00  0.00    -0.014 A 
BRANCH  48  49
ATOM     49  C   UNL     1      -0.064 -10.722   0.490  1.00  0.00     0.031 A 
ATOM     50  C   UNL     1       0.148  -9.662   1.536  1.00  0.00     0.074 A 
ATOM     51  C   UNL     1      -0.332 -11.986   0.862  1.00  0.00     0.049 A 
ATOM     52  N   UNL     1       0.187  -9.773   2.839  1.00  0.00    -0.248 NA
ATOM     53  C   UNL     1       0.351  -8.290   1.041  1.00  0.00     0.031 C 
ATOM     54  C   UNL     1      -0.604 -13.098  -0.046  1.00  0.00     0.029 A 
ATOM     55  N   UNL     1      -0.407 -12.545   2.114  1.00  0.00    -0.354 N 
ATOM     56  C   UNL     1       0.433  -8.491   3.317  1.00  0.00     0.074 A 
ATOM     57  C   UNL     1       0.569  -7.627   2.165  1.00  0.00     0.031 C 
ATOM     58  C   UNL     1      -0.804 -14.212   0.681  1.00  0.00     0.029 A 
ATOM     59  C   UNL     1      -0.638 -13.898   2.100  1.00  0.00     0.049 A 
ATOM     60  H   UNL     1      -0.305 -12.024   2.944  1.00  0.00     0.167 HD
ATOM     61  C   UNL     1       0.533  -8.068   4.600  1.00  0.00     0.031 A 
ATOM     62  C   UNL     1      -0.683 -14.786   3.113  1.00  0.00     0.031 A 
ATOM     63  C   UNL     1       0.412  -8.928   5.747  1.00  0.00     0.049 A 
ATOM     64  C   UNL     1      -0.492 -14.307   4.529  1.00  0.00     0.074 A 
ATOM     65  C   UNL     1       0.480  -8.591   7.087  1.00  0.00     0.029 A 
ATOM     66  N   UNL     1       0.208 -10.298   5.687  1.00  0.00    -0.354 N 
ATOM     67  N   UNL     1      -0.286 -13.090   4.972  1.00  0.00    -0.248 NA
ATOM     68  C   UNL     1      -0.551 -15.328   5.587  1.00  0.00     0.031 C 
ATOM     69  C   UNL     1       0.385  -9.768   7.838  1.00  0.00     0.029 A 
ATOM     70  C   UNL     1       0.181 -10.827   6.967  1.00  0.00     0.049 A 
ATOM     71  H   UNL     1       0.099 -10.818   4.858  1.00  0.00     0.167 HD
ATOM     72  C   UNL     1      -0.224 -13.194   6.357  1.00  0.00     0.074 A 
ATOM     73  C   UNL     1      -0.428 -14.590   6.682  1.00  0.00     0.031 C 
ATOM     74  C   UNL     1      -0.020 -12.219   7.278  1.00  0.00     0.031 A 
BRANCH  61  75
ATOM     75  C   UNL     1       0.834  -6.611   4.822  1.00  0.00    -0.014 A 
ATOM     76  C   UNL     1      -0.105  -5.611   4.523  1.00  0.00     0.009 A 
ATOM     77  C   UNL     1       2.078  -6.234   5.353  1.00  0.00     0.009 A 
ATOM     78  C   UNL     1       0.212  -4.263   4.709  1.00  0.00     0.001 A 
ATOM     79  C   UNL     1       2.380  -4.889   5.570  1.00  0.00     0.001 A 
ATOM     80  C   UNL     1       1.452  -3.904   5.236  1.00  0.00     0.000 A 
ENDBRANCH  61  75
BRANCH  62  81
ATOM     81  C   UNL     1      -0.892 -16.230   2.825  1.00  0.00    -0.014 A 
ATOM     82  C   UNL     1      -2.075 -16.879   3.213  1.00  0.00     0.009 A 
ATOM     83  C   UNL     1       0.104 -16.975   2.174  1.00  0.00     0.009 A 
ATOM     84  C   UNL     1      -2.244 -18.246   2.976  1.00  0.00     0.001 A 
ATOM     85  C   UNL     1      -0.081 -18.333   1.909  1.00  0.00     0.001 A 
ATOM     86  C   UNL     1      -1.250 -18.970   2.319  1.00  0.00     0.000 A 
ENDBRANCH  62  81
BRANCH  74  87
ATOM     87  C   UNL     1      -0.051 -12.617   8.730  1.00  0.00    -0.014 A 
ATOM     88  C   UNL     1       0.973 -13.384   9.306  1.00  0.00     0.009 A 
ATOM     89  C   UNL     1      -1.106 -12.175   9.545  1.00  0.00     0.009 A 
ATOM     90  C   UNL     1       0.922 -13.730  10.659  1.00  0.00     0.001 A 
ATOM     91  C   UNL     1      -1.138 -12.494  10.904  1.00  0.00     0.001 A 
ATOM     92  C   UNL     1      -0.129 -13.281  11.457  1.00  0.00     0.000 A 
ENDBRANCH  74  87
ENDBRANCH  48  49
ENDBRANCH  41  43
ENDBRANCH  40  41
ENDBRANCH  39  40
ENDBRANCH  38  39
ENDBRANCH  37  38
ENDBRANCH  36  37
ENDBRANCH  35  36
ENDBRANCH  34  35
ENDBRANCH  33  34
ENDBRANCH   1  33
TORSDOF 27
