REMARK SMILES C[C@@H](C(=O)OCCOCCOCCOC(=O)c1ccc(-c2c3nc(c(-c4ccccc4)c4ccc([nH]4)c(-c4ccccc4)c4nc(c(-c5ccccc5)c5ccc2[nH]5)C=C4)C=C3)cc1)c1ccc(C[C@@H]2CCC[C@@H]2O)cc1Br
REMARK SMILES IDX 9 1 8 2 7 3 6 4 5 5 3 6 4 7 2 8 1 9 65 10 66 11 77 12 67 13
REMARK SMILES IDX 76 14 78 15 68 16 69 17 70 18 71 19 74 20 72 21 73 22 75 23
REMARK SMILES IDX 10 25 11 26 12 27 13 28 14 29 15 30 16 31 17 32 18 33 64 34
REMARK SMILES IDX 19 35 63 36 20 37 21 38 22 39 57 40 23 41 62 42 56 43 58 44
REMARK SMILES IDX 24 45 61 46 55 47 54 48 25 50 47 51 32 52 46 53 33 54 36 55
REMARK SMILES IDX 45 56 59 57 34 58 35 59 44 61 60 62 37 63 26 64 27 65 31 66
REMARK SMILES IDX 28 67 30 68 29 69 48 70 49 71 53 72 50 73 52 74 51 75 38 76
REMARK SMILES IDX 39 77 43 78 40 79 42 80 41 81
REMARK H PARENT 75 24 58 49 36 60
REMARK Flexibility Score: inf
ROOT
ATOM      1  C   UNL     1     -11.654   1.562   6.697  1.00  0.00     0.188 C 
ENDROOT
BRANCH   1   2
ATOM      2  O   UNL     1     -11.931   0.788   7.860  1.00  0.00    -0.376 OA
BRANCH   2   3
ATOM      3  C   UNL     1     -11.841   1.429   9.134  1.00  0.00     0.202 C 
BRANCH   3   4
ATOM      4  C   UNL     1     -10.626   2.329   9.436  1.00  0.00     0.261 C 
BRANCH   4   5
ATOM      5  O   UNL     1     -10.419   3.375   8.465  1.00  0.00    -0.463 OA
BRANCH   5   6
ATOM      6  C   UNL     1      -9.134   3.667   8.128  1.00  0.00     0.313 C 
ATOM      7  O   UNL     1      -8.156   3.182   8.688  1.00  0.00    -0.252 OA
BRANCH   6   8
ATOM      8  C   UNL     1      -9.024   4.604   6.904  1.00  0.00     0.127 C 
ATOM      9  C   UNL     1     -10.040   5.748   7.039  1.00  0.00     0.025 C 
BRANCH   8  10
ATOM     10  C   UNL     1      -8.831   3.873   5.550  1.00  0.00    -0.020 A 
ATOM     11  C   UNL     1      -8.197   2.605   5.580  1.00  0.00     0.006 A 
ATOM     12  C   UNL     1      -9.057   4.401   4.261  1.00  0.00     0.022 A 
ATOM     13  C   UNL     1      -7.767   1.933   4.428  1.00  0.00     0.004 A 
ATOM     14  C   UNL     1      -8.589   3.734   3.106  1.00  0.00     0.019 A 
ATOM     15  Br  UNL     1      -9.934   6.041   3.871  1.00  0.00    -0.050 Br
ATOM     16  C   UNL     1      -7.890   2.527   3.181  1.00  0.00    -0.047 A 
BRANCH  16  17
ATOM     17  C   UNL     1      -7.225   1.940   1.960  1.00  0.00     0.041 C 
BRANCH  17  18
ATOM     18  C   UNL     1      -5.697   2.132   1.795  1.00  0.00     0.022 C 
ATOM     19  C   UNL     1      -4.837   1.431   2.854  1.00  0.00     0.007 C 
ATOM     20  C   UNL     1      -5.163   3.566   1.831  1.00  0.00     0.117 C 
ATOM     21  C   UNL     1      -4.449   2.499   3.881  1.00  0.00     0.003 C 
ATOM     22  C   UNL     1      -4.885   3.842   3.302  1.00  0.00     0.032 C 
BRANCH  20  23
ATOM     23  O   UNL     1      -6.043   4.516   1.267  1.00  0.00    -0.393 OA
ATOM     24  H   UNL     1      -6.882   4.508   1.754  1.00  0.00     0.210 HD
ENDBRANCH  20  23
ENDBRANCH  17  18
ENDBRANCH  16  17
ENDBRANCH   8  10
ENDBRANCH   6   8
ENDBRANCH   5   6
ENDBRANCH   4   5
ENDBRANCH   3   4
ENDBRANCH   2   3
ENDBRANCH   1   2
BRANCH   1  25
ATOM     25  C   UNL     1     -12.363   2.916   6.527  1.00  0.00     0.188 C 
BRANCH  25  26
ATOM     26  O   UNL     1     -13.111   3.327   7.646  1.00  0.00    -0.376 OA
BRANCH  26  27
ATOM     27  C   UNL     1     -14.524   3.372   7.556  1.00  0.00     0.202 C 
BRANCH  27  28
ATOM     28  C   UNL     1     -15.336   2.269   6.845  1.00  0.00     0.261 C 
BRANCH  28  29
ATOM     29  O   UNL     1     -14.758   1.658   5.681  1.00  0.00    -0.460 OA
BRANCH  29  30
ATOM     30  C   UNL     1     -14.843   2.338   4.516  1.00  0.00     0.338 C 
ATOM     31  O   UNL     1     -15.378   3.423   4.332  1.00  0.00    -0.246 OA
BRANCH  30  32
ATOM     32  C   UNL     1     -13.964   1.657   3.538  1.00  0.00     0.060 A 
ATOM     33  C   UNL     1     -12.837   2.332   3.046  1.00  0.00     0.016 A 
ATOM     34  C   UNL     1     -14.235   0.349   3.132  1.00  0.00     0.016 A 
ATOM     35  C   UNL     1     -11.986   1.706   2.134  1.00  0.00     0.010 A 
ATOM     36  C   UNL     1     -13.400  -0.265   2.194  1.00  0.00     0.010 A 
ATOM     37  C   UNL     1     -12.287   0.419   1.671  1.00  0.00    -0.014 A 
BRANCH  37  38
ATOM     38  C   UNL     1     -11.559  -0.137   0.504  1.00  0.00     0.031 A 
ATOM     39  C   UNL     1     -12.184   0.001  -0.856  1.00  0.00     0.074 A 
ATOM     40  C   UNL     1     -10.372  -0.753   0.639  1.00  0.00     0.049 A 
ATOM     41  N   UNL     1     -11.774  -0.460  -2.010  1.00  0.00    -0.248 NA
ATOM     42  C   UNL     1     -13.449   0.751  -0.920  1.00  0.00     0.031 C 
ATOM     43  C   UNL     1      -9.644  -0.922   1.894  1.00  0.00     0.029 A 
ATOM     44  N   UNL     1      -9.570  -1.353  -0.301  1.00  0.00    -0.354 N 
ATOM     45  C   UNL     1     -12.745  -0.084  -2.929  1.00  0.00     0.074 A 
ATOM     46  C   UNL     1     -13.768   0.633  -2.200  1.00  0.00     0.031 C 
ATOM     47  C   UNL     1      -8.496  -1.578   1.643  1.00  0.00     0.029 A 
ATOM     48  C   UNL     1      -8.424  -1.901   0.220  1.00  0.00     0.049 A 
ATOM     49  H   UNL     1      -9.796  -1.387  -1.259  1.00  0.00     0.167 HD
ATOM     50  C   UNL     1     -12.787  -0.321  -4.262  1.00  0.00     0.031 A 
ATOM     51  C   UNL     1      -7.438  -2.596  -0.382  1.00  0.00     0.031 A 
ATOM     52  C   UNL     1     -11.780  -1.046  -4.987  1.00  0.00     0.049 A 
ATOM     53  C   UNL     1      -7.537  -2.896  -1.858  1.00  0.00     0.074 A 
ATOM     54  C   UNL     1     -11.730  -1.329  -6.341  1.00  0.00     0.029 A 
ATOM     55  N   UNL     1     -10.650  -1.613  -4.418  1.00  0.00    -0.354 N 
ATOM     56  N   UNL     1      -8.448  -2.516  -2.722  1.00  0.00    -0.248 NA
ATOM     57  C   UNL     1      -6.474  -3.731  -2.437  1.00  0.00     0.031 C 
ATOM     58  C   UNL     1     -10.605  -2.123  -6.580  1.00  0.00     0.029 A 
ATOM     59  C   UNL     1      -9.913  -2.269  -5.389  1.00  0.00     0.049 A 
ATOM     60  H   UNL     1     -10.408  -1.556  -3.466  1.00  0.00     0.167 HD
ATOM     61  C   UNL     1      -8.056  -3.047  -3.946  1.00  0.00     0.074 A 
ATOM     62  C   UNL     1      -6.812  -3.751  -3.719  1.00  0.00     0.031 C 
ATOM     63  C   UNL     1      -8.674  -2.964  -5.151  1.00  0.00     0.031 A 
BRANCH  50  64
ATOM     64  C   UNL     1     -13.998   0.163  -5.011  1.00  0.00    -0.014 A 
ATOM     65  C   UNL     1     -14.229   1.529  -5.234  1.00  0.00     0.009 A 
ATOM     66  C   UNL     1     -14.909  -0.773  -5.526  1.00  0.00     0.009 A 
ATOM     67  C   UNL     1     -15.367   1.948  -5.926  1.00  0.00     0.001 A 
ATOM     68  C   UNL     1     -16.027  -0.353  -6.247  1.00  0.00     0.001 A 
ATOM     69  C   UNL     1     -16.261   1.008  -6.437  1.00  0.00     0.000 A 
ENDBRANCH  50  64
BRANCH  51  70
ATOM     70  C   UNL     1      -6.271  -3.086   0.403  1.00  0.00    -0.014 A 
ATOM     71  C   UNL     1      -4.980  -2.599   0.144  1.00  0.00     0.009 A 
ATOM     72  C   UNL     1      -6.434  -4.074   1.387  1.00  0.00     0.009 A 
ATOM     73  C   UNL     1      -3.876  -3.111   0.832  1.00  0.00     0.001 A 
ATOM     74  C   UNL     1      -5.335  -4.557   2.099  1.00  0.00     0.001 A 
ATOM     75  C   UNL     1      -4.055  -4.085   1.813  1.00  0.00     0.000 A 
ENDBRANCH  51  70
BRANCH  63  76
ATOM     76  C   UNL     1      -7.995  -3.612  -6.328  1.00  0.00    -0.014 A 
ATOM     77  C   UNL     1      -7.917  -5.007  -6.456  1.00  0.00     0.009 A 
ATOM     78  C   UNL     1      -7.467  -2.807  -7.352  1.00  0.00     0.009 A 
ATOM     79  C   UNL     1      -7.293  -5.582  -7.566  1.00  0.00     0.001 A 
ATOM     80  C   UNL     1      -6.875  -3.384  -8.476  1.00  0.00     0.001 A 
ATOM     81  C   UNL     1      -6.779  -4.771  -8.577  1.00  0.00     0.000 A 
ENDBRANCH  63  76
ENDBRANCH  37  38
ENDBRANCH  30  32
ENDBRANCH  29  30
ENDBRANCH  28  29
ENDBRANCH  27  28
ENDBRANCH  26  27
ENDBRANCH  25  26
ENDBRANCH   1  25
TORSDOF 21
