REMARK SMILES O=C(C[C@@H]1CSCC[NH2+]1)NC[C@@H](C(=O)OCCOCCOCCOC(=O)c1ccc(-c2c3nc(c(-c4ccccc4)c4ccc([nH]4)c(-c4ccccc4)c4nc(c(-c5ccccc5)c5ccc2[nH]5)C=C4)C=C3)cc1)c1ccccc1
REMARK SMILES IDX 19 1 18 2 17 3 16 4 15 5 13 6 14 7 12 8 11 9 10 10 1 11 2 12
REMARK SMILES IDX 3 14 4 15 5 16 9 17 6 18 8 19 7 22 75 23 76 24 80 25 77 26
REMARK SMILES IDX 79 27 78 28 20 29 21 30 22 31 23 32 24 33 25 34 26 35 27 36
REMARK SMILES IDX 28 37 74 38 29 39 73 40 30 41 31 42 32 43 67 44 33 45 72 46
REMARK SMILES IDX 66 47 68 48 34 49 71 50 65 51 64 52 35 54 57 55 42 56 56 57
REMARK SMILES IDX 43 58 46 59 55 60 69 61 44 62 45 63 54 65 70 66 47 67 36 68
REMARK SMILES IDX 37 69 41 70 38 71 40 72 39 73 58 74 59 75 63 76 60 77 62 78
REMARK SMILES IDX 61 79 48 80 49 81 53 82 50 83 52 84 51 85
REMARK H PARENT 10 13 9 20 9 21 68 53 46 64
REMARK Flexibility Score: inf
ROOT
ATOM      1  C   UNL     1       5.283  -4.778   2.558  1.00  0.00     0.188 C 
ENDROOT
BRANCH   1   2
ATOM      2  O   UNL     1       6.495  -5.082   1.884  1.00  0.00    -0.376 OA
BRANCH   2   3
ATOM      3  C   UNL     1       7.011  -4.059   1.042  1.00  0.00     0.202 C 
BRANCH   3   4
ATOM      4  C   UNL     1       6.147  -3.622  -0.153  1.00  0.00     0.261 C 
BRANCH   4   5
ATOM      5  O   UNL     1       4.795  -3.243   0.187  1.00  0.00    -0.463 OA
BRANCH   5   6
ATOM      6  C   UNL     1       3.802  -3.886  -0.494  1.00  0.00     0.315 C 
ATOM      7  O   UNL     1       4.010  -4.690  -1.399  1.00  0.00    -0.251 OA
BRANCH   6   8
ATOM      8  C   UNL     1       2.388  -3.579   0.015  1.00  0.00     0.148 C 
BRANCH   8   9
ATOM      9  C   UNL     1       2.227  -2.138   0.537  1.00  0.00     0.136 C 
BRANCH   9  10
ATOM     10  N   UNL     1       2.721  -1.061  -0.309  1.00  0.00    -0.355 N 
ATOM     11  O   UNL     1       0.748   0.110  -0.356  1.00  0.00    -0.275 OA
ATOM     12  C   UNL     1       1.954   0.050  -0.590  1.00  0.00     0.226 C 
ATOM     13  H   UNL     1       3.626  -1.128  -0.691  1.00  0.00     0.163 HD
BRANCH  12  14
ATOM     14  C   UNL     1       2.692   1.235  -1.187  1.00  0.00     0.165 C 
BRANCH  14  15
ATOM     15  C   UNL     1       3.420   2.209  -0.224  1.00  0.00     0.201 C 
ATOM     16  C   UNL     1       4.916   1.905  -0.049  1.00  0.00     0.135 C 
ATOM     17  N   UNL     1       2.776   2.532   1.060  1.00  0.00    -0.342 N 
ATOM     18  S   UNL     1       5.197   0.387   0.876  1.00  0.00    -0.150 SA
ATOM     19  C   UNL     1       2.827   1.471   2.072  1.00  0.00     0.271 C 
ATOM     20  H   UNL     1       1.796   2.746   0.876  1.00  0.00     0.346 HD
ATOM     21  H   UNL     1       3.300   3.317   1.448  1.00  0.00     0.346 HD
ATOM     22  C   UNL     1       4.179   0.795   2.343  1.00  0.00     0.131 C 
ENDBRANCH  14  15
ENDBRANCH  12  14
ENDBRANCH   9  10
ENDBRANCH   8   9
BRANCH   8  23
ATOM     23  C   UNL     1       1.843  -4.647   0.996  1.00  0.00    -0.032 A 
ATOM     24  C   UNL     1       0.984  -4.320   2.065  1.00  0.00     0.004 A 
ATOM     25  C   UNL     1       2.120  -6.014   0.802  1.00  0.00     0.004 A 
ATOM     26  C   UNL     1       0.444  -5.304   2.902  1.00  0.00     0.000 A 
ATOM     27  C   UNL     1       1.597  -6.996   1.654  1.00  0.00     0.000 A 
ATOM     28  C   UNL     1       0.755  -6.641   2.701  1.00  0.00     0.000 A 
ENDBRANCH   8  23
ENDBRANCH   6   8
ENDBRANCH   5   6
ENDBRANCH   4   5
ENDBRANCH   3   4
ENDBRANCH   2   3
ENDBRANCH   1   2
BRANCH   1  29
ATOM     29  C   UNL     1       5.307  -3.585   3.510  1.00  0.00     0.188 C 
BRANCH  29  30
ATOM     30  O   UNL     1       5.578  -2.292   2.988  1.00  0.00    -0.376 OA
BRANCH  30  31
ATOM     31  C   UNL     1       6.640  -1.539   3.584  1.00  0.00     0.202 C 
BRANCH  31  32
ATOM     32  C   UNL     1       6.766  -1.351   5.108  1.00  0.00     0.261 C 
BRANCH  32  33
ATOM     33  O   UNL     1       5.968  -2.205   5.918  1.00  0.00    -0.460 OA
BRANCH  33  34
ATOM     34  C   UNL     1       4.651  -1.904   5.971  1.00  0.00     0.338 C 
ATOM     35  O   UNL     1       4.106  -0.899   5.541  1.00  0.00    -0.246 OA
BRANCH  34  36
ATOM     36  C   UNL     1       3.945  -3.120   6.446  1.00  0.00     0.060 A 
ATOM     37  C   UNL     1       2.681  -3.401   5.911  1.00  0.00     0.016 A 
ATOM     38  C   UNL     1       4.556  -4.025   7.323  1.00  0.00     0.016 A 
ATOM     39  C   UNL     1       2.003  -4.555   6.298  1.00  0.00     0.010 A 
ATOM     40  C   UNL     1       3.877  -5.179   7.711  1.00  0.00     0.010 A 
ATOM     41  C   UNL     1       2.577  -5.418   7.239  1.00  0.00    -0.014 A 
BRANCH  41  42
ATOM     42  C   UNL     1       1.709  -6.387   7.945  1.00  0.00     0.031 A 
ATOM     43  C   UNL     1       1.154  -5.966   9.279  1.00  0.00     0.074 A 
ATOM     44  C   UNL     1       1.378  -7.574   7.411  1.00  0.00     0.049 A 
ATOM     45  N   UNL     1       0.374  -6.619  10.101  1.00  0.00    -0.248 NA
ATOM     46  C   UNL     1       1.538  -4.624   9.752  1.00  0.00     0.031 C 
ATOM     47  C   UNL     1       1.806  -8.071   6.106  1.00  0.00     0.029 A 
ATOM     48  N   UNL     1       0.586  -8.576   7.913  1.00  0.00    -0.354 N 
ATOM     49  C   UNL     1       0.193  -5.775  11.189  1.00  0.00     0.074 A 
ATOM     50  C   UNL     1       0.967  -4.581  10.943  1.00  0.00     0.031 C 
ATOM     51  C   UNL     1       1.258  -9.284   5.903  1.00  0.00     0.029 A 
ATOM     52  C   UNL     1       0.475  -9.660   7.079  1.00  0.00     0.049 A 
ATOM     53  H   UNL     1       0.141  -8.522   8.789  1.00  0.00     0.167 HD
ATOM     54  C   UNL     1      -0.557  -5.971  12.298  1.00  0.00     0.031 A 
ATOM     55  C   UNL     1      -0.179 -10.825   7.257  1.00  0.00     0.031 A 
ATOM     56  C   UNL     1      -1.318  -7.163  12.549  1.00  0.00     0.049 A 
ATOM     57  C   UNL     1      -0.944 -11.053   8.538  1.00  0.00     0.074 A 
ATOM     58  C   UNL     1      -2.119  -7.460  13.636  1.00  0.00     0.029 A 
ATOM     59  N   UNL     1      -1.363  -8.260  11.703  1.00  0.00    -0.354 N 
ATOM     60  N   UNL     1      -1.128 -10.242   9.553  1.00  0.00    -0.248 NA
ATOM     61  C   UNL     1      -1.601 -12.360   8.689  1.00  0.00     0.031 C 
ATOM     62  C   UNL     1      -2.595  -8.765  13.480  1.00  0.00     0.029 A 
ATOM     63  C   UNL     1      -2.156  -9.249  12.258  1.00  0.00     0.049 A 
ATOM     64  H   UNL     1      -0.900  -8.326  10.837  1.00  0.00     0.167 HD
ATOM     65  C   UNL     1      -1.956 -10.923  10.440  1.00  0.00     0.074 A 
ATOM     66  C   UNL     1      -2.244 -12.207   9.838  1.00  0.00     0.031 C 
ATOM     67  C   UNL     1      -2.440 -10.519  11.641  1.00  0.00     0.031 A 
BRANCH  54  68
ATOM     68  C   UNL     1      -0.535  -4.890  13.341  1.00  0.00    -0.014 A 
ATOM     69  C   UNL     1      -1.124  -3.634  13.117  1.00  0.00     0.009 A 
ATOM     70  C   UNL     1       0.092  -5.135  14.572  1.00  0.00     0.009 A 
ATOM     71  C   UNL     1      -1.046  -2.634  14.089  1.00  0.00     0.001 A 
ATOM     72  C   UNL     1       0.137  -4.146  15.555  1.00  0.00     0.001 A 
ATOM     73  C   UNL     1      -0.421  -2.892  15.308  1.00  0.00     0.000 A 
ENDBRANCH  54  68
BRANCH  55  74
ATOM     74  C   UNL     1      -0.143 -11.879   6.207  1.00  0.00    -0.014 A 
ATOM     75  C   UNL     1      -1.310 -12.240   5.515  1.00  0.00     0.009 A 
ATOM     76  C   UNL     1       1.049 -12.562   5.921  1.00  0.00     0.009 A 
ATOM     77  C   UNL     1      -1.291 -13.283   4.585  1.00  0.00     0.001 A 
ATOM     78  C   UNL     1       1.073 -13.581   4.966  1.00  0.00     0.001 A 
ATOM     79  C   UNL     1      -0.099 -13.949   4.309  1.00  0.00     0.000 A 
ENDBRANCH  55  74
BRANCH  67  80
ATOM     80  C   UNL     1      -3.389 -11.445  12.354  1.00  0.00    -0.014 A 
ATOM     81  C   UNL     1      -2.962 -12.659  12.913  1.00  0.00     0.009 A 
ATOM     82  C   UNL     1      -4.734 -11.068  12.502  1.00  0.00     0.009 A 
ATOM     83  C   UNL     1      -3.872 -13.495  13.564  1.00  0.00     0.001 A 
ATOM     84  C   UNL     1      -5.633 -11.887  13.185  1.00  0.00     0.001 A 
ATOM     85  C   UNL     1      -5.204 -13.107  13.704  1.00  0.00     0.000 A 
ENDBRANCH  67  80
ENDBRANCH  41  42
ENDBRANCH  34  36
ENDBRANCH  33  34
ENDBRANCH  32  33
ENDBRANCH  31  32
ENDBRANCH  30  31
ENDBRANCH  29  30
ENDBRANCH   1  29
TORSDOF 22
