REMARK SMILES CC(=O)Nc1nc(C[N@@H+]2CCO[C@@H](CC(=O)OCCOCCOCCOC(=O)c3ccc(-c4c5nc(c(-c6ccccc6)c6ccc([nH]6)c(-c6ccccc6)c6nc(c(-c7ccccc7)c7ccc4[nH]7)C=C6)C=C5)cc3)C2)cs1
REMARK SMILES IDX 21 1 20 2 19 3 18 4 17 5 15 6 16 7 14 8 13 9 9 10 10 11
REMARK SMILES IDX 77 12 11 14 12 15 8 16 7 17 5 18 6 19 79 20 78 21 4 22 1 23
REMARK SMILES IDX 2 24 3 25 22 27 23 28 24 29 25 30 26 31 27 32 28 33 29 34
REMARK SMILES IDX 30 35 76 36 31 37 75 38 32 39 33 40 34 41 69 42 35 43 74 44
REMARK SMILES IDX 68 45 70 46 36 47 73 48 67 49 66 50 37 52 59 53 44 54 58 55
REMARK SMILES IDX 45 56 48 57 57 58 71 59 46 60 47 61 56 63 72 64 49 65 38 66
REMARK SMILES IDX 39 67 43 68 40 69 42 70 41 71 60 72 61 73 65 74 62 75 64 76
REMARK SMILES IDX 63 77 50 78 51 79 55 80 52 81 54 82 53 83
REMARK H PARENT 9 13 4 26 70 51 48 62
REMARK Flexibility Score: inf
ROOT
ATOM      1  C   UNL     1       3.947   1.566  -1.152  1.00  0.00     0.188 C 
ENDROOT
BRANCH   1   2
ATOM      2  O   UNL     1       4.741   1.737  -2.313  1.00  0.00    -0.376 OA
BRANCH   2   3
ATOM      3  C   UNL     1       6.121   1.965  -2.099  1.00  0.00     0.202 C 
BRANCH   3   4
ATOM      4  C   UNL     1       6.441   3.401  -1.690  1.00  0.00     0.261 C 
BRANCH   4   5
ATOM      5  O   UNL     1       6.199   3.652  -0.289  1.00  0.00    -0.463 OA
BRANCH   5   6
ATOM      6  C   UNL     1       5.293   4.626   0.006  1.00  0.00     0.308 C 
ATOM      7  O   UNL     1       4.523   5.143  -0.791  1.00  0.00    -0.252 OA
BRANCH   6   8
ATOM      8  C   UNL     1       5.425   5.078   1.436  1.00  0.00     0.160 C 
BRANCH   8   9
ATOM      9  C   UNL     1       4.825   4.160   2.494  1.00  0.00     0.184 C 
ATOM     10  N   UNL     1       5.021   1.921   3.670  1.00  0.00    -0.326 N 
ATOM     11  C   UNL     1       5.064   2.669   4.931  1.00  0.00     0.291 C 
ATOM     12  C   UNL     1       5.476   2.762   2.552  1.00  0.00     0.295 C 
ATOM     13  H   UNL     1       5.708   1.172   3.756  1.00  0.00     0.348 HD
ATOM     14  C   UNL     1       4.506   4.099   4.860  1.00  0.00     0.222 C 
ATOM     15  O   UNL     1       5.032   4.838   3.755  1.00  0.00    -0.366 OA
BRANCH  10  16
ATOM     16  C   UNL     1       3.839   1.078   3.438  1.00  0.00     0.320 C 
BRANCH  16  17
ATOM     17  C   UNL     1       2.583   1.816   3.051  1.00  0.00     0.108 A 
ATOM     18  C   UNL     1       1.174   2.735   1.603  1.00  0.00     0.189 A 
ATOM     19  N   UNL     1       2.206   1.933   1.702  1.00  0.00    -0.219 NA
ATOM     20  S   UNL     1       0.553   3.348   3.072  1.00  0.00    -0.105 S 
ATOM     21  C   UNL     1       1.688   2.400   3.932  1.00  0.00     0.098 A 
BRANCH  18  22
ATOM     22  N   UNL     1       0.550   3.252   0.507  1.00  0.00    -0.302 N 
ATOM     23  C   UNL     1       0.648   1.337  -1.085  1.00  0.00     0.114 C 
ATOM     24  C   UNL     1       0.538   2.803  -0.774  1.00  0.00     0.223 C 
ATOM     25  O   UNL     1       0.204   3.589  -1.666  1.00  0.00    -0.275 OA
ATOM     26  H   UNL     1       0.032   4.073   0.668  1.00  0.00     0.172 HD
ENDBRANCH  18  22
ENDBRANCH  16  17
ENDBRANCH  10  16
ENDBRANCH   8   9
ENDBRANCH   6   8
ENDBRANCH   5   6
ENDBRANCH   4   5
ENDBRANCH   3   4
ENDBRANCH   2   3
ENDBRANCH   1   2
BRANCH   1  27
ATOM     27  C   UNL     1       4.306   0.402  -0.236  1.00  0.00     0.188 C 
BRANCH  27  28
ATOM     28  O   UNL     1       4.435  -0.838  -0.929  1.00  0.00    -0.376 OA
BRANCH  28  29
ATOM     29  C   UNL     1       4.626  -1.909   0.004  1.00  0.00     0.202 C 
BRANCH  29  30
ATOM     30  C   UNL     1       3.437  -2.868  -0.008  1.00  0.00     0.261 C 
BRANCH  30  31
ATOM     31  O   UNL     1       2.156  -2.217   0.108  1.00  0.00    -0.460 OA
BRANCH  31  32
ATOM     32  C   UNL     1       1.695  -1.931   1.347  1.00  0.00     0.338 C 
ATOM     33  O   UNL     1       2.307  -2.063   2.397  1.00  0.00    -0.246 OA
BRANCH  32  34
ATOM     34  C   UNL     1       0.324  -1.352   1.235  1.00  0.00     0.060 A 
ATOM     35  C   UNL     1      -0.120  -0.462   2.218  1.00  0.00     0.016 A 
ATOM     36  C   UNL     1      -0.518  -1.640   0.151  1.00  0.00     0.016 A 
ATOM     37  C   UNL     1      -1.347   0.204   2.077  1.00  0.00     0.010 A 
ATOM     38  C   UNL     1      -1.760  -0.996   0.024  1.00  0.00     0.010 A 
ATOM     39  C   UNL     1      -2.173  -0.046   0.971  1.00  0.00    -0.014 A 
BRANCH  39  40
ATOM     40  C   UNL     1      -3.546   0.529   0.919  1.00  0.00     0.031 A 
ATOM     41  C   UNL     1      -4.628  -0.200   1.650  1.00  0.00     0.074 A 
ATOM     42  C   UNL     1      -3.858   1.661   0.259  1.00  0.00     0.049 A 
ATOM     43  N   UNL     1      -5.887   0.117   1.794  1.00  0.00    -0.248 NA
ATOM     44  C   UNL     1      -4.229  -1.451   2.313  1.00  0.00     0.031 C 
ATOM     45  C   UNL     1      -2.919   2.487  -0.478  1.00  0.00     0.029 A 
ATOM     46  N   UNL     1      -5.057   2.315   0.092  1.00  0.00    -0.354 N 
ATOM     47  C   UNL     1      -6.427  -0.881   2.586  1.00  0.00     0.074 A 
ATOM     48  C   UNL     1      -5.370  -1.831   2.862  1.00  0.00     0.031 C 
ATOM     49  C   UNL     1      -3.557   3.532  -1.029  1.00  0.00     0.029 A 
ATOM     50  C   UNL     1      -4.974   3.437  -0.703  1.00  0.00     0.049 A 
ATOM     51  H   UNL     1      -5.898   2.010   0.504  1.00  0.00     0.167 HD
ATOM     52  C   UNL     1      -7.692  -1.005   3.047  1.00  0.00     0.031 A 
ATOM     53  C   UNL     1      -5.929   4.283  -1.140  1.00  0.00     0.031 A 
ATOM     54  C   UNL     1      -8.773  -0.127   2.703  1.00  0.00     0.049 A 
ATOM     55  C   UNL     1      -7.354   4.056  -0.718  1.00  0.00     0.074 A 
ATOM     56  C   UNL     1     -10.099  -0.202   3.087  1.00  0.00     0.029 A 
ATOM     57  N   UNL     1      -8.659   0.967   1.858  1.00  0.00    -0.354 N 
ATOM     58  N   UNL     1      -7.840   3.139   0.083  1.00  0.00    -0.248 NA
ATOM     59  C   UNL     1      -8.363   4.981  -1.256  1.00  0.00     0.031 C 
ATOM     60  C   UNL     1     -10.799   0.816   2.430  1.00  0.00     0.029 A 
ATOM     61  C   UNL     1      -9.898   1.557   1.682  1.00  0.00     0.049 A 
ATOM     62  H   UNL     1      -7.821   1.277   1.445  1.00  0.00     0.167 HD
ATOM     63  C   UNL     1      -9.204   3.389   0.163  1.00  0.00     0.074 A 
ATOM     64  C   UNL     1      -9.467   4.552  -0.659  1.00  0.00     0.031 C 
ATOM     65  C   UNL     1     -10.150   2.713   0.859  1.00  0.00     0.031 A 
BRANCH  52  66
ATOM     66  C   UNL     1      -7.947  -2.195   3.920  1.00  0.00    -0.014 A 
ATOM     67  C   UNL     1      -7.439  -2.247   5.229  1.00  0.00     0.009 A 
ATOM     68  C   UNL     1      -8.609  -3.312   3.394  1.00  0.00     0.009 A 
ATOM     69  C   UNL     1      -7.541  -3.422   5.974  1.00  0.00     0.001 A 
ATOM     70  C   UNL     1      -8.732  -4.476   4.152  1.00  0.00     0.001 A 
ATOM     71  C   UNL     1      -8.184  -4.535   5.434  1.00  0.00     0.000 A 
ENDBRANCH  52  66
BRANCH  53  72
ATOM     72  C   UNL     1      -5.586   5.408  -2.054  1.00  0.00    -0.014 A 
ATOM     73  C   UNL     1      -5.660   6.740  -1.618  1.00  0.00     0.009 A 
ATOM     74  C   UNL     1      -5.218   5.154  -3.385  1.00  0.00     0.009 A 
ATOM     75  C   UNL     1      -5.398   7.792  -2.502  1.00  0.00     0.001 A 
ATOM     76  C   UNL     1      -4.933   6.206  -4.259  1.00  0.00     0.001 A 
ATOM     77  C   UNL     1      -5.032   7.524  -3.820  1.00  0.00     0.000 A 
ENDBRANCH  53  72
BRANCH  65  78
ATOM     78  C   UNL     1     -11.559   3.228   0.790  1.00  0.00    -0.014 A 
ATOM     79  C   UNL     1     -12.344   3.056  -0.360  1.00  0.00     0.009 A 
ATOM     80  C   UNL     1     -12.127   3.841   1.918  1.00  0.00     0.009 A 
ATOM     81  C   UNL     1     -13.666   3.506  -0.385  1.00  0.00     0.001 A 
ATOM     82  C   UNL     1     -13.456   4.266   1.899  1.00  0.00     0.001 A 
ATOM     83  C   UNL     1     -14.222   4.103   0.746  1.00  0.00     0.000 A 
ENDBRANCH  65  78
ENDBRANCH  39  40
ENDBRANCH  32  34
ENDBRANCH  31  32
ENDBRANCH  30  31
ENDBRANCH  29  30
ENDBRANCH  28  29
ENDBRANCH  27  28
ENDBRANCH   1  27
TORSDOF 21
