REMARK SMILES O=C(OCCOCCOCCOC(=O)[C@@H]1CCCC[C@H]1C(=O)Nc1cnn(Cc2ccc(Cl)c(Cl)c2)c1)c1ccc(-c2c3nc(c(-c4ccccc4)c4ccc([nH]4)c(-c4ccccc4)c4nc(c(-c5ccccc5)c5ccc2[nH]5)C=C4)C=C3)cc1
REMARK SMILES IDX 8 1 7 2 6 3 5 4 4 5 3 6 2 7 1 8 38 9 39 10 85 11 40 12 84 13
REMARK SMILES IDX 41 14 42 15 43 16 78 17 44 18 83 19 77 20 79 21 45 22 82 23
REMARK SMILES IDX 76 24 75 25 46 27 68 28 53 29 67 30 54 31 57 32 66 33 80 34
REMARK SMILES IDX 55 35 56 36 65 38 81 39 58 40 47 41 48 42 52 43 49 44 51 45
REMARK SMILES IDX 50 46 69 47 70 48 74 49 71 50 73 51 72 52 59 53 60 54 64 55
REMARK SMILES IDX 61 56 63 57 62 58 9 59 10 60 11 61 12 62 13 63 14 64 15 65
REMARK SMILES IDX 16 66 20 67 17 68 19 69 18 70 21 71 22 72 23 73 24 75 25 76
REMARK SMILES IDX 37 77 26 78 27 79 28 80 29 81 30 82 36 83 31 84 34 85 32 86
REMARK SMILES IDX 35 87 33 88
REMARK H PARENT 79 26 57 37 23 74
REMARK Flexibility Score: inf
ROOT
ATOM      1  C   UNL     1       2.659   0.528  -2.802  1.00  0.00     0.188 C 
ENDROOT
BRANCH   1   2
ATOM      2  C   UNL     1       2.471   0.828  -1.318  1.00  0.00     0.188 C 
BRANCH   2   3
ATOM      3  O   UNL     1       3.563   0.969  -0.426  1.00  0.00    -0.376 OA
BRANCH   3   4
ATOM      4  C   UNL     1       4.760   0.223  -0.538  1.00  0.00     0.202 C 
BRANCH   4   5
ATOM      5  C   UNL     1       4.715  -1.296  -0.366  1.00  0.00     0.261 C 
BRANCH   5   6
ATOM      6  O   UNL     1       3.454  -1.947  -0.543  1.00  0.00    -0.460 OA
BRANCH   6   7
ATOM      7  C   UNL     1       2.369  -1.904   0.256  1.00  0.00     0.338 C 
ATOM      8  O   UNL     1       1.320  -2.425  -0.112  1.00  0.00    -0.246 OA
BRANCH   7   9
ATOM      9  C   UNL     1       2.347  -1.170   1.548  1.00  0.00     0.060 A 
ATOM     10  C   UNL     1       3.372  -1.241   2.490  1.00  0.00     0.016 A 
ATOM     11  C   UNL     1       1.131  -0.544   1.885  1.00  0.00     0.016 A 
ATOM     12  C   UNL     1       3.163  -0.749   3.771  1.00  0.00     0.010 A 
ATOM     13  C   UNL     1       0.910  -0.077   3.173  1.00  0.00     0.010 A 
ATOM     14  C   UNL     1       1.910  -0.241   4.127  1.00  0.00    -0.014 A 
BRANCH  14  15
ATOM     15  C   UNL     1       1.653  -0.045   5.548  1.00  0.00     0.031 A 
ATOM     16  C   UNL     1       2.276   1.121   6.216  1.00  0.00     0.074 A 
ATOM     17  C   UNL     1       0.843  -0.873   6.239  1.00  0.00     0.049 A 
ATOM     18  N   UNL     1       3.124   1.117   7.193  1.00  0.00    -0.248 NA
ATOM     19  C   UNL     1       1.920   2.458   5.727  1.00  0.00     0.031 C 
ATOM     20  C   UNL     1      -0.063  -1.892   5.702  1.00  0.00     0.029 A 
ATOM     21  N   UNL     1       0.588  -0.899   7.580  1.00  0.00    -0.354 N 
ATOM     22  C   UNL     1       3.291   2.449   7.562  1.00  0.00     0.074 A 
ATOM     23  C   UNL     1       2.608   3.236   6.563  1.00  0.00     0.031 C 
ATOM     24  C   UNL     1      -0.921  -2.275   6.672  1.00  0.00     0.029 A 
ATOM     25  C   UNL     1      -0.537  -1.633   7.918  1.00  0.00     0.049 A 
ATOM     26  H   UNL     1       1.150  -0.439   8.244  1.00  0.00     0.167 HD
ATOM     27  C   UNL     1       3.793   2.803   8.778  1.00  0.00     0.031 A 
ATOM     28  C   UNL     1      -1.157  -1.668   9.120  1.00  0.00     0.031 A 
ATOM     29  C   UNL     1       4.520   1.732   9.407  1.00  0.00     0.049 A 
ATOM     30  C   UNL     1      -0.204  -1.206  10.151  1.00  0.00     0.074 A 
ATOM     31  C   UNL     1       5.608   0.951   9.071  1.00  0.00     0.029 A 
ATOM     32  N   UNL     1       3.943   1.113  10.489  1.00  0.00    -0.354 N 
ATOM     33  N   UNL     1       0.829  -1.891  10.545  1.00  0.00    -0.248 NA
ATOM     34  C   UNL     1      -0.191   0.203  10.512  1.00  0.00     0.031 C 
ATOM     35  C   UNL     1       5.347  -0.324   9.656  1.00  0.00     0.029 A 
ATOM     36  C   UNL     1       4.128  -0.233  10.328  1.00  0.00     0.049 A 
ATOM     37  H   UNL     1       3.483   1.555  11.239  1.00  0.00     0.167 HD
ATOM     38  C   UNL     1       1.802  -0.941  10.816  1.00  0.00     0.074 A 
ATOM     39  C   UNL     1       1.078   0.322  10.911  1.00  0.00     0.031 C 
ATOM     40  C   UNL     1       3.129  -1.225  10.653  1.00  0.00     0.031 A 
BRANCH  27  41
ATOM     41  C   UNL     1       3.281   3.985   9.571  1.00  0.00    -0.014 A 
ATOM     42  C   UNL     1       3.872   4.274  10.816  1.00  0.00     0.009 A 
ATOM     43  C   UNL     1       2.057   4.622   9.292  1.00  0.00     0.009 A 
ATOM     44  C   UNL     1       3.223   5.074  11.765  1.00  0.00     0.001 A 
ATOM     45  C   UNL     1       1.431   5.461  10.218  1.00  0.00     0.001 A 
ATOM     46  C   UNL     1       1.997   5.658  11.469  1.00  0.00     0.000 A 
ENDBRANCH  27  41
BRANCH  28  47
ATOM     47  C   UNL     1      -2.595  -1.866   9.394  1.00  0.00    -0.014 A 
ATOM     48  C   UNL     1      -3.047  -2.218  10.674  1.00  0.00     0.009 A 
ATOM     49  C   UNL     1      -3.556  -1.471   8.444  1.00  0.00     0.009 A 
ATOM     50  C   UNL     1      -4.409  -2.151  10.996  1.00  0.00     0.001 A 
ATOM     51  C   UNL     1      -4.915  -1.414   8.762  1.00  0.00     0.001 A 
ATOM     52  C   UNL     1      -5.340  -1.741  10.044  1.00  0.00     0.000 A 
ENDBRANCH  28  47
BRANCH  40  53
ATOM     53  C   UNL     1       3.529  -2.667  10.471  1.00  0.00    -0.014 A 
ATOM     54  C   UNL     1       3.060  -3.453   9.405  1.00  0.00     0.009 A 
ATOM     55  C   UNL     1       4.520  -3.201  11.309  1.00  0.00     0.009 A 
ATOM     56  C   UNL     1       3.538  -4.752   9.209  1.00  0.00     0.001 A 
ATOM     57  C   UNL     1       5.014  -4.491  11.098  1.00  0.00     0.001 A 
ATOM     58  C   UNL     1       4.518  -5.268  10.053  1.00  0.00     0.000 A 
ENDBRANCH  40  53
ENDBRANCH  14  15
ENDBRANCH   7   9
ENDBRANCH   6   7
ENDBRANCH   5   6
ENDBRANCH   4   5
ENDBRANCH   3   4
ENDBRANCH   2   3
ENDBRANCH   1   2
BRANCH   1  59
ATOM     59  O   UNL     1       3.937   0.009  -3.112  1.00  0.00    -0.376 OA
BRANCH  59  60
ATOM     60  C   UNL     1       4.645   0.783  -4.068  1.00  0.00     0.202 C 
BRANCH  60  61
ATOM     61  C   UNL     1       5.175   2.167  -3.617  1.00  0.00     0.261 C 
BRANCH  61  62
ATOM     62  O   UNL     1       4.488   2.848  -2.536  1.00  0.00    -0.463 OA
BRANCH  62  63
ATOM     63  C   UNL     1       3.626   3.818  -2.911  1.00  0.00     0.309 C 
ATOM     64  O   UNL     1       3.288   3.980  -4.081  1.00  0.00    -0.252 OA
BRANCH  63  65
ATOM     65  C   UNL     1       3.011   4.669  -1.775  1.00  0.00     0.111 C 
ATOM     66  C   UNL     1       2.917   6.090  -2.383  1.00  0.00     0.016 C 
ATOM     67  C   UNL     1       3.630   4.646  -0.359  1.00  0.00     0.093 C 
ATOM     68  C   UNL     1       2.583   7.205  -1.412  1.00  0.00     0.001 C 
ATOM     69  C   UNL     1       3.541   5.954   0.476  1.00  0.00     0.014 C 
ATOM     70  C   UNL     1       3.621   7.239  -0.313  1.00  0.00     0.001 C 
BRANCH  67  71
ATOM     71  C   UNL     1       3.128   3.594   0.647  1.00  0.00     0.228 C 
ATOM     72  O   UNL     1       3.981   2.991   1.320  1.00  0.00    -0.274 OA
ATOM     73  N   UNL     1       1.843   3.461   1.099  1.00  0.00    -0.323 N 
ATOM     74  H   UNL     1       1.755   2.782   1.807  1.00  0.00     0.170 HD
BRANCH  73  75
ATOM     75  C   UNL     1       0.642   4.066   0.787  1.00  0.00     0.079 A 
ATOM     76  C   UNL     1      -0.045   4.334  -0.415  1.00  0.00     0.161 A 
ATOM     77  C   UNL     1      -0.249   4.477   1.760  1.00  0.00     0.135 A 
ATOM     78  N   UNL     1      -1.207   4.963  -0.226  1.00  0.00    -0.179 NA
ATOM     79  N   UNL     1      -1.263   5.125   1.107  1.00  0.00    -0.266 N 
BRANCH  79  80
ATOM     80  C   UNL     1      -2.323   5.940   1.690  1.00  0.00     0.179 C 
BRANCH  80  81
ATOM     81  C   UNL     1      -1.985   7.415   1.625  1.00  0.00    -0.025 A 
ATOM     82  C   UNL     1      -1.875   8.071   0.388  1.00  0.00     0.007 A 
ATOM     83  C   UNL     1      -1.778   8.158   2.797  1.00  0.00     0.027 A 
ATOM     84  C   UNL     1      -1.548   9.428   0.321  1.00  0.00     0.022 A 
ATOM     85  C   UNL     1      -1.459   9.522   2.733  1.00  0.00     0.060 A 
ATOM     86  C   UNL     1      -1.339  10.157   1.492  1.00  0.00     0.059 A 
ATOM     87  Cl  UNL     1      -1.224  10.358   4.227  1.00  0.00    -0.083 Cl
ATOM     88  Cl  UNL     1      -0.939  11.830   1.339  1.00  0.00    -0.083 Cl
ENDBRANCH  80  81
ENDBRANCH  79  80
ENDBRANCH  73  75
ENDBRANCH  67  71
ENDBRANCH  63  65
ENDBRANCH  62  63
ENDBRANCH  61  62
ENDBRANCH  60  61
ENDBRANCH  59  60
ENDBRANCH   1  59
TORSDOF 21
