REMARK SMILES Cc1cc(C(=O)NC[C@@H]2CC[C@H](C(=O)OCCOCCOCCOC(=O)c3ccc(-c4c5nc(c(-c6ccccc6)c6ccc([nH]6)c(-c6ccccc6)c6nc(c(-c7ccccc7)c7ccc4[nH]7)C=C6)C=C5)cc3)O2)on1
REMARK SMILES IDX 19 1 18 2 17 3 16 4 15 5 13 6 14 7 12 8 9 9 10 10 75 11
REMARK SMILES IDX 11 12 8 13 7 14 5 15 6 16 4 18 1 19 2 20 3 21 77 22 76 23
REMARK SMILES IDX 20 24 21 25 22 26 23 27 24 28 25 29 26 30 27 31 28 32 74 33
REMARK SMILES IDX 29 34 73 35 30 36 31 37 32 38 67 39 33 40 72 41 66 42 68 43
REMARK SMILES IDX 34 44 71 45 65 46 64 47 35 49 57 50 42 51 56 52 43 53 46 54
REMARK SMILES IDX 55 55 69 56 44 57 45 58 54 60 70 61 47 62 36 63 37 64 41 65
REMARK SMILES IDX 38 66 40 67 39 68 58 69 59 70 63 71 60 72 62 73 61 74 48 75
REMARK SMILES IDX 49 76 53 77 50 78 52 79 51 80
REMARK H PARENT 7 17 68 48 46 59
REMARK Flexibility Score: inf
ROOT
ATOM      1  C   UNL     1      -1.674  -9.985   0.105  1.00  0.00     0.188 C 
ENDROOT
BRANCH   1   2
ATOM      2  O   UNL     1      -1.884 -10.324  -1.259  1.00  0.00    -0.376 OA
BRANCH   2   3
ATOM      3  C   UNL     1      -1.452  -9.382  -2.244  1.00  0.00     0.202 C 
BRANCH   3   4
ATOM      4  C   UNL     1      -1.846  -7.906  -2.046  1.00  0.00     0.261 C 
BRANCH   4   5
ATOM      5  O   UNL     1      -1.338  -7.317  -0.825  1.00  0.00    -0.461 OA
BRANCH   5   6
ATOM      6  C   UNL     1      -2.261  -6.765   0.007  1.00  0.00     0.335 C 
ATOM      7  O   UNL     1      -3.450  -6.647  -0.271  1.00  0.00    -0.249 OA
BRANCH   6   8
ATOM      8  C   UNL     1      -1.685  -6.311   1.363  1.00  0.00     0.228 C 
ATOM      9  C   UNL     1      -1.084  -4.091   1.080  1.00  0.00     0.138 C 
ATOM     10  C   UNL     1       0.203  -4.902   1.025  1.00  0.00     0.037 C 
ATOM     11  O   UNL     1      -2.104  -4.960   1.611  1.00  0.00    -0.361 OA
ATOM     12  C   UNL     1      -0.186  -6.247   1.579  1.00  0.00     0.047 C 
BRANCH   9  13
ATOM     13  C   UNL     1      -1.499  -3.594  -0.315  1.00  0.00     0.148 C 
BRANCH  13  14
ATOM     14  N   UNL     1      -2.547  -2.603  -0.217  1.00  0.00    -0.347 N 
ATOM     15  C   UNL     1      -2.472  -1.240  -0.070  1.00  0.00     0.289 C 
ATOM     16  O   UNL     1      -3.547  -0.642  -0.006  1.00  0.00    -0.266 OA
ATOM     17  H   UNL     1      -3.462  -2.964  -0.262  1.00  0.00     0.164 HD
BRANCH  15  18
ATOM     18  C   UNL     1      -1.191  -0.567  -0.017  1.00  0.00     0.224 A 
ATOM     19  C   UNL     1       2.335   0.434   0.063  1.00  0.00     0.070 C 
ATOM     20  C   UNL     1       0.867   0.261   0.028  1.00  0.00     0.081 A 
ATOM     21  C   UNL     1       0.127  -0.933   0.158  1.00  0.00     0.083 A 
ATOM     22  N   UNL     1       0.061   1.308  -0.155  1.00  0.00    -0.084 NA
ATOM     23  O   UNL     1      -1.222   0.794  -0.170  1.00  0.00    -0.351 OA
ENDBRANCH  15  18
ENDBRANCH  13  14
ENDBRANCH   9  13
ENDBRANCH   6   8
ENDBRANCH   5   6
ENDBRANCH   4   5
ENDBRANCH   3   4
ENDBRANCH   2   3
ENDBRANCH   1   2
BRANCH   1  24
ATOM     24  C   UNL     1      -0.227  -9.714   0.531  1.00  0.00     0.188 C 
BRANCH  24  25
ATOM     25  O   UNL     1       0.597  -9.205  -0.495  1.00  0.00    -0.376 OA
BRANCH  25  26
ATOM     26  C   UNL     1       1.935  -9.667  -0.648  1.00  0.00     0.202 C 
BRANCH  26  27
ATOM     27  C   UNL     1       2.251 -11.181  -0.619  1.00  0.00     0.261 C 
BRANCH  27  28
ATOM     28  O   UNL     1       1.756 -11.944   0.498  1.00  0.00    -0.460 OA
BRANCH  28  29
ATOM     29  C   UNL     1       2.127 -11.544   1.736  1.00  0.00     0.338 C 
ATOM     30  O   UNL     1       2.999 -10.730   2.004  1.00  0.00    -0.246 OA
BRANCH  29  31
ATOM     31  C   UNL     1       1.096 -12.013   2.705  1.00  0.00     0.060 A 
ATOM     32  C   UNL     1       0.593 -11.081   3.628  1.00  0.00     0.016 A 
ATOM     33  C   UNL     1       0.559 -13.303   2.662  1.00  0.00     0.016 A 
ATOM     34  C   UNL     1      -0.382 -11.457   4.555  1.00  0.00     0.010 A 
ATOM     35  C   UNL     1      -0.408 -13.685   3.603  1.00  0.00     0.010 A 
ATOM     36  C   UNL     1      -0.842 -12.779   4.589  1.00  0.00    -0.014 A 
BRANCH  36  37
ATOM     37  C   UNL     1      -1.542 -13.271   5.806  1.00  0.00     0.031 A 
ATOM     38  C   UNL     1      -0.716 -13.989   6.845  1.00  0.00     0.074 A 
ATOM     39  C   UNL     1      -2.849 -13.050   6.035  1.00  0.00     0.049 A 
ATOM     40  N   UNL     1      -1.078 -14.505   7.992  1.00  0.00    -0.248 NA
ATOM     41  C   UNL     1       0.718 -14.142   6.544  1.00  0.00     0.031 C 
ATOM     42  C   UNL     1      -3.759 -12.325   5.152  1.00  0.00     0.029 A 
ATOM     43  N   UNL     1      -3.636 -13.418   7.101  1.00  0.00    -0.354 N 
ATOM     44  C   UNL     1       0.078 -15.050   8.540  1.00  0.00     0.074 A 
ATOM     45  C   UNL     1       1.142 -14.838   7.586  1.00  0.00     0.031 C 
ATOM     46  C   UNL     1      -4.983 -12.302   5.712  1.00  0.00     0.029 A 
ATOM     47  C   UNL     1      -4.950 -13.034   6.978  1.00  0.00     0.049 A 
ATOM     48  H   UNL     1      -3.291 -13.912   7.879  1.00  0.00     0.167 HD
ATOM     49  C   UNL     1       0.249 -15.663   9.735  1.00  0.00     0.031 A 
ATOM     50  C   UNL     1      -6.004 -13.259   7.788  1.00  0.00     0.031 A 
ATOM     51  C   UNL     1      -0.805 -15.895  10.684  1.00  0.00     0.049 A 
ATOM     52  C   UNL     1      -5.808 -14.022   9.075  1.00  0.00     0.074 A 
ATOM     53  C   UNL     1      -0.728 -16.506  11.924  1.00  0.00     0.029 A 
ATOM     54  N   UNL     1      -2.129 -15.535  10.496  1.00  0.00    -0.354 N 
ATOM     55  N   UNL     1      -4.707 -14.513   9.591  1.00  0.00    -0.248 NA
ATOM     56  C   UNL     1      -7.006 -14.247   9.899  1.00  0.00     0.031 C 
ATOM     57  C   UNL     1      -2.019 -16.572  12.458  1.00  0.00     0.029 A 
ATOM     58  C   UNL     1      -2.885 -15.933  11.586  1.00  0.00     0.049 A 
ATOM     59  H   UNL     1      -2.481 -15.066   9.705  1.00  0.00     0.167 HD
ATOM     60  C   UNL     1      -5.072 -15.066  10.815  1.00  0.00     0.074 A 
ATOM     61  C   UNL     1      -6.493 -14.837  10.969  1.00  0.00     0.031 C 
ATOM     62  C   UNL     1      -4.299 -15.700  11.732  1.00  0.00     0.031 A 
BRANCH  49  63
ATOM     63  C   UNL     1       1.631 -16.163  10.058  1.00  0.00    -0.014 A 
ATOM     64  C   UNL     1       2.689 -15.278  10.319  1.00  0.00     0.009 A 
ATOM     65  C   UNL     1       1.872 -17.544  10.115  1.00  0.00     0.009 A 
ATOM     66  C   UNL     1       3.970 -15.767  10.589  1.00  0.00     0.001 A 
ATOM     67  C   UNL     1       3.144 -18.030  10.420  1.00  0.00     0.001 A 
ATOM     68  C   UNL     1       4.194 -17.141  10.645  1.00  0.00     0.000 A 
ENDBRANCH  49  63
BRANCH  50  69
ATOM     69  C   UNL     1      -7.360 -12.769   7.412  1.00  0.00    -0.014 A 
ATOM     70  C   UNL     1      -7.995 -11.765   8.162  1.00  0.00     0.009 A 
ATOM     71  C   UNL     1      -8.045 -13.336   6.327  1.00  0.00     0.009 A 
ATOM     72  C   UNL     1      -9.297 -11.364   7.851  1.00  0.00     0.001 A 
ATOM     73  C   UNL     1      -9.334 -12.910   5.998  1.00  0.00     0.001 A 
ATOM     74  C   UNL     1      -9.963 -11.933   6.767  1.00  0.00     0.000 A 
ENDBRANCH  50  69
BRANCH  62  75
ATOM     75  C   UNL     1      -4.959 -16.141  13.012  1.00  0.00    -0.014 A 
ATOM     76  C   UNL     1      -5.900 -17.182  13.040  1.00  0.00     0.009 A 
ATOM     77  C   UNL     1      -4.608 -15.515  14.220  1.00  0.00     0.009 A 
ATOM     78  C   UNL     1      -6.511 -17.552  14.242  1.00  0.00     0.001 A 
ATOM     79  C   UNL     1      -5.192 -15.911  15.424  1.00  0.00     0.001 A 
ATOM     80  C   UNL     1      -6.154 -16.919  15.432  1.00  0.00     0.000 A 
ENDBRANCH  62  75
ENDBRANCH  36  37
ENDBRANCH  29  31
ENDBRANCH  28  29
ENDBRANCH  27  28
ENDBRANCH  26  27
ENDBRANCH  25  26
ENDBRANCH  24  25
ENDBRANCH   1  24
TORSDOF 20
