REMARK SMILES NC(=O)[C@@H]1CCCCN1c1cncc(C(=O)OCCOCCOCCOC(=O)c2ccc(-c3c4nc(c(-c5ccccc5)c5ccc([nH]5)c(-c5ccccc5)c5nc(c(-c6ccccc6)c6ccc3[nH]6)C=C5)C=C4)cc2)n1
REMARK SMILES IDX 21 1 20 2 19 3 18 4 17 5 15 6 16 7 14 8 10 9 11 10 77 11
REMARK SMILES IDX 12 12 13 13 9 14 4 15 5 16 6 17 8 18 7 19 2 20 1 21 3 24
REMARK SMILES IDX 22 25 23 26 24 27 25 28 26 29 27 30 28 31 29 32 30 33 76 34
REMARK SMILES IDX 31 35 75 36 32 37 33 38 34 39 69 40 35 41 74 42 68 43 70 44
REMARK SMILES IDX 36 45 73 46 67 47 66 48 37 50 59 51 44 52 58 53 45 54 48 55
REMARK SMILES IDX 57 56 71 57 46 58 47 59 56 61 72 62 49 63 38 64 39 65 43 66
REMARK SMILES IDX 40 67 42 68 41 69 60 70 61 71 65 72 62 73 64 74 63 75 50 76
REMARK SMILES IDX 51 77 55 78 52 79 54 80 53 81
REMARK H PARENT 1 22 1 23 70 49 48 60
REMARK Flexibility Score: inf
ROOT
ATOM      1  C   UNL     1       0.409   4.544   4.940  1.00  0.00     0.188 C 
ENDROOT
BRANCH   1   2
ATOM      2  O   UNL     1       0.700   3.712   6.053  1.00  0.00    -0.376 OA
BRANCH   2   3
ATOM      3  C   UNL     1       1.416   2.498   5.862  1.00  0.00     0.202 C 
BRANCH   3   4
ATOM      4  C   UNL     1       0.860   1.446   4.895  1.00  0.00     0.261 C 
BRANCH   4   5
ATOM      5  O   UNL     1       0.640   1.938   3.563  1.00  0.00    -0.458 OA
BRANCH   5   6
ATOM      6  C   UNL     1      -0.647   1.901   3.128  1.00  0.00     0.358 C 
ATOM      7  O   UNL     1      -1.604   1.433   3.726  1.00  0.00    -0.244 OA
BRANCH   6   8
ATOM      8  C   UNL     1      -0.795   2.724   1.909  1.00  0.00     0.169 A 
ATOM      9  C   UNL     1      -0.079   3.396  -0.178  1.00  0.00     0.148 A 
ATOM     10  C   UNL     1      -1.090   4.371  -0.141  1.00  0.00     0.157 A 
ATOM     11  N   UNL     1       0.103   2.593   0.895  1.00  0.00    -0.220 NA
ATOM     12  N   UNL     1      -1.961   4.545   0.888  1.00  0.00    -0.258 NA
ATOM     13  C   UNL     1      -1.810   3.666   1.900  1.00  0.00     0.147 A 
BRANCH   9  14
ATOM     14  N   UNL     1       0.707   3.205  -1.289  1.00  0.00    -0.343 N 
ATOM     15  C   UNL     1       1.089   1.858  -1.764  1.00  0.00     0.172 C 
ATOM     16  C   UNL     1       2.617   1.750  -1.736  1.00  0.00     0.035 C 
ATOM     17  C   UNL     1       3.235   2.858  -2.593  1.00  0.00     0.004 C 
ATOM     18  C   UNL     1       1.218   4.322  -2.078  1.00  0.00     0.119 C 
ATOM     19  C   UNL     1       2.746   4.239  -2.148  1.00  0.00     0.022 C 
BRANCH  15  20
ATOM     20  C   UNL     1       0.337   0.667  -1.126  1.00  0.00     0.240 C 
ATOM     21  N   UNL     1       0.965  -0.031  -0.135  1.00  0.00    -0.368 N 
ATOM     22  H   UNL     1       0.512  -0.794   0.292  1.00  0.00     0.159 HD
ATOM     23  H   UNL     1       1.869   0.229   0.154  1.00  0.00     0.159 HD
ATOM     24  O   UNL     1      -0.799   0.339  -1.471  1.00  0.00    -0.273 OA
ENDBRANCH  15  20
ENDBRANCH   9  14
ENDBRANCH   6   8
ENDBRANCH   5   6
ENDBRANCH   4   5
ENDBRANCH   3   4
ENDBRANCH   2   3
ENDBRANCH   1   2
BRANCH   1  25
ATOM     25  C   UNL     1       1.497   4.872   3.895  1.00  0.00     0.188 C 
BRANCH  25  26
ATOM     26  O   UNL     1       2.784   4.370   4.148  1.00  0.00    -0.376 OA
BRANCH  26  27
ATOM     27  C   UNL     1       3.719   5.066   4.948  1.00  0.00     0.202 C 
BRANCH  27  28
ATOM     28  C   UNL     1       3.446   6.317   5.802  1.00  0.00     0.261 C 
BRANCH  28  29
ATOM     29  O   UNL     1       2.119   6.838   5.842  1.00  0.00    -0.460 OA
BRANCH  29  30
ATOM     30  C   UNL     1       1.896   7.933   5.077  1.00  0.00     0.338 C 
ATOM     31  O   UNL     1       2.668   8.474   4.309  1.00  0.00    -0.246 OA
BRANCH  30  32
ATOM     32  C   UNL     1       0.477   8.308   5.212  1.00  0.00     0.060 A 
ATOM     33  C   UNL     1      -0.349   8.222   4.086  1.00  0.00     0.016 A 
ATOM     34  C   UNL     1      -0.020   8.772   6.432  1.00  0.00     0.016 A 
ATOM     35  C   UNL     1      -1.680   8.630   4.171  1.00  0.00     0.010 A 
ATOM     36  C   UNL     1      -1.349   9.196   6.510  1.00  0.00     0.010 A 
ATOM     37  C   UNL     1      -2.176   9.153   5.373  1.00  0.00    -0.014 A 
BRANCH  37  38
ATOM     38  C   UNL     1      -3.507   9.803   5.405  1.00  0.00     0.031 A 
ATOM     39  C   UNL     1      -3.586  11.298   5.273  1.00  0.00     0.074 A 
ATOM     40  C   UNL     1      -4.630   9.078   5.548  1.00  0.00     0.049 A 
ATOM     41  N   UNL     1      -4.633  12.082   5.319  1.00  0.00    -0.248 NA
ATOM     42  C   UNL     1      -2.311  12.005   5.062  1.00  0.00     0.031 C 
ATOM     43  C   UNL     1      -4.694   7.622   5.647  1.00  0.00     0.029 A 
ATOM     44  N   UNL     1      -5.939   9.482   5.644  1.00  0.00    -0.354 N 
ATOM     45  C   UNL     1      -4.144  13.371   5.149  1.00  0.00     0.074 A 
ATOM     46  C   UNL     1      -2.706  13.268   5.026  1.00  0.00     0.031 C 
ATOM     47  C   UNL     1      -5.978   7.253   5.800  1.00  0.00     0.029 A 
ATOM     48  C   UNL     1      -6.819   8.447   5.842  1.00  0.00     0.049 A 
ATOM     49  H   UNL     1      -6.219  10.423   5.577  1.00  0.00     0.167 HD
ATOM     50  C   UNL     1      -4.831  14.537   5.096  1.00  0.00     0.031 A 
ATOM     51  C   UNL     1      -8.149   8.466   6.055  1.00  0.00     0.031 A 
ATOM     52  C   UNL     1      -6.258  14.645   5.238  1.00  0.00     0.049 A 
ATOM     53  C   UNL     1      -8.879   9.783   6.075  1.00  0.00     0.074 A 
ATOM     54  C   UNL     1      -7.045  15.782   5.184  1.00  0.00     0.029 A 
ATOM     55  N   UNL     1      -7.109  13.577   5.473  1.00  0.00    -0.354 N 
ATOM     56  N   UNL     1      -8.412  10.993   5.882  1.00  0.00    -0.248 NA
ATOM     57  C   UNL     1     -10.326   9.734   6.338  1.00  0.00     0.031 C 
ATOM     58  C   UNL     1      -8.368  15.408   5.443  1.00  0.00     0.029 A 
ATOM     59  C   UNL     1      -8.411  14.032   5.597  1.00  0.00     0.049 A 
ATOM     60  H   UNL     1      -6.830  12.636   5.542  1.00  0.00     0.167 HD
ATOM     61  C   UNL     1      -9.508  11.843   5.969  1.00  0.00     0.074 A 
ATOM     62  C   UNL     1     -10.666  11.010   6.221  1.00  0.00     0.031 C 
ATOM     63  C   UNL     1      -9.553  13.192   5.847  1.00  0.00     0.031 A 
BRANCH  50  64
ATOM     64  C   UNL     1      -4.034  15.796   4.912  1.00  0.00    -0.014 A 
ATOM     65  C   UNL     1      -3.433  16.106   3.682  1.00  0.00     0.009 A 
ATOM     66  C   UNL     1      -3.906  16.700   5.979  1.00  0.00     0.009 A 
ATOM     67  C   UNL     1      -2.692  17.281   3.534  1.00  0.00     0.001 A 
ATOM     68  C   UNL     1      -3.187  17.885   5.820  1.00  0.00     0.001 A 
ATOM     69  C   UNL     1      -2.574  18.171   4.601  1.00  0.00     0.000 A 
ENDBRANCH  50  64
BRANCH  51  70
ATOM     70  C   UNL     1      -8.885   7.196   6.291  1.00  0.00    -0.014 A 
ATOM     71  C   UNL     1      -9.790   6.706   5.338  1.00  0.00     0.009 A 
ATOM     72  C   UNL     1      -8.704   6.483   7.486  1.00  0.00     0.009 A 
ATOM     73  C   UNL     1     -10.520   5.541   5.590  1.00  0.00     0.001 A 
ATOM     74  C   UNL     1      -9.414   5.303   7.722  1.00  0.00     0.001 A 
ATOM     75  C   UNL     1     -10.328   4.839   6.779  1.00  0.00     0.000 A 
ENDBRANCH  51  70
BRANCH  63  76
ATOM     76  C   UNL     1     -10.901  13.852   5.945  1.00  0.00    -0.014 A 
ATOM     77  C   UNL     1     -11.572  13.967   7.172  1.00  0.00     0.009 A 
ATOM     78  C   UNL     1     -11.485  14.408   4.795  1.00  0.00     0.009 A 
ATOM     79  C   UNL     1     -12.816  14.599   7.239  1.00  0.00     0.001 A 
ATOM     80  C   UNL     1     -12.714  15.064   4.871  1.00  0.00     0.001 A 
ATOM     81  C   UNL     1     -13.383  15.151   6.091  1.00  0.00     0.000 A 
ENDBRANCH  63  76
ENDBRANCH  37  38
ENDBRANCH  30  32
ENDBRANCH  29  30
ENDBRANCH  28  29
ENDBRANCH  27  28
ENDBRANCH  26  27
ENDBRANCH  25  26
ENDBRANCH   1  25
TORSDOF 19
