REMARK SMILES CC[C@]1(C(=O)OCCOCCOCCOC(=O)c2ccc(-c3c4nc(c(-c5ccccc5)c5ccc([nH]5)c(-c5ccccc5)c5nc(c(-c6ccccc6)c6ccc3[nH]6)C=C5)C=C4)cc2)CCC[N@@H+](Cc2cc(OC)ccc2F)C1
REMARK SMILES IDX 10 1 9 2 8 3 7 4 6 5 4 6 5 7 3 8 66 9 80 10 67 11 69 12
REMARK SMILES IDX 68 13 2 15 1 16 70 17 71 18 72 19 78 20 73 21 77 22 79 23
REMARK SMILES IDX 76 24 74 25 75 26 11 27 12 28 13 29 14 30 15 31 16 32 17 33
REMARK SMILES IDX 18 34 19 35 65 36 20 37 64 38 21 39 22 40 23 41 58 42 24 43
REMARK SMILES IDX 63 44 57 45 59 46 25 47 62 48 56 49 55 50 26 52 48 53 33 54
REMARK SMILES IDX 47 55 34 56 37 57 46 58 60 59 35 60 36 61 45 63 61 64 38 65
REMARK SMILES IDX 27 66 28 67 32 68 29 69 31 70 30 71 49 72 50 73 54 74 51 75
REMARK SMILES IDX 53 76 52 77 39 78 40 79 44 80 41 81 43 82 42 83
REMARK H PARENT 69 14 59 51 37 62
REMARK Flexibility Score: inf
ROOT
ATOM      1  C   UNL     1      -2.620  -0.279  -3.457  1.00  0.00     0.188 C 
ENDROOT
BRANCH   1   2
ATOM      2  O   UNL     1      -2.954   0.261  -4.729  1.00  0.00    -0.376 OA
BRANCH   2   3
ATOM      3  C   UNL     1      -2.021   0.189  -5.800  1.00  0.00     0.202 C 
BRANCH   3   4
ATOM      4  C   UNL     1      -0.606   0.773  -5.623  1.00  0.00     0.261 C 
BRANCH   4   5
ATOM      5  O   UNL     1       0.191   0.247  -4.535  1.00  0.00    -0.463 OA
BRANCH   5   6
ATOM      6  C   UNL     1       0.340   1.069  -3.463  1.00  0.00     0.317 C 
ATOM      7  O   UNL     1      -0.159   2.192  -3.411  1.00  0.00    -0.251 OA
BRANCH   6   8
ATOM      8  C   UNL     1       1.237   0.519  -2.309  1.00  0.00     0.117 C 
ATOM      9  C   UNL     1       1.567  -0.997  -2.286  1.00  0.00     0.030 C 
ATOM     10  C   UNL     1       2.540   1.258  -2.631  1.00  0.00     0.281 C 
ATOM     11  C   UNL     1       2.841  -1.357  -1.503  1.00  0.00     0.063 C 
ATOM     12  N   UNL     1       3.721   0.950  -1.823  1.00  0.00    -0.330 N 
ATOM     13  C   UNL     1       4.038  -0.483  -1.864  1.00  0.00     0.262 C 
ATOM     14  H   UNL     1       3.526   1.170  -0.846  1.00  0.00     0.348 HD
BRANCH   8  15
ATOM     15  C   UNL     1       0.517   1.008  -1.015  1.00  0.00     0.021 C 
ATOM     16  C   UNL     1       0.878   0.402   0.328  1.00  0.00     0.005 C 
ENDBRANCH   8  15
BRANCH  12  17
ATOM     17  C   UNL     1       4.865   1.795  -2.272  1.00  0.00     0.302 C 
BRANCH  17  18
ATOM     18  C   UNL     1       5.419   1.482  -3.651  1.00  0.00     0.046 A 
ATOM     19  C   UNL     1       6.582   0.711  -3.783  1.00  0.00     0.059 A 
ATOM     20  C   UNL     1       4.745   1.853  -4.821  1.00  0.00     0.132 A 
ATOM     21  C   UNL     1       7.004   0.265  -5.038  1.00  0.00     0.119 A 
ATOM     22  C   UNL     1       5.100   1.331  -6.060  1.00  0.00     0.043 A 
ATOM     23  F   UNL     1       3.686   2.674  -4.767  1.00  0.00    -0.206 F 
ATOM     24  C   UNL     1       6.222   0.516  -6.167  1.00  0.00     0.049 A 
BRANCH  21  25
ATOM     25  O   UNL     1       8.178  -0.436  -5.048  1.00  0.00    -0.497 OA
ATOM     26  C   UNL     1       8.898  -0.372  -6.277  1.00  0.00     0.278 C 
ENDBRANCH  21  25
ENDBRANCH  17  18
ENDBRANCH  12  17
ENDBRANCH   6   8
ENDBRANCH   5   6
ENDBRANCH   4   5
ENDBRANCH   3   4
ENDBRANCH   2   3
ENDBRANCH   1   2
BRANCH   1  27
ATOM     27  C   UNL     1      -1.707  -1.507  -3.381  1.00  0.00     0.188 C 
BRANCH  27  28
ATOM     28  O   UNL     1      -1.500  -2.169  -4.602  1.00  0.00    -0.376 OA
BRANCH  28  29
ATOM     29  C   UNL     1      -2.014  -3.474  -4.766  1.00  0.00     0.202 C 
BRANCH  29  30
ATOM     30  C   UNL     1      -3.479  -3.750  -4.393  1.00  0.00     0.261 C 
BRANCH  30  31
ATOM     31  O   UNL     1      -3.943  -3.214  -3.139  1.00  0.00    -0.460 OA
BRANCH  31  32
ATOM     32  C   UNL     1      -3.492  -3.800  -2.007  1.00  0.00     0.338 C 
ATOM     33  O   UNL     1      -2.763  -4.778  -1.931  1.00  0.00    -0.246 OA
BRANCH  32  34
ATOM     34  C   UNL     1      -3.808  -2.902  -0.867  1.00  0.00     0.060 A 
ATOM     35  C   UNL     1      -2.758  -2.449  -0.053  1.00  0.00     0.016 A 
ATOM     36  C   UNL     1      -5.117  -2.489  -0.611  1.00  0.00     0.016 A 
ATOM     37  C   UNL     1      -3.019  -1.624   1.043  1.00  0.00     0.010 A 
ATOM     38  C   UNL     1      -5.381  -1.680   0.502  1.00  0.00     0.010 A 
ATOM     39  C   UNL     1      -4.339  -1.278   1.359  1.00  0.00    -0.014 A 
BRANCH  39  40
ATOM     40  C   UNL     1      -4.640  -0.686   2.689  1.00  0.00     0.031 A 
ATOM     41  C   UNL     1      -5.142  -1.595   3.780  1.00  0.00     0.074 A 
ATOM     42  C   UNL     1      -4.441   0.618   2.951  1.00  0.00     0.049 A 
ATOM     43  N   UNL     1      -5.470  -1.313   5.016  1.00  0.00    -0.248 NA
ATOM     44  C   UNL     1      -5.296  -3.015   3.426  1.00  0.00     0.031 C 
ATOM     45  C   UNL     1      -3.925   1.606   2.007  1.00  0.00     0.029 A 
ATOM     46  N   UNL     1      -4.659   1.333   4.104  1.00  0.00    -0.354 N 
ATOM     47  C   UNL     1      -5.878  -2.516   5.581  1.00  0.00     0.074 A 
ATOM     48  C   UNL     1      -5.792  -3.521   4.543  1.00  0.00     0.031 C 
ATOM     49  C   UNL     1      -3.875   2.804   2.616  1.00  0.00     0.029 A 
ATOM     50  C   UNL     1      -4.383   2.673   3.982  1.00  0.00     0.049 A 
ATOM     51  H   UNL     1      -4.983   0.924   4.939  1.00  0.00     0.167 HD
ATOM     52  C   UNL     1      -6.284  -2.769   6.848  1.00  0.00     0.031 A 
ATOM     53  C   UNL     1      -4.540   3.682   4.862  1.00  0.00     0.031 A 
ATOM     54  C   UNL     1      -6.393  -1.772   7.881  1.00  0.00     0.049 A 
ATOM     55  C   UNL     1      -5.059   3.391   6.247  1.00  0.00     0.074 A 
ATOM     56  C   UNL     1      -6.775  -1.937   9.201  1.00  0.00     0.029 A 
ATOM     57  N   UNL     1      -6.137  -0.421   7.705  1.00  0.00    -0.354 N 
ATOM     58  N   UNL     1      -5.405   2.244   6.781  1.00  0.00    -0.248 NA
ATOM     59  C   UNL     1      -5.191   4.539   7.157  1.00  0.00     0.031 C 
ATOM     60  C   UNL     1      -6.818  -0.676   9.805  1.00  0.00     0.029 A 
ATOM     61  C   UNL     1      -6.386   0.264   8.883  1.00  0.00     0.049 A 
ATOM     62  H   UNL     1      -5.824  -0.010   6.867  1.00  0.00     0.167 HD
ATOM     63  C   UNL     1      -5.766   2.528   8.094  1.00  0.00     0.074 A 
ATOM     64  C   UNL     1      -5.578   3.951   8.281  1.00  0.00     0.031 C 
ATOM     65  C   UNL     1      -6.210   1.684   9.060  1.00  0.00     0.031 A 
BRANCH  52  66
ATOM     66  C   UNL     1      -6.692  -4.183   7.169  1.00  0.00    -0.014 A 
ATOM     67  C   UNL     1      -5.756  -5.230   7.206  1.00  0.00     0.009 A 
ATOM     68  C   UNL     1      -8.038  -4.468   7.446  1.00  0.00     0.009 A 
ATOM     69  C   UNL     1      -6.168  -6.539   7.466  1.00  0.00     0.001 A 
ATOM     70  C   UNL     1      -8.442  -5.771   7.741  1.00  0.00     0.001 A 
ATOM     71  C   UNL     1      -7.510  -6.807   7.737  1.00  0.00     0.000 A 
ENDBRANCH  52  66
BRANCH  53  72
ATOM     72  C   UNL     1      -4.224   5.077   4.454  1.00  0.00    -0.014 A 
ATOM     73  C   UNL     1      -3.139   5.768   5.016  1.00  0.00     0.009 A 
ATOM     74  C   UNL     1      -5.025   5.734   3.506  1.00  0.00     0.009 A 
ATOM     75  C   UNL     1      -2.879   7.093   4.654  1.00  0.00     0.001 A 
ATOM     76  C   UNL     1      -4.743   7.046   3.122  1.00  0.00     0.001 A 
ATOM     77  C   UNL     1      -3.676   7.728   3.704  1.00  0.00     0.000 A 
ENDBRANCH  53  72
BRANCH  65  78
ATOM     78  C   UNL     1      -6.485   2.272  10.420  1.00  0.00    -0.014 A 
ATOM     79  C   UNL     1      -7.553   3.156  10.641  1.00  0.00     0.009 A 
ATOM     80  C   UNL     1      -5.667   1.918  11.506  1.00  0.00     0.009 A 
ATOM     81  C   UNL     1      -7.764   3.711  11.906  1.00  0.00     0.001 A 
ATOM     82  C   UNL     1      -5.902   2.445  12.777  1.00  0.00     0.001 A 
ATOM     83  C   UNL     1      -6.941   3.353  12.973  1.00  0.00     0.000 A 
ENDBRANCH  65  78
ENDBRANCH  39  40
ENDBRANCH  32  34
ENDBRANCH  31  32
ENDBRANCH  30  31
ENDBRANCH  29  30
ENDBRANCH  28  29
ENDBRANCH  27  28
ENDBRANCH   1  27
TORSDOF 21
