REMARK SMILES Cc1ccccc1[C@@H]1[NH2+][C@@H](C(=O)OCCOCCOCCOC(=O)c2ccc(-c3c4nc(c(-c5ccccc5)c5ccc([nH]5)c(-c5ccccc5)c5nc(c(-c6ccccc6)c6ccc3[nH]6)C=C5)C=C4)cc2)CC2=c3ccccc3=N[C@H]21
REMARK SMILES IDX 18 1 17 2 16 3 15 4 14 5 13 6 11 7 12 8 10 9 8 10 9 11 82 12
REMARK SMILES IDX 74 15 81 16 73 17 75 18 80 19 76 20 79 21 77 22 78 23 7 24
REMARK SMILES IDX 1 25 2 26 3 27 4 28 6 29 5 30 19 31 20 32 21 33 22 34 23 35
REMARK SMILES IDX 24 36 25 37 26 38 72 39 27 40 71 41 28 42 29 43 30 44 65 45
REMARK SMILES IDX 31 46 70 47 64 48 66 49 32 50 69 51 63 52 62 53 33 55 55 56
REMARK SMILES IDX 40 57 54 58 41 59 44 60 53 61 67 62 42 63 43 64 52 66 68 67
REMARK SMILES IDX 45 68 34 69 35 70 39 71 36 72 38 73 37 74 56 75 57 76 61 77
REMARK SMILES IDX 58 78 60 79 59 80 46 81 47 82 51 83 48 84 50 85 49 86
REMARK H PARENT 9 13 9 14 66 54 44 65
REMARK Flexibility Score: inf
ROOT
ATOM      1  C   UNL     1      -2.338   7.736  -4.905  1.00  0.00     0.188 C 
ENDROOT
BRANCH   1   2
ATOM      2  C   UNL     1      -3.416   6.670  -4.637  1.00  0.00     0.188 C 
BRANCH   2   3
ATOM      3  O   UNL     1      -4.313   6.682  -3.499  1.00  0.00    -0.376 OA
BRANCH   3   4
ATOM      4  C   UNL     1      -4.234   7.593  -2.378  1.00  0.00     0.202 C 
BRANCH   4   5
ATOM      5  C   UNL     1      -4.020   7.063  -0.790  1.00  0.00     0.261 C 
BRANCH   5   6
ATOM      6  O   UNL     1      -2.654   6.491  -0.104  1.00  0.00    -0.459 OA
BRANCH   6   7
ATOM      7  C   UNL     1      -2.174   5.210   0.276  1.00  0.00     0.365 C 
ATOM      8  O   UNL     1      -2.741   4.114   0.237  1.00  0.00    -0.245 OA
BRANCH   7   9
ATOM      9  C   UNL     1      -0.743   5.052   0.765  1.00  0.00     0.298 C 
ATOM     10  C   UNL     1       0.582   2.806   1.123  1.00  0.00     0.243 C 
ATOM     11  N   UNL     1      -0.213   3.711   0.234  1.00  0.00    -0.326 N 
ATOM     12  C   UNL     1       0.704   3.223   2.622  1.00  0.00     0.196 C 
ATOM     13  H   UNL     1      -1.026   3.178  -0.076  1.00  0.00     0.347 HD
ATOM     14  H   UNL     1       0.465   3.995  -0.473  1.00  0.00     0.347 HD
ATOM     15  C   UNL     1      -0.579   3.908   2.984  1.00  0.00    -0.024 C 
ATOM     16  N   UNL     1       0.763   2.039   3.535  1.00  0.00    -0.270 NA
ATOM     17  C   UNL     1      -0.845   5.190   2.283  1.00  0.00     0.111 C 
ATOM     18  C   UNL     1      -1.327   3.142   3.768  1.00  0.00     0.002 A 
ATOM     19  C   UNL     1      -0.390   2.065   4.133  1.00  0.00     0.066 A 
ATOM     20  C   UNL     1      -2.682   3.140   4.208  1.00  0.00     0.010 A 
ATOM     21  C   UNL     1      -0.854   1.133   5.185  1.00  0.00     0.028 A 
ATOM     22  C   UNL     1      -3.072   2.187   5.071  1.00  0.00     0.001 A 
ATOM     23  C   UNL     1      -2.125   1.226   5.616  1.00  0.00     0.002 A 
BRANCH  10  24
ATOM     24  C   UNL     1       1.941   2.430   0.507  1.00  0.00     0.015 A 
ATOM     25  C   UNL     1       2.736   4.857   0.229  1.00  0.00     0.045 C 
ATOM     26  C   UNL     1       2.922   3.374   0.137  1.00  0.00    -0.042 A 
ATOM     27  C   UNL     1       4.188   2.934  -0.295  1.00  0.00     0.004 A 
ATOM     28  C   UNL     1       4.487   1.581  -0.413  1.00  0.00     0.000 A 
ATOM     29  C   UNL     1       2.259   1.058   0.350  1.00  0.00     0.010 A 
ATOM     30  C   UNL     1       3.515   0.640  -0.107  1.00  0.00     0.001 A 
ENDBRANCH  10  24
ENDBRANCH   7   9
ENDBRANCH   6   7
ENDBRANCH   5   6
ENDBRANCH   4   5
ENDBRANCH   3   4
ENDBRANCH   2   3
ENDBRANCH   1   2
BRANCH   1  31
ATOM     31  O   UNL     1      -1.741   8.176  -3.700  1.00  0.00    -0.376 OA
BRANCH  31  32
ATOM     32  C   UNL     1      -0.629   9.053  -3.822  1.00  0.00     0.202 C 
BRANCH  32  33
ATOM     33  C   UNL     1       0.698   8.360  -4.225  1.00  0.00     0.261 C 
BRANCH  33  34
ATOM     34  O   UNL     1       1.058   7.300  -3.296  1.00  0.00    -0.460 OA
BRANCH  34  35
ATOM     35  C   UNL     1       1.133   6.009  -3.775  1.00  0.00     0.338 C 
ATOM     36  O   UNL     1       1.870   5.660  -4.687  1.00  0.00    -0.246 OA
BRANCH  35  37
ATOM     37  C   UNL     1       0.063   5.150  -3.148  1.00  0.00     0.060 A 
ATOM     38  C   UNL     1      -0.295   3.811  -3.384  1.00  0.00     0.016 A 
ATOM     39  C   UNL     1      -0.853   5.841  -2.438  1.00  0.00     0.016 A 
ATOM     40  C   UNL     1      -1.595   3.250  -2.941  1.00  0.00     0.010 A 
ATOM     41  C   UNL     1      -2.129   5.305  -2.301  1.00  0.00     0.010 A 
ATOM     42  C   UNL     1      -2.611   4.022  -2.372  1.00  0.00    -0.014 A 
BRANCH  42  43
ATOM     43  C   UNL     1      -4.160   3.818  -2.083  1.00  0.00     0.031 A 
ATOM     44  C   UNL     1      -5.155   3.929  -0.765  1.00  0.00     0.074 A 
ATOM     45  C   UNL     1      -4.859   3.719  -3.237  1.00  0.00     0.049 A 
ATOM     46  N   UNL     1      -6.375   3.411  -0.744  1.00  0.00    -0.248 NA
ATOM     47  C   UNL     1      -4.984   4.547   0.587  1.00  0.00     0.031 C 
ATOM     48  C   UNL     1      -6.288   3.897  -3.468  1.00  0.00     0.029 A 
ATOM     49  N   UNL     1      -4.378   3.255  -4.461  1.00  0.00    -0.354 N 
ATOM     50  C   UNL     1      -7.069   3.849   0.397  1.00  0.00     0.074 A 
ATOM     51  C   UNL     1      -6.097   4.356   1.270  1.00  0.00     0.031 C 
ATOM     52  C   UNL     1      -6.618   3.279  -4.611  1.00  0.00     0.029 A 
ATOM     53  C   UNL     1      -5.437   2.578  -5.076  1.00  0.00     0.049 A 
ATOM     54  H   UNL     1      -3.470   3.379  -4.822  1.00  0.00     0.167 HD
ATOM     55  C   UNL     1      -8.427   3.924   0.496  1.00  0.00     0.031 A 
ATOM     56  C   UNL     1      -5.335   1.246  -5.338  1.00  0.00     0.031 A 
ATOM     57  C   UNL     1      -9.038   3.244  -0.618  1.00  0.00     0.049 A 
ATOM     58  C   UNL     1      -6.414   0.411  -4.689  1.00  0.00     0.074 A 
ATOM     59  C   UNL     1      -9.724   3.646  -1.745  1.00  0.00     0.029 A 
ATOM     60  N   UNL     1      -8.726   1.910  -0.786  1.00  0.00    -0.354 N 
ATOM     61  N   UNL     1      -7.295   0.873  -3.846  1.00  0.00    -0.248 NA
ATOM     62  C   UNL     1      -6.571  -1.024  -4.905  1.00  0.00     0.031 C 
ATOM     63  C   UNL     1      -9.787   2.529  -2.623  1.00  0.00     0.029 A 
ATOM     64  C   UNL     1      -9.176   1.455  -2.000  1.00  0.00     0.049 A 
ATOM     65  H   UNL     1      -8.246   1.360  -0.125  1.00  0.00     0.167 HD
ATOM     66  C   UNL     1      -8.051  -0.154  -3.343  1.00  0.00     0.074 A 
ATOM     67  C   UNL     1      -7.591  -1.315  -4.077  1.00  0.00     0.031 C 
ATOM     68  C   UNL     1      -8.944   0.057  -2.330  1.00  0.00     0.031 A 
BRANCH  55  69
ATOM     69  C   UNL     1      -9.226   4.756   1.514  1.00  0.00    -0.014 A 
ATOM     70  C   UNL     1     -10.610   4.936   1.313  1.00  0.00     0.009 A 
ATOM     71  C   UNL     1      -8.711   5.451   2.630  1.00  0.00     0.009 A 
ATOM     72  C   UNL     1     -11.395   5.785   2.118  1.00  0.00     0.001 A 
ATOM     73  C   UNL     1      -9.486   6.301   3.443  1.00  0.00     0.001 A 
ATOM     74  C   UNL     1     -10.830   6.480   3.177  1.00  0.00     0.000 A 
ENDBRANCH  55  69
BRANCH  56  75
ATOM     75  C   UNL     1      -3.932   0.823  -5.642  1.00  0.00    -0.014 A 
ATOM     76  C   UNL     1      -3.324   1.374  -6.793  1.00  0.00     0.009 A 
ATOM     77  C   UNL     1      -3.100   0.253  -4.668  1.00  0.00     0.009 A 
ATOM     78  C   UNL     1      -1.933   1.460  -6.911  1.00  0.00     0.001 A 
ATOM     79  C   UNL     1      -1.702   0.304  -4.811  1.00  0.00     0.001 A 
ATOM     80  C   UNL     1      -1.121   0.945  -5.908  1.00  0.00     0.000 A 
ENDBRANCH  56  75
BRANCH  68  81
ATOM     81  C   UNL     1      -9.658  -0.981  -1.479  1.00  0.00    -0.014 A 
ATOM     82  C   UNL     1      -9.397  -2.353  -1.497  1.00  0.00     0.009 A 
ATOM     83  C   UNL     1     -10.581  -0.540  -0.494  1.00  0.00     0.009 A 
ATOM     84  C   UNL     1     -10.026  -3.232  -0.599  1.00  0.00     0.001 A 
ATOM     85  C   UNL     1     -11.168  -1.400   0.437  1.00  0.00     0.001 A 
ATOM     86  C   UNL     1     -10.895  -2.755   0.377  1.00  0.00     0.000 A 
ENDBRANCH  68  81
ENDBRANCH  42  43
ENDBRANCH  35  37
ENDBRANCH  34  35
ENDBRANCH  33  34
ENDBRANCH  32  33
ENDBRANCH  31  32
ENDBRANCH   1  31
TORSDOF 18
