REMARK SMILES Cc1ncccc1Oc1ccc(C(=O)OCCOCCOCCOC(=O)c2ccc(-c3c4nc(c(-c5ccccc5)c5ccc([nH]5)c(-c5ccccc5)c5nc(c(-c6ccccc6)c6ccc3[nH]6)C=C5)C=C4)cc2)cc1Cl
REMARK SMILES IDX 19 1 18 2 17 3 16 4 15 5 13 6 14 7 12 8 9 9 10 10 76 11
REMARK SMILES IDX 11 12 75 13 77 14 8 15 7 16 1 17 2 18 3 19 4 20 6 21 5 22
REMARK SMILES IDX 20 23 21 24 22 25 23 26 24 27 25 28 26 29 27 30 28 31 74 32
REMARK SMILES IDX 29 33 73 34 30 35 31 36 32 37 67 38 33 39 72 40 66 41 68 42
REMARK SMILES IDX 34 43 71 44 65 45 64 46 35 48 57 49 42 50 56 51 43 52 46 53
REMARK SMILES IDX 55 54 69 55 44 56 45 57 54 59 70 60 47 61 36 62 37 63 41 64
REMARK SMILES IDX 38 65 40 66 39 67 58 68 59 69 63 70 60 71 62 72 61 73 48 74
REMARK SMILES IDX 49 75 53 76 50 77 52 78 51 79
REMARK H PARENT 68 47 46 58
REMARK Flexibility Score: inf
ROOT
ATOM      1  C   UNL     1       7.638  -4.395   0.026  1.00  0.00     0.188 C 
ENDROOT
BRANCH   1   2
ATOM      2  O   UNL     1       9.013  -4.076   0.065  1.00  0.00    -0.376 OA
BRANCH   2   3
ATOM      3  C   UNL     1       9.459  -2.817   0.546  1.00  0.00     0.202 C 
BRANCH   3   4
ATOM      4  C   UNL     1       8.644  -1.522   0.426  1.00  0.00     0.261 C 
BRANCH   4   5
ATOM      5  O   UNL     1       7.249  -1.652   0.714  1.00  0.00    -0.460 OA
BRANCH   5   6
ATOM      6  C   UNL     1       6.434  -1.408  -0.338  1.00  0.00     0.338 C 
ATOM      7  O   UNL     1       6.761  -1.028  -1.451  1.00  0.00    -0.246 OA
BRANCH   6   8
ATOM      8  C   UNL     1       5.056  -1.845  -0.038  1.00  0.00     0.061 A 
ATOM      9  C   UNL     1       2.359  -2.336   0.255  1.00  0.00     0.146 A 
ATOM     10  C   UNL     1       2.990  -2.726  -0.927  1.00  0.00     0.049 A 
ATOM     11  C   UNL     1       3.103  -1.916   1.365  1.00  0.00     0.084 A 
ATOM     12  C   UNL     1       4.344  -2.459  -1.080  1.00  0.00     0.019 A 
ATOM     13  C   UNL     1       4.462  -1.647   1.214  1.00  0.00     0.040 A 
ATOM     14  Cl  UNL     1       2.353  -1.607   2.886  1.00  0.00    -0.080 Cl
BRANCH   9  15
ATOM     15  O   UNL     1       0.992  -2.320   0.244  1.00  0.00    -0.454 OA
BRANCH  15  16
ATOM     16  C   UNL     1       0.341  -1.111   0.065  1.00  0.00     0.148 A 
ATOM     17  C   UNL     1       2.263   0.549  -0.482  1.00  0.00     0.071 C 
ATOM     18  C   UNL     1       0.836   0.173  -0.228  1.00  0.00     0.080 A 
ATOM     19  N   UNL     1       0.016   1.260  -0.304  1.00  0.00    -0.258 NA
ATOM     20  C   UNL     1      -1.307   1.088  -0.130  1.00  0.00     0.111 A 
ATOM     21  C   UNL     1      -1.048  -1.245   0.203  1.00  0.00     0.050 A 
ATOM     22  C   UNL     1      -1.885  -0.139   0.105  1.00  0.00     0.024 A 
ENDBRANCH  15  16
ENDBRANCH   9  15
ENDBRANCH   6   8
ENDBRANCH   5   6
ENDBRANCH   4   5
ENDBRANCH   3   4
ENDBRANCH   2   3
ENDBRANCH   1   2
BRANCH   1  23
ATOM     23  C   UNL     1       6.828  -4.510   1.333  1.00  0.00     0.188 C 
BRANCH  23  24
ATOM     24  O   UNL     1       7.387  -4.087   2.553  1.00  0.00    -0.376 OA
BRANCH  24  25
ATOM     25  C   UNL     1       8.458  -4.815   3.131  1.00  0.00     0.202 C 
BRANCH  25  26
ATOM     26  C   UNL     1       8.732  -6.311   2.893  1.00  0.00     0.261 C 
BRANCH  26  27
ATOM     27  O   UNL     1       8.357  -6.860   1.627  1.00  0.00    -0.460 OA
BRANCH  27  28
ATOM     28  C   UNL     1       7.284  -7.687   1.645  1.00  0.00     0.338 C 
ATOM     29  O   UNL     1       6.590  -7.991   2.608  1.00  0.00    -0.246 OA
BRANCH  28  30
ATOM     30  C   UNL     1       6.944  -8.052   0.262  1.00  0.00     0.060 A 
ATOM     31  C   UNL     1       5.759  -7.563  -0.310  1.00  0.00     0.016 A 
ATOM     32  C   UNL     1       7.787  -8.899  -0.454  1.00  0.00     0.016 A 
ATOM     33  C   UNL     1       5.412  -7.924  -1.612  1.00  0.00     0.010 A 
ATOM     34  C   UNL     1       7.422  -9.283  -1.744  1.00  0.00     0.010 A 
ATOM     35  C   UNL     1       6.226  -8.814  -2.319  1.00  0.00    -0.014 A 
BRANCH  35  36
ATOM     36  C   UNL     1       5.769  -9.418  -3.590  1.00  0.00     0.031 A 
ATOM     37  C   UNL     1       5.179 -10.797  -3.548  1.00  0.00     0.074 A 
ATOM     38  C   UNL     1       5.949  -8.792  -4.764  1.00  0.00     0.049 A 
ATOM     39  N   UNL     1       4.896 -11.610  -4.531  1.00  0.00    -0.248 NA
ATOM     40  C   UNL     1       4.888 -11.335  -2.209  1.00  0.00     0.031 C 
ATOM     41  C   UNL     1       6.470  -7.438  -4.932  1.00  0.00     0.029 A 
ATOM     42  N   UNL     1       5.748  -9.242  -6.045  1.00  0.00    -0.354 N 
ATOM     43  C   UNL     1       4.427 -12.770  -3.929  1.00  0.00     0.074 A 
ATOM     44  C   UNL     1       4.476 -12.559  -2.499  1.00  0.00     0.031 C 
ATOM     45  C   UNL     1       6.587  -7.180  -6.246  1.00  0.00     0.029 A 
ATOM     46  C   UNL     1       6.196  -8.368  -7.004  1.00  0.00     0.049 A 
ATOM     47  H   UNL     1       5.324 -10.106  -6.256  1.00  0.00     0.167 HD
ATOM     48  C   UNL     1       4.006 -13.915  -4.517  1.00  0.00     0.031 A 
ATOM     49  C   UNL     1       6.326  -8.528  -8.336  1.00  0.00     0.031 A 
ATOM     50  C   UNL     1       3.987 -14.127  -5.939  1.00  0.00     0.049 A 
ATOM     51  C   UNL     1       5.922  -9.833  -8.970  1.00  0.00     0.074 A 
ATOM     52  C   UNL     1       3.550 -15.238  -6.638  1.00  0.00     0.029 A 
ATOM     53  N   UNL     1       4.444 -13.214  -6.878  1.00  0.00    -0.354 N 
ATOM     54  N   UNL     1       5.448 -10.916  -8.401  1.00  0.00    -0.248 NA
ATOM     55  C   UNL     1       6.067  -9.938 -10.429  1.00  0.00     0.031 C 
ATOM     56  C   UNL     1       3.810 -15.025  -7.996  1.00  0.00     0.029 A 
ATOM     57  C   UNL     1       4.335 -13.751  -8.149  1.00  0.00     0.049 A 
ATOM     58  H   UNL     1       4.794 -12.318  -6.671  1.00  0.00     0.167 HD
ATOM     59  C   UNL     1       5.210 -11.817  -9.433  1.00  0.00     0.074 A 
ATOM     60  C   UNL     1       5.588 -11.152 -10.663  1.00  0.00     0.031 C 
ATOM     61  C   UNL     1       4.713 -13.077  -9.366  1.00  0.00     0.031 A 
BRANCH  48  62
ATOM     62  C   UNL     1       3.601 -15.043  -3.609  1.00  0.00    -0.014 A 
ATOM     63  C   UNL     1       2.455 -14.969  -2.802  1.00  0.00     0.009 A 
ATOM     64  C   UNL     1       4.393 -16.202  -3.556  1.00  0.00     0.009 A 
ATOM     65  C   UNL     1       2.140 -16.008  -1.923  1.00  0.00     0.001 A 
ATOM     66  C   UNL     1       4.057 -17.254  -2.703  1.00  0.00     0.001 A 
ATOM     67  C   UNL     1       2.940 -17.150  -1.876  1.00  0.00     0.000 A 
ENDBRANCH  48  62
BRANCH  49  68
ATOM     68  C   UNL     1       6.906  -7.428  -9.151  1.00  0.00    -0.014 A 
ATOM     69  C   UNL     1       6.103  -6.688 -10.031  1.00  0.00     0.009 A 
ATOM     70  C   UNL     1       8.266  -7.097  -9.031  1.00  0.00     0.009 A 
ATOM     71  C   UNL     1       6.653  -5.646 -10.782  1.00  0.00     0.001 A 
ATOM     72  C   UNL     1       8.806  -6.037  -9.761  1.00  0.00     0.001 A 
ATOM     73  C   UNL     1       8.001  -5.315 -10.640  1.00  0.00     0.000 A 
ENDBRANCH  49  68
BRANCH  61  74
ATOM     74  C   UNL     1       4.496 -13.816 -10.659  1.00  0.00    -0.014 A 
ATOM     75  C   UNL     1       5.568 -14.326 -11.405  1.00  0.00     0.009 A 
ATOM     76  C   UNL     1       3.184 -14.078 -11.088  1.00  0.00     0.009 A 
ATOM     77  C   UNL     1       5.330 -15.069 -12.565  1.00  0.00     0.001 A 
ATOM     78  C   UNL     1       2.948 -14.846 -12.229  1.00  0.00     0.001 A 
ATOM     79  C   UNL     1       4.022 -15.336 -12.970  1.00  0.00     0.000 A 
ENDBRANCH  61  74
ENDBRANCH  35  36
ENDBRANCH  28  30
ENDBRANCH  27  28
ENDBRANCH  26  27
ENDBRANCH  25  26
ENDBRANCH  24  25
ENDBRANCH  23  24
ENDBRANCH   1  23
TORSDOF 19
