REMARK SMILES COc1ccc(CNC(=O)[C@H]2CC(C)=C(C)C[C@@H]2C(=O)OCCOCCOCCOC(=O)c2ccc(-c3c4nc(c(-c5ccccc5)c5ccc([nH]5)c(-c5ccccc5)c5nc(c(-c6ccccc6)c6ccc3[nH]6)C=C5)C=C4)cc2)cc1OC
REMARK SMILES IDX 25 1 24 2 23 3 22 4 21 5 19 6 20 7 18 8 11 9 12 10 13 11
REMARK SMILES IDX 17 12 14 13 15 14 16 15 9 16 8 17 10 19 7 20 6 21 3 22 4 23
REMARK SMILES IDX 82 24 5 25 81 26 2 27 1 28 83 29 84 30 26 31 27 32 28 33
REMARK SMILES IDX 29 34 30 35 31 36 32 37 33 38 34 39 80 40 35 41 79 42 36 43
REMARK SMILES IDX 37 44 38 45 73 46 39 47 78 48 72 49 74 50 40 51 77 52 71 53
REMARK SMILES IDX 70 54 41 56 63 57 48 58 62 59 49 60 52 61 61 62 75 63 50 64
REMARK SMILES IDX 51 65 60 67 76 68 53 69 42 70 43 71 47 72 44 73 46 74 45 75
REMARK SMILES IDX 64 76 65 77 69 78 66 79 68 80 67 81 54 82 55 83 59 84 56 85
REMARK SMILES IDX 58 86 57 87
REMARK H PARENT 8 18 74 55 52 66
REMARK Flexibility Score: inf
ROOT
ATOM      1  C   UNL     1      -1.424   6.180   5.412  1.00  0.00     0.188 C 
ENDROOT
BRANCH   1   2
ATOM      2  O   UNL     1      -0.423   5.379   6.019  1.00  0.00    -0.376 OA
BRANCH   2   3
ATOM      3  C   UNL     1       0.942   5.697   5.814  1.00  0.00     0.202 C 
BRANCH   3   4
ATOM      4  C   UNL     1       1.469   5.591   4.388  1.00  0.00     0.261 C 
BRANCH   4   5
ATOM      5  O   UNL     1       0.935   6.612   3.529  1.00  0.00    -0.463 OA
BRANCH   5   6
ATOM      6  C   UNL     1       0.099   6.203   2.542  1.00  0.00     0.310 C 
ATOM      7  O   UNL     1      -0.343   5.065   2.433  1.00  0.00    -0.252 OA
BRANCH   6   8
ATOM      8  C   UNL     1      -0.258   7.310   1.566  1.00  0.00     0.116 C 
ATOM      9  C   UNL     1       0.773   8.452   1.498  1.00  0.00     0.097 C 
ATOM     10  C   UNL     1       0.251   9.847   1.902  1.00  0.00     0.045 C 
ATOM     11  C   UNL     1      -1.239  10.089   1.904  1.00  0.00    -0.074 C 
ATOM     12  C   UNL     1      -1.746   7.655   1.660  1.00  0.00     0.046 C 
ATOM     13  C   UNL     1      -1.627  11.539   2.090  1.00  0.00     0.039 C 
ATOM     14  C   UNL     1      -2.138   9.097   1.776  1.00  0.00    -0.073 C 
ATOM     15  C   UNL     1      -3.626   9.344   1.733  1.00  0.00     0.039 C 
BRANCH   9  16
ATOM     16  C   UNL     1       1.395   8.427   0.096  1.00  0.00     0.224 C 
ATOM     17  N   UNL     1       2.171   7.358  -0.277  1.00  0.00    -0.352 N 
ATOM     18  H   UNL     1       2.379   7.320  -1.238  1.00  0.00     0.163 HD
ATOM     19  O   UNL     1       1.194   9.310  -0.737  1.00  0.00    -0.275 OA
BRANCH  17  20
ATOM     20  C   UNL     1       2.737   6.270   0.507  1.00  0.00     0.151 C 
BRANCH  20  21
ATOM     21  C   UNL     1       2.274   4.879   0.126  1.00  0.00    -0.025 A 
ATOM     22  C   UNL     1       1.496   2.210  -0.439  1.00  0.00     0.160 A 
ATOM     23  C   UNL     1       0.675   3.285  -0.795  1.00  0.00     0.051 A 
ATOM     24  C   UNL     1       2.718   2.452   0.194  1.00  0.00     0.161 A 
ATOM     25  C   UNL     1       1.068   4.604  -0.529  1.00  0.00     0.009 A 
ATOM     26  C   UNL     1       3.072   3.780   0.496  1.00  0.00     0.056 A 
BRANCH  22  27
ATOM     27  O   UNL     1       1.117   0.958  -0.843  1.00  0.00    -0.493 OA
ATOM     28  C   UNL     1       0.148   0.379   0.031  1.00  0.00     0.278 C 
ENDBRANCH  22  27
BRANCH  24  29
ATOM     29  O   UNL     1       3.673   1.551   0.583  1.00  0.00    -0.493 OA
ATOM     30  C   UNL     1       3.529   0.195   0.188  1.00  0.00     0.278 C 
ENDBRANCH  24  29
ENDBRANCH  20  21
ENDBRANCH  17  20
ENDBRANCH   9  16
ENDBRANCH   6   8
ENDBRANCH   5   6
ENDBRANCH   4   5
ENDBRANCH   3   4
ENDBRANCH   2   3
ENDBRANCH   1   2
BRANCH   1  31
ATOM     31  C   UNL     1      -1.288   7.718   5.379  1.00  0.00     0.188 C 
BRANCH  31  32
ATOM     32  O   UNL     1      -0.610   8.417   6.408  1.00  0.00    -0.376 OA
BRANCH  32  33
ATOM     33  C   UNL     1      -0.801   8.032   7.758  1.00  0.00     0.202 C 
BRANCH  33  34
ATOM     34  C   UNL     1      -2.218   8.084   8.338  1.00  0.00     0.261 C 
BRANCH  34  35
ATOM     35  O   UNL     1      -3.166   7.272   7.623  1.00  0.00    -0.460 OA
BRANCH  35  36
ATOM     36  C   UNL     1      -4.185   7.948   7.040  1.00  0.00     0.338 C 
ATOM     37  O   UNL     1      -4.417   9.141   7.116  1.00  0.00    -0.246 OA
BRANCH  36  38
ATOM     38  C   UNL     1      -4.925   7.066   6.111  1.00  0.00     0.060 A 
ATOM     39  C   UNL     1      -5.012   7.470   4.774  1.00  0.00     0.016 A 
ATOM     40  C   UNL     1      -5.606   5.929   6.547  1.00  0.00     0.016 A 
ATOM     41  C   UNL     1      -5.826   6.777   3.879  1.00  0.00     0.010 A 
ATOM     42  C   UNL     1      -6.438   5.242   5.650  1.00  0.00     0.010 A 
ATOM     43  C   UNL     1      -6.587   5.689   4.324  1.00  0.00    -0.014 A 
BRANCH  43  44
ATOM     44  C   UNL     1      -7.673   5.174   3.450  1.00  0.00     0.031 A 
ATOM     45  C   UNL     1      -9.079   5.667   3.674  1.00  0.00     0.074 A 
ATOM     46  C   UNL     1      -7.416   4.353   2.415  1.00  0.00     0.049 A 
ATOM     47  N   UNL     1     -10.174   5.390   3.010  1.00  0.00    -0.248 NA
ATOM     48  C   UNL     1      -9.274   6.604   4.792  1.00  0.00     0.031 C 
ATOM     49  C   UNL     1      -6.098   3.848   2.038  1.00  0.00     0.029 A 
ATOM     50  N   UNL     1      -8.266   3.812   1.480  1.00  0.00    -0.354 N 
ATOM     51  C   UNL     1     -11.185   6.115   3.630  1.00  0.00     0.074 A 
ATOM     52  C   UNL     1     -10.580   6.819   4.740  1.00  0.00     0.031 C 
ATOM     53  C   UNL     1      -6.226   3.072   0.946  1.00  0.00     0.029 A 
ATOM     54  C   UNL     1      -7.636   3.006   0.564  1.00  0.00     0.049 A 
ATOM     55  H   UNL     1      -9.235   3.987   1.469  1.00  0.00     0.167 HD
ATOM     56  C   UNL     1     -12.497   6.198   3.306  1.00  0.00     0.031 A 
ATOM     57  C   UNL     1      -8.140   2.289  -0.460  1.00  0.00     0.031 A 
ATOM     58  C   UNL     1     -13.117   5.494   2.216  1.00  0.00     0.049 A 
ATOM     59  C   UNL     1      -9.618   2.333  -0.750  1.00  0.00     0.074 A 
ATOM     60  C   UNL     1     -14.443   5.514   1.818  1.00  0.00     0.029 A 
ATOM     61  N   UNL     1     -12.454   4.639   1.351  1.00  0.00    -0.354 N 
ATOM     62  N   UNL     1     -10.560   3.027  -0.159  1.00  0.00    -0.248 NA
ATOM     63  C   UNL     1     -10.098   1.496  -1.861  1.00  0.00     0.031 C 
ATOM     64  C   UNL     1     -14.592   4.631   0.743  1.00  0.00     0.029 A 
ATOM     65  C   UNL     1     -13.347   4.108   0.435  1.00  0.00     0.049 A 
ATOM     66  H   UNL     1     -11.490   4.439   1.382  1.00  0.00     0.167 HD
ATOM     67  C   UNL     1     -11.735   2.734  -0.843  1.00  0.00     0.074 A 
ATOM     68  C   UNL     1     -11.384   1.814  -1.905  1.00  0.00     0.031 C 
ATOM     69  C   UNL     1     -12.991   3.189  -0.615  1.00  0.00     0.031 A 
BRANCH  56  70
ATOM     70  C   UNL     1     -13.364   7.062   4.179  1.00  0.00    -0.014 A 
ATOM     71  C   UNL     1     -13.280   8.463   4.131  1.00  0.00     0.009 A 
ATOM     72  C   UNL     1     -14.290   6.465   5.047  1.00  0.00     0.009 A 
ATOM     73  C   UNL     1     -14.084   9.246   4.963  1.00  0.00     0.001 A 
ATOM     74  C   UNL     1     -15.111   7.251   5.857  1.00  0.00     0.001 A 
ATOM     75  C   UNL     1     -15.000   8.640   5.821  1.00  0.00     0.000 A 
ENDBRANCH  56  70
BRANCH  57  76
ATOM     76  C   UNL     1      -7.244   1.444  -1.293  1.00  0.00    -0.014 A 
ATOM     77  C   UNL     1      -6.991   1.770  -2.634  1.00  0.00     0.009 A 
ATOM     78  C   UNL     1      -6.674   0.277  -0.759  1.00  0.00     0.009 A 
ATOM     79  C   UNL     1      -6.210   0.930  -3.431  1.00  0.00     0.001 A 
ATOM     80  C   UNL     1      -5.869  -0.545  -1.550  1.00  0.00     0.001 A 
ATOM     81  C   UNL     1      -5.647  -0.224  -2.888  1.00  0.00     0.000 A 
ENDBRANCH  57  76
BRANCH  69  82
ATOM     82  C   UNL     1     -14.073   2.728  -1.554  1.00  0.00    -0.014 A 
ATOM     83  C   UNL     1     -14.543   1.405  -1.537  1.00  0.00     0.009 A 
ATOM     84  C   UNL     1     -14.643   3.638  -2.458  1.00  0.00     0.009 A 
ATOM     85  C   UNL     1     -15.530   0.994  -2.436  1.00  0.00     0.001 A 
ATOM     86  C   UNL     1     -15.651   3.232  -3.335  1.00  0.00     0.001 A 
ATOM     87  C   UNL     1     -16.084   1.908  -3.332  1.00  0.00     0.000 A 
ENDBRANCH  69  82
ENDBRANCH  43  44
ENDBRANCH  36  38
ENDBRANCH  35  36
ENDBRANCH  34  35
ENDBRANCH  33  34
ENDBRANCH  32  33
ENDBRANCH  31  32
ENDBRANCH   1  31
TORSDOF 22
