REMARK SMILES O=C(OCCOCCOCCOC(=O)[C@@H]1CN(c2ncccn2)CCN1C(=O)C1CCOCC1)c1ccc(-c2c3nc(c(-c4ccccc4)c4ccc([nH]4)c(-c4ccccc4)c4nc(c(-c5ccccc5)c5ccc2[nH]5)C=C4)C=C3)cc1
REMARK SMILES IDX 7 1 6 2 5 3 4 4 3 5 2 6 1 7 35 8 36 9 82 10 37 11 81 12
REMARK SMILES IDX 38 13 39 14 40 15 75 16 41 17 80 18 74 19 76 20 42 21 79 22
REMARK SMILES IDX 73 23 72 24 43 26 65 27 50 28 64 29 51 30 54 31 63 32 77 33
REMARK SMILES IDX 52 34 53 35 62 37 78 38 55 39 44 40 45 41 49 42 46 43 48 44
REMARK SMILES IDX 47 45 66 46 67 47 71 48 68 49 70 50 69 51 56 52 57 53 61 54
REMARK SMILES IDX 58 55 60 56 59 57 8 58 9 59 10 60 11 61 12 62 13 63 14 64
REMARK SMILES IDX 15 65 16 66 26 67 17 68 25 69 24 70 27 71 28 72 29 73 30 74
REMARK SMILES IDX 34 75 31 76 33 77 32 78 18 79 19 80 23 81 20 82 22 83 21 84
REMARK H PARENT 76 25 54 36
REMARK Flexibility Score: inf
ROOT
ATOM      1  C   UNL     1       3.055   1.252  -1.145  1.00  0.00     0.188 C 
ENDROOT
BRANCH   1   2
ATOM      2  O   UNL     1       4.369   0.965  -0.680  1.00  0.00    -0.376 OA
BRANCH   2   3
ATOM      3  C   UNL     1       5.106   0.140  -1.584  1.00  0.00     0.202 C 
BRANCH   3   4
ATOM      4  C   UNL     1       4.582  -1.303  -1.714  1.00  0.00     0.261 C 
BRANCH   4   5
ATOM      5  O   UNL     1       3.219  -1.510  -1.289  1.00  0.00    -0.460 OA
BRANCH   5   6
ATOM      6  C   UNL     1       2.715  -1.876  -0.085  1.00  0.00     0.338 C 
ATOM      7  O   UNL     1       1.551  -2.271  -0.041  1.00  0.00    -0.246 OA
BRANCH   6   8
ATOM      8  C   UNL     1       3.460  -1.770   1.210  1.00  0.00     0.060 A 
ATOM      9  C   UNL     1       4.670  -1.106   1.392  1.00  0.00     0.016 A 
ATOM     10  C   UNL     1       2.869  -2.344   2.346  1.00  0.00     0.016 A 
ATOM     11  C   UNL     1       5.300  -1.015   2.626  1.00  0.00     0.010 A 
ATOM     12  C   UNL     1       3.506  -2.284   3.591  1.00  0.00     0.010 A 
ATOM     13  C   UNL     1       4.737  -1.629   3.731  1.00  0.00    -0.014 A 
BRANCH  13  14
ATOM     14  C   UNL     1       5.582  -1.793   4.929  1.00  0.00     0.031 A 
ATOM     15  C   UNL     1       6.133  -3.164   5.185  1.00  0.00     0.074 A 
ATOM     16  C   UNL     1       5.960  -0.738   5.675  1.00  0.00     0.049 A 
ATOM     17  N   UNL     1       6.828  -3.604   6.198  1.00  0.00    -0.248 NA
ATOM     18  C   UNL     1       5.889  -4.173   4.135  1.00  0.00     0.031 C 
ATOM     19  C   UNL     1       5.601   0.660   5.420  1.00  0.00     0.029 A 
ATOM     20  N   UNL     1       6.693  -0.681   6.832  1.00  0.00    -0.354 N 
ATOM     21  C   UNL     1       7.140  -4.920   5.881  1.00  0.00     0.074 A 
ATOM     22  C   UNL     1       6.480  -5.241   4.639  1.00  0.00     0.031 C 
ATOM     23  C   UNL     1       6.019   1.420   6.446  1.00  0.00     0.029 A 
ATOM     24  C   UNL     1       6.660   0.559   7.430  1.00  0.00     0.049 A 
ATOM     25  H   UNL     1       7.192  -1.447   7.197  1.00  0.00     0.167 HD
ATOM     26  C   UNL     1       7.957  -5.769   6.543  1.00  0.00     0.031 A 
ATOM     27  C   UNL     1       7.032   0.922   8.671  1.00  0.00     0.031 A 
ATOM     28  C   UNL     1       8.583  -5.437   7.788  1.00  0.00     0.049 A 
ATOM     29  C   UNL     1       7.707  -0.113   9.527  1.00  0.00     0.074 A 
ATOM     30  C   UNL     1       9.392  -6.214   8.592  1.00  0.00     0.029 A 
ATOM     31  N   UNL     1       8.454  -4.202   8.409  1.00  0.00    -0.354 N 
ATOM     32  N   UNL     1       7.966  -1.369   9.246  1.00  0.00    -0.248 NA
ATOM     33  C   UNL     1       8.170   0.320  10.849  1.00  0.00     0.031 C 
ATOM     34  C   UNL     1       9.717  -5.460   9.726  1.00  0.00     0.029 A 
ATOM     35  C   UNL     1       9.152  -4.199   9.600  1.00  0.00     0.049 A 
ATOM     36  H   UNL     1       7.940  -3.441   8.054  1.00  0.00     0.167 HD
ATOM     37  C   UNL     1       8.687  -1.857  10.326  1.00  0.00     0.074 A 
ATOM     38  C   UNL     1       8.794  -0.767  11.278  1.00  0.00     0.031 C 
ATOM     39  C   UNL     1       9.239  -3.083  10.507  1.00  0.00     0.031 A 
BRANCH  26  40
ATOM     40  C   UNL     1       8.182  -7.112   5.911  1.00  0.00    -0.014 A 
ATOM     41  C   UNL     1       8.937  -7.233   4.730  1.00  0.00     0.009 A 
ATOM     42  C   UNL     1       7.581  -8.256   6.452  1.00  0.00     0.009 A 
ATOM     43  C   UNL     1       9.044  -8.464   4.080  1.00  0.00     0.001 A 
ATOM     44  C   UNL     1       7.711  -9.491   5.812  1.00  0.00     0.001 A 
ATOM     45  C   UNL     1       8.431  -9.592   4.621  1.00  0.00     0.000 A 
ENDBRANCH  26  40
BRANCH  27  46
ATOM     46  C   UNL     1       6.703   2.272   9.206  1.00  0.00    -0.014 A 
ATOM     47  C   UNL     1       7.697   3.225   9.467  1.00  0.00     0.009 A 
ATOM     48  C   UNL     1       5.370   2.596   9.514  1.00  0.00     0.009 A 
ATOM     49  C   UNL     1       7.367   4.450  10.059  1.00  0.00     0.001 A 
ATOM     50  C   UNL     1       5.039   3.829  10.081  1.00  0.00     0.001 A 
ATOM     51  C   UNL     1       6.040   4.750  10.366  1.00  0.00     0.000 A 
ENDBRANCH  27  46
BRANCH  39  52
ATOM     52  C   UNL     1      10.076  -3.265  11.736  1.00  0.00    -0.014 A 
ATOM     53  C   UNL     1       9.498  -3.404  13.005  1.00  0.00     0.009 A 
ATOM     54  C   UNL     1      11.472  -3.333  11.602  1.00  0.00     0.009 A 
ATOM     55  C   UNL     1      10.309  -3.579  14.126  1.00  0.00     0.001 A 
ATOM     56  C   UNL     1      12.277  -3.538  12.720  1.00  0.00     0.001 A 
ATOM     57  C   UNL     1      11.696  -3.652  13.982  1.00  0.00     0.000 A 
ENDBRANCH  39  52
ENDBRANCH  13  14
ENDBRANCH   6   8
ENDBRANCH   5   6
ENDBRANCH   4   5
ENDBRANCH   3   4
ENDBRANCH   2   3
ENDBRANCH   1   2
BRANCH   1  58
ATOM     58  C   UNL     1       2.651   2.691  -0.913  1.00  0.00     0.188 C 
BRANCH  58  59
ATOM     59  O   UNL     1       3.563   3.678  -1.359  1.00  0.00    -0.376 OA
BRANCH  59  60
ATOM     60  C   UNL     1       4.806   3.765  -0.676  1.00  0.00     0.202 C 
BRANCH  60  61
ATOM     61  C   UNL     1       4.851   3.984   0.854  1.00  0.00     0.261 C 
BRANCH  61  62
ATOM     62  O   UNL     1       3.836   3.350   1.668  1.00  0.00    -0.462 OA
BRANCH  62  63
ATOM     63  C   UNL     1       3.535   4.033   2.809  1.00  0.00     0.330 C 
ATOM     64  O   UNL     1       4.114   5.067   3.148  1.00  0.00    -0.250 OA
BRANCH  63  65
ATOM     65  C   UNL     1       2.462   3.389   3.706  1.00  0.00     0.214 C 
ATOM     66  C   UNL     1       2.112   1.885   3.495  1.00  0.00     0.157 C 
ATOM     67  N   UNL     1       1.272   4.172   4.205  1.00  0.00    -0.325 N 
ATOM     68  N   UNL     1       1.308   1.330   4.614  1.00  0.00    -0.336 N 
ATOM     69  C   UNL     1       0.810   3.595   5.484  1.00  0.00     0.142 C 
ATOM     70  C   UNL     1       0.277   2.171   5.234  1.00  0.00     0.141 C 
BRANCH  67  71
ATOM     71  C   UNL     1       0.290   4.893   3.537  1.00  0.00     0.226 C 
ATOM     72  O   UNL     1      -0.837   5.005   4.050  1.00  0.00    -0.275 OA
BRANCH  71  73
ATOM     73  C   UNL     1       0.454   5.605   2.196  1.00  0.00     0.083 C 
ATOM     74  C   UNL     1       0.288   4.657   1.019  1.00  0.00     0.042 C 
ATOM     75  C   UNL     1       1.576   6.640   2.121  1.00  0.00     0.042 C 
ATOM     76  C   UNL     1       0.701   5.350  -0.262  1.00  0.00     0.161 C 
ATOM     77  C   UNL     1       2.222   6.836   0.752  1.00  0.00     0.161 C 
ATOM     78  O   UNL     1       2.061   5.730  -0.119  1.00  0.00    -0.381 OA
ENDBRANCH  71  73
ENDBRANCH  67  71
BRANCH  68  79
ATOM     79  C   UNL     1       1.817   0.398   5.494  1.00  0.00     0.225 A 
ATOM     80  N   UNL     1       1.260  -0.825   5.483  1.00  0.00    -0.221 NA
ATOM     81  N   UNL     1       2.674   0.793   6.445  1.00  0.00    -0.221 NA
ATOM     82  C   UNL     1       1.631  -1.699   6.443  1.00  0.00     0.117 A 
ATOM     83  C   UNL     1       3.024  -0.127   7.376  1.00  0.00     0.117 A 
ATOM     84  C   UNL     1       2.541  -1.408   7.420  1.00  0.00     0.040 A 
ENDBRANCH  68  79
ENDBRANCH  63  65
ENDBRANCH  62  63
ENDBRANCH  61  62
ENDBRANCH  60  61
ENDBRANCH  59  60
ENDBRANCH  58  59
ENDBRANCH   1  58
TORSDOF 20
