REMARK SMILES COc1ccc(Cc2ncc(C(=O)OCCOCCOCCOC(=O)c3ccc(-c4c5nc(c(-c6ccccc6)c6ccc([nH]6)c(-c6ccccc6)c6nc(c(-c7ccccc7)c7ccc4[nH]7)C=C6)C=C5)cc3)c(C)n2)cn1
REMARK SMILES IDX 18 1 17 2 16 3 15 4 14 5 12 6 13 7 11 8 8 9 9 10 76 11 10 12
REMARK SMILES IDX 74 13 75 14 7 15 6 16 3 17 4 18 78 19 5 20 77 21 2 22 1 23
REMARK SMILES IDX 19 24 20 25 21 26 22 27 23 28 24 29 25 30 26 31 27 32 73 33
REMARK SMILES IDX 28 34 72 35 29 36 30 37 31 38 66 39 32 40 71 41 65 42 67 43
REMARK SMILES IDX 33 44 70 45 64 46 63 47 34 49 56 50 41 51 55 52 42 53 45 54
REMARK SMILES IDX 54 55 68 56 43 57 44 58 53 60 69 61 46 62 35 63 36 64 40 65
REMARK SMILES IDX 37 66 39 67 38 68 57 69 58 70 62 71 59 72 61 73 60 74 47 75
REMARK SMILES IDX 48 76 52 77 49 78 51 79 50 80
REMARK H PARENT 67 48 45 59
REMARK Flexibility Score: inf
ROOT
ATOM      1  C   UNL     1      -0.127   2.751 -10.078  1.00  0.00     0.188 C 
ENDROOT
BRANCH   1   2
ATOM      2  O   UNL     1      -0.405   2.981 -11.456  1.00  0.00    -0.376 OA
BRANCH   2   3
ATOM      3  C   UNL     1       0.487   3.786 -12.224  1.00  0.00     0.202 C 
BRANCH   3   4
ATOM      4  C   UNL     1       0.875   5.170 -11.683  1.00  0.00     0.261 C 
BRANCH   4   5
ATOM      5  O   UNL     1       1.446   5.128 -10.361  1.00  0.00    -0.460 OA
BRANCH   5   6
ATOM      6  C   UNL     1       0.892   5.956  -9.445  1.00  0.00     0.341 C 
ATOM      7  O   UNL     1       0.043   6.807  -9.656  1.00  0.00    -0.246 OA
BRANCH   6   8
ATOM      8  C   UNL     1       1.273   5.568  -8.077  1.00  0.00     0.099 A 
ATOM      9  C   UNL     1       1.691   4.951  -5.453  1.00  0.00     0.133 A 
ATOM     10  N   UNL     1       0.424   5.165  -5.848  1.00  0.00    -0.240 NA
ATOM     11  N   UNL     1       2.753   4.974  -6.289  1.00  0.00    -0.237 NA
ATOM     12  C   UNL     1       0.249   5.477  -7.151  1.00  0.00     0.130 A 
ATOM     13  C   UNL     1       2.538   5.270  -7.603  1.00  0.00     0.056 A 
ATOM     14  C   UNL     1       3.777   5.330  -8.446  1.00  0.00     0.068 C 
BRANCH   9  15
ATOM     15  C   UNL     1       1.956   4.851  -3.968  1.00  0.00     0.114 C 
BRANCH  15  16
ATOM     16  C   UNL     1       1.666   3.521  -3.322  1.00  0.00    -0.022 A 
ATOM     17  C   UNL     1       1.049   1.187  -2.010  1.00  0.00     0.212 A 
ATOM     18  C   UNL     1       2.377   1.581  -2.070  1.00  0.00     0.069 A 
ATOM     19  N   UNL     1       0.043   1.872  -2.587  1.00  0.00    -0.222 NA
ATOM     20  C   UNL     1       2.685   2.768  -2.731  1.00  0.00     0.011 A 
ATOM     21  C   UNL     1       0.370   3.023  -3.222  1.00  0.00     0.119 A 
BRANCH  17  22
ATOM     22  O   UNL     1       0.688   0.009  -1.408  1.00  0.00    -0.481 OA
ATOM     23  C   UNL     1       0.954   0.040  -0.009  1.00  0.00     0.280 C 
ENDBRANCH  17  22
ENDBRANCH  15  16
ENDBRANCH   9  15
ENDBRANCH   6   8
ENDBRANCH   5   6
ENDBRANCH   4   5
ENDBRANCH   3   4
ENDBRANCH   2   3
ENDBRANCH   1   2
BRANCH   1  24
ATOM     24  C   UNL     1       1.281   2.279  -9.655  1.00  0.00     0.188 C 
BRANCH  24  25
ATOM     25  O   UNL     1       2.201   2.230 -10.723  1.00  0.00    -0.376 OA
BRANCH  25  26
ATOM     26  C   UNL     1       2.583   0.959 -11.221  1.00  0.00     0.202 C 
BRANCH  26  27
ATOM     27  C   UNL     1       1.550  -0.151 -11.504  1.00  0.00     0.261 C 
BRANCH  27  28
ATOM     28  O   UNL     1       0.369  -0.187 -10.691  1.00  0.00    -0.460 OA
BRANCH  28  29
ATOM     29  C   UNL     1       0.436  -0.888  -9.534  1.00  0.00     0.338 C 
ATOM     30  O   UNL     1       1.405  -1.459  -9.075  1.00  0.00    -0.246 OA
BRANCH  29  31
ATOM     31  C   UNL     1      -0.846  -0.701  -8.820  1.00  0.00     0.060 A 
ATOM     32  C   UNL     1      -0.853  -0.014  -7.598  1.00  0.00     0.016 A 
ATOM     33  C   UNL     1      -2.034  -1.208  -9.353  1.00  0.00     0.016 A 
ATOM     34  C   UNL     1      -2.049   0.147  -6.894  1.00  0.00     0.010 A 
ATOM     35  C   UNL     1      -3.226  -1.063  -8.637  1.00  0.00     0.010 A 
ATOM     36  C   UNL     1      -3.236  -0.409  -7.391  1.00  0.00    -0.014 A 
BRANCH  36  37
ATOM     37  C   UNL     1      -4.449  -0.465  -6.539  1.00  0.00     0.031 A 
ATOM     38  C   UNL     1      -4.730  -1.726  -5.770  1.00  0.00     0.074 A 
ATOM     39  C   UNL     1      -5.290   0.580  -6.444  1.00  0.00     0.049 A 
ATOM     40  N   UNL     1      -5.750  -2.027  -5.007  1.00  0.00    -0.248 NA
ATOM     41  C   UNL     1      -3.725  -2.796  -5.886  1.00  0.00     0.031 C 
ATOM     42  C   UNL     1      -5.113   1.876  -7.096  1.00  0.00     0.029 A 
ATOM     43  N   UNL     1      -6.472   0.707  -5.756  1.00  0.00    -0.354 N 
ATOM     44  C   UNL     1      -5.510  -3.318  -4.552  1.00  0.00     0.074 A 
ATOM     45  C   UNL     1      -4.271  -3.757  -5.156  1.00  0.00     0.031 C 
ATOM     46  C   UNL     1      -6.151   2.669  -6.776  1.00  0.00     0.029 A 
ATOM     47  C   UNL     1      -7.081   1.925  -5.927  1.00  0.00     0.049 A 
ATOM     48  H   UNL     1      -6.847  -0.009  -5.193  1.00  0.00     0.167 HD
ATOM     49  C   UNL     1      -6.248  -4.071  -3.702  1.00  0.00     0.031 A 
ATOM     50  C   UNL     1      -8.262   2.380  -5.465  1.00  0.00     0.031 A 
ATOM     51  C   UNL     1      -7.492  -3.647  -3.117  1.00  0.00     0.049 A 
ATOM     52  C   UNL     1      -9.118   1.486  -4.605  1.00  0.00     0.074 A 
ATOM     53  C   UNL     1      -8.312  -4.336  -2.240  1.00  0.00     0.029 A 
ATOM     54  N   UNL     1      -8.101  -2.425  -3.358  1.00  0.00    -0.354 N 
ATOM     55  N   UNL     1      -8.873   0.276  -4.164  1.00  0.00    -0.248 NA
ATOM     56  C   UNL     1     -10.416   2.029  -4.175  1.00  0.00     0.031 C 
ATOM     57  C   UNL     1      -9.447  -3.554  -1.998  1.00  0.00     0.029 A 
ATOM     58  C   UNL     1      -9.302  -2.353  -2.673  1.00  0.00     0.049 A 
ATOM     59  H   UNL     1      -7.733  -1.715  -3.932  1.00  0.00     0.167 HD
ATOM     60  C   UNL     1      -9.965  -0.072  -3.377  1.00  0.00     0.074 A 
ATOM     61  C   UNL     1     -10.870   1.058  -3.394  1.00  0.00     0.031 C 
ATOM     62  C   UNL     1     -10.194  -1.222  -2.697  1.00  0.00     0.031 A 
BRANCH  49  63
ATOM     63  C   UNL     1      -5.740  -5.451  -3.392  1.00  0.00    -0.014 A 
ATOM     64  C   UNL     1      -4.588  -5.648  -2.613  1.00  0.00     0.009 A 
ATOM     65  C   UNL     1      -6.429  -6.572  -3.881  1.00  0.00     0.009 A 
ATOM     66  C   UNL     1      -4.113  -6.939  -2.367  1.00  0.00     0.001 A 
ATOM     67  C   UNL     1      -5.969  -7.862  -3.607  1.00  0.00     0.001 A 
ATOM     68  C   UNL     1      -4.806  -8.043  -2.861  1.00  0.00     0.000 A 
ENDBRANCH  49  63
BRANCH  50  69
ATOM     69  C   UNL     1      -8.723   3.751  -5.811  1.00  0.00    -0.014 A 
ATOM     70  C   UNL     1      -8.807   4.745  -4.823  1.00  0.00     0.009 A 
ATOM     71  C   UNL     1      -9.112   4.066  -7.122  1.00  0.00     0.009 A 
ATOM     72  C   UNL     1      -9.294   6.016  -5.136  1.00  0.00     0.001 A 
ATOM     73  C   UNL     1      -9.570   5.347  -7.438  1.00  0.00     0.001 A 
ATOM     74  C   UNL     1      -9.671   6.317  -6.443  1.00  0.00     0.000 A 
ENDBRANCH  50  69
BRANCH  62  75
ATOM     75  C   UNL     1     -11.453  -1.302  -1.876  1.00  0.00    -0.014 A 
ATOM     76  C   UNL     1     -12.716  -1.417  -2.478  1.00  0.00     0.009 A 
ATOM     77  C   UNL     1     -11.366  -1.304  -0.474  1.00  0.00     0.009 A 
ATOM     78  C   UNL     1     -13.868  -1.497  -1.691  1.00  0.00     0.001 A 
ATOM     79  C   UNL     1     -12.516  -1.416   0.308  1.00  0.00     0.001 A 
ATOM     80  C   UNL     1     -13.767  -1.502  -0.300  1.00  0.00     0.000 A 
ENDBRANCH  62  75
ENDBRANCH  36  37
ENDBRANCH  29  31
ENDBRANCH  28  29
ENDBRANCH  27  28
ENDBRANCH  26  27
ENDBRANCH  25  26
ENDBRANCH  24  25
ENDBRANCH   1  24
TORSDOF 20
