REMARK SMILES C[C@H]1CCC[C@]1(C(=O)OCCOCCOCCOC(=O)c1ccc(-c2c3nc(c(-c4ccccc4)c4ccc([nH]4)c(-c4ccccc4)c4nc(c(-c5ccccc5)c5ccc2[nH]5)C=C4)C=C3)cc1)c1ccc2c(c1)OCO2
REMARK SMILES IDX 14 1 13 2 12 3 11 4 10 5 9 6 7 7 8 8 6 9 1 10 2 11 3 12 4 13
REMARK SMILES IDX 5 14 69 15 70 16 74 17 71 18 73 19 72 20 75 21 77 22 76 23
REMARK SMILES IDX 15 24 16 25 17 26 18 27 19 28 20 29 21 30 22 31 68 32 23 33
REMARK SMILES IDX 67 34 24 35 25 36 26 37 61 38 27 39 66 40 60 41 62 42 28 43
REMARK SMILES IDX 65 44 59 45 58 46 29 48 51 49 36 50 50 51 37 52 40 53 49 54
REMARK SMILES IDX 63 55 38 56 39 57 48 59 64 60 41 61 30 62 31 63 35 64 32 65
REMARK SMILES IDX 34 66 33 67 52 68 53 69 57 70 54 71 56 72 55 73 42 74 43 75
REMARK SMILES IDX 47 76 44 77 46 78 45 79
REMARK H PARENT 62 47 40 58
REMARK Flexibility Score: inf
ROOT
ATOM      1  C   UNL     1       1.232   1.584   4.535  1.00  0.00     0.188 C 
ENDROOT
BRANCH   1   2
ATOM      2  C   UNL     1       0.271   2.558   3.871  1.00  0.00     0.188 C 
BRANCH   2   3
ATOM      3  O   UNL     1      -0.975   2.766   4.513  1.00  0.00    -0.376 OA
BRANCH   3   4
ATOM      4  C   UNL     1      -1.751   1.599   4.758  1.00  0.00     0.202 C 
BRANCH   4   5
ATOM      5  C   UNL     1      -2.357   0.888   3.537  1.00  0.00     0.261 C 
BRANCH   5   6
ATOM      6  O   UNL     1      -1.469   0.628   2.426  1.00  0.00    -0.463 OA
BRANCH   6   7
ATOM      7  C   UNL     1      -1.584   1.492   1.377  1.00  0.00     0.316 C 
ATOM      8  O   UNL     1      -2.306   2.487   1.407  1.00  0.00    -0.251 OA
BRANCH   7   9
ATOM      9  C   UNL     1      -0.811   1.070   0.097  1.00  0.00     0.096 C 
ATOM     10  C   UNL     1       1.434   0.049   1.082  1.00  0.00     0.009 C 
ATOM     11  C   UNL     1       0.241  -0.082   0.148  1.00  0.00     0.008 C 
ATOM     12  C   UNL     1      -0.562  -1.359   0.338  1.00  0.00     0.005 C 
ATOM     13  C   UNL     1      -1.820  -1.126  -0.489  1.00  0.00     0.002 C 
ATOM     14  C   UNL     1      -1.929   0.387  -0.749  1.00  0.00     0.024 C 
BRANCH   9  15
ATOM     15  C   UNL     1      -0.116   2.276  -0.599  1.00  0.00    -0.027 A 
ATOM     16  C   UNL     1       0.299   3.425   0.131  1.00  0.00     0.009 A 
ATOM     17  C   UNL     1       0.306   2.173  -1.942  1.00  0.00     0.055 A 
ATOM     18  C   UNL     1       1.154   4.390  -0.419  1.00  0.00     0.051 A 
ATOM     19  C   UNL     1       1.166   3.126  -2.450  1.00  0.00     0.166 A 
ATOM     20  C   UNL     1       1.593   4.194  -1.705  1.00  0.00     0.165 A 
ATOM     21  O   UNL     1       1.736   3.094  -3.685  1.00  0.00    -0.454 OA
ATOM     22  O   UNL     1       2.493   4.965  -2.371  1.00  0.00    -0.454 OA
ATOM     23  C   UNL     1       2.683   4.175  -3.563  1.00  0.00     0.468 C 
ENDBRANCH   9  15
ENDBRANCH   7   9
ENDBRANCH   6   7
ENDBRANCH   5   6
ENDBRANCH   4   5
ENDBRANCH   3   4
ENDBRANCH   2   3
ENDBRANCH   1   2
BRANCH   1  24
ATOM     24  O   UNL     1       0.740   0.265   4.696  1.00  0.00    -0.376 OA
BRANCH  24  25
ATOM     25  C   UNL     1       1.647  -0.713   5.208  1.00  0.00     0.202 C 
BRANCH  25  26
ATOM     26  C   UNL     1       2.826  -0.294   6.117  1.00  0.00     0.261 C 
BRANCH  26  27
ATOM     27  O   UNL     1       3.596   0.853   5.704  1.00  0.00    -0.460 OA
BRANCH  27  28
ATOM     28  C   UNL     1       4.245   0.791   4.512  1.00  0.00     0.338 C 
ATOM     29  O   UNL     1       4.390  -0.192   3.826  1.00  0.00    -0.246 OA
BRANCH  28  30
ATOM     30  C   UNL     1       4.516   2.197   4.060  1.00  0.00     0.060 A 
ATOM     31  C   UNL     1       4.378   2.492   2.694  1.00  0.00     0.016 A 
ATOM     32  C   UNL     1       4.814   3.231   4.955  1.00  0.00     0.016 A 
ATOM     33  C   UNL     1       4.596   3.791   2.216  1.00  0.00     0.010 A 
ATOM     34  C   UNL     1       5.048   4.528   4.475  1.00  0.00     0.010 A 
ATOM     35  C   UNL     1       4.984   4.808   3.097  1.00  0.00    -0.014 A 
BRANCH  35  36
ATOM     36  C   UNL     1       5.570   6.074   2.572  1.00  0.00     0.031 A 
ATOM     37  C   UNL     1       7.074   6.173   2.502  1.00  0.00     0.074 A 
ATOM     38  C   UNL     1       4.825   7.111   2.148  1.00  0.00     0.049 A 
ATOM     39  N   UNL     1       7.831   7.190   2.175  1.00  0.00    -0.248 NA
ATOM     40  C   UNL     1       7.822   4.954   2.854  1.00  0.00     0.031 C 
ATOM     41  C   UNL     1       3.367   7.145   2.084  1.00  0.00     0.029 A 
ATOM     42  N   UNL     1       5.211   8.350   1.690  1.00  0.00    -0.354 N 
ATOM     43  C   UNL     1       9.140   6.739   2.302  1.00  0.00     0.074 A 
ATOM     44  C   UNL     1       9.075   5.367   2.755  1.00  0.00     0.031 C 
ATOM     45  C   UNL     1       2.980   8.347   1.617  1.00  0.00     0.029 A 
ATOM     46  C   UNL     1       4.160   9.185   1.394  1.00  0.00     0.049 A 
ATOM     47  H   UNL     1       6.154   8.615   1.585  1.00  0.00     0.167 HD
ATOM     48  C   UNL     1      10.297   7.401   2.065  1.00  0.00     0.031 A 
ATOM     49  C   UNL     1       4.149  10.480   1.016  1.00  0.00     0.031 A 
ATOM     50  C   UNL     1      10.380   8.767   1.626  1.00  0.00     0.049 A 
ATOM     51  C   UNL     1       5.450  11.230   0.856  1.00  0.00     0.074 A 
ATOM     52  C   UNL     1      11.513   9.519   1.366  1.00  0.00     0.029 A 
ATOM     53  N   UNL     1       9.290   9.587   1.389  1.00  0.00    -0.354 N 
ATOM     54  N   UNL     1       6.681  10.796   0.983  1.00  0.00    -0.248 NA
ATOM     55  C   UNL     1       5.357  12.657   0.499  1.00  0.00     0.031 C 
ATOM     56  C   UNL     1      11.109  10.814   1.029  1.00  0.00     0.029 A 
ATOM     57  C   UNL     1       9.724  10.847   1.011  1.00  0.00     0.049 A 
ATOM     58  H   UNL     1       8.348   9.316   1.477  1.00  0.00     0.167 HD
ATOM     59  C   UNL     1       7.502  11.880   0.687  1.00  0.00     0.074 A 
ATOM     60  C   UNL     1       6.633  12.991   0.365  1.00  0.00     0.031 C 
ATOM     61  C   UNL     1       8.856  11.946   0.679  1.00  0.00     0.031 A 
BRANCH  48  62
ATOM     62  C   UNL     1      11.578   6.660   2.330  1.00  0.00    -0.014 A 
ATOM     63  C   UNL     1      12.004   5.609   1.502  1.00  0.00     0.009 A 
ATOM     64  C   UNL     1      12.381   7.037   3.418  1.00  0.00     0.009 A 
ATOM     65  C   UNL     1      13.190   4.927   1.782  1.00  0.00     0.001 A 
ATOM     66  C   UNL     1      13.582   6.374   3.676  1.00  0.00     0.001 A 
ATOM     67  C   UNL     1      13.979   5.313   2.865  1.00  0.00     0.000 A 
ENDBRANCH  48  62
BRANCH  49  68
ATOM     68  C   UNL     1       2.857  11.190   0.797  1.00  0.00    -0.014 A 
ATOM     69  C   UNL     1       2.491  11.639  -0.482  1.00  0.00     0.009 A 
ATOM     70  C   UNL     1       2.008  11.473   1.879  1.00  0.00     0.009 A 
ATOM     71  C   UNL     1       1.318  12.377  -0.667  1.00  0.00     0.001 A 
ATOM     72  C   UNL     1       0.821  12.183   1.687  1.00  0.00     0.001 A 
ATOM     73  C   UNL     1       0.482  12.644   0.416  1.00  0.00     0.000 A 
ENDBRANCH  49  68
BRANCH  61  74
ATOM     74  C   UNL     1       9.496  13.241   0.255  1.00  0.00    -0.014 A 
ATOM     75  C   UNL     1       9.470  14.380   1.074  1.00  0.00     0.009 A 
ATOM     76  C   UNL     1      10.194  13.299  -0.963  1.00  0.00     0.009 A 
ATOM     77  C   UNL     1      10.104  15.558   0.667  1.00  0.00     0.001 A 
ATOM     78  C   UNL     1      10.852  14.466  -1.353  1.00  0.00     0.001 A 
ATOM     79  C   UNL     1      10.799  15.598  -0.541  1.00  0.00     0.000 A 
ENDBRANCH  61  74
ENDBRANCH  35  36
ENDBRANCH  28  30
ENDBRANCH  27  28
ENDBRANCH  26  27
ENDBRANCH  25  26
ENDBRANCH  24  25
ENDBRANCH   1  24
TORSDOF 18
