REMARK SMILES O=C(N[C@@H](Cc1c[nH]c2ccccc12)C(=O)N[C@@H](CO)C(=O)OCCOCCOCCOC(=O)c1ccc(-c2c3nc(c(-c4ccccc4)c4ccc([nH]4)c(-c4ccccc4)c4nc(c(-c5ccccc5)c5ccc2[nH]5)C=C4)C=C3)cc1)c1ccc(F)cc1
REMARK SMILES IDX 27 1 26 2 25 3 24 4 23 5 21 6 22 7 18 8 17 9 15 10 16 11
REMARK SMILES IDX 4 13 3 14 1 15 2 16 83 18 84 19 89 20 85 21 88 22 86 23
REMARK SMILES IDX 87 24 5 25 6 26 7 27 14 28 8 29 9 30 13 31 10 33 12 34 11 35
REMARK SMILES IDX 19 36 20 37 28 39 29 40 30 41 31 42 32 43 33 44 34 45 35 46
REMARK SMILES IDX 36 47 82 48 37 49 81 50 38 51 39 52 40 53 75 54 41 55 80 56
REMARK SMILES IDX 74 57 76 58 42 59 79 60 73 61 72 62 43 64 65 65 50 66 64 67
REMARK SMILES IDX 51 68 54 69 63 70 77 71 52 72 53 73 62 75 78 76 55 77 44 78
REMARK SMILES IDX 45 79 49 80 46 81 48 82 47 83 66 84 67 85 71 86 68 87 70 88
REMARK SMILES IDX 69 89 56 90 57 91 61 92 58 93 60 94 59 95
REMARK H PARENT 17 12 3 17 8 32 20 38 76 63 54 74
REMARK Flexibility Score: inf
ROOT
ATOM      1  C   UNL     1       7.230   7.111  -3.604  1.00  0.00     0.188 C 
ENDROOT
BRANCH   1   2
ATOM      2  O   UNL     1       6.015   7.527  -2.963  1.00  0.00    -0.376 OA
BRANCH   2   3
ATOM      3  C   UNL     1       6.015   8.297  -1.753  1.00  0.00     0.202 C 
BRANCH   3   4
ATOM      4  C   UNL     1       4.580   8.269  -1.036  1.00  0.00     0.261 C 
BRANCH   4   5
ATOM      5  O   UNL     1       4.197   7.043  -0.261  1.00  0.00    -0.462 OA
BRANCH   5   6
ATOM      6  C   UNL     1       2.944   6.498  -0.461  1.00  0.00     0.331 C 
ATOM      7  O   UNL     1       2.090   7.081  -1.133  1.00  0.00    -0.250 OA
BRANCH   6   8
ATOM      8  C   UNL     1       2.611   5.037   0.161  1.00  0.00     0.218 C 
BRANCH   8   9
ATOM      9  N   UNL     1       3.565   4.184   0.924  1.00  0.00    -0.339 N 
ATOM     10  C   UNL     1       3.755   2.862   1.213  1.00  0.00     0.243 C 
ATOM     11  O   UNL     1       4.442   2.726   2.250  1.00  0.00    -0.273 OA
ATOM     12  H   UNL     1       4.264   4.735   1.344  1.00  0.00     0.164 HD
BRANCH  10  13
ATOM     13  C   UNL     1       3.271   1.468   0.517  1.00  0.00     0.176 C 
BRANCH  13  14
ATOM     14  N   UNL     1       1.919   0.968   0.778  1.00  0.00    -0.340 N 
ATOM     15  O   UNL     1       0.327  -0.631   0.640  1.00  0.00    -0.269 OA
ATOM     16  C   UNL     1       1.522  -0.365   0.730  1.00  0.00     0.251 C 
ATOM     17  H   UNL     1       1.231   1.633   1.007  1.00  0.00     0.164 HD
BRANCH  16  18
ATOM     18  C   UNL     1       2.519  -1.492   0.685  1.00  0.00     0.040 A 
ATOM     19  C   UNL     1       3.590  -1.588   1.586  1.00  0.00     0.017 A 
ATOM     20  C   UNL     1       2.365  -2.490  -0.294  1.00  0.00     0.017 A 
ATOM     21  C   UNL     1       4.527  -2.623   1.468  1.00  0.00     0.040 A 
ATOM     22  C   UNL     1       3.290  -3.539  -0.393  1.00  0.00     0.040 A 
ATOM     23  C   UNL     1       4.367  -3.590   0.483  1.00  0.00     0.123 A 
ATOM     24  F   UNL     1       5.257  -4.588   0.385  1.00  0.00    -0.207 F 
ENDBRANCH  16  18
ENDBRANCH  13  14
BRANCH  13  25
ATOM     25  C   UNL     1       3.762   0.905  -0.860  1.00  0.00     0.072 C 
BRANCH  25  26
ATOM     26  C   UNL     1       4.022   1.943  -1.840  1.00  0.00    -0.020 A 
ATOM     27  C   UNL     1       3.277   2.358  -2.922  1.00  0.00     0.087 A 
ATOM     28  C   UNL     1       5.072   2.835  -1.609  1.00  0.00     0.003 A 
ATOM     29  N   UNL     1       3.752   3.597  -3.255  1.00  0.00    -0.361 N 
ATOM     30  C   UNL     1       4.719   3.936  -2.344  1.00  0.00     0.046 A 
ATOM     31  C   UNL     1       6.069   2.893  -0.607  1.00  0.00     0.010 A 
ATOM     32  H   UNL     1       3.452   4.148  -4.014  1.00  0.00     0.166 HD
ATOM     33  C   UNL     1       5.210   5.154  -1.976  1.00  0.00     0.026 A 
ATOM     34  C   UNL     1       6.607   4.104  -0.255  1.00  0.00     0.001 A 
ATOM     35  C   UNL     1       6.115   5.215  -0.890  1.00  0.00     0.002 A 
ENDBRANCH  25  26
ENDBRANCH  13  25
ENDBRANCH  10  13
ENDBRANCH   8   9
BRANCH   8  36
ATOM     36  C   UNL     1       1.395   5.270   1.087  1.00  0.00     0.193 C 
BRANCH  36  37
ATOM     37  O   UNL     1       1.788   5.929   2.296  1.00  0.00    -0.394 OA
ATOM     38  H   UNL     1       2.428   5.377   2.772  1.00  0.00     0.210 HD
ENDBRANCH  36  37
ENDBRANCH   8  36
ENDBRANCH   6   8
ENDBRANCH   5   6
ENDBRANCH   4   5
ENDBRANCH   3   4
ENDBRANCH   2   3
ENDBRANCH   1   2
BRANCH   1  39
ATOM     39  C   UNL     1       8.177   6.049  -2.980  1.00  0.00     0.188 C 
BRANCH  39  40
ATOM     40  O   UNL     1       8.729   6.462  -1.730  1.00  0.00    -0.376 OA
BRANCH  40  41
ATOM     41  C   UNL     1      10.141   6.268  -1.620  1.00  0.00     0.202 C 
BRANCH  41  42
ATOM     42  C   UNL     1      10.628   4.832  -1.357  1.00  0.00     0.261 C 
BRANCH  42  43
ATOM     43  O   UNL     1      10.176   3.894  -2.348  1.00  0.00    -0.460 OA
BRANCH  43  44
ATOM     44  C   UNL     1       9.673   2.732  -1.840  1.00  0.00     0.338 C 
ATOM     45  O   UNL     1       9.605   2.410  -0.677  1.00  0.00    -0.246 OA
BRANCH  44  46
ATOM     46  C   UNL     1       9.105   1.905  -2.933  1.00  0.00     0.060 A 
ATOM     47  C   UNL     1       7.901   1.246  -2.675  1.00  0.00     0.016 A 
ATOM     48  C   UNL     1       9.739   1.716  -4.158  1.00  0.00     0.016 A 
ATOM     49  C   UNL     1       7.258   0.489  -3.645  1.00  0.00     0.010 A 
ATOM     50  C   UNL     1       9.141   0.885  -5.114  1.00  0.00     0.010 A 
ATOM     51  C   UNL     1       7.895   0.277  -4.863  1.00  0.00    -0.014 A 
BRANCH  51  52
ATOM     52  C   UNL     1       7.378  -0.761  -5.776  1.00  0.00     0.031 A 
ATOM     53  C   UNL     1       8.003  -2.120  -5.707  1.00  0.00     0.074 A 
ATOM     54  C   UNL     1       6.365  -0.522  -6.624  1.00  0.00     0.049 A 
ATOM     55  N   UNL     1       7.933  -3.111  -6.554  1.00  0.00    -0.248 NA
ATOM     56  C   UNL     1       8.823  -2.393  -4.514  1.00  0.00     0.031 C 
ATOM     57  C   UNL     1       5.559   0.697  -6.671  1.00  0.00     0.029 A 
ATOM     58  N   UNL     1       5.854  -1.307  -7.626  1.00  0.00    -0.354 N 
ATOM     59  C   UNL     1       8.743  -4.106  -6.023  1.00  0.00     0.074 A 
ATOM     60  C   UNL     1       9.281  -3.606  -4.778  1.00  0.00     0.031 C 
ATOM     61  C   UNL     1       4.671   0.589  -7.677  1.00  0.00     0.029 A 
ATOM     62  C   UNL     1       4.899  -0.672  -8.380  1.00  0.00     0.049 A 
ATOM     63  H   UNL     1       6.144  -2.234  -7.788  1.00  0.00     0.167 HD
ATOM     64  C   UNL     1       9.027  -5.321  -6.545  1.00  0.00     0.031 A 
ATOM     65  C   UNL     1       4.327  -1.048  -9.540  1.00  0.00     0.031 A 
ATOM     66  C   UNL     1       8.487  -5.798  -7.789  1.00  0.00     0.049 A 
ATOM     67  C   UNL     1       4.757  -2.344 -10.181  1.00  0.00     0.074 A 
ATOM     68  C   UNL     1       8.743  -6.987  -8.445  1.00  0.00     0.029 A 
ATOM     69  N   UNL     1       7.571  -5.099  -8.561  1.00  0.00    -0.354 N 
ATOM     70  N   UNL     1       5.601  -3.247  -9.739  1.00  0.00    -0.248 NA
ATOM     71  C   UNL     1       4.170  -2.662 -11.491  1.00  0.00     0.031 C 
ATOM     72  C   UNL     1       8.015  -6.987  -9.639  1.00  0.00     0.029 A 
ATOM     73  C   UNL     1       7.260  -5.825  -9.695  1.00  0.00     0.049 A 
ATOM     74  H   UNL     1       7.198  -4.216  -8.334  1.00  0.00     0.167 HD
ATOM     75  C   UNL     1       5.619  -4.253 -10.697  1.00  0.00     0.074 A 
ATOM     76  C   UNL     1       4.700  -3.851 -11.743  1.00  0.00     0.031 C 
ATOM     77  C   UNL     1       6.327  -5.409 -10.711  1.00  0.00     0.031 A 
BRANCH  64  78
ATOM     78  C   UNL     1      10.027  -6.163  -5.808  1.00  0.00    -0.014 A 
ATOM     79  C   UNL     1       9.725  -6.760  -4.575  1.00  0.00     0.009 A 
ATOM     80  C   UNL     1      11.309  -6.338  -6.352  1.00  0.00     0.009 A 
ATOM     81  C   UNL     1      10.701  -7.479  -3.881  1.00  0.00     0.001 A 
ATOM     82  C   UNL     1      12.273  -7.083  -5.672  1.00  0.00     0.001 A 
ATOM     83  C   UNL     1      11.973  -7.642  -4.431  1.00  0.00     0.000 A 
ENDBRANCH  64  78
BRANCH  65  84
ATOM     84  C   UNL     1       3.338  -0.164 -10.213  1.00  0.00    -0.014 A 
ATOM     85  C   UNL     1       1.996  -0.555 -10.332  1.00  0.00     0.009 A 
ATOM     86  C   UNL     1       3.736   1.065 -10.766  1.00  0.00     0.009 A 
ATOM     87  C   UNL     1       1.080   0.254 -11.009  1.00  0.00     0.001 A 
ATOM     88  C   UNL     1       2.811   1.885 -11.415  1.00  0.00     0.001 A 
ATOM     89  C   UNL     1       1.486   1.475 -11.545  1.00  0.00     0.000 A 
ENDBRANCH  65  84
BRANCH  77  90
ATOM     90  C   UNL     1       6.090  -6.356 -11.854  1.00  0.00    -0.014 A 
ATOM     91  C   UNL     1       6.602  -6.104 -13.135  1.00  0.00     0.009 A 
ATOM     92  C   UNL     1       5.400  -7.556 -11.617  1.00  0.00     0.009 A 
ATOM     93  C   UNL     1       6.407  -7.029 -14.163  1.00  0.00     0.001 A 
ATOM     94  C   UNL     1       5.232  -8.491 -12.639  1.00  0.00     0.001 A 
ATOM     95  C   UNL     1       5.730  -8.223 -13.912  1.00  0.00     0.000 A 
ENDBRANCH  77  90
ENDBRANCH  51  52
ENDBRANCH  44  46
ENDBRANCH  43  44
ENDBRANCH  42  43
ENDBRANCH  41  42
ENDBRANCH  40  41
ENDBRANCH  39  40
ENDBRANCH   1  39
TORSDOF 25
