REMARK SMILES COc1ccc(/C=C2/C(=O)N(c3ccccc3)C(=O)N=C2OCCOCCOCCOC(=O)c2ccc(-c3c4nc(c(-c5ccccc5)c5ccc([nH]5)c(-c5ccccc5)c5nc(c(-c6ccccc6)c6ccc3[nH]6)C=C5)C=C4)cc2)cc1C(=O)[O-]
REMARK SMILES IDX 27 1 26 2 25 3 24 4 23 5 22 6 21 7 7 8 8 9 9 10 10 11 11 12
REMARK SMILES IDX 20 13 18 14 19 15 6 16 3 17 4 18 83 19 5 20 82 21 2 22 1 23
REMARK SMILES IDX 84 24 85 25 86 26 12 27 13 28 17 29 14 30 16 31 15 32 28 33
REMARK SMILES IDX 29 34 30 35 31 36 32 37 33 38 34 39 35 40 81 41 36 42 80 43
REMARK SMILES IDX 37 44 38 45 39 46 74 47 40 48 79 49 73 50 75 51 41 52 78 53
REMARK SMILES IDX 72 54 71 55 42 57 64 58 49 59 63 60 50 61 53 62 62 63 76 64
REMARK SMILES IDX 51 65 52 66 61 68 77 69 54 70 43 71 44 72 48 73 45 74 47 75
REMARK SMILES IDX 46 76 65 77 66 78 70 79 67 80 69 81 68 82 55 83 56 84 60 85
REMARK SMILES IDX 57 86 59 87 58 88
REMARK H PARENT 75 56 53 67
REMARK Flexibility Score: inf
ROOT
ATOM      1  C   UNL     1      -1.281   0.652  -6.666  1.00  0.00     0.188 C 
ENDROOT
BRANCH   1   2
ATOM      2  C   UNL     1      -2.195  -0.185  -7.584  1.00  0.00     0.188 C 
BRANCH   2   3
ATOM      3  O   UNL     1      -3.345  -0.838  -7.085  1.00  0.00    -0.376 OA
BRANCH   3   4
ATOM      4  C   UNL     1      -3.246  -1.733  -5.988  1.00  0.00     0.201 C 
BRANCH   4   5
ATOM      5  C   UNL     1      -2.300  -2.923  -6.088  1.00  0.00     0.260 C 
BRANCH   5   6
ATOM      6  O   UNL     1      -0.919  -2.505  -6.061  1.00  0.00    -0.475 OA
BRANCH   6   7
ATOM      7  C   UNL     1      -0.161  -2.672  -7.157  1.00  0.00     0.231 C 
ATOM      8  C   UNL     1       1.905  -1.701  -5.963  1.00  0.00     0.027 C 
ATOM      9  C   UNL     1       1.203  -2.127  -7.046  1.00  0.00     0.103 C 
ATOM     10  C   UNL     1       1.879  -1.955  -8.387  1.00  0.00     0.272 C 
ATOM     11  O   UNL     1       3.002  -1.456  -8.469  1.00  0.00    -0.268 OA
ATOM     12  N   UNL     1       1.118  -2.341  -9.488  1.00  0.00    -0.226 N 
ATOM     13  N   UNL     1      -0.697  -3.159  -8.211  1.00  0.00    -0.156 NA
ATOM     14  C   UNL     1      -0.068  -3.072  -9.411  1.00  0.00     0.358 C 
ATOM     15  O   UNL     1      -0.587  -3.599 -10.392  1.00  0.00    -0.245 OA
BRANCH   8  16
ATOM     16  C   UNL     1       1.667  -1.576  -4.493  1.00  0.00    -0.024 A 
ATOM     17  C   UNL     1       1.304  -1.140  -1.694  1.00  0.00     0.127 A 
ATOM     18  C   UNL     1       0.454  -1.978  -2.407  1.00  0.00     0.048 A 
ATOM     19  C   UNL     1       2.421  -0.614  -2.341  1.00  0.00     0.040 A 
ATOM     20  C   UNL     1       0.672  -2.233  -3.769  1.00  0.00     0.012 A 
ATOM     21  C   UNL     1       2.561  -0.783  -3.739  1.00  0.00     0.022 A 
BRANCH  17  22
ATOM     22  O   UNL     1       1.000  -0.982  -0.369  1.00  0.00    -0.496 OA
ATOM     23  C   UNL     1       0.687   0.372  -0.038  1.00  0.00     0.278 C 
ENDBRANCH  17  22
BRANCH  19  24
ATOM     24  C   UNL     1       3.545   0.047  -1.632  1.00  0.00     0.075 C 
ATOM     25  O   UNL     1       4.298   0.863  -2.103  1.00  0.00    -0.545 OA
ATOM     26  O   UNL     1       3.740  -0.463  -0.398  1.00  0.00    -0.545 OA
ENDBRANCH  19  24
ENDBRANCH   8  16
BRANCH  12  27
ATOM     27  C   UNL     1       1.585  -2.035 -10.796  1.00  0.00     0.054 A 
ATOM     28  C   UNL     1       0.875  -1.113 -11.579  1.00  0.00     0.027 A 
ATOM     29  C   UNL     1       2.682  -2.707 -11.339  1.00  0.00     0.027 A 
ATOM     30  C   UNL     1       1.270  -0.858 -12.892  1.00  0.00     0.002 A 
ATOM     31  C   UNL     1       3.046  -2.478 -12.668  1.00  0.00     0.002 A 
ATOM     32  C   UNL     1       2.343  -1.554 -13.442  1.00  0.00     0.000 A 
ENDBRANCH  12  27
ENDBRANCH   6   7
ENDBRANCH   5   6
ENDBRANCH   4   5
ENDBRANCH   3   4
ENDBRANCH   2   3
ENDBRANCH   1   2
BRANCH   1  33
ATOM     33  O   UNL     1      -1.644   0.937  -5.332  1.00  0.00    -0.376 OA
BRANCH  33  34
ATOM     34  C   UNL     1      -2.898   1.533  -5.045  1.00  0.00     0.202 C 
BRANCH  34  35
ATOM     35  C   UNL     1      -3.417   2.724  -5.858  1.00  0.00     0.261 C 
BRANCH  35  36
ATOM     36  O   UNL     1      -3.416   2.528  -7.280  1.00  0.00    -0.460 OA
BRANCH  36  37
ATOM     37  C   UNL     1      -2.617   3.371  -7.981  1.00  0.00     0.338 C 
ATOM     38  O   UNL     1      -1.929   4.274  -7.536  1.00  0.00    -0.246 OA
BRANCH  37  39
ATOM     39  C   UNL     1      -2.531   2.929  -9.388  1.00  0.00     0.060 A 
ATOM     40  C   UNL     1      -1.257   2.717  -9.934  1.00  0.00     0.016 A 
ATOM     41  C   UNL     1      -3.674   2.744 -10.170  1.00  0.00     0.016 A 
ATOM     42  C   UNL     1      -1.123   2.353 -11.274  1.00  0.00     0.010 A 
ATOM     43  C   UNL     1      -3.536   2.402 -11.521  1.00  0.00     0.010 A 
ATOM     44  C   UNL     1      -2.260   2.230 -12.085  1.00  0.00    -0.014 A 
BRANCH  44  45
ATOM     45  C   UNL     1      -2.098   2.104 -13.555  1.00  0.00     0.031 A 
ATOM     46  C   UNL     1      -1.934   3.359 -14.369  1.00  0.00     0.074 A 
ATOM     47  C   UNL     1      -2.063   0.904 -14.160  1.00  0.00     0.049 A 
ATOM     48  N   UNL     1      -1.741   3.494 -15.656  1.00  0.00    -0.248 NA
ATOM     49  C   UNL     1      -2.008   4.630 -13.631  1.00  0.00     0.031 C 
ATOM     50  C   UNL     1      -2.179  -0.387 -13.488  1.00  0.00     0.029 A 
ATOM     51  N   UNL     1      -1.874   0.581 -15.482  1.00  0.00    -0.354 N 
ATOM     52  C   UNL     1      -1.704   4.863 -15.887  1.00  0.00     0.074 A 
ATOM     53  C   UNL     1      -1.880   5.516 -14.608  1.00  0.00     0.031 C 
ATOM     54  C   UNL     1      -1.988  -1.365 -14.392  1.00  0.00     0.029 A 
ATOM     55  C   UNL     1      -1.795  -0.772 -15.714  1.00  0.00     0.049 A 
ATOM     56  H   UNL     1      -1.802   1.255 -16.196  1.00  0.00     0.167 HD
ATOM     57  C   UNL     1      -1.564   5.522 -17.062  1.00  0.00     0.031 A 
ATOM     58  C   UNL     1      -1.587  -1.448 -16.861  1.00  0.00     0.031 A 
ATOM     59  C   UNL     1      -1.419   4.883 -18.342  1.00  0.00     0.049 A 
ATOM     60  C   UNL     1      -1.459  -0.689 -18.159  1.00  0.00     0.074 A 
ATOM     61  C   UNL     1      -1.286   5.473 -19.587  1.00  0.00     0.029 A 
ATOM     62  N   UNL     1      -1.402   3.513 -18.543  1.00  0.00    -0.354 N 
ATOM     63  N   UNL     1      -1.413   0.605 -18.364  1.00  0.00    -0.248 NA
ATOM     64  C   UNL     1      -1.373  -1.493 -19.389  1.00  0.00     0.031 C 
ATOM     65  C   UNL     1      -1.248   4.459 -20.549  1.00  0.00     0.029 A 
ATOM     66  C   UNL     1      -1.291   3.238 -19.895  1.00  0.00     0.049 A 
ATOM     67  H   UNL     1      -1.460   2.836 -17.831  1.00  0.00     0.167 HD
ATOM     68  C   UNL     1      -1.287   0.768 -19.740  1.00  0.00     0.074 A 
ATOM     69  C   UNL     1      -1.228  -0.558 -20.317  1.00  0.00     0.031 C 
ATOM     70  C   UNL     1      -1.237   1.915 -20.461  1.00  0.00     0.031 A 
BRANCH  57  71
ATOM     71  C   UNL     1      -1.642   7.021 -17.021  1.00  0.00    -0.014 A 
ATOM     72  C   UNL     1      -0.595   7.799 -16.505  1.00  0.00     0.009 A 
ATOM     73  C   UNL     1      -2.782   7.663 -17.531  1.00  0.00     0.009 A 
ATOM     74  C   UNL     1      -0.703   9.191 -16.473  1.00  0.00     0.001 A 
ATOM     75  C   UNL     1      -2.875   9.055 -17.523  1.00  0.00     0.001 A 
ATOM     76  C   UNL     1      -1.840   9.817 -16.985  1.00  0.00     0.000 A 
ENDBRANCH  57  71
BRANCH  58  77
ATOM     77  C   UNL     1      -1.490  -2.934 -16.859  1.00  0.00    -0.014 A 
ATOM     78  C   UNL     1      -0.282  -3.564 -17.200  1.00  0.00     0.009 A 
ATOM     79  C   UNL     1      -2.605  -3.730 -16.560  1.00  0.00     0.009 A 
ATOM     80  C   UNL     1      -0.201  -4.957 -17.265  1.00  0.00     0.001 A 
ATOM     81  C   UNL     1      -2.512  -5.124 -16.593  1.00  0.00     0.001 A 
ATOM     82  C   UNL     1      -1.314  -5.736 -16.956  1.00  0.00     0.000 A 
ENDBRANCH  58  77
BRANCH  70  83
ATOM     83  C   UNL     1      -1.098   1.796 -21.955  1.00  0.00    -0.014 A 
ATOM     84  C   UNL     1      -2.163   1.350 -22.753  1.00  0.00     0.009 A 
ATOM     85  C   UNL     1       0.095   2.196 -22.578  1.00  0.00     0.009 A 
ATOM     86  C   UNL     1      -2.025   1.280 -24.142  1.00  0.00     0.001 A 
ATOM     87  C   UNL     1       0.220   2.152 -23.968  1.00  0.00     0.001 A 
ATOM     88  C   UNL     1      -0.837   1.686 -24.748  1.00  0.00     0.000 A 
ENDBRANCH  70  83
ENDBRANCH  44  45
ENDBRANCH  37  39
ENDBRANCH  36  37
ENDBRANCH  35  36
ENDBRANCH  34  35
ENDBRANCH  33  34
ENDBRANCH   1  33
TORSDOF 20
