REMARK SMILES O=C(OCCOCCOCCOC(=O)[C@@H]1CCCN(c2ccc3cc(S(=O)(=O)N4CCCCC4)ccc3n2)C1)c1ccc(-c2c3nc(c(-c4ccccc4)c4ccc([nH]4)c(-c4ccccc4)c4nc(c(-c5ccccc5)c5ccc2[nH]5)C=C4)C=C3)cc1
REMARK SMILES IDX 8 1 7 2 6 3 5 4 4 5 3 6 2 7 1 8 40 9 41 10 87 11 42 12 86 13
REMARK SMILES IDX 43 14 44 15 45 16 80 17 46 18 85 19 79 20 81 21 47 22 84 23
REMARK SMILES IDX 78 24 77 25 48 27 70 28 55 29 69 30 56 31 59 32 68 33 82 34
REMARK SMILES IDX 57 35 58 36 67 38 83 39 60 40 49 41 50 42 54 43 51 44 53 45
REMARK SMILES IDX 52 46 71 47 72 48 76 49 73 50 75 51 74 52 61 53 62 54 66 55
REMARK SMILES IDX 63 56 65 57 64 58 9 59 10 60 11 61 12 62 13 63 14 64 15 65
REMARK SMILES IDX 16 66 39 67 17 68 19 69 18 70 20 71 21 72 38 73 22 74 37 75
REMARK SMILES IDX 23 76 36 77 24 78 35 79 25 80 26 81 27 82 28 83 29 84 30 85
REMARK SMILES IDX 34 86 31 87 33 88 32 89
REMARK H PARENT 81 26 59 37
REMARK Flexibility Score: inf
ROOT
ATOM      1  C   UNL     1       1.815  -0.771   2.911  1.00  0.00     0.188 C 
ENDROOT
BRANCH   1   2
ATOM      2  C   UNL     1       2.481   0.130   1.872  1.00  0.00     0.188 C 
BRANCH   2   3
ATOM      3  O   UNL     1       3.759  -0.361   1.460  1.00  0.00    -0.376 OA
BRANCH   3   4
ATOM      4  C   UNL     1       4.715   0.651   1.129  1.00  0.00     0.202 C 
BRANCH   4   5
ATOM      5  C   UNL     1       4.383   1.547  -0.077  1.00  0.00     0.261 C 
BRANCH   5   6
ATOM      6  O   UNL     1       3.011   1.502  -0.505  1.00  0.00    -0.460 OA
BRANCH   6   7
ATOM      7  C   UNL     1       2.429   0.706  -1.433  1.00  0.00     0.338 C 
ATOM      8  O   UNL     1       1.257   0.912  -1.743  1.00  0.00    -0.246 OA
BRANCH   7   9
ATOM      9  C   UNL     1       3.132  -0.422  -2.105  1.00  0.00     0.060 A 
ATOM     10  C   UNL     1       4.113  -1.208  -1.504  1.00  0.00     0.016 A 
ATOM     11  C   UNL     1       2.684  -0.791  -3.383  1.00  0.00     0.016 A 
ATOM     12  C   UNL     1       4.708  -2.267  -2.173  1.00  0.00     0.010 A 
ATOM     13  C   UNL     1       3.232  -1.895  -4.044  1.00  0.00     0.010 A 
ATOM     14  C   UNL     1       4.264  -2.623  -3.444  1.00  0.00    -0.014 A 
BRANCH  14  15
ATOM     15  C   UNL     1       4.952  -3.725  -4.140  1.00  0.00     0.031 A 
ATOM     16  C   UNL     1       5.866  -3.396  -5.272  1.00  0.00     0.074 A 
ATOM     17  C   UNL     1       4.831  -4.985  -3.682  1.00  0.00     0.049 A 
ATOM     18  N   UNL     1       6.519  -4.206  -6.057  1.00  0.00    -0.248 NA
ATOM     19  C   UNL     1       6.079  -1.966  -5.558  1.00  0.00     0.031 C 
ATOM     20  C   UNL     1       4.036  -5.369  -2.518  1.00  0.00     0.029 A 
ATOM     21  N   UNL     1       5.390  -6.162  -4.101  1.00  0.00    -0.354 N 
ATOM     22  C   UNL     1       7.175  -3.390  -6.965  1.00  0.00     0.074 A 
ATOM     23  C   UNL     1       6.864  -2.021  -6.623  1.00  0.00     0.031 C 
ATOM     24  C   UNL     1       4.199  -6.679  -2.283  1.00  0.00     0.029 A 
ATOM     25  C   UNL     1       5.016  -7.247  -3.342  1.00  0.00     0.049 A 
ATOM     26  H   UNL     1       6.001  -6.226  -4.870  1.00  0.00     0.167 HD
ATOM     27  C   UNL     1       7.944  -3.770  -8.008  1.00  0.00     0.031 A 
ATOM     28  C   UNL     1       5.256  -8.559  -3.517  1.00  0.00     0.031 A 
ATOM     29  C   UNL     1       8.226  -5.144  -8.319  1.00  0.00     0.049 A 
ATOM     30  C   UNL     1       6.047  -8.953  -4.730  1.00  0.00     0.074 A 
ATOM     31  C   UNL     1       8.964  -5.657  -9.368  1.00  0.00     0.029 A 
ATOM     32  N   UNL     1       7.770  -6.225  -7.576  1.00  0.00    -0.354 N 
ATOM     33  N   UNL     1       6.635  -8.178  -5.612  1.00  0.00    -0.248 NA
ATOM     34  C   UNL     1       6.179 -10.389  -5.000  1.00  0.00     0.031 C 
ATOM     35  C   UNL     1       8.900  -7.052  -9.296  1.00  0.00     0.029 A 
ATOM     36  C   UNL     1       8.175  -7.407  -8.168  1.00  0.00     0.049 A 
ATOM     37  H   UNL     1       7.238  -6.159  -6.750  1.00  0.00     0.167 HD
ATOM     38  C   UNL     1       7.200  -9.030  -6.546  1.00  0.00     0.074 A 
ATOM     39  C   UNL     1       6.923 -10.382  -6.098  1.00  0.00     0.031 C 
ATOM     40  C   UNL     1       7.869  -8.729  -7.685  1.00  0.00     0.031 A 
BRANCH  27  41
ATOM     41  C   UNL     1       8.428  -2.694  -8.933  1.00  0.00    -0.014 A 
ATOM     42  C   UNL     1       9.456  -1.810  -8.574  1.00  0.00     0.009 A 
ATOM     43  C   UNL     1       7.828  -2.566 -10.196  1.00  0.00     0.009 A 
ATOM     44  C   UNL     1       9.858  -0.804  -9.457  1.00  0.00     0.001 A 
ATOM     45  C   UNL     1       8.248  -1.577 -11.084  1.00  0.00     0.001 A 
ATOM     46  C   UNL     1       9.258  -0.692 -10.711  1.00  0.00     0.000 A 
ENDBRANCH  27  41
BRANCH  28  47
ATOM     47  C   UNL     1       4.652  -9.581  -2.614  1.00  0.00    -0.014 A 
ATOM     48  C   UNL     1       5.452 -10.457  -1.865  1.00  0.00     0.009 A 
ATOM     49  C   UNL     1       3.254  -9.708  -2.520  1.00  0.00     0.009 A 
ATOM     50  C   UNL     1       4.867 -11.450  -1.070  1.00  0.00     0.001 A 
ATOM     51  C   UNL     1       2.672 -10.672  -1.693  1.00  0.00     0.001 A 
ATOM     52  C   UNL     1       3.480 -11.553  -0.980  1.00  0.00     0.000 A 
ENDBRANCH  28  47
BRANCH  40  53
ATOM     53  C   UNL     1       8.341  -9.888  -8.508  1.00  0.00    -0.014 A 
ATOM     54  C   UNL     1       7.437 -10.649  -9.263  1.00  0.00     0.009 A 
ATOM     55  C   UNL     1       9.710 -10.187  -8.563  1.00  0.00     0.009 A 
ATOM     56  C   UNL     1       7.896 -11.709 -10.044  1.00  0.00     0.001 A 
ATOM     57  C   UNL     1      10.169 -11.227  -9.369  1.00  0.00     0.001 A 
ATOM     58  C   UNL     1       9.261 -11.991 -10.102  1.00  0.00     0.000 A 
ENDBRANCH  40  53
ENDBRANCH  14  15
ENDBRANCH   7   9
ENDBRANCH   6   7
ENDBRANCH   5   6
ENDBRANCH   4   5
ENDBRANCH   3   4
ENDBRANCH   2   3
ENDBRANCH   1   2
BRANCH   1  59
ATOM     59  O   UNL     1       2.428  -0.846   4.195  1.00  0.00    -0.376 OA
BRANCH  59  60
ATOM     60  C   UNL     1       3.834  -1.049   4.250  1.00  0.00     0.202 C 
BRANCH  60  61
ATOM     61  C   UNL     1       4.386  -2.414   3.821  1.00  0.00     0.261 C 
BRANCH  61  62
ATOM     62  O   UNL     1       3.807  -2.968   2.631  1.00  0.00    -0.463 OA
BRANCH  62  63
ATOM     63  C   UNL     1       2.787  -3.851   2.853  1.00  0.00     0.310 C 
ATOM     64  O   UNL     1       2.309  -4.092   3.952  1.00  0.00    -0.252 OA
BRANCH  63  65
ATOM     65  C   UNL     1       2.295  -4.431   1.538  1.00  0.00     0.118 C 
ATOM     66  C   UNL     1       1.003  -5.241   1.704  1.00  0.00     0.019 C 
ATOM     67  C   UNL     1       3.339  -5.346   0.934  1.00  0.00     0.133 C 
ATOM     68  C   UNL     1       1.215  -6.542   2.496  1.00  0.00     0.022 C 
ATOM     69  N   UNL     1       3.591  -6.455   1.833  1.00  0.00    -0.356 N 
ATOM     70  C   UNL     1       2.469  -7.350   2.103  1.00  0.00     0.118 C 
BRANCH  69  71
ATOM     71  C   UNL     1       4.841  -6.689   2.366  1.00  0.00     0.129 A 
ATOM     72  C   UNL     1       5.733  -5.638   2.586  1.00  0.00     0.047 A 
ATOM     73  N   UNL     1       5.192  -7.949   2.691  1.00  0.00    -0.231 NA
ATOM     74  C   UNL     1       6.957  -5.850   3.197  1.00  0.00     0.014 A 
ATOM     75  C   UNL     1       6.409  -8.177   3.219  1.00  0.00     0.073 A 
ATOM     76  C   UNL     1       7.316  -7.143   3.522  1.00  0.00     0.002 A 
ATOM     77  C   UNL     1       6.820  -9.475   3.465  1.00  0.00     0.030 A 
ATOM     78  C   UNL     1       8.557  -7.402   4.109  1.00  0.00     0.032 A 
ATOM     79  C   UNL     1       8.079  -9.757   4.013  1.00  0.00     0.024 A 
ATOM     80  C   UNL     1       8.940  -8.716   4.361  1.00  0.00     0.083 A 
BRANCH  80  81
ATOM     81  S   UNL     1      10.553  -8.930   5.089  1.00  0.00     0.243 S 
ATOM     82  O   UNL     1      11.477  -8.245   4.210  1.00  0.00    -0.207 OA
ATOM     83  O   UNL     1      10.416  -8.548   6.480  1.00  0.00    -0.207 OA
BRANCH  81  84
ATOM     84  N   UNL     1      10.921 -10.590   5.028  1.00  0.00    -0.198 NA
ATOM     85  C   UNL     1      10.235 -11.447   6.024  1.00  0.00     0.102 C 
ATOM     86  C   UNL     1      11.168 -11.143   3.675  1.00  0.00     0.102 C 
ATOM     87  C   UNL     1      10.762 -12.874   6.011  1.00  0.00     0.017 C 
ATOM     88  C   UNL     1      11.694 -12.569   3.735  1.00  0.00     0.017 C 
ATOM     89  C   UNL     1      10.801 -13.443   4.601  1.00  0.00     0.003 C 
ENDBRANCH  81  84
ENDBRANCH  80  81
ENDBRANCH  69  71
ENDBRANCH  63  65
ENDBRANCH  62  63
ENDBRANCH  61  62
ENDBRANCH  60  61
ENDBRANCH  59  60
ENDBRANCH   1  59
TORSDOF 20
