REMARK SMILES O=C(Cn1nc(C(=O)OCCOCCOCCOC(=O)c2ccc(-c3c4nc(c(-c5ccccc5)c5ccc([nH]5)c(-c5ccccc5)c5nc(c(-c6ccccc6)c6ccc3[nH]6)C=C5)C=C4)cc2)c2ccccc2c1=O)Nc1ccc2c(c1)C(=O)c1ccccc1C2=O
REMARK SMILES IDX 13 1 12 2 11 3 10 4 9 5 7 6 8 7 6 8 4 9 5 10 75 11 74 12
REMARK SMILES IDX 76 13 69 14 73 15 70 16 72 17 71 18 3 19 2 20 1 21 77 22
REMARK SMILES IDX 78 24 79 25 83 26 80 27 82 28 81 29 84 30 92 31 85 32 86 33
REMARK SMILES IDX 91 34 93 35 87 36 90 37 88 38 89 39 14 40 15 41 16 42 17 43
REMARK SMILES IDX 18 44 19 45 20 46 21 47 22 48 68 49 23 50 67 51 24 52 25 53
REMARK SMILES IDX 26 54 61 55 27 56 66 57 60 58 62 59 28 60 65 61 59 62 58 63
REMARK SMILES IDX 29 65 51 66 36 67 50 68 37 69 40 70 49 71 63 72 38 73 39 74
REMARK SMILES IDX 48 76 64 77 41 78 30 79 31 80 35 81 32 82 34 83 33 84 52 85
REMARK SMILES IDX 53 86 57 87 54 88 56 89 55 90 42 91 43 92 47 93 44 94 46 95
REMARK SMILES IDX 45 96
REMARK H PARENT 77 23 62 64 40 75
REMARK Flexibility Score: inf
ROOT
ATOM      1  C   UNL     1       8.588   1.252   2.801  1.00  0.00     0.188 C 
ENDROOT
BRANCH   1   2
ATOM      2  O   UNL     1       8.920   0.205   3.704  1.00  0.00    -0.376 OA
BRANCH   2   3
ATOM      3  C   UNL     1       8.128  -0.980   3.695  1.00  0.00     0.202 C 
BRANCH   3   4
ATOM      4  C   UNL     1       6.679  -0.767   4.116  1.00  0.00     0.261 C 
BRANCH   4   5
ATOM      5  O   UNL     1       5.980  -0.100   3.053  1.00  0.00    -0.458 OA
BRANCH   5   6
ATOM      6  C   UNL     1       4.944   0.665   3.433  1.00  0.00     0.359 C 
ATOM      7  O   UNL     1       4.462   0.775   4.544  1.00  0.00    -0.244 OA
BRANCH   6   8
ATOM      8  C   UNL     1       4.487   1.510   2.252  1.00  0.00     0.176 A 
ATOM      9  N   UNL     1       3.486   1.622   0.158  1.00  0.00    -0.219 N 
ATOM     10  N   UNL     1       3.990   0.884   1.222  1.00  0.00    -0.161 NA
ATOM     11  C   UNL     1       3.499   3.018   0.125  1.00  0.00     0.275 A 
ATOM     12  C   UNL     1       4.123   3.708   1.272  1.00  0.00     0.051 A 
ATOM     13  O   UNL     1       3.053   3.689  -0.801  1.00  0.00    -0.267 OA
ATOM     14  C   UNL     1       4.628   2.969   2.334  1.00  0.00     0.022 A 
ATOM     15  C   UNL     1       4.226   5.106   1.281  1.00  0.00     0.014 A 
ATOM     16  C   UNL     1       5.255   3.621   3.406  1.00  0.00     0.011 A 
ATOM     17  C   UNL     1       4.845   5.756   2.348  1.00  0.00     0.001 A 
ATOM     18  C   UNL     1       5.361   5.014   3.409  1.00  0.00     0.001 A 
BRANCH   9  19
ATOM     19  C   UNL     1       2.943   0.894  -1.020  1.00  0.00     0.248 C 
BRANCH  19  20
ATOM     20  C   UNL     1       1.956  -0.242  -0.698  1.00  0.00     0.246 C 
ATOM     21  O   UNL     1       0.972  -0.502  -1.380  1.00  0.00    -0.273 OA
ATOM     22  N   UNL     1       2.423  -1.016   0.337  1.00  0.00    -0.324 N 
ATOM     23  H   UNL     1       3.367  -0.895   0.587  1.00  0.00     0.169 HD
BRANCH  22  24
ATOM     24  C   UNL     1       1.697  -1.954   1.069  1.00  0.00     0.042 A 
ATOM     25  C   UNL     1       1.806  -3.306   0.728  1.00  0.00     0.027 A 
ATOM     26  C   UNL     1       1.407  -1.566   2.374  1.00  0.00     0.039 A 
ATOM     27  C   UNL     1       1.807  -4.271   1.743  1.00  0.00     0.015 A 
ATOM     28  C   UNL     1       1.446  -2.521   3.378  1.00  0.00     0.036 A 
ATOM     29  C   UNL     1       1.735  -3.850   3.075  1.00  0.00     0.034 A 
ATOM     30  C   UNL     1       1.557  -2.039   4.761  1.00  0.00     0.194 C 
ATOM     31  C   UNL     1       2.308  -4.697   4.147  1.00  0.00     0.194 C 
ATOM     32  O   UNL     1       0.910  -1.087   5.168  1.00  0.00    -0.289 OA
ATOM     33  C   UNL     1       2.625  -2.667   5.549  1.00  0.00     0.034 A 
ATOM     34  C   UNL     1       3.015  -3.970   5.233  1.00  0.00     0.034 A 
ATOM     35  O   UNL     1       2.335  -5.916   4.064  1.00  0.00    -0.289 OA
ATOM     36  C   UNL     1       3.351  -1.896   6.457  1.00  0.00     0.013 A 
ATOM     37  C   UNL     1       4.158  -4.511   5.821  1.00  0.00     0.013 A 
ATOM     38  C   UNL     1       4.509  -2.427   7.022  1.00  0.00     0.001 A 
ATOM     39  C   UNL     1       4.913  -3.728   6.701  1.00  0.00     0.001 A 
ENDBRANCH  22  24
ENDBRANCH  19  20
ENDBRANCH   9  19
ENDBRANCH   6   8
ENDBRANCH   5   6
ENDBRANCH   4   5
ENDBRANCH   3   4
ENDBRANCH   2   3
ENDBRANCH   1   2
BRANCH   1  40
ATOM     40  C   UNL     1       8.343   0.926   1.314  1.00  0.00     0.188 C 
BRANCH  40  41
ATOM     41  O   UNL     1       8.915  -0.247   0.756  1.00  0.00    -0.376 OA
BRANCH  41  42
ATOM     42  C   UNL     1      10.293  -0.518   0.994  1.00  0.00     0.202 C 
BRANCH  42  43
ATOM     43  C   UNL     1      11.277   0.456   0.352  1.00  0.00     0.261 C 
BRANCH  43  44
ATOM     44  O   UNL     1      11.292   1.700   1.071  1.00  0.00    -0.460 OA
BRANCH  44  45
ATOM     45  C   UNL     1      11.020   2.804   0.337  1.00  0.00     0.338 C 
ATOM     46  O   UNL     1      10.827   2.867  -0.864  1.00  0.00    -0.246 OA
BRANCH  45  47
ATOM     47  C   UNL     1      10.797   3.942   1.250  1.00  0.00     0.060 A 
ATOM     48  C   UNL     1      11.680   4.228   2.295  1.00  0.00     0.016 A 
ATOM     49  C   UNL     1       9.678   4.752   1.020  1.00  0.00     0.016 A 
ATOM     50  C   UNL     1      11.466   5.363   3.082  1.00  0.00     0.010 A 
ATOM     51  C   UNL     1       9.459   5.876   1.814  1.00  0.00     0.010 A 
ATOM     52  C   UNL     1      10.369   6.204   2.829  1.00  0.00    -0.014 A 
BRANCH  52  53
ATOM     53  C   UNL     1      10.267   7.514   3.509  1.00  0.00     0.031 A 
ATOM     54  C   UNL     1       9.432   7.705   4.733  1.00  0.00     0.074 A 
ATOM     55  C   UNL     1      10.934   8.554   2.974  1.00  0.00     0.049 A 
ATOM     56  N   UNL     1       9.301   8.775   5.474  1.00  0.00    -0.248 NA
ATOM     57  C   UNL     1       8.633   6.556   5.179  1.00  0.00     0.031 C 
ATOM     58  C   UNL     1      11.754   8.489   1.762  1.00  0.00     0.029 A 
ATOM     59  N   UNL     1      11.030   9.860   3.377  1.00  0.00    -0.354 N 
ATOM     60  C   UNL     1       8.414   8.430   6.483  1.00  0.00     0.074 A 
ATOM     61  C   UNL     1       8.008   7.061   6.237  1.00  0.00     0.031 C 
ATOM     62  C   UNL     1      12.283   9.700   1.530  1.00  0.00     0.029 A 
ATOM     63  C   UNL     1      11.834  10.622   2.568  1.00  0.00     0.049 A 
ATOM     64  H   UNL     1      10.567  10.216   4.170  1.00  0.00     0.167 HD
ATOM     65  C   UNL     1       7.993   9.187   7.524  1.00  0.00     0.031 A 
ATOM     66  C   UNL     1      12.188  11.918   2.658  1.00  0.00     0.031 A 
ATOM     67  C   UNL     1       8.400  10.550   7.757  1.00  0.00     0.049 A 
ATOM     68  C   UNL     1      11.702  12.737   3.815  1.00  0.00     0.074 A 
ATOM     69  C   UNL     1       8.082  11.369   8.827  1.00  0.00     0.029 A 
ATOM     70  N   UNL     1       9.199  11.297   6.906  1.00  0.00    -0.354 N 
ATOM     71  N   UNL     1      10.934  12.372   4.813  1.00  0.00    -0.248 NA
ATOM     72  C   UNL     1      12.145  14.136   3.872  1.00  0.00     0.031 C 
ATOM     73  C   UNL     1       8.644  12.628   8.597  1.00  0.00     0.029 A 
ATOM     74  C   UNL     1       9.358  12.577   7.411  1.00  0.00     0.049 A 
ATOM     75  H   UNL     1       9.595  10.967   6.067  1.00  0.00     0.167 HD
ATOM     76  C   UNL     1      10.816  13.490   5.627  1.00  0.00     0.074 A 
ATOM     77  C   UNL     1      11.599  14.543   5.012  1.00  0.00     0.031 C 
ATOM     78  C   UNL     1      10.124  13.624   6.784  1.00  0.00     0.031 A 
BRANCH  65  79
ATOM     79  C   UNL     1       7.043   8.566   8.507  1.00  0.00    -0.014 A 
ATOM     80  C   UNL     1       5.715   9.017   8.577  1.00  0.00     0.009 A 
ATOM     81  C   UNL     1       7.486   7.607   9.431  1.00  0.00     0.009 A 
ATOM     82  C   UNL     1       4.851   8.524   9.557  1.00  0.00     0.001 A 
ATOM     83  C   UNL     1       6.613   7.100  10.396  1.00  0.00     0.001 A 
ATOM     84  C   UNL     1       5.300   7.564  10.463  1.00  0.00     0.000 A 
ENDBRANCH  65  79
BRANCH  66  85
ATOM     85  C   UNL     1      13.102  12.484   1.637  1.00  0.00    -0.014 A 
ATOM     86  C   UNL     1      12.643  12.751   0.338  1.00  0.00     0.009 A 
ATOM     87  C   UNL     1      14.458  12.681   1.936  1.00  0.00     0.009 A 
ATOM     88  C   UNL     1      13.530  13.188  -0.648  1.00  0.00     0.001 A 
ATOM     89  C   UNL     1      15.338  13.137   0.953  1.00  0.00     0.001 A 
ATOM     90  C   UNL     1      14.875  13.382  -0.339  1.00  0.00     0.000 A 
ENDBRANCH  66  85
BRANCH  78  91
ATOM     91  C   UNL     1      10.175  14.957   7.474  1.00  0.00    -0.014 A 
ATOM     92  C   UNL     1      10.896  15.096   8.671  1.00  0.00     0.009 A 
ATOM     93  C   UNL     1       9.443  16.050   6.988  1.00  0.00     0.009 A 
ATOM     94  C   UNL     1      10.874  16.302   9.374  1.00  0.00     0.001 A 
ATOM     95  C   UNL     1       9.443  17.262   7.681  1.00  0.00     0.001 A 
ATOM     96  C   UNL     1      10.151  17.385   8.876  1.00  0.00     0.000 A 
ENDBRANCH  78  91
ENDBRANCH  52  53
ENDBRANCH  45  47
ENDBRANCH  44  45
ENDBRANCH  43  44
ENDBRANCH  42  43
ENDBRANCH  41  42
ENDBRANCH  40  41
ENDBRANCH   1  40
TORSDOF 20
