REMARK SMILES Cc1cc(Br)cc2c1O[C@H](C(F)(F)F)C(C(=O)OCCOCCOCCOC(=O)c1ccc(-c3c4nc(c(-c5ccccc5)c5ccc([nH]5)c(-c5ccccc5)c5nc(c(-c6ccccc6)c6ccc3[nH]6)C=C5)C=C4)cc1)=C2
REMARK SMILES IDX 23 1 22 2 21 3 20 4 19 5 18 6 16 7 17 8 15 9 1 10 2 11 3 12
REMARK SMILES IDX 8 13 4 14 7 15 9 16 5 17 6 18 78 19 10 20 11 21 12 22 13 23
REMARK SMILES IDX 14 24 24 25 25 26 26 27 27 28 28 29 29 30 30 31 31 32 77 33
REMARK SMILES IDX 32 34 76 35 33 36 34 37 35 38 70 39 36 40 75 41 69 42 71 43
REMARK SMILES IDX 37 44 74 45 68 46 67 47 38 49 60 50 45 51 59 52 46 53 49 54
REMARK SMILES IDX 58 55 72 56 47 57 48 58 57 60 73 61 50 62 39 63 40 64 44 65
REMARK SMILES IDX 41 66 43 67 42 68 61 69 62 70 66 71 63 72 65 73 64 74 51 75
REMARK SMILES IDX 52 76 56 77 53 78 55 79 54 80
REMARK H PARENT 71 48 49 59
REMARK Flexibility Score: inf
ROOT
ATOM      1  C   UNL     1       0.433  -3.101   6.496  1.00  0.00     0.188 C 
ENDROOT
BRANCH   1   2
ATOM      2  C   UNL     1      -0.603  -2.560   7.502  1.00  0.00     0.188 C 
BRANCH   2   3
ATOM      3  O   UNL     1      -1.343  -3.454   8.303  1.00  0.00    -0.376 OA
BRANCH   3   4
ATOM      4  C   UNL     1      -2.230  -4.395   7.724  1.00  0.00     0.202 C 
BRANCH   4   5
ATOM      5  C   UNL     1      -2.960  -4.184   6.388  1.00  0.00     0.261 C 
BRANCH   5   6
ATOM      6  O   UNL     1      -2.239  -3.476   5.373  1.00  0.00    -0.460 OA
BRANCH   6   7
ATOM      7  C   UNL     1      -2.726  -2.249   5.067  1.00  0.00     0.338 C 
ATOM      8  O   UNL     1      -3.710  -1.713   5.549  1.00  0.00    -0.246 OA
BRANCH   7   9
ATOM      9  C   UNL     1      -1.789  -1.558   4.159  1.00  0.00     0.087 C 
ATOM     10  C   UNL     1       1.043  -0.024   0.145  1.00  0.00     0.048 C 
ATOM     11  C   UNL     1       0.560   0.572   1.438  1.00  0.00    -0.007 A 
ATOM     12  C   UNL     1       0.819   1.930   1.687  1.00  0.00     0.023 A 
ATOM     13  C   UNL     1      -0.151  -0.173   2.393  1.00  0.00     0.130 A 
ATOM     14  C   UNL     1       0.379   2.527   2.866  1.00  0.00     0.019 A 
ATOM     15  C   UNL     1      -0.627   0.445   3.556  1.00  0.00     0.019 A 
ATOM     16  O   UNL     1      -0.342  -1.501   2.131  1.00  0.00    -0.475 OA
ATOM     17  Br  UNL     1       0.729   4.358   3.180  1.00  0.00    -0.051 Br
ATOM     18  C   UNL     1      -0.342   1.792   3.803  1.00  0.00     0.027 A 
ATOM     19  C   UNL     1      -1.480  -0.293   4.473  1.00  0.00     0.027 C 
ATOM     20  C   UNL     1      -1.238  -2.283   2.964  1.00  0.00     0.316 C 
BRANCH  20  21
ATOM     21  C   UNL     1      -2.345  -2.860   2.074  1.00  0.00     0.430 C 
ATOM     22  F   UNL     1      -1.831  -3.459   0.973  1.00  0.00    -0.167 F 
ATOM     23  F   UNL     1      -3.071  -3.800   2.723  1.00  0.00    -0.167 F 
ATOM     24  F   UNL     1      -3.204  -1.904   1.653  1.00  0.00    -0.167 F 
ENDBRANCH  20  21
ENDBRANCH   7   9
ENDBRANCH   6   7
ENDBRANCH   5   6
ENDBRANCH   4   5
ENDBRANCH   3   4
ENDBRANCH   2   3
ENDBRANCH   1   2
BRANCH   1  25
ATOM     25  O   UNL     1       0.545  -4.489   6.291  1.00  0.00    -0.376 OA
BRANCH  25  26
ATOM     26  C   UNL     1       1.050  -5.318   7.326  1.00  0.00     0.202 C 
BRANCH  26  27
ATOM     27  C   UNL     1       1.965  -4.843   8.473  1.00  0.00     0.261 C 
BRANCH  27  28
ATOM     28  O   UNL     1       1.832  -3.486   8.912  1.00  0.00    -0.460 OA
BRANCH  28  29
ATOM     29  C   UNL     1       2.871  -2.666   8.604  1.00  0.00     0.338 C 
ATOM     30  O   UNL     1       3.885  -2.948   7.998  1.00  0.00    -0.246 OA
BRANCH  29  31
ATOM     31  C   UNL     1       2.492  -1.280   8.949  1.00  0.00     0.060 A 
ATOM     32  C   UNL     1       2.258  -0.364   7.912  1.00  0.00     0.016 A 
ATOM     33  C   UNL     1       2.378  -0.887  10.281  1.00  0.00     0.016 A 
ATOM     34  C   UNL     1       1.901   0.950   8.207  1.00  0.00     0.010 A 
ATOM     35  C   UNL     1       2.056   0.440  10.576  1.00  0.00     0.010 A 
ATOM     36  C   UNL     1       1.834   1.369   9.542  1.00  0.00    -0.014 A 
BRANCH  36  37
ATOM     37  C   UNL     1       1.719   2.813   9.854  1.00  0.00     0.031 A 
ATOM     38  C   UNL     1       2.979   3.587  10.124  1.00  0.00     0.074 A 
ATOM     39  C   UNL     1       0.527   3.435   9.875  1.00  0.00     0.049 A 
ATOM     40  N   UNL     1       3.125   4.843  10.456  1.00  0.00    -0.248 NA
ATOM     41  C   UNL     1       4.244   2.843   9.999  1.00  0.00     0.031 C 
ATOM     42  C   UNL     1      -0.760   2.815   9.571  1.00  0.00     0.029 A 
ATOM     43  N   UNL     1       0.213   4.740  10.168  1.00  0.00    -0.354 N 
ATOM     44  C   UNL     1       4.494   5.040  10.579  1.00  0.00     0.074 A 
ATOM     45  C   UNL     1       5.134   3.769  10.321  1.00  0.00     0.031 C 
ATOM     46  C   UNL     1      -1.728   3.741   9.695  1.00  0.00     0.029 A 
ATOM     47  C   UNL     1      -1.133   5.007  10.123  1.00  0.00     0.049 A 
ATOM     48  H   UNL     1       0.890   5.420  10.391  1.00  0.00     0.167 HD
ATOM     49  C   UNL     1       5.162   6.181  10.870  1.00  0.00     0.031 A 
ATOM     50  C   UNL     1      -1.808   6.138  10.411  1.00  0.00     0.031 A 
ATOM     51  C   UNL     1       4.528   7.441  11.148  1.00  0.00     0.049 A 
ATOM     52  C   UNL     1      -1.049   7.366  10.846  1.00  0.00     0.074 A 
ATOM     53  C   UNL     1       5.123   8.651  11.458  1.00  0.00     0.029 A 
ATOM     54  N   UNL     1       3.159   7.651  11.158  1.00  0.00    -0.354 N 
ATOM     55  N   UNL     1       0.246   7.545  10.947  1.00  0.00    -0.248 NA
ATOM     56  C   UNL     1      -1.847   8.549  11.203  1.00  0.00     0.031 C 
ATOM     57  C   UNL     1       4.112   9.579  11.718  1.00  0.00     0.029 A 
ATOM     58  C   UNL     1       2.888   8.965  11.500  1.00  0.00     0.049 A 
ATOM     59  H   UNL     1       2.480   6.969  10.952  1.00  0.00     0.167 HD
ATOM     60  C   UNL     1       0.418   8.865  11.351  1.00  0.00     0.074 A 
ATOM     61  C   UNL     1      -0.903   9.445  11.461  1.00  0.00     0.031 C 
ATOM     62  C   UNL     1       1.569   9.534  11.607  1.00  0.00     0.031 A 
BRANCH  49  63
ATOM     63  C   UNL     1       6.662   6.113  10.927  1.00  0.00    -0.014 A 
ATOM     64  C   UNL     1       7.426   5.959   9.760  1.00  0.00     0.009 A 
ATOM     65  C   UNL     1       7.321   6.262  12.157  1.00  0.00     0.009 A 
ATOM     66  C   UNL     1       8.820   5.934   9.827  1.00  0.00     0.001 A 
ATOM     67  C   UNL     1       8.715   6.267  12.218  1.00  0.00     0.001 A 
ATOM     68  C   UNL     1       9.463   6.097  11.054  1.00  0.00     0.000 A 
ENDBRANCH  49  63
BRANCH  50  69
ATOM     69  C   UNL     1      -3.292   6.166  10.305  1.00  0.00    -0.014 A 
ATOM     70  C   UNL     1      -3.921   6.937   9.315  1.00  0.00     0.009 A 
ATOM     71  C   UNL     1      -4.089   5.428  11.195  1.00  0.00     0.009 A 
ATOM     72  C   UNL     1      -5.315   6.980   9.229  1.00  0.00     0.001 A 
ATOM     73  C   UNL     1      -5.481   5.449  11.087  1.00  0.00     0.001 A 
ATOM     74  C   UNL     1      -6.093   6.230  10.109  1.00  0.00     0.000 A 
ENDBRANCH  50  69
BRANCH  62  75
ATOM     75  C   UNL     1       1.470  10.980  12.009  1.00  0.00    -0.014 A 
ATOM     76  C   UNL     1       0.994  11.353  13.276  1.00  0.00     0.009 A 
ATOM     77  C   UNL     1       1.945  11.978  11.143  1.00  0.00     0.009 A 
ATOM     78  C   UNL     1       0.978  12.697  13.657  1.00  0.00     0.001 A 
ATOM     79  C   UNL     1       1.958  13.317  11.539  1.00  0.00     0.001 A 
ATOM     80  C   UNL     1       1.469  13.675  12.793  1.00  0.00     0.000 A 
ENDBRANCH  62  75
ENDBRANCH  36  37
ENDBRANCH  29  31
ENDBRANCH  28  29
ENDBRANCH  27  28
ENDBRANCH  26  27
ENDBRANCH  25  26
ENDBRANCH   1  25
TORSDOF 18
