REMARK SMILES CC(C)Cc1ccc([C@@H](C)C(=O)OCCOCCOCCOC(=O)c2ccc(-c3c4nc(c(-c5ccccc5)c5ccc([nH]5)c(-c5ccccc5)c5nc(c(-c6ccccc6)c6ccc3[nH]6)C=C5)C=C4)cc2)cc1
REMARK SMILES IDX 17 1 16 2 15 3 14 4 13 5 11 6 12 7 9 8 10 9 8 10 5 11 6 12
REMARK SMILES IDX 74 13 7 14 73 15 4 16 2 17 1 18 3 19 18 20 19 21 20 22 21 23
REMARK SMILES IDX 22 24 23 25 24 26 25 27 26 28 72 29 27 30 71 31 28 32 29 33
REMARK SMILES IDX 30 34 65 35 31 36 70 37 64 38 66 39 32 40 69 41 63 42 62 43
REMARK SMILES IDX 33 45 55 46 40 47 54 48 41 49 44 50 53 51 67 52 42 53 43 54
REMARK SMILES IDX 52 56 68 57 45 58 34 59 35 60 39 61 36 62 38 63 37 64 56 65
REMARK SMILES IDX 57 66 61 67 58 68 60 69 59 70 46 71 47 72 51 73 48 74 50 75
REMARK SMILES IDX 49 76
REMARK H PARENT 66 44 44 55
REMARK Flexibility Score: inf
ROOT
ATOM      1  C   UNL     1      -5.512   5.046  -0.841  1.00  0.00     0.188 C 
ENDROOT
BRANCH   1   2
ATOM      2  O   UNL     1      -5.870   6.216  -1.569  1.00  0.00    -0.376 OA
BRANCH   2   3
ATOM      3  C   UNL     1      -4.933   6.790  -2.472  1.00  0.00     0.202 C 
BRANCH   3   4
ATOM      4  C   UNL     1      -3.565   7.223  -1.922  1.00  0.00     0.261 C 
BRANCH   4   5
ATOM      5  O   UNL     1      -2.825   6.204  -1.215  1.00  0.00    -0.463 OA
BRANCH   5   6
ATOM      6  C   UNL     1      -2.536   6.453   0.088  1.00  0.00     0.313 C 
ATOM      7  O   UNL     1      -2.835   7.502   0.655  1.00  0.00    -0.252 OA
BRANCH   6   8
ATOM      8  C   UNL     1      -1.822   5.333   0.849  1.00  0.00     0.126 C 
ATOM      9  C   UNL     1      -0.485   5.860   1.367  1.00  0.00     0.025 C 
BRANCH   8  10
ATOM     10  C   UNL     1      -1.628   3.953   0.229  1.00  0.00    -0.034 A 
ATOM     11  C   UNL     1      -1.250   1.335  -0.803  1.00  0.00    -0.048 A 
ATOM     12  C   UNL     1      -0.859   2.462  -1.538  1.00  0.00     0.004 A 
ATOM     13  C   UNL     1      -1.858   1.524   0.441  1.00  0.00     0.004 A 
ATOM     14  C   UNL     1      -1.025   3.754  -1.020  1.00  0.00     0.005 A 
ATOM     15  C   UNL     1      -2.038   2.814   0.952  1.00  0.00     0.005 A 
BRANCH  11  16
ATOM     16  C   UNL     1      -0.944  -0.060  -1.306  1.00  0.00     0.038 C 
BRANCH  16  17
ATOM     17  C   UNL     1       0.572  -0.357  -1.334  1.00  0.00    -0.013 C 
ATOM     18  C   UNL     1       1.201  -0.275   0.061  1.00  0.00     0.008 C 
ATOM     19  C   UNL     1       0.845  -1.735  -1.938  1.00  0.00     0.008 C 
ENDBRANCH  16  17
ENDBRANCH  11  16
ENDBRANCH   8  10
ENDBRANCH   6   8
ENDBRANCH   5   6
ENDBRANCH   4   5
ENDBRANCH   3   4
ENDBRANCH   2   3
ENDBRANCH   1   2
BRANCH   1  20
ATOM     20  C   UNL     1      -4.612   3.988  -1.496  1.00  0.00     0.188 C 
BRANCH  20  21
ATOM     21  O   UNL     1      -4.446   4.147  -2.889  1.00  0.00    -0.376 OA
BRANCH  21  22
ATOM     22  C   UNL     1      -4.754   3.025  -3.691  1.00  0.00     0.202 C 
BRANCH  22  23
ATOM     23  C   UNL     1      -6.249   2.686  -3.748  1.00  0.00     0.261 C 
BRANCH  23  24
ATOM     24  O   UNL     1      -6.910   2.565  -2.474  1.00  0.00    -0.460 OA
BRANCH  24  25
ATOM     25  C   UNL     1      -6.642   1.464  -1.739  1.00  0.00     0.338 C 
ATOM     26  O   UNL     1      -5.914   0.531  -2.051  1.00  0.00    -0.246 OA
BRANCH  25  27
ATOM     27  C   UNL     1      -7.221   1.658  -0.391  1.00  0.00     0.060 A 
ATOM     28  C   UNL     1      -6.376   1.656   0.730  1.00  0.00     0.016 A 
ATOM     29  C   UNL     1      -8.596   1.840  -0.231  1.00  0.00     0.016 A 
ATOM     30  C   UNL     1      -6.910   1.803   2.014  1.00  0.00     0.010 A 
ATOM     31  C   UNL     1      -9.130   1.967   1.055  1.00  0.00     0.010 A 
ATOM     32  C   UNL     1      -8.296   1.917   2.188  1.00  0.00    -0.014 A 
BRANCH  32  33
ATOM     33  C   UNL     1      -8.901   1.799   3.541  1.00  0.00     0.031 A 
ATOM     34  C   UNL     1      -9.492   0.474   3.947  1.00  0.00     0.074 A 
ATOM     35  C   UNL     1      -8.944   2.838   4.394  1.00  0.00     0.049 A 
ATOM     36  N   UNL     1     -10.148   0.152   5.033  1.00  0.00    -0.248 NA
ATOM     37  C   UNL     1      -9.325  -0.636   2.994  1.00  0.00     0.031 C 
ATOM     38  C   UNL     1      -8.375   4.162   4.151  1.00  0.00     0.029 A 
ATOM     39  N   UNL     1      -9.514   2.940   5.641  1.00  0.00    -0.354 N 
ATOM     40  C   UNL     1     -10.490  -1.186   4.884  1.00  0.00     0.074 A 
ATOM     41  C   UNL     1      -9.988  -1.611   3.596  1.00  0.00     0.031 C 
ATOM     42  C   UNL     1      -8.637   4.949   5.210  1.00  0.00     0.029 A 
ATOM     43  C   UNL     1      -9.426   4.198   6.186  1.00  0.00     0.049 A 
ATOM     44  H   UNL     1      -9.945   2.183   6.099  1.00  0.00     0.167 HD
ATOM     45  C   UNL     1     -11.163  -1.992   5.740  1.00  0.00     0.031 A 
ATOM     46  C   UNL     1      -9.947   4.694   7.327  1.00  0.00     0.031 A 
ATOM     47  C   UNL     1     -11.672  -1.572   7.018  1.00  0.00     0.049 A 
ATOM     48  C   UNL     1     -10.760   3.796   8.226  1.00  0.00     0.074 A 
ATOM     49  C   UNL     1     -12.339  -2.327   7.968  1.00  0.00     0.029 A 
ATOM     50  N   UNL     1     -11.584  -0.284   7.520  1.00  0.00    -0.354 N 
ATOM     51  N   UNL     1     -11.041   2.522   8.094  1.00  0.00    -0.248 NA
ATOM     52  C   UNL     1     -11.323   4.409   9.440  1.00  0.00     0.031 C 
ATOM     53  C   UNL     1     -12.716  -1.479   9.014  1.00  0.00     0.029 A 
ATOM     54  C   UNL     1     -12.216  -0.214   8.750  1.00  0.00     0.049 A 
ATOM     55  H   UNL     1     -11.138   0.469   7.069  1.00  0.00     0.167 HD
ATOM     56  C   UNL     1     -11.778   2.176   9.222  1.00  0.00     0.074 A 
ATOM     57  C   UNL     1     -11.888   3.368  10.034  1.00  0.00     0.031 C 
ATOM     58  C   UNL     1     -12.315   0.976   9.556  1.00  0.00     0.031 A 
BRANCH  45  59
ATOM     59  C   UNL     1     -11.430  -3.405   5.301  1.00  0.00    -0.014 A 
ATOM     60  C   UNL     1     -10.400  -4.354   5.208  1.00  0.00     0.009 A 
ATOM     61  C   UNL     1     -12.747  -3.803   5.019  1.00  0.00     0.009 A 
ATOM     62  C   UNL     1     -10.679  -5.663   4.810  1.00  0.00     0.001 A 
ATOM     63  C   UNL     1     -13.027  -5.120   4.653  1.00  0.00     0.001 A 
ATOM     64  C   UNL     1     -11.993  -6.047   4.540  1.00  0.00     0.000 A 
ENDBRANCH  45  59
BRANCH  46  65
ATOM     65  C   UNL     1      -9.753   6.127   7.684  1.00  0.00    -0.014 A 
ATOM     66  C   UNL     1      -8.999   6.490   8.812  1.00  0.00     0.009 A 
ATOM     67  C   UNL     1     -10.367   7.138   6.929  1.00  0.00     0.009 A 
ATOM     68  C   UNL     1      -8.894   7.830   9.194  1.00  0.00     0.001 A 
ATOM     69  C   UNL     1     -10.231   8.480   7.293  1.00  0.00     0.001 A 
ATOM     70  C   UNL     1      -9.507   8.824   8.433  1.00  0.00     0.000 A 
ENDBRANCH  46  65
BRANCH  58  71
ATOM     71  C   UNL     1     -13.022   0.873  10.881  1.00  0.00    -0.014 A 
ATOM     72  C   UNL     1     -14.257   1.499  11.108  1.00  0.00     0.009 A 
ATOM     73  C   UNL     1     -12.457   0.096  11.906  1.00  0.00     0.009 A 
ATOM     74  C   UNL     1     -14.892   1.381  12.347  1.00  0.00     0.001 A 
ATOM     75  C   UNL     1     -13.110  -0.048  13.132  1.00  0.00     0.001 A 
ATOM     76  C   UNL     1     -14.321   0.604  13.355  1.00  0.00     0.000 A 
ENDBRANCH  58  71
ENDBRANCH  32  33
ENDBRANCH  25  27
ENDBRANCH  24  25
ENDBRANCH  23  24
ENDBRANCH  22  23
ENDBRANCH  21  22
ENDBRANCH  20  21
ENDBRANCH   1  20
TORSDOF 20
