REMARK SMILES O=C(OCCOCCOCCOC(=O)c1cc(S(=O)(=O)C/C(Cl)=C/Cl)ccc1Cl)c1ccc(-c2c3nc(c(-c4ccccc4)c4ccc([nH]4)c(-c4ccccc4)c4nc(c(-c5ccccc5)c5ccc2[nH]5)C=C4)C=C3)cc1
REMARK SMILES IDX 8 1 7 2 6 3 5 4 4 5 3 6 2 7 1 8 30 9 31 10 77 11 32 12 76 13
REMARK SMILES IDX 33 14 34 15 35 16 70 17 36 18 75 19 69 20 71 21 37 22 74 23
REMARK SMILES IDX 68 24 67 25 38 27 60 28 45 29 59 30 46 31 49 32 58 33 72 34
REMARK SMILES IDX 47 35 48 36 57 38 73 39 50 40 39 41 40 42 44 43 41 44 43 45
REMARK SMILES IDX 42 46 61 47 62 48 66 49 63 50 65 51 64 52 51 53 52 54 56 55
REMARK SMILES IDX 53 56 55 57 54 58 9 59 10 60 11 61 12 62 13 63 14 64 15 65
REMARK SMILES IDX 16 66 28 67 17 68 27 69 29 70 26 71 18 72 19 73 20 74 21 75
REMARK SMILES IDX 22 76 23 77 24 78 25 79
REMARK H PARENT 71 26 49 37
REMARK Flexibility Score: inf
ROOT
ATOM      1  C   UNL     1       1.911   2.709  -1.665  1.00  0.00     0.188 C 
ENDROOT
BRANCH   1   2
ATOM      2  C   UNL     1       2.407   1.262  -1.682  1.00  0.00     0.188 C 
BRANCH   2   3
ATOM      3  O   UNL     1       3.687   1.159  -1.042  1.00  0.00    -0.376 OA
BRANCH   3   4
ATOM      4  C   UNL     1       4.523   0.137  -1.595  1.00  0.00     0.202 C 
BRANCH   4   5
ATOM      5  C   UNL     1       4.353  -1.233  -0.929  1.00  0.00     0.261 C 
BRANCH   5   6
ATOM      6  O   UNL     1       2.984  -1.490  -0.577  1.00  0.00    -0.460 OA
BRANCH   6   7
ATOM      7  C   UNL     1       2.373  -1.287   0.617  1.00  0.00     0.338 C 
ATOM      8  O   UNL     1       1.189  -1.602   0.726  1.00  0.00    -0.246 OA
BRANCH   7   9
ATOM      9  C   UNL     1       3.071  -0.759   1.832  1.00  0.00     0.060 A 
ATOM     10  C   UNL     1       4.198   0.065   1.829  1.00  0.00     0.016 A 
ATOM     11  C   UNL     1       2.513  -1.094   3.079  1.00  0.00     0.016 A 
ATOM     12  C   UNL     1       4.833   0.430   3.012  1.00  0.00     0.010 A 
ATOM     13  C   UNL     1       3.110  -0.679   4.274  1.00  0.00     0.010 A 
ATOM     14  C   UNL     1       4.302   0.050   4.243  1.00  0.00    -0.014 A 
BRANCH  14  15
ATOM     15  C   UNL     1       5.074   0.333   5.470  1.00  0.00     0.031 A 
ATOM     16  C   UNL     1       5.777  -0.799   6.159  1.00  0.00     0.074 A 
ATOM     17  C   UNL     1       5.247   1.600   5.886  1.00  0.00     0.049 A 
ATOM     18  N   UNL     1       6.536  -0.774   7.223  1.00  0.00    -0.248 NA
ATOM     19  C   UNL     1       5.629  -2.133   5.553  1.00  0.00     0.031 C 
ATOM     20  C   UNL     1       4.705   2.786   5.220  1.00  0.00     0.029 A 
ATOM     21  N   UNL     1       5.957   2.105   6.943  1.00  0.00    -0.354 N 
ATOM     22  C   UNL     1       6.946  -2.086   7.418  1.00  0.00     0.074 A 
ATOM     23  C   UNL     1       6.340  -2.885   6.378  1.00  0.00     0.031 C 
ATOM     24  C   UNL     1       5.127   3.880   5.873  1.00  0.00     0.029 A 
ATOM     25  C   UNL     1       5.908   3.473   7.033  1.00  0.00     0.049 A 
ATOM     26  H   UNL     1       6.455   1.540   7.578  1.00  0.00     0.167 HD
ATOM     27  C   UNL     1       7.761  -2.580   8.378  1.00  0.00     0.031 A 
ATOM     28  C   UNL     1       6.420   4.307   7.956  1.00  0.00     0.031 A 
ATOM     29  C   UNL     1       8.344  -1.784   9.421  1.00  0.00     0.049 A 
ATOM     30  C   UNL     1       7.228   3.723   9.078  1.00  0.00     0.074 A 
ATOM     31  C   UNL     1       9.136  -2.188  10.479  1.00  0.00     0.029 A 
ATOM     32  N   UNL     1       8.190  -0.409   9.532  1.00  0.00    -0.354 N 
ATOM     33  N   UNL     1       7.574   2.474   9.276  1.00  0.00    -0.248 NA
ATOM     34  C   UNL     1       7.718   4.658  10.098  1.00  0.00     0.031 C 
ATOM     35  C   UNL     1       9.428  -1.060  11.256  1.00  0.00     0.029 A 
ATOM     36  C   UNL     1       8.856   0.050  10.654  1.00  0.00     0.049 A 
ATOM     37  H   UNL     1       7.681   0.155   8.906  1.00  0.00     0.167 HD
ATOM     38  C   UNL     1       8.333   2.472  10.437  1.00  0.00     0.074 A 
ATOM     39  C   UNL     1       8.413   3.849  10.886  1.00  0.00     0.031 C 
ATOM     40  C   UNL     1       8.912   1.426  11.076  1.00  0.00     0.031 A 
BRANCH  27  41
ATOM     41  C   UNL     1       8.001  -4.061   8.360  1.00  0.00    -0.014 A 
ATOM     42  C   UNL     1       8.845  -4.653   7.407  1.00  0.00     0.009 A 
ATOM     43  C   UNL     1       7.338  -4.881   9.286  1.00  0.00     0.009 A 
ATOM     44  C   UNL     1       8.989  -6.041   7.357  1.00  0.00     0.001 A 
ATOM     45  C   UNL     1       7.500  -6.266   9.247  1.00  0.00     0.001 A 
ATOM     46  C   UNL     1       8.317  -6.846   8.277  1.00  0.00     0.000 A 
ENDBRANCH  27  41
BRANCH  28  47
ATOM     47  C   UNL     1       6.144   5.765   7.875  1.00  0.00    -0.014 A 
ATOM     48  C   UNL     1       7.162   6.680   7.569  1.00  0.00     0.009 A 
ATOM     49  C   UNL     1       4.844   6.249   8.101  1.00  0.00     0.009 A 
ATOM     50  C   UNL     1       6.886   8.049   7.506  1.00  0.00     0.001 A 
ATOM     51  C   UNL     1       4.566   7.614   8.012  1.00  0.00     0.001 A 
ATOM     52  C   UNL     1       5.589   8.514   7.722  1.00  0.00     0.000 A 
ENDBRANCH  28  47
BRANCH  40  53
ATOM     53  C   UNL     1       9.694   1.741  12.315  1.00  0.00    -0.014 A 
ATOM     54  C   UNL     1       9.044   2.042  13.521  1.00  0.00     0.009 A 
ATOM     55  C   UNL     1      11.096   1.695  12.282  1.00  0.00     0.009 A 
ATOM     56  C   UNL     1       9.789   2.317  14.669  1.00  0.00     0.001 A 
ATOM     57  C   UNL     1      11.836   1.948  13.436  1.00  0.00     0.001 A 
ATOM     58  C   UNL     1      11.182   2.265  14.626  1.00  0.00     0.000 A 
ENDBRANCH  40  53
ENDBRANCH  14  15
ENDBRANCH   7   9
ENDBRANCH   6   7
ENDBRANCH   5   6
ENDBRANCH   4   5
ENDBRANCH   3   4
ENDBRANCH   2   3
ENDBRANCH   1   2
BRANCH   1  59
ATOM     59  O   UNL     1       2.599   3.590  -2.555  1.00  0.00    -0.376 OA
BRANCH  59  60
ATOM     60  C   UNL     1       3.981   3.821  -2.300  1.00  0.00     0.202 C 
BRANCH  60  61
ATOM     61  C   UNL     1       4.314   4.793  -1.163  1.00  0.00     0.261 C 
BRANCH  61  62
ATOM     62  O   UNL     1       3.824   4.419   0.137  1.00  0.00    -0.460 OA
BRANCH  62  63
ATOM     63  C   UNL     1       2.781   5.167   0.567  1.00  0.00     0.339 C 
ATOM     64  O   UNL     1       2.117   5.968  -0.077  1.00  0.00    -0.246 OA
BRANCH  63  65
ATOM     65  C   UNL     1       2.537   4.961   1.997  1.00  0.00     0.080 A 
ATOM     66  C   UNL     1       1.585   4.017   2.409  1.00  0.00     0.037 A 
ATOM     67  C   UNL     1       3.082   5.861   2.916  1.00  0.00     0.055 A 
ATOM     68  C   UNL     1       1.159   4.001   3.748  1.00  0.00     0.068 A 
ATOM     69  C   UNL     1       2.636   5.849   4.238  1.00  0.00     0.023 A 
ATOM     70  Cl  UNL     1       4.289   7.015   2.480  1.00  0.00    -0.083 Cl
ATOM     71  C   UNL     1       1.664   4.933   4.653  1.00  0.00     0.022 A 
BRANCH  68  72
ATOM     72  S   UNL     1      -0.094   2.814   4.188  1.00  0.00     0.183 S 
ATOM     73  O   UNL     1      -1.251   3.191   3.392  1.00  0.00    -0.223 OA
ATOM     74  O   UNL     1       0.511   1.510   4.010  1.00  0.00    -0.223 OA
BRANCH  72  75
ATOM     75  C   UNL     1      -0.574   3.005   5.891  1.00  0.00     0.191 C 
BRANCH  75  76
ATOM     76  C   UNL     1       0.484   2.591   6.877  1.00  0.00     0.045 C 
ATOM     77  Cl  UNL     1       0.851   3.804   8.077  1.00  0.00    -0.087 Cl
ATOM     78  C   UNL     1       1.020   1.366   6.962  1.00  0.00     0.097 C 
ATOM     79  Cl  UNL     1       2.174   0.852   8.121  1.00  0.00    -0.092 Cl
ENDBRANCH  75  76
ENDBRANCH  72  75
ENDBRANCH  68  72
ENDBRANCH  63  65
ENDBRANCH  62  63
ENDBRANCH  61  62
ENDBRANCH  60  61
ENDBRANCH  59  60
ENDBRANCH   1  59
TORSDOF 20
