REMARK SMILES CCCSc1nc2n(n1)[C@@H](c1ccccc1C(=O)OCCOCCOCCOC(=O)c1ccc(-c3c4nc(c(-c5ccccc5)c5ccc([nH]5)c(-c5ccccc5)c5nc(c(-c6ccccc6)c6ccc3[nH]6)C=C5)C=C4)cc1)C(C(=O)Nc1cccc(C)c1C)=C(C)N2
REMARK SMILES IDX 23 1 22 2 21 3 20 4 19 5 17 6 18 7 16 8 11 9 12 10 13 11
REMARK SMILES IDX 15 12 14 13 10 14 5 15 6 16 9 17 7 18 8 19 93 20 91 21 79 23
REMARK SMILES IDX 92 24 4 25 3 26 2 27 1 28 80 29 81 30 82 31 83 33 84 34
REMARK SMILES IDX 89 35 85 36 87 37 90 38 86 39 88 40 24 41 25 42 26 43 27 44
REMARK SMILES IDX 28 45 29 46 30 47 31 48 32 49 78 50 33 51 77 52 34 53 35 54
REMARK SMILES IDX 36 55 71 56 37 57 76 58 70 59 72 60 38 61 75 62 69 63 68 64
REMARK SMILES IDX 39 66 61 67 46 68 60 69 47 70 50 71 59 72 73 73 48 74 49 75
REMARK SMILES IDX 58 77 74 78 51 79 40 80 41 81 45 82 42 83 44 84 43 85 62 86
REMARK SMILES IDX 63 87 67 88 64 89 66 90 65 91 52 92 53 93 57 94 54 95 56 96
REMARK SMILES IDX 55 97
REMARK H PARENT 93 22 82 32 72 65 50 76
REMARK Flexibility Score: inf
ROOT
ATOM      1  C   UNL     1       5.271   1.737   8.932  1.00  0.00     0.188 C 
ENDROOT
BRANCH   1   2
ATOM      2  O   UNL     1       4.365   2.459   9.748  1.00  0.00    -0.376 OA
BRANCH   2   3
ATOM      3  C   UNL     1       4.184   3.814   9.361  1.00  0.00     0.202 C 
BRANCH   3   4
ATOM      4  C   UNL     1       3.498   4.076   8.011  1.00  0.00     0.261 C 
BRANCH   4   5
ATOM      5  O   UNL     1       3.803   3.190   6.915  1.00  0.00    -0.460 OA
BRANCH   5   6
ATOM      6  C   UNL     1       4.950   3.412   6.238  1.00  0.00     0.338 C 
ATOM      7  O   UNL     1       5.793   4.236   6.568  1.00  0.00    -0.246 OA
BRANCH   6   8
ATOM      8  C   UNL     1       5.124   2.432   5.109  1.00  0.00     0.065 A 
ATOM      9  C   UNL     1       4.096   1.856   4.305  1.00  0.00    -0.004 A 
ATOM     10  C   UNL     1       4.515   0.963   3.284  1.00  0.00     0.007 A 
ATOM     11  C   UNL     1       5.856   0.637   3.071  1.00  0.00     0.000 A 
ATOM     12  C   UNL     1       6.477   2.111   4.857  1.00  0.00     0.016 A 
ATOM     13  C   UNL     1       6.840   1.217   3.853  1.00  0.00     0.001 A 
BRANCH   9  14
ATOM     14  C   UNL     1       2.597   2.244   4.416  1.00  0.00     0.180 C 
ATOM     15  C   UNL     1       0.824  -0.466   2.969  1.00  0.00     0.210 A 
ATOM     16  N   UNL     1       0.320   0.528   2.191  1.00  0.00    -0.185 NA
ATOM     17  N   UNL     1       1.623  -0.068   3.973  1.00  0.00    -0.141 NA
ATOM     18  C   UNL     1       0.942   1.583   2.628  1.00  0.00     0.227 A 
ATOM     19  N   UNL     1       1.700   1.268   3.728  1.00  0.00    -0.218 N 
ATOM     20  N   UNL     1       0.976   2.814   2.107  1.00  0.00    -0.328 N 
ATOM     21  C   UNL     1       1.678   3.853   2.677  1.00  0.00     0.026 C 
ATOM     22  H   UNL     1       0.476   2.986   1.277  1.00  0.00     0.169 HD
ATOM     23  C   UNL     1       2.351   3.648   3.832  1.00  0.00     0.065 C 
ATOM     24  C   UNL     1       1.632   5.151   1.915  1.00  0.00     0.065 C 
BRANCH  15  25
ATOM     25  S   UNL     1       0.496  -2.126   2.576  1.00  0.00    -0.084 SA
BRANCH  25  26
ATOM     26  C   UNL     1       1.222  -2.249   0.900  1.00  0.00     0.078 C 
BRANCH  26  27
ATOM     27  C   UNL     1       0.490  -1.554  -0.260  1.00  0.00     0.008 C 
ATOM     28  C   UNL     1       1.018  -0.169  -0.624  1.00  0.00     0.005 C 
ENDBRANCH  26  27
ENDBRANCH  25  26
ENDBRANCH  15  25
BRANCH  23  29
ATOM     29  C   UNL     1       2.966   4.799   4.511  1.00  0.00     0.255 C 
ATOM     30  O   UNL     1       4.108   5.150   4.234  1.00  0.00    -0.269 OA
ATOM     31  N   UNL     1       2.246   5.460   5.484  1.00  0.00    -0.322 N 
ATOM     32  H   UNL     1       2.515   5.405   6.430  1.00  0.00     0.170 HD
BRANCH  31  33
ATOM     33  C   UNL     1       1.115   6.217   5.102  1.00  0.00     0.044 A 
ATOM     34  C   UNL     1       1.386   7.558   4.795  1.00  0.00     0.026 A 
ATOM     35  C   UNL     1      -0.142   5.649   4.845  1.00  0.00    -0.025 A 
ATOM     36  C   UNL     1       0.468   8.300   4.072  1.00  0.00     0.002 A 
ATOM     37  C   UNL     1      -1.038   6.383   4.039  1.00  0.00    -0.046 A 
ATOM     38  C   UNL     1      -0.532   4.312   5.418  1.00  0.00     0.047 C 
ATOM     39  C   UNL     1      -0.714   7.699   3.654  1.00  0.00     0.004 A 
ATOM     40  C   UNL     1      -2.279   5.777   3.440  1.00  0.00     0.044 C 
ENDBRANCH  31  33
ENDBRANCH  23  29
ENDBRANCH   9  14
ENDBRANCH   6   8
ENDBRANCH   5   6
ENDBRANCH   4   5
ENDBRANCH   3   4
ENDBRANCH   2   3
ENDBRANCH   1   2
BRANCH   1  41
ATOM     41  C   UNL     1       4.624   0.608   8.104  1.00  0.00     0.188 C 
BRANCH  41  42
ATOM     42  O   UNL     1       3.215   0.525   7.905  1.00  0.00    -0.376 OA
BRANCH  42  43
ATOM     43  C   UNL     1       2.282   0.785   8.948  1.00  0.00     0.202 C 
BRANCH  43  44
ATOM     44  C   UNL     1       2.299  -0.049  10.228  1.00  0.00     0.261 C 
BRANCH  44  45
ATOM     45  O   UNL     1       3.577  -0.088  10.839  1.00  0.00    -0.460 OA
BRANCH  45  46
ATOM     46  C   UNL     1       4.301  -1.178  10.519  1.00  0.00     0.338 C 
ATOM     47  O   UNL     1       3.952  -2.132   9.846  1.00  0.00    -0.246 OA
BRANCH  46  48
ATOM     48  C   UNL     1       5.645  -1.040  11.093  1.00  0.00     0.060 A 
ATOM     49  C   UNL     1       6.581  -2.009  10.724  1.00  0.00     0.016 A 
ATOM     50  C   UNL     1       5.918  -0.081  12.081  1.00  0.00     0.016 A 
ATOM     51  C   UNL     1       7.675  -2.191  11.532  1.00  0.00     0.010 A 
ATOM     52  C   UNL     1       7.016  -0.259  12.887  1.00  0.00     0.010 A 
ATOM     53  C   UNL     1       7.798  -1.389  12.671  1.00  0.00    -0.014 A 
BRANCH  53  54
ATOM     54  C   UNL     1       8.664  -1.885  13.715  1.00  0.00     0.031 A 
ATOM     55  C   UNL     1      10.093  -1.645  13.506  1.00  0.00     0.074 A 
ATOM     56  C   UNL     1       8.154  -2.525  14.785  1.00  0.00     0.049 A 
ATOM     57  N   UNL     1      11.001  -2.516  13.225  1.00  0.00    -0.248 NA
ATOM     58  C   UNL     1      10.547  -0.249  13.498  1.00  0.00     0.031 C 
ATOM     59  C   UNL     1       6.747  -2.549  15.206  1.00  0.00     0.029 A 
ATOM     60  N   UNL     1       8.794  -3.202  15.779  1.00  0.00    -0.354 N 
ATOM     61  C   UNL     1      12.190  -1.803  13.223  1.00  0.00     0.074 A 
ATOM     62  C   UNL     1      11.837  -0.405  13.203  1.00  0.00     0.031 C 
ATOM     63  C   UNL     1       6.675  -3.008  16.474  1.00  0.00     0.029 A 
ATOM     64  C   UNL     1       7.998  -3.444  16.887  1.00  0.00     0.049 A 
ATOM     65  H   UNL     1       9.733  -3.491  15.716  1.00  0.00     0.167 HD
ATOM     66  C   UNL     1      13.354  -2.404  13.580  1.00  0.00     0.031 A 
ATOM     67  C   UNL     1       8.402  -3.918  18.086  1.00  0.00     0.031 A 
ATOM     68  C   UNL     1      13.258  -3.840  13.566  1.00  0.00     0.049 A 
ATOM     69  C   UNL     1       9.690  -4.621  17.908  1.00  0.00     0.074 A 
ATOM     70  C   UNL     1      13.259  -4.841  12.623  1.00  0.00     0.029 A 
ATOM     71  N   UNL     1      12.807  -4.383  14.740  1.00  0.00    -0.354 N 
ATOM     72  N   UNL     1       9.815  -5.739  17.252  1.00  0.00    -0.248 NA
ATOM     73  C   UNL     1      10.941  -3.932  18.208  1.00  0.00     0.031 C 
ATOM     74  C   UNL     1      12.648  -5.974  13.239  1.00  0.00     0.029 A 
ATOM     75  C   UNL     1      12.289  -5.636  14.541  1.00  0.00     0.049 A 
ATOM     76  H   UNL     1      12.850  -3.932  15.614  1.00  0.00     0.167 HD
ATOM     77  C   UNL     1      11.082  -5.676  16.703  1.00  0.00     0.074 A 
ATOM     78  C   UNL     1      11.783  -4.653  17.464  1.00  0.00     0.031 C 
ATOM     79  C   UNL     1      11.345  -6.211  15.477  1.00  0.00     0.031 A 
BRANCH  66  80
ATOM     80  C   UNL     1      14.389  -1.713  14.436  1.00  0.00    -0.014 A 
ATOM     81  C   UNL     1      15.591  -2.388  14.703  1.00  0.00     0.009 A 
ATOM     82  C   UNL     1      14.108  -0.581  15.228  1.00  0.00     0.009 A 
ATOM     83  C   UNL     1      16.439  -1.980  15.739  1.00  0.00     0.001 A 
ATOM     84  C   UNL     1      14.971  -0.146  16.235  1.00  0.00     0.001 A 
ATOM     85  C   UNL     1      16.127  -0.861  16.506  1.00  0.00     0.000 A 
ENDBRANCH  66  80
BRANCH  67  86
ATOM     86  C   UNL     1       7.842  -3.612  19.416  1.00  0.00    -0.014 A 
ATOM     87  C   UNL     1       8.123  -4.433  20.516  1.00  0.00     0.009 A 
ATOM     88  C   UNL     1       7.238  -2.364  19.661  1.00  0.00     0.009 A 
ATOM     89  C   UNL     1       7.851  -4.001  21.820  1.00  0.00     0.001 A 
ATOM     90  C   UNL     1       6.958  -1.936  20.961  1.00  0.00     0.001 A 
ATOM     91  C   UNL     1       7.282  -2.748  22.042  1.00  0.00     0.000 A 
ENDBRANCH  67  86
BRANCH  79  92
ATOM     92  C   UNL     1      10.448  -7.313  14.995  1.00  0.00    -0.014 A 
ATOM     93  C   UNL     1       9.085  -7.128  14.711  1.00  0.00     0.009 A 
ATOM     94  C   UNL     1      11.018  -8.573  14.759  1.00  0.00     0.009 A 
ATOM     95  C   UNL     1       8.310  -8.188  14.232  1.00  0.00     0.001 A 
ATOM     96  C   UNL     1      10.248  -9.625  14.261  1.00  0.00     0.001 A 
ATOM     97  C   UNL     1       8.892  -9.434  14.004  1.00  0.00     0.000 A 
ENDBRANCH  79  92
ENDBRANCH  53  54
ENDBRANCH  46  48
ENDBRANCH  45  46
ENDBRANCH  44  45
ENDBRANCH  43  44
ENDBRANCH  42  43
ENDBRANCH  41  42
ENDBRANCH   1  41
TORSDOF 23
