REMARK SMILES NS(=O)(=O)c1ccc(/N=N/c2ccc(O)c(C(=O)OCCOCCOCCOC(=O)c3ccc(-c4c5nc(c(-c6ccccc6)c6ccc([nH]6)c(-c6ccccc6)c6nc(c(-c7ccccc7)c7ccc4[nH]7)C=C6)C=C5)cc3)c2)cc1
REMARK SMILES IDX 23 1 22 2 21 3 20 4 19 5 17 6 18 7 16 8 11 9 12 10 79 11
REMARK SMILES IDX 13 12 14 13 10 14 9 15 8 16 5 17 6 18 81 19 7 20 80 21 2 22
REMARK SMILES IDX 3 23 4 24 1 25 15 28 24 30 25 31 26 32 27 33 28 34 29 35
REMARK SMILES IDX 30 36 31 37 32 38 78 39 33 40 77 41 34 42 35 43 36 44 71 45
REMARK SMILES IDX 37 46 76 47 70 48 72 49 38 50 75 51 69 52 68 53 39 55 61 56
REMARK SMILES IDX 46 57 60 58 47 59 50 60 59 61 73 62 48 63 49 64 58 66 74 67
REMARK SMILES IDX 51 68 40 69 41 70 45 71 42 72 44 73 43 74 62 75 63 76 67 77
REMARK SMILES IDX 64 78 66 79 65 80 52 81 53 82 57 83 54 84 56 85 55 86
REMARK H PARENT 1 26 1 27 15 29 72 54 50 65
REMARK Flexibility Score: inf
ROOT
ATOM      1  C   UNL     1       6.756 -11.079   3.116  1.00  0.00     0.188 C 
ENDROOT
BRANCH   1   2
ATOM      2  O   UNL     1       6.824 -12.055   2.087  1.00  0.00    -0.376 OA
BRANCH   2   3
ATOM      3  C   UNL     1       6.007 -11.938   0.930  1.00  0.00     0.202 C 
BRANCH   3   4
ATOM      4  C   UNL     1       4.497 -11.658   1.041  1.00  0.00     0.261 C 
BRANCH   4   5
ATOM      5  O   UNL     1       4.117 -10.587   1.919  1.00  0.00    -0.460 OA
BRANCH   5   6
ATOM      6  C   UNL     1       3.511 -10.962   3.071  1.00  0.00     0.342 C 
ATOM      7  O   UNL     1       3.244 -12.102   3.424  1.00  0.00    -0.246 OA
BRANCH   6   8
ATOM      8  C   UNL     1       3.443  -9.831   4.019  1.00  0.00     0.104 A 
ATOM      9  C   UNL     1       3.166  -7.464   4.503  1.00  0.00     0.087 A 
ATOM     10  C   UNL     1       3.512  -7.720   5.838  1.00  0.00     0.034 A 
ATOM     11  C   UNL     1       3.145  -8.531   3.591  1.00  0.00     0.049 A 
ATOM     12  C   UNL     1       3.822  -9.011   6.268  1.00  0.00     0.049 A 
ATOM     13  C   UNL     1       3.780 -10.063   5.361  1.00  0.00     0.130 A 
BRANCH   9  14
ATOM     14  N   UNL     1       2.933  -6.126   4.128  1.00  0.00    -0.151 NA
ATOM     15  N   UNL     1       1.974  -6.019   3.337  1.00  0.00    -0.151 NA
BRANCH  15  16
ATOM     16  C   UNL     1       1.706  -4.681   2.967  1.00  0.00     0.086 A 
ATOM     17  C   UNL     1       1.008  -2.080   2.154  1.00  0.00     0.082 A 
ATOM     18  C   UNL     1       0.517  -3.182   1.450  1.00  0.00     0.024 A 
ATOM     19  C   UNL     1       1.841  -2.259   3.259  1.00  0.00     0.024 A 
ATOM     20  C   UNL     1       0.872  -4.472   1.859  1.00  0.00     0.031 A 
ATOM     21  C   UNL     1       2.184  -3.555   3.660  1.00  0.00     0.031 A 
BRANCH  17  22
ATOM     22  S   UNL     1       0.523  -0.452   1.665  1.00  0.00     0.238 S 
ATOM     23  O   UNL     1       1.155   0.517   2.533  1.00  0.00    -0.207 OA
ATOM     24  O   UNL     1      -0.894  -0.450   1.400  1.00  0.00    -0.207 OA
BRANCH  22  25
ATOM     25  N   UNL     1       1.283  -0.282   0.178  1.00  0.00    -0.225 NA
ATOM     26  H   UNL     1       1.071   0.637  -0.209  1.00  0.00     0.137 HD
ATOM     27  H   UNL     1       0.947  -1.005  -0.459  1.00  0.00     0.137 HD
ENDBRANCH  22  25
ENDBRANCH  17  22
ENDBRANCH  15  16
ENDBRANCH   9  14
BRANCH  13  28
ATOM     28  O   UNL     1       4.135 -11.294   5.844  1.00  0.00    -0.507 OA
ATOM     29  H   UNL     1       4.351 -11.397   6.750  1.00  0.00     0.293 HD
ENDBRANCH  13  28
ENDBRANCH   6   8
ENDBRANCH   5   6
ENDBRANCH   4   5
ENDBRANCH   3   4
ENDBRANCH   2   3
ENDBRANCH   1   2
BRANCH   1  30
ATOM     30  C   UNL     1       6.803  -9.576   2.770  1.00  0.00     0.188 C 
BRANCH  30  31
ATOM     31  O   UNL     1       6.801  -9.298   1.392  1.00  0.00    -0.376 OA
BRANCH  31  32
ATOM     32  C   UNL     1       8.030  -9.070   0.725  1.00  0.00     0.202 C 
BRANCH  32  33
ATOM     33  C   UNL     1       9.398  -9.634   1.169  1.00  0.00     0.261 C 
BRANCH  33  34
ATOM     34  O   UNL     1       9.518 -10.202   2.478  1.00  0.00    -0.460 OA
BRANCH  34  35
ATOM     35  C   UNL     1       9.997  -9.387   3.447  1.00  0.00     0.338 C 
ATOM     36  O   UNL     1      10.294  -8.211   3.341  1.00  0.00    -0.246 OA
BRANCH  35  37
ATOM     37  C   UNL     1       9.949 -10.103   4.738  1.00  0.00     0.060 A 
ATOM     38  C   UNL     1       9.060  -9.652   5.721  1.00  0.00     0.016 A 
ATOM     39  C   UNL     1      10.809 -11.173   4.998  1.00  0.00     0.016 A 
ATOM     40  C   UNL     1       9.058 -10.242   6.985  1.00  0.00     0.010 A 
ATOM     41  C   UNL     1      10.815 -11.754   6.272  1.00  0.00     0.010 A 
ATOM     42  C   UNL     1       9.968 -11.265   7.284  1.00  0.00    -0.014 A 
BRANCH  42  43
ATOM     43  C   UNL     1      10.144 -11.694   8.695  1.00  0.00     0.031 A 
ATOM     44  C   UNL     1      11.312 -11.154   9.479  1.00  0.00     0.074 A 
ATOM     45  C   UNL     1       9.257 -12.509   9.293  1.00  0.00     0.049 A 
ATOM     46  N   UNL     1      11.650 -11.374  10.725  1.00  0.00    -0.248 NA
ATOM     47  C   UNL     1      12.218 -10.243   8.761  1.00  0.00     0.031 C 
ATOM     48  C   UNL     1       8.060 -13.065   8.665  1.00  0.00     0.029 A 
ATOM     49  N   UNL     1       9.229 -13.005  10.573  1.00  0.00    -0.354 N 
ATOM     50  C   UNL     1      12.807 -10.633  10.937  1.00  0.00     0.074 A 
ATOM     51  C   UNL     1      13.134  -9.990   9.684  1.00  0.00     0.031 C 
ATOM     52  C   UNL     1       7.412 -13.826   9.564  1.00  0.00     0.029 A 
ATOM     53  C   UNL     1       8.163 -13.835  10.818  1.00  0.00     0.049 A 
ATOM     54  H   UNL     1       9.908 -12.785  11.251  1.00  0.00     0.167 HD
ATOM     55  C   UNL     1      13.530 -10.492  12.074  1.00  0.00     0.031 A 
ATOM     56  C   UNL     1       7.837 -14.533  11.924  1.00  0.00     0.031 A 
ATOM     57  C   UNL     1      13.220 -11.145  13.319  1.00  0.00     0.049 A 
ATOM     58  C   UNL     1       8.703 -14.423  13.152  1.00  0.00     0.074 A 
ATOM     59  C   UNL     1      13.885 -11.054  14.530  1.00  0.00     0.029 A 
ATOM     60  N   UNL     1      12.160 -12.018  13.511  1.00  0.00    -0.354 N 
ATOM     61  N   UNL     1       9.776 -13.696  13.350  1.00  0.00    -0.248 NA
ATOM     62  C   UNL     1       8.298 -15.224  14.318  1.00  0.00     0.031 C 
ATOM     63  C   UNL     1      13.267 -11.923  15.435  1.00  0.00     0.029 A 
ATOM     64  C   UNL     1      12.171 -12.496  14.811  1.00  0.00     0.049 A 
ATOM     65  H   UNL     1      11.498 -12.262  12.824  1.00  0.00     0.167 HD
ATOM     66  C   UNL     1      10.152 -13.923  14.669  1.00  0.00     0.074 A 
ATOM     67  C   UNL     1       9.182 -14.842  15.228  1.00  0.00     0.031 C 
ATOM     68  C   UNL     1      11.204 -13.414  15.357  1.00  0.00     0.031 A 
BRANCH  55  69
ATOM     69  C   UNL     1      14.756  -9.622  12.011  1.00  0.00    -0.014 A 
ATOM     70  C   UNL     1      14.660  -8.228  11.866  1.00  0.00     0.009 A 
ATOM     71  C   UNL     1      16.028 -10.204  12.130  1.00  0.00     0.009 A 
ATOM     72  C   UNL     1      15.812  -7.442  11.804  1.00  0.00     0.001 A 
ATOM     73  C   UNL     1      17.177  -9.412  12.100  1.00  0.00     0.001 A 
ATOM     74  C   UNL     1      17.069  -8.033  11.927  1.00  0.00     0.000 A 
ENDBRANCH  55  69
BRANCH  56  75
ATOM     75  C   UNL     1       6.636 -15.412  11.927  1.00  0.00    -0.014 A 
ATOM     76  C   UNL     1       5.525 -15.110  12.730  1.00  0.00     0.009 A 
ATOM     77  C   UNL     1       6.610 -16.580  11.148  1.00  0.00     0.009 A 
ATOM     78  C   UNL     1       4.428 -15.974  12.775  1.00  0.00     0.001 A 
ATOM     79  C   UNL     1       5.498 -17.424  11.170  1.00  0.00     0.001 A 
ATOM     80  C   UNL     1       4.413 -17.127  11.992  1.00  0.00     0.000 A 
ENDBRANCH  56  75
BRANCH  68  81
ATOM     81  C   UNL     1      11.334 -13.801  16.807  1.00  0.00    -0.014 A 
ATOM     82  C   UNL     1      11.670 -15.108  17.195  1.00  0.00     0.009 A 
ATOM     83  C   UNL     1      11.137 -12.830  17.802  1.00  0.00     0.009 A 
ATOM     84  C   UNL     1      11.757 -15.444  18.548  1.00  0.00     0.001 A 
ATOM     85  C   UNL     1      11.260 -13.160  19.153  1.00  0.00     0.001 A 
ATOM     86  C   UNL     1      11.556 -14.470  19.525  1.00  0.00     0.000 A 
ENDBRANCH  68  81
ENDBRANCH  42  43
ENDBRANCH  35  37
ENDBRANCH  34  35
ENDBRANCH  33  34
ENDBRANCH  32  33
ENDBRANCH  31  32
ENDBRANCH  30  31
ENDBRANCH   1  30
TORSDOF 22
