REMARK SMILES CC(C)CN(C)c1cc2c(cc1Cl)C=C(C(=O)OCCOCCOCCOC(=O)c1ccc(-c3c4nc(c(-c5ccccc5)c5ccc([nH]5)c(-c5ccccc5)c5nc(c(-c6ccccc6)c6ccc3[nH]6)C=C5)C=C4)cc1)[C@@H](C(F)(F)F)O2
REMARK SMILES IDX 22 1 21 2 20 3 19 4 18 5 16 6 17 7 15 8 7 9 8 10 12 11 9 12
REMARK SMILES IDX 11 13 13 14 10 15 83 16 14 17 78 18 5 19 6 20 4 21 2 22 1 23
REMARK SMILES IDX 3 24 79 25 80 26 81 27 82 28 23 29 24 30 25 31 26 32 27 33
REMARK SMILES IDX 28 34 29 35 30 36 31 37 77 38 32 39 76 40 33 41 34 42 35 43
REMARK SMILES IDX 70 44 36 45 75 46 69 47 71 48 37 49 74 50 68 51 67 52 38 54
REMARK SMILES IDX 60 55 45 56 59 57 46 58 49 59 58 60 72 61 47 62 48 63 57 65
REMARK SMILES IDX 73 66 50 67 39 68 40 69 44 70 41 71 43 72 42 73 61 74 62 75
REMARK SMILES IDX 66 76 63 77 65 78 64 79 51 80 52 81 56 82 53 83 55 84 54 85
REMARK H PARENT 71 53 49 64
REMARK Flexibility Score: inf
ROOT
ATOM      1  C   UNL     1       0.268   0.166  -8.352  1.00  0.00     0.188 C 
ENDROOT
BRANCH   1   2
ATOM      2  O   UNL     1       0.409  -0.146  -9.720  1.00  0.00    -0.376 OA
BRANCH   2   3
ATOM      3  C   UNL     1      -0.293  -1.218 -10.327  1.00  0.00     0.202 C 
BRANCH   3   4
ATOM      4  C   UNL     1      -0.814  -2.451  -9.578  1.00  0.00     0.261 C 
BRANCH   4   5
ATOM      5  O   UNL     1      -1.238  -2.237  -8.229  1.00  0.00    -0.460 OA
BRANCH   5   6
ATOM      6  C   UNL     1      -0.509  -2.909  -7.308  1.00  0.00     0.338 C 
ATOM      7  O   UNL     1       0.413  -3.678  -7.529  1.00  0.00    -0.246 OA
BRANCH   6   8
ATOM      8  C   UNL     1      -0.876  -2.481  -5.947  1.00  0.00     0.087 C 
ATOM      9  C   UNL     1      -0.758  -1.741  -0.975  1.00  0.00     0.059 A 
ATOM     10  C   UNL     1      -1.750  -1.581  -1.968  1.00  0.00     0.074 A 
ATOM     11  C   UNL     1       0.529  -2.130  -1.404  1.00  0.00     0.065 A 
ATOM     12  C   UNL     1      -1.465  -1.803  -3.322  1.00  0.00     0.130 A 
ATOM     13  C   UNL     1       0.838  -2.244  -2.760  1.00  0.00     0.034 A 
ATOM     14  Cl  UNL     1       1.784  -2.595  -0.305  1.00  0.00    -0.082 Cl
ATOM     15  C   UNL     1      -0.161  -2.092  -3.716  1.00  0.00     0.019 A 
ATOM     16  O   UNL     1      -2.502  -1.720  -4.216  1.00  0.00    -0.475 OA
ATOM     17  C   UNL     1       0.153  -2.315  -5.110  1.00  0.00     0.027 C 
ATOM     18  C   UNL     1      -2.314  -2.342  -5.529  1.00  0.00     0.316 C 
BRANCH   9  19
ATOM     19  N   UNL     1      -1.064  -1.570   0.381  1.00  0.00    -0.373 N 
ATOM     20  C   UNL     1      -2.111  -2.441   0.906  1.00  0.00     0.143 C 
BRANCH  19  21
ATOM     21  C   UNL     1      -0.946  -0.223   0.975  1.00  0.00     0.119 C 
BRANCH  21  22
ATOM     22  C   UNL     1       0.513   0.166   1.296  1.00  0.00     0.002 C 
ATOM     23  C   UNL     1       1.143   0.990   0.170  1.00  0.00     0.009 C 
ATOM     24  C   UNL     1       0.619   0.953   2.606  1.00  0.00     0.009 C 
ENDBRANCH  21  22
ENDBRANCH  19  21
ENDBRANCH   9  19
BRANCH  18  25
ATOM     25  C   UNL     1      -3.046  -3.690  -5.599  1.00  0.00     0.430 C 
ATOM     26  F   UNL     1      -4.338  -3.576  -5.211  1.00  0.00    -0.167 F 
ATOM     27  F   UNL     1      -3.061  -4.173  -6.866  1.00  0.00    -0.167 F 
ATOM     28  F   UNL     1      -2.466  -4.628  -4.817  1.00  0.00    -0.167 F 
ENDBRANCH  18  25
ENDBRANCH   6   8
ENDBRANCH   5   6
ENDBRANCH   4   5
ENDBRANCH   3   4
ENDBRANCH   2   3
ENDBRANCH   1   2
BRANCH   1  29
ATOM     29  C   UNL     1      -1.073   0.699  -7.803  1.00  0.00     0.188 C 
BRANCH  29  30
ATOM     30  O   UNL     1      -2.190   0.863  -8.655  1.00  0.00    -0.376 OA
BRANCH  30  31
ATOM     31  C   UNL     1      -2.063   1.675  -9.814  1.00  0.00     0.202 C 
BRANCH  31  32
ATOM     32  C   UNL     1      -1.514   3.101  -9.702  1.00  0.00     0.261 C 
BRANCH  32  33
ATOM     33  O   UNL     1      -0.209   3.168  -9.108  1.00  0.00    -0.460 OA
BRANCH  33  34
ATOM     34  C   UNL     1      -0.134   3.873  -7.953  1.00  0.00     0.338 C 
ATOM     35  O   UNL     1      -1.033   4.476  -7.391  1.00  0.00    -0.246 OA
BRANCH  34  36
ATOM     36  C   UNL     1       1.184   3.641  -7.333  1.00  0.00     0.060 A 
ATOM     37  C   UNL     1       2.364   3.931  -8.018  1.00  0.00     0.016 A 
ATOM     38  C   UNL     1       1.222   3.137  -6.025  1.00  0.00     0.016 A 
ATOM     39  C   UNL     1       3.590   3.746  -7.374  1.00  0.00     0.010 A 
ATOM     40  C   UNL     1       2.447   2.937  -5.390  1.00  0.00     0.010 A 
ATOM     41  C   UNL     1       3.638   3.265  -6.052  1.00  0.00    -0.014 A 
BRANCH  41  42
ATOM     42  C   UNL     1       4.918   3.286  -5.307  1.00  0.00     0.031 A 
ATOM     43  C   UNL     1       5.756   2.059  -5.131  1.00  0.00     0.074 A 
ATOM     44  C   UNL     1       5.317   4.459  -4.780  1.00  0.00     0.049 A 
ATOM     45  N   UNL     1       6.953   1.959  -4.609  1.00  0.00    -0.248 NA
ATOM     46  C   UNL     1       5.187   0.785  -5.591  1.00  0.00     0.031 C 
ATOM     47  C   UNL     1       4.566   5.713  -4.868  1.00  0.00     0.029 A 
ATOM     48  N   UNL     1       6.451   4.794  -4.085  1.00  0.00    -0.354 N 
ATOM     49  C   UNL     1       7.296   0.618  -4.702  1.00  0.00     0.074 A 
ATOM     50  C   UNL     1       6.161  -0.067  -5.287  1.00  0.00     0.031 C 
ATOM     51  C   UNL     1       5.276   6.688  -4.281  1.00  0.00     0.029 A 
ATOM     52  C   UNL     1       6.518   6.126  -3.758  1.00  0.00     0.049 A 
ATOM     53  H   UNL     1       7.149   4.143  -3.845  1.00  0.00     0.167 HD
ATOM     54  C   UNL     1       8.460   0.023  -4.348  1.00  0.00     0.031 A 
ATOM     55  C   UNL     1       7.476   6.826  -3.123  1.00  0.00     0.031 A 
ATOM     56  C   UNL     1       9.573   0.709  -3.740  1.00  0.00     0.049 A 
ATOM     57  C   UNL     1       8.736   6.130  -2.696  1.00  0.00     0.074 A 
ATOM     58  C   UNL     1      10.810   0.193  -3.391  1.00  0.00     0.029 A 
ATOM     59  N   UNL     1       9.582   2.046  -3.375  1.00  0.00    -0.354 N 
ATOM     60  N   UNL     1       9.086   4.880  -2.875  1.00  0.00    -0.248 NA
ATOM     61  C   UNL     1       9.741   6.943  -1.996  1.00  0.00     0.031 C 
ATOM     62  C   UNL     1      11.540   1.198  -2.752  1.00  0.00     0.029 A 
ATOM     63  C   UNL     1      10.789   2.361  -2.770  1.00  0.00     0.049 A 
ATOM     64  H   UNL     1       8.842   2.679  -3.523  1.00  0.00     0.167 HD
ATOM     65  C   UNL     1      10.358   4.761  -2.333  1.00  0.00     0.074 A 
ATOM     66  C   UNL     1      10.726   6.069  -1.831  1.00  0.00     0.031 C 
ATOM     67  C   UNL     1      11.148   3.662  -2.263  1.00  0.00     0.031 A 
BRANCH  54  68
ATOM     68  C   UNL     1       8.619  -1.448  -4.614  1.00  0.00    -0.014 A 
ATOM     69  C   UNL     1       8.727  -2.349  -3.543  1.00  0.00     0.009 A 
ATOM     70  C   UNL     1       8.802  -1.924  -5.922  1.00  0.00     0.009 A 
ATOM     71  C   UNL     1       9.035  -3.692  -3.773  1.00  0.00     0.001 A 
ATOM     72  C   UNL     1       9.085  -3.272  -6.151  1.00  0.00     0.001 A 
ATOM     73  C   UNL     1       9.212  -4.152  -5.077  1.00  0.00     0.000 A 
ENDBRANCH  54  68
BRANCH  55  74
ATOM     74  C   UNL     1       7.288   8.284  -2.912  1.00  0.00    -0.014 A 
ATOM     75  C   UNL     1       6.314   8.757  -2.018  1.00  0.00     0.009 A 
ATOM     76  C   UNL     1       8.039   9.210  -3.651  1.00  0.00     0.009 A 
ATOM     77  C   UNL     1       6.078  10.127  -1.887  1.00  0.00     0.001 A 
ATOM     78  C   UNL     1       7.822  10.581  -3.495  1.00  0.00     0.001 A 
ATOM     79  C   UNL     1       6.835  11.037  -2.622  1.00  0.00     0.000 A 
ENDBRANCH  55  74
BRANCH  67  80
ATOM     80  C   UNL     1      12.503   3.808  -1.625  1.00  0.00    -0.014 A 
ATOM     81  C   UNL     1      13.661   3.681  -2.411  1.00  0.00     0.009 A 
ATOM     82  C   UNL     1      12.638   3.965  -0.238  1.00  0.00     0.009 A 
ATOM     83  C   UNL     1      14.925   3.690  -1.818  1.00  0.00     0.001 A 
ATOM     84  C   UNL     1      13.905   4.004   0.349  1.00  0.00     0.001 A 
ATOM     85  C   UNL     1      15.046   3.855  -0.440  1.00  0.00     0.000 A 
ENDBRANCH  67  80
ENDBRANCH  41  42
ENDBRANCH  34  36
ENDBRANCH  33  34
ENDBRANCH  32  33
ENDBRANCH  31  32
ENDBRANCH  30  31
ENDBRANCH  29  30
ENDBRANCH   1  29
TORSDOF 21
