REMARK SMILES C[C@@H]1CC[C@H](C)[N@H+]1Cc1cc2c(cc1Cl)C=C(C(=O)OCCOCCOCCOC(=O)c1ccc(-c3c4nc(c(-c5ccccc5)c5ccc([nH]5)c(-c5ccccc5)c5nc(c(-c6ccccc6)c6ccc3[nH]6)C=C5)C=C4)cc1)[C@@H](C(F)(F)F)O2
REMARK SMILES IDX 24 1 23 2 22 3 21 4 20 5 18 6 19 7 17 8 9 9 10 10 14 11
REMARK SMILES IDX 11 12 13 13 15 14 12 15 85 16 16 17 80 18 8 19 7 20 6 21
REMARK SMILES IDX 5 22 4 23 3 24 2 25 1 27 81 28 82 29 83 30 84 31 25 32 26 33
REMARK SMILES IDX 27 34 28 35 29 36 30 37 31 38 32 39 33 40 79 41 34 42 78 43
REMARK SMILES IDX 35 44 36 45 37 46 72 47 38 48 77 49 71 50 73 51 39 52 76 53
REMARK SMILES IDX 70 54 69 55 40 57 62 58 47 59 61 60 48 61 51 62 60 63 74 64
REMARK SMILES IDX 49 65 50 66 59 68 75 69 52 70 41 71 42 72 46 73 43 74 45 75
REMARK SMILES IDX 44 76 63 77 64 78 68 79 65 80 67 81 66 82 53 83 54 84 58 85
REMARK SMILES IDX 55 86 57 87 56 88
REMARK H PARENT 7 26 73 56 51 67
REMARK Flexibility Score: inf
ROOT
ATOM      1  C   UNL     1      -0.647   0.007 -10.088  1.00  0.00     0.188 C 
ENDROOT
BRANCH   1   2
ATOM      2  O   UNL     1      -0.588  -0.213 -11.480  1.00  0.00    -0.376 OA
BRANCH   2   3
ATOM      3  C   UNL     1       0.631  -0.518 -12.138  1.00  0.00     0.202 C 
BRANCH   3   4
ATOM      4  C   UNL     1       2.015  -0.090 -11.630  1.00  0.00     0.261 C 
BRANCH   4   5
ATOM      5  O   UNL     1       2.184  -0.095 -10.210  1.00  0.00    -0.460 OA
BRANCH   5   6
ATOM      6  C   UNL     1       2.460   1.118  -9.678  1.00  0.00     0.338 C 
ATOM      7  O   UNL     1       2.634   2.162 -10.290  1.00  0.00    -0.246 OA
BRANCH   6   8
ATOM      8  C   UNL     1       2.360   1.067  -8.210  1.00  0.00     0.087 C 
ATOM      9  C   UNL     1       1.866   2.498  -3.415  1.00  0.00     0.029 A 
ATOM     10  C   UNL     1       2.302   1.307  -4.049  1.00  0.00     0.058 A 
ATOM     11  C   UNL     1       1.373   3.525  -4.239  1.00  0.00     0.050 A 
ATOM     12  C   UNL     1       2.251   1.160  -5.441  1.00  0.00     0.128 A 
ATOM     13  C   UNL     1       1.213   3.329  -5.612  1.00  0.00     0.033 A 
ATOM     14  Cl  UNL     1       1.088   5.141  -3.695  1.00  0.00    -0.084 Cl
ATOM     15  C   UNL     1       1.675   2.162  -6.215  1.00  0.00     0.019 A 
ATOM     16  O   UNL     1       2.795   0.025  -5.982  1.00  0.00    -0.475 OA
ATOM     17  C   UNL     1       1.649   2.055  -7.658  1.00  0.00     0.027 C 
ATOM     18  C   UNL     1       3.078   0.010  -7.419  1.00  0.00     0.316 C 
BRANCH   9  19
ATOM     19  C   UNL     1       2.039   2.640  -1.909  1.00  0.00     0.301 C 
BRANCH  19  20
ATOM     20  N   UNL     1       0.896   2.333  -1.040  1.00  0.00    -0.327 N 
ATOM     21  C   UNL     1       1.007   0.096  -0.003  1.00  0.00     0.075 C 
ATOM     22  C   UNL     1       0.373   0.962  -1.085  1.00  0.00     0.181 C 
ATOM     23  C   UNL     1      -1.134   1.103  -0.869  1.00  0.00     0.071 C 
ATOM     24  C   UNL     1      -1.436   2.473  -1.439  1.00  0.00     0.071 C 
ATOM     25  C   UNL     1      -0.213   3.288  -1.046  1.00  0.00     0.181 C 
ATOM     26  H   UNL     1       1.375   2.435  -0.145  1.00  0.00     0.348 HD
ATOM     27  C   UNL     1      -0.351   3.922   0.339  1.00  0.00     0.075 C 
ENDBRANCH  19  20
ENDBRANCH   9  19
BRANCH  18  28
ATOM     28  C   UNL     1       4.593   0.061  -7.666  1.00  0.00     0.430 C 
ATOM     29  F   UNL     1       5.247  -0.876  -6.941  1.00  0.00    -0.167 F 
ATOM     30  F   UNL     1       4.884  -0.180  -8.968  1.00  0.00    -0.167 F 
ATOM     31  F   UNL     1       5.120   1.265  -7.350  1.00  0.00    -0.167 F 
ENDBRANCH  18  28
ENDBRANCH   6   8
ENDBRANCH   5   6
ENDBRANCH   4   5
ENDBRANCH   3   4
ENDBRANCH   2   3
ENDBRANCH   1   2
BRANCH   1  32
ATOM     32  C   UNL     1      -0.359  -1.142  -9.099  1.00  0.00     0.188 C 
BRANCH  32  33
ATOM     33  O   UNL     1       0.003  -2.427  -9.559  1.00  0.00    -0.376 OA
BRANCH  33  34
ATOM     34  C   UNL     1      -0.854  -3.112 -10.461  1.00  0.00     0.202 C 
BRANCH  34  35
ATOM     35  C   UNL     1      -2.362  -3.218 -10.201  1.00  0.00     0.261 C 
BRANCH  35  36
ATOM     36  O   UNL     1      -3.007  -1.966  -9.931  1.00  0.00    -0.460 OA
BRANCH  36  37
ATOM     37  C   UNL     1      -3.544  -1.848  -8.691  1.00  0.00     0.338 C 
ATOM     38  O   UNL     1      -3.561  -2.686  -7.807  1.00  0.00    -0.246 OA
BRANCH  37  39
ATOM     39  C   UNL     1      -3.940  -0.443  -8.472  1.00  0.00     0.060 A 
ATOM     40  C   UNL     1      -4.854   0.187  -9.317  1.00  0.00     0.016 A 
ATOM     41  C   UNL     1      -3.387   0.241  -7.380  1.00  0.00     0.016 A 
ATOM     42  C   UNL     1      -5.242   1.501  -9.042  1.00  0.00     0.010 A 
ATOM     43  C   UNL     1      -3.763   1.559  -7.118  1.00  0.00     0.010 A 
ATOM     44  C   UNL     1      -4.716   2.187  -7.931  1.00  0.00    -0.014 A 
BRANCH  44  45
ATOM     45  C   UNL     1      -5.322   3.471  -7.506  1.00  0.00     0.031 A 
ATOM     46  C   UNL     1      -4.690   4.795  -7.801  1.00  0.00     0.074 A 
ATOM     47  C   UNL     1      -6.479   3.414  -6.818  1.00  0.00     0.049 A 
ATOM     48  N   UNL     1      -5.175   5.993  -7.588  1.00  0.00    -0.248 NA
ATOM     49  C   UNL     1      -3.349   4.783  -8.400  1.00  0.00     0.031 C 
ATOM     50  C   UNL     1      -7.162   2.177  -6.435  1.00  0.00     0.029 A 
ATOM     51  N   UNL     1      -7.286   4.409  -6.329  1.00  0.00    -0.354 N 
ATOM     52  C   UNL     1      -4.213   6.880  -8.049  1.00  0.00     0.074 A 
ATOM     53  C   UNL     1      -3.094   6.083  -8.510  1.00  0.00     0.031 C 
ATOM     54  C   UNL     1      -8.300   2.487  -5.797  1.00  0.00     0.029 A 
ATOM     55  C   UNL     1      -8.416   3.939  -5.706  1.00  0.00     0.049 A 
ATOM     56  H   UNL     1      -7.075   5.367  -6.416  1.00  0.00     0.167 HD
ATOM     57  C   UNL     1      -4.274   8.232  -8.094  1.00  0.00     0.031 A 
ATOM     58  C   UNL     1      -9.443   4.597  -5.135  1.00  0.00     0.031 A 
ATOM     59  C   UNL     1      -5.385   9.015  -7.613  1.00  0.00     0.049 A 
ATOM     60  C   UNL     1      -9.470   6.097  -5.176  1.00  0.00     0.074 A 
ATOM     61  C   UNL     1      -5.559  10.388  -7.684  1.00  0.00     0.029 A 
ATOM     62  N   UNL     1      -6.496   8.508  -6.957  1.00  0.00    -0.354 N 
ATOM     63  N   UNL     1      -8.606   6.920  -5.718  1.00  0.00    -0.248 NA
ATOM     64  C   UNL     1     -10.621   6.760  -4.546  1.00  0.00     0.031 C 
ATOM     65  C   UNL     1      -6.733  10.718  -7.005  1.00  0.00     0.029 A 
ATOM     66  C   UNL     1      -7.335   9.545  -6.579  1.00  0.00     0.049 A 
ATOM     67  H   UNL     1      -6.664   7.553  -6.785  1.00  0.00     0.167 HD
ATOM     68  C   UNL     1      -9.115   8.195  -5.511  1.00  0.00     0.074 A 
ATOM     69  C   UNL     1     -10.374   8.036  -4.814  1.00  0.00     0.031 C 
ATOM     70  C   UNL     1      -8.580   9.387  -5.870  1.00  0.00     0.031 A 
BRANCH  57  71
ATOM     71  C   UNL     1      -3.119   8.983  -8.699  1.00  0.00    -0.014 A 
ATOM     72  C   UNL     1      -2.337   9.832  -7.898  1.00  0.00     0.009 A 
ATOM     73  C   UNL     1      -2.901   8.971 -10.086  1.00  0.00     0.009 A 
ATOM     74  C   UNL     1      -1.380  10.669  -8.473  1.00  0.00     0.001 A 
ATOM     75  C   UNL     1      -1.925   9.791 -10.656  1.00  0.00     0.001 A 
ATOM     76  C   UNL     1      -1.174  10.648  -9.852  1.00  0.00     0.000 A 
ENDBRANCH  57  71
BRANCH  58  77
ATOM     77  C   UNL     1     -10.547   3.816  -4.521  1.00  0.00    -0.014 A 
ATOM     78  C   UNL     1     -10.324   3.062  -3.357  1.00  0.00     0.009 A 
ATOM     79  C   UNL     1     -11.809   3.764  -5.131  1.00  0.00     0.009 A 
ATOM     80  C   UNL     1     -11.333   2.253  -2.831  1.00  0.00     0.001 A 
ATOM     81  C   UNL     1     -12.826   2.978  -4.584  1.00  0.00     0.001 A 
ATOM     82  C   UNL     1     -12.584   2.216  -3.443  1.00  0.00     0.000 A 
ENDBRANCH  58  77
BRANCH  70  83
ATOM     83  C   UNL     1      -9.342  10.636  -5.516  1.00  0.00    -0.014 A 
ATOM     84  C   UNL     1      -9.892  11.433  -6.534  1.00  0.00     0.009 A 
ATOM     85  C   UNL     1      -9.428  11.079  -4.188  1.00  0.00     0.009 A 
ATOM     86  C   UNL     1     -10.494  12.656  -6.231  1.00  0.00     0.001 A 
ATOM     87  C   UNL     1     -10.061  12.287  -3.884  1.00  0.00     0.001 A 
ATOM     88  C   UNL     1     -10.582  13.079  -4.907  1.00  0.00     0.000 A 
ENDBRANCH  70  83
ENDBRANCH  44  45
ENDBRANCH  37  39
ENDBRANCH  36  37
ENDBRANCH  35  36
ENDBRANCH  34  35
ENDBRANCH  33  34
ENDBRANCH  32  33
ENDBRANCH   1  32
TORSDOF 20
