REMARK SMILES O=C(OCCOCCOCCOC(=O)c1cc(-c2ccccn2)nc2ccc(F)cc12)c1ccc(-c2c3nc(c(-c4ccccc4)c4ccc([nH]4)c(-c4ccccc4)c4nc(c(-c5ccccc5)c5ccc2[nH]5)C=C4)C=C3)cc1
REMARK SMILES IDX 7 1 6 2 5 3 4 4 3 5 2 6 1 7 32 8 33 9 79 10 34 11 78 12
REMARK SMILES IDX 35 13 36 14 37 15 72 16 38 17 77 18 71 19 73 20 39 21 76 22
REMARK SMILES IDX 70 23 69 24 40 26 62 27 47 28 61 29 48 30 51 31 60 32 74 33
REMARK SMILES IDX 49 34 50 35 59 37 75 38 52 39 41 40 42 41 46 42 43 43 45 44
REMARK SMILES IDX 44 45 63 46 64 47 68 48 65 49 67 50 66 51 53 52 54 53 58 54
REMARK SMILES IDX 55 55 57 56 56 57 8 58 9 59 10 60 11 61 12 62 13 63 14 64
REMARK SMILES IDX 15 65 16 66 31 67 17 68 25 69 30 70 24 71 26 72 28 73 27 74
REMARK SMILES IDX 29 75 18 76 19 77 23 78 20 79 22 80 21 81
REMARK H PARENT 73 25 51 36
REMARK Flexibility Score: inf
ROOT
ATOM      1  C   UNL     1       3.316   1.458   0.598  1.00  0.00     0.188 C 
ENDROOT
BRANCH   1   2
ATOM      2  O   UNL     1       4.671   1.060   0.417  1.00  0.00    -0.376 OA
BRANCH   2   3
ATOM      3  C   UNL     1       5.126   0.931  -0.919  1.00  0.00     0.202 C 
BRANCH   3   4
ATOM      4  C   UNL     1       4.630  -0.307  -1.672  1.00  0.00     0.261 C 
BRANCH   4   5
ATOM      5  O   UNL     1       3.326  -0.753  -1.279  1.00  0.00    -0.460 OA
BRANCH   5   6
ATOM      6  C   UNL     1       3.178  -1.888  -0.544  1.00  0.00     0.338 C 
ATOM      7  O   UNL     1       2.408  -2.777  -0.885  1.00  0.00    -0.246 OA
BRANCH   6   8
ATOM      8  C   UNL     1       3.713  -1.866   0.849  1.00  0.00     0.060 A 
ATOM      9  C   UNL     1       2.807  -2.061   1.903  1.00  0.00     0.016 A 
ATOM     10  C   UNL     1       5.074  -1.746   1.139  1.00  0.00     0.016 A 
ATOM     11  C   UNL     1       3.259  -2.152   3.230  1.00  0.00     0.010 A 
ATOM     12  C   UNL     1       5.525  -1.801   2.462  1.00  0.00     0.010 A 
ATOM     13  C   UNL     1       4.630  -2.058   3.514  1.00  0.00    -0.014 A 
BRANCH  13  14
ATOM     14  C   UNL     1       5.189  -2.613   4.777  1.00  0.00     0.031 A 
ATOM     15  C   UNL     1       5.560  -1.783   5.973  1.00  0.00     0.074 A 
ATOM     16  C   UNL     1       5.473  -3.933   4.750  1.00  0.00     0.049 A 
ATOM     17  N   UNL     1       6.067  -2.183   7.115  1.00  0.00    -0.248 NA
ATOM     18  C   UNL     1       5.358  -0.330   5.890  1.00  0.00     0.031 C 
ATOM     19  C   UNL     1       5.213  -4.824   3.611  1.00  0.00     0.029 A 
ATOM     20  N   UNL     1       6.083  -4.744   5.668  1.00  0.00    -0.354 N 
ATOM     21  C   UNL     1       6.189  -1.047   7.912  1.00  0.00     0.074 A 
ATOM     22  C   UNL     1       5.772   0.071   7.092  1.00  0.00     0.031 C 
ATOM     23  C   UNL     1       5.716  -6.036   3.875  1.00  0.00     0.029 A 
ATOM     24  C   UNL     1       6.309  -6.018   5.205  1.00  0.00     0.049 A 
ATOM     25  H   UNL     1       6.336  -4.444   6.572  1.00  0.00     0.167 HD
ATOM     26  C   UNL     1       6.575  -0.982   9.213  1.00  0.00     0.031 A 
ATOM     27  C   UNL     1       6.920  -7.068   5.782  1.00  0.00     0.031 A 
ATOM     28  C   UNL     1       7.027  -2.119   9.976  1.00  0.00     0.049 A 
ATOM     29  C   UNL     1       7.371  -6.951   7.201  1.00  0.00     0.074 A 
ATOM     30  C   UNL     1       7.460  -2.138  11.293  1.00  0.00     0.029 A 
ATOM     31  N   UNL     1       7.126  -3.415   9.503  1.00  0.00    -0.354 N 
ATOM     32  N   UNL     1       7.309  -5.908   7.991  1.00  0.00    -0.248 NA
ATOM     33  C   UNL     1       7.928  -8.156   7.829  1.00  0.00     0.031 C 
ATOM     34  C   UNL     1       7.810  -3.443  11.621  1.00  0.00     0.029 A 
ATOM     35  C   UNL     1       7.623  -4.234  10.501  1.00  0.00     0.049 A 
ATOM     36  H   UNL     1       6.881  -3.709   8.595  1.00  0.00     0.167 HD
ATOM     37  C   UNL     1       7.779  -6.341   9.219  1.00  0.00     0.074 A 
ATOM     38  C   UNL     1       8.122  -7.739   9.074  1.00  0.00     0.031 C 
ATOM     39  C   UNL     1       7.913  -5.633  10.362  1.00  0.00     0.031 A 
BRANCH  26  40
ATOM     40  C   UNL     1       6.505   0.310   9.992  1.00  0.00    -0.014 A 
ATOM     41  C   UNL     1       7.456   1.325   9.852  1.00  0.00     0.009 A 
ATOM     42  C   UNL     1       5.587   0.394  11.062  1.00  0.00     0.009 A 
ATOM     43  C   UNL     1       7.469   2.406  10.746  1.00  0.00     0.001 A 
ATOM     44  C   UNL     1       5.601   1.469  11.953  1.00  0.00     0.001 A 
ATOM     45  C   UNL     1       6.545   2.478  11.792  1.00  0.00     0.000 A 
ENDBRANCH  26  40
BRANCH  27  46
ATOM     46  C   UNL     1       7.055  -8.329   5.015  1.00  0.00    -0.014 A 
ATOM     47  C   UNL     1       7.973  -8.421   3.956  1.00  0.00     0.009 A 
ATOM     48  C   UNL     1       6.201  -9.409   5.276  1.00  0.00     0.009 A 
ATOM     49  C   UNL     1       8.020  -9.568   3.162  1.00  0.00     0.001 A 
ATOM     50  C   UNL     1       6.266 -10.562   4.493  1.00  0.00     0.001 A 
ATOM     51  C   UNL     1       7.169 -10.638   3.432  1.00  0.00     0.000 A 
ENDBRANCH  27  46
BRANCH  39  52
ATOM     52  C   UNL     1       8.447  -6.333  11.574  1.00  0.00    -0.014 A 
ATOM     53  C   UNL     1       7.605  -6.563  12.673  1.00  0.00     0.009 A 
ATOM     54  C   UNL     1       9.817  -6.607  11.686  1.00  0.00     0.009 A 
ATOM     55  C   UNL     1       8.132  -7.038  13.874  1.00  0.00     0.001 A 
ATOM     56  C   UNL     1      10.336  -7.106  12.881  1.00  0.00     0.001 A 
ATOM     57  C   UNL     1       9.495  -7.311  13.975  1.00  0.00     0.000 A 
ENDBRANCH  39  52
ENDBRANCH  13  14
ENDBRANCH   6   8
ENDBRANCH   5   6
ENDBRANCH   4   5
ENDBRANCH   3   4
ENDBRANCH   2   3
ENDBRANCH   1   2
BRANCH   1  58
ATOM     58  C   UNL     1       2.827   2.682  -0.186  1.00  0.00     0.188 C 
BRANCH  58  59
ATOM     59  O   UNL     1       3.659   3.830  -0.279  1.00  0.00    -0.376 OA
BRANCH  59  60
ATOM     60  C   UNL     1       4.571   4.113   0.771  1.00  0.00     0.202 C 
BRANCH  60  61
ATOM     61  C   UNL     1       3.969   4.592   2.093  1.00  0.00     0.261 C 
BRANCH  61  62
ATOM     62  O   UNL     1       3.236   3.583   2.808  1.00  0.00    -0.460 OA
BRANCH  62  63
ATOM     63  C   UNL     1       1.884   3.666   2.797  1.00  0.00     0.338 C 
ATOM     64  O   UNL     1       1.181   4.441   2.163  1.00  0.00    -0.246 OA
BRANCH  63  65
ATOM     65  C   UNL     1       1.366   2.720   3.792  1.00  0.00     0.071 A 
ATOM     66  C   UNL     1       1.712   3.038   5.091  1.00  0.00     0.047 A 
ATOM     67  C   UNL     1       0.613   1.564   3.512  1.00  0.00     0.018 A 
ATOM     68  C   UNL     1       1.309   2.203   6.112  1.00  0.00     0.090 A 
ATOM     69  C   UNL     1       0.290   0.746   4.617  1.00  0.00     0.072 A 
ATOM     70  C   UNL     1       0.189   1.167   2.227  1.00  0.00     0.050 A 
ATOM     71  N   UNL     1       0.613   1.066   5.876  1.00  0.00    -0.246 NA
ATOM     72  C   UNL     1      -0.371  -0.457   4.405  1.00  0.00     0.032 A 
ATOM     73  C   UNL     1      -0.479  -0.039   2.050  1.00  0.00     0.123 A 
ATOM     74  C   UNL     1      -0.752  -0.865   3.127  1.00  0.00     0.041 A 
ATOM     75  F   UNL     1      -0.848  -0.412   0.820  1.00  0.00    -0.207 F 
BRANCH  68  76
ATOM     76  C   UNL     1       1.848   2.437   7.454  1.00  0.00     0.089 A 
ATOM     77  C   UNL     1       2.107   3.736   7.906  1.00  0.00     0.030 A 
ATOM     78  N   UNL     1       2.387   1.345   8.034  1.00  0.00    -0.255 NA
ATOM     79  C   UNL     1       3.106   3.927   8.844  1.00  0.00     0.004 A 
ATOM     80  C   UNL     1       3.310   1.557   8.978  1.00  0.00     0.112 A 
ATOM     81  C   UNL     1       3.746   2.815   9.357  1.00  0.00     0.020 A 
ENDBRANCH  68  76
ENDBRANCH  63  65
ENDBRANCH  62  63
ENDBRANCH  61  62
ENDBRANCH  60  61
ENDBRANCH  59  60
ENDBRANCH  58  59
ENDBRANCH   1  58
TORSDOF 18
