REMARK SMILES O=C(CNC(=O)[C@@H](CC1=c2ccccc2=NC1)N1C(=O)N=C2C=CC=C[C@H]2C1=O)OCCOCCOCCOC(=O)c1ccc(-c2c3nc(c(-c4ccccc4)c4ccc([nH]4)c(-c4ccccc4)c4nc(c(-c5ccccc5)c5ccc2[nH]5)C=C4)C=C3)cc1
REMARK SMILES IDX 34 1 33 2 32 3 31 4 30 5 2 6 1 7 3 8 4 9 5 10 6 12 7 13 8 14
REMARK SMILES IDX 9 15 10 16 17 17 11 18 15 19 16 20 12 21 14 22 13 23 18 24
REMARK SMILES IDX 19 25 28 26 21 27 20 28 27 29 29 30 22 31 26 32 23 33 25 34
REMARK SMILES IDX 24 35 35 36 36 37 37 38 38 39 39 40 40 41 41 42 42 43 43 44
REMARK SMILES IDX 89 45 44 46 88 47 45 48 46 49 47 50 82 51 48 52 87 53 81 54
REMARK SMILES IDX 83 55 49 56 86 57 80 58 79 59 50 61 72 62 57 63 71 64 58 65
REMARK SMILES IDX 61 66 70 67 84 68 59 69 60 70 69 72 85 73 62 74 51 75 52 76
REMARK SMILES IDX 56 77 53 78 55 79 54 80 73 81 74 82 78 83 75 84 77 85 76 86
REMARK SMILES IDX 63 87 64 88 68 89 65 90 67 91 66 92
REMARK H PARENT 4 11 83 60 61 71
REMARK Flexibility Score: inf
ROOT
ATOM      1  C   UNL     1       5.307  -2.350  -1.731  1.00  0.00     0.188 C 
ENDROOT
BRANCH   1   2
ATOM      2  O   UNL     1       5.123  -2.230  -0.297  1.00  0.00    -0.376 OA
BRANCH   2   3
ATOM      3  C   UNL     1       5.992  -1.393   0.492  1.00  0.00     0.202 C 
BRANCH   3   4
ATOM      4  C   UNL     1       5.375  -0.482   1.699  1.00  0.00     0.261 C 
BRANCH   4   5
ATOM      5  O   UNL     1       3.974  -0.033   1.643  1.00  0.00    -0.462 OA
BRANCH   5   6
ATOM      6  C   UNL     1       3.332   1.103   2.040  1.00  0.00     0.325 C 
ATOM      7  O   UNL     1       2.414   0.987   2.863  1.00  0.00    -0.250 OA
BRANCH   6   8
ATOM      8  C   UNL     1       3.335   2.453   1.181  1.00  0.00     0.238 C 
BRANCH   8   9
ATOM      9  N   UNL     1       4.274   3.226   0.313  1.00  0.00    -0.343 N 
ATOM     10  C   UNL     1       4.574   3.129  -1.041  1.00  0.00     0.244 C 
ATOM     11  H   UNL     1       4.772   3.932   0.786  1.00  0.00     0.164 HD
ATOM     12  O   UNL     1       4.765   4.161  -1.685  1.00  0.00    -0.273 OA
BRANCH  10  13
ATOM     13  C   UNL     1       4.944   1.755  -1.605  1.00  0.00     0.188 C 
BRANCH  13  14
ATOM     14  C   UNL     1       4.104   0.566  -1.090  1.00  0.00     0.069 C 
BRANCH  14  15
ATOM     15  C   UNL     1       2.698  -0.014  -1.073  1.00  0.00    -0.037 C 
ATOM     16  C   UNL     1       2.179  -1.105  -0.447  1.00  0.00     0.001 A 
ATOM     17  C   UNL     1       1.622   0.680  -1.825  1.00  0.00     0.174 C 
ATOM     18  C   UNL     1       2.578  -2.175   0.452  1.00  0.00     0.010 A 
ATOM     19  C   UNL     1       0.818  -1.183  -1.010  1.00  0.00     0.065 A 
ATOM     20  N   UNL     1       0.433  -0.195  -1.759  1.00  0.00    -0.280 NA
ATOM     21  C   UNL     1       1.874  -3.313   0.566  1.00  0.00     0.001 A 
ATOM     22  C   UNL     1       0.036  -2.423  -0.744  1.00  0.00     0.028 A 
ATOM     23  C   UNL     1       0.589  -3.442  -0.066  1.00  0.00     0.002 A 
ENDBRANCH  14  15
ENDBRANCH  13  14
BRANCH  13  24
ATOM     24  N   UNL     1       5.827   1.600  -2.819  1.00  0.00    -0.249 N 
ATOM     25  C   UNL     1       7.134   1.143  -2.617  1.00  0.00     0.351 C 
ATOM     26  C   UNL     1       5.346   1.755  -4.101  1.00  0.00     0.244 C 
ATOM     27  N   UNL     1       7.999   0.987  -3.656  1.00  0.00    -0.197 NA
ATOM     28  O   UNL     1       7.522   0.789  -1.507  1.00  0.00    -0.246 OA
ATOM     29  C   UNL     1       6.409   2.052  -5.190  1.00  0.00     0.151 C 
ATOM     30  O   UNL     1       4.141   1.712  -4.328  1.00  0.00    -0.273 OA
ATOM     31  C   UNL     1       7.705   1.359  -4.852  1.00  0.00     0.062 C 
ATOM     32  C   UNL     1       6.055   1.757  -6.630  1.00  0.00    -0.007 C 
ATOM     33  C   UNL     1       8.707   1.080  -5.913  1.00  0.00     0.025 C 
ATOM     34  C   UNL     1       6.909   1.234  -7.527  1.00  0.00    -0.003 C 
ATOM     35  C   UNL     1       8.282   0.985  -7.177  1.00  0.00     0.002 C 
ENDBRANCH  13  24
ENDBRANCH  10  13
ENDBRANCH   8   9
ENDBRANCH   6   8
ENDBRANCH   5   6
ENDBRANCH   4   5
ENDBRANCH   3   4
ENDBRANCH   2   3
ENDBRANCH   1   2
BRANCH   1  36
ATOM     36  C   UNL     1       4.071  -3.003  -2.408  1.00  0.00     0.188 C 
BRANCH  36  37
ATOM     37  O   UNL     1       4.201  -4.371  -2.766  1.00  0.00    -0.376 OA
BRANCH  37  38
ATOM     38  C   UNL     1       5.222  -4.648  -3.705  1.00  0.00     0.202 C 
BRANCH  38  39
ATOM     39  C   UNL     1       4.916  -4.304  -5.169  1.00  0.00     0.261 C 
BRANCH  39  40
ATOM     40  O   UNL     1       4.428  -2.970  -5.406  1.00  0.00    -0.460 OA
BRANCH  40  41
ATOM     41  C   UNL     1       3.076  -2.863  -5.607  1.00  0.00     0.338 C 
ATOM     42  O   UNL     1       2.258  -3.744  -5.561  1.00  0.00    -0.246 OA
BRANCH  41  43
ATOM     43  C   UNL     1       2.736  -1.437  -5.865  1.00  0.00     0.060 A 
ATOM     44  C   UNL     1       3.420  -0.744  -6.855  1.00  0.00     0.016 A 
ATOM     45  C   UNL     1       1.675  -0.813  -5.191  1.00  0.00     0.016 A 
ATOM     46  C   UNL     1       3.049   0.569  -7.151  1.00  0.00     0.010 A 
ATOM     47  C   UNL     1       1.322   0.525  -5.481  1.00  0.00     0.010 A 
ATOM     48  C   UNL     1       2.020   1.245  -6.455  1.00  0.00    -0.014 A 
BRANCH  48  49
ATOM     49  C   UNL     1       1.613   2.593  -6.965  1.00  0.00     0.031 A 
ATOM     50  C   UNL     1       1.902   3.905  -6.278  1.00  0.00     0.074 A 
ATOM     51  C   UNL     1       1.091   2.615  -8.206  1.00  0.00     0.049 A 
ATOM     52  N   UNL     1       1.932   5.111  -6.802  1.00  0.00    -0.248 NA
ATOM     53  C   UNL     1       2.195   3.884  -4.843  1.00  0.00     0.031 C 
ATOM     54  C   UNL     1       0.770   1.414  -8.979  1.00  0.00     0.029 A 
ATOM     55  N   UNL     1       0.815   3.652  -9.061  1.00  0.00    -0.354 N 
ATOM     56  C   UNL     1       2.283   5.980  -5.772  1.00  0.00     0.074 A 
ATOM     57  C   UNL     1       2.450   5.165  -4.587  1.00  0.00     0.031 C 
ATOM     58  C   UNL     1       0.444   1.773 -10.223  1.00  0.00     0.029 A 
ATOM     59  C   UNL     1       0.437   3.230 -10.312  1.00  0.00     0.049 A 
ATOM     60  H   UNL     1       0.881   4.600  -8.804  1.00  0.00     0.167 HD
ATOM     61  C   UNL     1       2.428   7.330  -5.810  1.00  0.00     0.031 A 
ATOM     62  C   UNL     1       0.112   3.917 -11.424  1.00  0.00     0.031 A 
ATOM     63  C   UNL     1       2.162   8.147  -6.973  1.00  0.00     0.049 A 
ATOM     64  C   UNL     1       0.194   5.410 -11.417  1.00  0.00     0.074 A 
ATOM     65  C   UNL     1       2.313   9.519  -7.110  1.00  0.00     0.029 A 
ATOM     66  N   UNL     1       1.641   7.687  -8.173  1.00  0.00    -0.354 N 
ATOM     67  N   UNL     1       0.640   6.199 -10.471  1.00  0.00    -0.248 NA
ATOM     68  C   UNL     1      -0.269   6.111 -12.621  1.00  0.00     0.031 C 
ATOM     69  C   UNL     1       1.774   9.900  -8.340  1.00  0.00     0.029 A 
ATOM     70  C   UNL     1       1.391   8.756  -9.022  1.00  0.00     0.049 A 
ATOM     71  H   UNL     1       1.472   6.742  -8.391  1.00  0.00     0.167 HD
ATOM     72  C   UNL     1       0.514   7.490 -10.962  1.00  0.00     0.074 A 
ATOM     73  C   UNL     1      -0.028   7.378 -12.301  1.00  0.00     0.031 C 
ATOM     74  C   UNL     1       0.826   8.656 -10.347  1.00  0.00     0.031 A 
BRANCH  61  75
ATOM     75  C   UNL     1       2.846   8.058  -4.551  1.00  0.00    -0.014 A 
ATOM     76  C   UNL     1       1.962   8.973  -3.948  1.00  0.00     0.009 A 
ATOM     77  C   UNL     1       4.153   7.964  -4.049  1.00  0.00     0.009 A 
ATOM     78  C   UNL     1       2.380   9.786  -2.891  1.00  0.00     0.001 A 
ATOM     79  C   UNL     1       4.560   8.758  -2.971  1.00  0.00     0.001 A 
ATOM     80  C   UNL     1       3.678   9.675  -2.400  1.00  0.00     0.000 A 
ENDBRANCH  61  75
BRANCH  62  81
ATOM     81  C   UNL     1      -0.314   3.140 -12.618  1.00  0.00    -0.014 A 
ATOM     82  C   UNL     1      -1.489   2.366 -12.561  1.00  0.00     0.009 A 
ATOM     83  C   UNL     1       0.520   3.026 -13.737  1.00  0.00     0.009 A 
ATOM     84  C   UNL     1      -1.778   1.438 -13.562  1.00  0.00     0.001 A 
ATOM     85  C   UNL     1       0.204   2.126 -14.758  1.00  0.00     0.001 A 
ATOM     86  C   UNL     1      -0.929   1.317 -14.659  1.00  0.00     0.000 A 
ENDBRANCH  62  81
BRANCH  74  87
ATOM     87  C   UNL     1       0.581   9.942 -11.091  1.00  0.00    -0.014 A 
ATOM     88  C   UNL     1       1.668  10.750 -11.466  1.00  0.00     0.009 A 
ATOM     89  C   UNL     1      -0.721  10.421 -11.300  1.00  0.00     0.009 A 
ATOM     90  C   UNL     1       1.458  12.024 -11.998  1.00  0.00     0.001 A 
ATOM     91  C   UNL     1      -0.929  11.682 -11.864  1.00  0.00     0.001 A 
ATOM     92  C   UNL     1       0.160  12.489 -12.197  1.00  0.00     0.000 A 
ENDBRANCH  74  87
ENDBRANCH  48  49
ENDBRANCH  41  43
ENDBRANCH  40  41
ENDBRANCH  39  40
ENDBRANCH  38  39
ENDBRANCH  37  38
ENDBRANCH  36  37
ENDBRANCH   1  36
TORSDOF 22
