REMARK SMILES CC(=O)Nc1ccc(/C(=C\c2ccc(S(C)(=O)=O)cc2)C(=O)OCCOCCOCCOC(=O)c2ccc(-c3c4nc(c(-c5ccccc5)c5ccc([nH]5)c(-c5ccccc5)c5nc(c(-c6ccccc6)c6ccc3[nH]6)C=C5)C=C4)cc2)cc1
REMARK SMILES IDX 27 1 26 2 25 3 24 4 23 5 21 6 22 7 9 8 10 9 8 10 5 11 6 12
REMARK SMILES IDX 84 13 7 14 83 15 4 16 1 17 2 18 3 19 11 21 12 22 20 23 13 24
REMARK SMILES IDX 19 25 14 26 15 27 16 28 17 29 18 30 28 31 29 32 30 33 31 34
REMARK SMILES IDX 32 35 33 36 34 37 35 38 36 39 82 40 37 41 81 42 38 43 39 44
REMARK SMILES IDX 40 45 75 46 41 47 80 48 74 49 76 50 42 51 79 52 73 53 72 54
REMARK SMILES IDX 43 56 65 57 50 58 64 59 51 60 54 61 63 62 77 63 52 64 53 65
REMARK SMILES IDX 62 67 78 68 55 69 44 70 45 71 49 72 46 73 48 74 47 75 66 76
REMARK SMILES IDX 67 77 71 78 68 79 70 80 69 81 56 82 57 83 61 84 58 85 60 86
REMARK SMILES IDX 59 87
REMARK H PARENT 4 20 76 55 54 66
REMARK Flexibility Score: inf
ROOT
ATOM      1  C   UNL     1       5.203  -4.627   0.540  1.00  0.00     0.188 C 
ENDROOT
BRANCH   1   2
ATOM      2  O   UNL     1       6.489  -4.961   0.076  1.00  0.00    -0.376 OA
BRANCH   2   3
ATOM      3  C   UNL     1       7.538  -5.236   0.988  1.00  0.00     0.202 C 
BRANCH   3   4
ATOM      4  C   UNL     1       7.508  -4.961   2.505  1.00  0.00     0.261 C 
BRANCH   4   5
ATOM      5  O   UNL     1       6.228  -4.861   3.133  1.00  0.00    -0.460 OA
BRANCH   5   6
ATOM      6  C   UNL     1       5.872  -3.630   3.601  1.00  0.00     0.338 C 
ATOM      7  O   UNL     1       6.552  -2.619   3.517  1.00  0.00    -0.246 OA
BRANCH   6   8
ATOM      8  C   UNL     1       4.458  -3.637   4.119  1.00  0.00     0.067 C 
ATOM      9  C   UNL     1       4.087  -4.758   4.792  1.00  0.00     0.024 C 
BRANCH   8  10
ATOM     10  C   UNL     1       3.575  -2.454   3.856  1.00  0.00    -0.011 A 
ATOM     11  C   UNL     1       1.692  -0.401   3.217  1.00  0.00     0.041 A 
ATOM     12  C   UNL     1       1.728  -0.980   4.484  1.00  0.00     0.027 A 
ATOM     13  C   UNL     1       2.664  -0.780   2.298  1.00  0.00     0.027 A 
ATOM     14  C   UNL     1       2.664  -1.972   4.803  1.00  0.00     0.011 A 
ATOM     15  C   UNL     1       3.595  -1.790   2.618  1.00  0.00     0.011 A 
BRANCH  11  16
ATOM     16  N   UNL     1       0.736   0.605   3.016  1.00  0.00    -0.326 N 
ATOM     17  C   UNL     1       0.116   0.332   0.627  1.00  0.00     0.114 C 
ATOM     18  C   UNL     1       0.122   1.108   1.907  1.00  0.00     0.221 C 
ATOM     19  O   UNL     1      -0.540   2.143   2.020  1.00  0.00    -0.275 OA
ATOM     20  H   UNL     1       0.446   1.039   3.851  1.00  0.00     0.169 HD
ENDBRANCH  11  16
ENDBRANCH   8  10
BRANCH   9  21
ATOM     21  C   UNL     1       2.814  -4.981   5.495  1.00  0.00    -0.025 A 
ATOM     22  C   UNL     1       2.865  -5.041   6.894  1.00  0.00     0.009 A 
ATOM     23  C   UNL     1       1.573  -4.957   4.845  1.00  0.00     0.009 A 
ATOM     24  C   UNL     1       1.697  -4.929   7.645  1.00  0.00     0.021 A 
ATOM     25  C   UNL     1       0.397  -4.839   5.594  1.00  0.00     0.021 A 
ATOM     26  C   UNL     1       0.473  -4.785   6.989  1.00  0.00     0.067 A 
BRANCH  26  27
ATOM     27  S   UNL     1      -0.952  -4.321   7.947  1.00  0.00     0.175 S 
ATOM     28  C   UNL     1      -1.409  -5.802   8.800  1.00  0.00     0.163 C 
ATOM     29  O   UNL     1      -0.494  -3.355   8.928  1.00  0.00    -0.224 OA
ATOM     30  O   UNL     1      -2.017  -3.988   7.021  1.00  0.00    -0.224 OA
ENDBRANCH  26  27
ENDBRANCH   9  21
ENDBRANCH   6   8
ENDBRANCH   5   6
ENDBRANCH   4   5
ENDBRANCH   3   4
ENDBRANCH   2   3
ENDBRANCH   1   2
BRANCH   1  31
ATOM     31  C   UNL     1       4.308  -5.745   1.109  1.00  0.00     0.188 C 
BRANCH  31  32
ATOM     32  O   UNL     1       4.804  -7.061   1.231  1.00  0.00    -0.376 OA
BRANCH  32  33
ATOM     33  C   UNL     1       5.309  -7.721   0.082  1.00  0.00     0.202 C 
BRANCH  33  34
ATOM     34  C   UNL     1       4.660  -7.593  -1.309  1.00  0.00     0.261 C 
BRANCH  34  35
ATOM     35  O   UNL     1       4.181  -6.294  -1.688  1.00  0.00    -0.460 OA
BRANCH  35  36
ATOM     36  C   UNL     1       2.837  -6.170  -1.795  1.00  0.00     0.338 C 
ATOM     37  O   UNL     1       1.991  -7.034  -1.589  1.00  0.00    -0.246 OA
BRANCH  36  38
ATOM     38  C   UNL     1       2.490  -4.758  -2.030  1.00  0.00     0.060 A 
ATOM     39  C   UNL     1       1.863  -4.040  -1.005  1.00  0.00     0.016 A 
ATOM     40  C   UNL     1       2.739  -4.154  -3.264  1.00  0.00     0.016 A 
ATOM     41  C   UNL     1       1.495  -2.711  -1.210  1.00  0.00     0.010 A 
ATOM     42  C   UNL     1       2.342  -2.827  -3.475  1.00  0.00     0.010 A 
ATOM     43  C   UNL     1       1.708  -2.100  -2.454  1.00  0.00    -0.014 A 
BRANCH  43  44
ATOM     44  C   UNL     1       1.151  -0.748  -2.714  1.00  0.00     0.031 A 
ATOM     45  C   UNL     1      -0.224  -0.626  -3.313  1.00  0.00     0.074 A 
ATOM     46  C   UNL     1       1.815   0.362  -2.342  1.00  0.00     0.049 A 
ATOM     47  N   UNL     1      -0.913   0.451  -3.591  1.00  0.00    -0.248 NA
ATOM     48  C   UNL     1      -0.912  -1.885  -3.635  1.00  0.00     0.031 C 
ATOM     49  C   UNL     1       3.105   0.383  -1.653  1.00  0.00     0.029 A 
ATOM     50  N   UNL     1       1.453   1.686  -2.418  1.00  0.00    -0.354 N 
ATOM     51  C   UNL     1      -2.098   0.003  -4.162  1.00  0.00     0.074 A 
ATOM     52  C   UNL     1      -2.041  -1.443  -4.171  1.00  0.00     0.031 C 
ATOM     53  C   UNL     1       3.389   1.651  -1.305  1.00  0.00     0.029 A 
ATOM     54  C   UNL     1       2.341   2.539  -1.809  1.00  0.00     0.049 A 
ATOM     55  H   UNL     1       0.633   1.994  -2.868  1.00  0.00     0.167 HD
ATOM     56  C   UNL     1      -3.129   0.729  -4.658  1.00  0.00     0.031 A 
ATOM     57  C   UNL     1       2.315   3.882  -1.678  1.00  0.00     0.031 A 
ATOM     58  C   UNL     1      -3.192   2.167  -4.660  1.00  0.00     0.049 A 
ATOM     59  C   UNL     1       1.180   4.667  -2.290  1.00  0.00     0.074 A 
ATOM     60  C   UNL     1      -4.188   2.983  -5.170  1.00  0.00     0.029 A 
ATOM     61  N   UNL     1      -2.223   3.003  -4.131  1.00  0.00    -0.354 N 
ATOM     62  N   UNL     1       0.085   4.232  -2.865  1.00  0.00    -0.248 NA
ATOM     63  C   UNL     1       1.294   6.134  -2.254  1.00  0.00     0.031 C 
ATOM     64  C   UNL     1      -3.786   4.313  -5.016  1.00  0.00     0.029 A 
ATOM     65  C   UNL     1      -2.576   4.326  -4.343  1.00  0.00     0.049 A 
ATOM     66  H   UNL     1      -1.405   2.702  -3.673  1.00  0.00     0.167 HD
ATOM     67  C   UNL     1      -0.619   5.369  -3.250  1.00  0.00     0.074 A 
ATOM     68  C   UNL     1       0.153   6.511  -2.812  1.00  0.00     0.031 C 
ATOM     69  C   UNL     1      -1.794   5.459  -3.921  1.00  0.00     0.031 A 
BRANCH  56  70
ATOM     70  C   UNL     1      -4.245  -0.023  -5.328  1.00  0.00    -0.014 A 
ATOM     71  C   UNL     1      -5.184  -0.765  -4.598  1.00  0.00     0.009 A 
ATOM     72  C   UNL     1      -4.377   0.056  -6.725  1.00  0.00     0.009 A 
ATOM     73  C   UNL     1      -6.218  -1.436  -5.258  1.00  0.00     0.001 A 
ATOM     74  C   UNL     1      -5.427  -0.589  -7.377  1.00  0.00     0.001 A 
ATOM     75  C   UNL     1      -6.342  -1.341  -6.644  1.00  0.00     0.000 A 
ENDBRANCH  56  70
BRANCH  57  76
ATOM     76  C   UNL     1       3.425   4.598  -0.987  1.00  0.00    -0.014 A 
ATOM     77  C   UNL     1       3.184   5.356   0.171  1.00  0.00     0.009 A 
ATOM     78  C   UNL     1       4.725   4.578  -1.518  1.00  0.00     0.009 A 
ATOM     79  C   UNL     1       4.210   6.100   0.759  1.00  0.00     0.001 A 
ATOM     80  C   UNL     1       5.758   5.289  -0.904  1.00  0.00     0.001 A 
ATOM     81  C   UNL     1       5.497   6.061   0.225  1.00  0.00     0.000 A 
ENDBRANCH  57  76
BRANCH  69  82
ATOM     82  C   UNL     1      -2.318   6.836  -4.233  1.00  0.00    -0.014 A 
ATOM     83  C   UNL     1      -1.686   7.657  -5.181  1.00  0.00     0.009 A 
ATOM     84  C   UNL     1      -3.487   7.301  -3.610  1.00  0.00     0.009 A 
ATOM     85  C   UNL     1      -2.194   8.925  -5.473  1.00  0.00     0.001 A 
ATOM     86  C   UNL     1      -4.011   8.556  -3.927  1.00  0.00     0.001 A 
ATOM     87  C   UNL     1      -3.359   9.371  -4.850  1.00  0.00     0.000 A 
ENDBRANCH  69  82
ENDBRANCH  43  44
ENDBRANCH  36  38
ENDBRANCH  35  36
ENDBRANCH  34  35
ENDBRANCH  33  34
ENDBRANCH  32  33
ENDBRANCH  31  32
ENDBRANCH   1  31
TORSDOF 21
