REMARK SMILES Cc1ccc(-c2cc(Cl)cc3c2O[C@H](C(F)(F)F)C(C(=O)OCCOCCOCCOC(=O)c2ccc(-c4c5nc(c(-c6ccccc6)c6ccc([nH]6)c(-c6ccccc6)c6nc(c(-c7ccccc7)c7ccc4[nH]7)C=C6)C=C5)cc2)=C3)cc1F
REMARK SMILES IDX 27 1 26 2 25 3 24 4 23 5 22 6 20 7 21 8 19 9 6 10 7 11 12 12
REMARK SMILES IDX 8 13 11 14 13 15 9 16 10 17 82 18 14 19 5 20 1 21 2 22 3 23
REMARK SMILES IDX 84 24 4 25 83 26 85 27 15 28 16 29 17 30 18 31 28 32 29 33
REMARK SMILES IDX 30 34 31 35 32 36 33 37 34 38 35 39 81 40 36 41 80 42 37 43
REMARK SMILES IDX 38 44 39 45 74 46 40 47 79 48 73 49 75 50 41 51 78 52 72 53
REMARK SMILES IDX 71 54 42 56 64 57 49 58 63 59 50 60 53 61 62 62 76 63 51 64
REMARK SMILES IDX 52 65 61 67 77 68 54 69 43 70 44 71 48 72 45 73 47 74 46 75
REMARK SMILES IDX 65 76 66 77 70 78 67 79 69 80 68 81 55 82 56 83 60 84 57 85
REMARK SMILES IDX 59 86 58 87
REMARK H PARENT 75 55 53 66
REMARK Flexibility Score: inf
ROOT
ATOM      1  C   UNL     1      -4.808  -4.039   5.749  1.00  0.00     0.188 C 
ENDROOT
BRANCH   1   2
ATOM      2  C   UNL     1      -5.407  -5.453   5.596  1.00  0.00     0.188 C 
BRANCH   2   3
ATOM      3  O   UNL     1      -5.216  -6.424   6.600  1.00  0.00    -0.376 OA
BRANCH   3   4
ATOM      4  C   UNL     1      -3.929  -6.934   6.902  1.00  0.00     0.202 C 
BRANCH   4   5
ATOM      5  C   UNL     1      -2.772  -7.015   5.895  1.00  0.00     0.261 C 
BRANCH   5   6
ATOM      6  O   UNL     1      -2.683  -5.942   4.954  1.00  0.00    -0.460 OA
BRANCH   6   7
ATOM      7  C   UNL     1      -2.913  -6.291   3.665  1.00  0.00     0.338 C 
ATOM      8  O   UNL     1      -3.172  -7.405   3.242  1.00  0.00    -0.246 OA
BRANCH   7   9
ATOM      9  C   UNL     1      -2.969  -5.075   2.831  1.00  0.00     0.087 C 
ATOM     10  C   UNL     1      -2.958  -1.847   0.167  1.00  0.00     0.026 A 
ATOM     11  C   UNL     1      -3.985  -1.769  -0.791  1.00  0.00     0.033 A 
ATOM     12  C   UNL     1      -3.019  -2.881   1.128  1.00  0.00     0.135 A 
ATOM     13  C   UNL     1      -5.029  -2.694  -0.793  1.00  0.00     0.042 A 
ATOM     14  C   UNL     1      -4.039  -3.840   1.084  1.00  0.00     0.019 A 
ATOM     15  O   UNL     1      -2.055  -2.884   2.102  1.00  0.00    -0.475 OA
ATOM     16  Cl  UNL     1      -6.271  -2.576  -1.977  1.00  0.00    -0.084 Cl
ATOM     17  C   UNL     1      -5.058  -3.732   0.133  1.00  0.00     0.032 A 
ATOM     18  C   UNL     1      -3.996  -4.985   1.977  1.00  0.00     0.027 C 
ATOM     19  C   UNL     1      -1.906  -4.025   2.982  1.00  0.00     0.316 C 
BRANCH  10  20
ATOM     20  C   UNL     1      -1.822  -0.904   0.105  1.00  0.00    -0.012 A 
ATOM     21  C   UNL     1       1.559   1.799  -0.029  1.00  0.00     0.047 C 
ATOM     22  C   UNL     1       0.377   0.881   0.000  1.00  0.00    -0.015 A 
ATOM     23  C   UNL     1      -0.933   1.370   0.041  1.00  0.00     0.007 A 
ATOM     24  C   UNL     1       0.571  -0.499  -0.001  1.00  0.00     0.126 A 
ATOM     25  C   UNL     1      -2.019   0.486   0.093  1.00  0.00     0.009 A 
ATOM     26  C   UNL     1      -0.503  -1.381   0.042  1.00  0.00     0.048 A 
ATOM     27  F   UNL     1       1.816  -0.997  -0.044  1.00  0.00    -0.207 F 
ENDBRANCH  10  20
BRANCH  19  28
ATOM     28  C   UNL     1      -0.491  -4.591   2.800  1.00  0.00     0.430 C 
ATOM     29  F   UNL     1       0.445  -3.619   2.906  1.00  0.00    -0.167 F 
ATOM     30  F   UNL     1      -0.197  -5.520   3.739  1.00  0.00    -0.167 F 
ATOM     31  F   UNL     1      -0.337  -5.174   1.589  1.00  0.00    -0.167 F 
ENDBRANCH  19  28
ENDBRANCH   7   9
ENDBRANCH   6   7
ENDBRANCH   5   6
ENDBRANCH   4   5
ENDBRANCH   3   4
ENDBRANCH   2   3
ENDBRANCH   1   2
BRANCH   1  32
ATOM     32  O   UNL     1      -3.981  -3.722   6.847  1.00  0.00    -0.376 OA
BRANCH  32  33
ATOM     33  C   UNL     1      -4.497  -3.796   8.167  1.00  0.00     0.202 C 
BRANCH  33  34
ATOM     34  C   UNL     1      -5.940  -3.413   8.535  1.00  0.00     0.261 C 
BRANCH  34  35
ATOM     35  O   UNL     1      -6.960  -3.841   7.625  1.00  0.00    -0.460 OA
BRANCH  35  36
ATOM     36  C   UNL     1      -7.593  -2.842   6.950  1.00  0.00     0.338 C 
ATOM     37  O   UNL     1      -7.388  -1.653   7.024  1.00  0.00    -0.246 OA
BRANCH  36  38
ATOM     38  C   UNL     1      -8.459  -3.457   5.921  1.00  0.00     0.060 A 
ATOM     39  C   UNL     1      -9.510  -4.298   6.284  1.00  0.00     0.016 A 
ATOM     40  C   UNL     1      -8.196  -3.185   4.571  1.00  0.00     0.016 A 
ATOM     41  C   UNL     1     -10.311  -4.860   5.287  1.00  0.00     0.010 A 
ATOM     42  C   UNL     1      -8.986  -3.763   3.575  1.00  0.00     0.010 A 
ATOM     43  C   UNL     1     -10.061  -4.591   3.928  1.00  0.00    -0.014 A 
BRANCH  43  44
ATOM     44  C   UNL     1     -11.023  -5.045   2.894  1.00  0.00     0.031 A 
ATOM     45  C   UNL     1     -10.757  -6.239   2.031  1.00  0.00     0.074 A 
ATOM     46  C   UNL     1     -12.164  -4.346   2.746  1.00  0.00     0.049 A 
ATOM     47  N   UNL     1     -11.547  -6.802   1.151  1.00  0.00    -0.248 NA
ATOM     48  C   UNL     1      -9.444  -6.887   2.164  1.00  0.00     0.031 C 
ATOM     49  C   UNL     1     -12.522  -3.158   3.523  1.00  0.00     0.029 A 
ATOM     50  N   UNL     1     -13.236  -4.538   1.911  1.00  0.00    -0.354 N 
ATOM     51  C   UNL     1     -10.843  -7.885   0.644  1.00  0.00     0.074 A 
ATOM     52  C   UNL     1      -9.540  -7.872   1.277  1.00  0.00     0.031 C 
ATOM     53  C   UNL     1     -13.745  -2.749   3.155  1.00  0.00     0.029 A 
ATOM     54  C   UNL     1     -14.243  -3.621   2.095  1.00  0.00     0.049 A 
ATOM     55  H   UNL     1     -13.280  -5.261   1.245  1.00  0.00     0.167 HD
ATOM     56  C   UNL     1     -11.260  -8.813  -0.251  1.00  0.00     0.031 A 
ATOM     57  C   UNL     1     -15.440  -3.497   1.488  1.00  0.00     0.031 A 
ATOM     58  C   UNL     1     -12.551  -8.803  -0.893  1.00  0.00     0.049 A 
ATOM     59  C   UNL     1     -15.848  -4.502   0.449  1.00  0.00     0.074 A 
ATOM     60  C   UNL     1     -13.068  -9.726  -1.788  1.00  0.00     0.029 A 
ATOM     61  N   UNL     1     -13.521  -7.827  -0.724  1.00  0.00    -0.354 N 
ATOM     62  N   UNL     1     -15.204  -5.567   0.038  1.00  0.00    -0.248 NA
ATOM     63  C   UNL     1     -17.151  -4.301  -0.200  1.00  0.00     0.031 C 
ATOM     64  C   UNL     1     -14.313  -9.268  -2.220  1.00  0.00     0.029 A 
ATOM     65  C   UNL     1     -14.614  -8.105  -1.529  1.00  0.00     0.049 A 
ATOM     66  H   UNL     1     -13.444  -7.051  -0.123  1.00  0.00     0.167 HD
ATOM     67  C   UNL     1     -16.033  -6.178  -0.894  1.00  0.00     0.074 A 
ATOM     68  C   UNL     1     -17.234  -5.374  -0.978  1.00  0.00     0.031 C 
ATOM     69  C   UNL     1     -15.812  -7.307  -1.610  1.00  0.00     0.031 A 
BRANCH  56  70
ATOM     70  C   UNL     1     -10.329  -9.945  -0.597  1.00  0.00    -0.014 A 
ATOM     71  C   UNL     1      -9.837 -10.076  -1.906  1.00  0.00     0.009 A 
ATOM     72  C   UNL     1     -10.059 -10.962   0.332  1.00  0.00     0.009 A 
ATOM     73  C   UNL     1      -9.117 -11.211  -2.285  1.00  0.00     0.001 A 
ATOM     74  C   UNL     1      -9.312 -12.082  -0.041  1.00  0.00     0.001 A 
ATOM     75  C   UNL     1      -8.854 -12.212  -1.351  1.00  0.00     0.000 A 
ENDBRANCH  56  70
BRANCH  57  76
ATOM     76  C   UNL     1     -16.350  -2.394   1.897  1.00  0.00    -0.014 A 
ATOM     77  C   UNL     1     -16.009  -1.054   1.648  1.00  0.00     0.009 A 
ATOM     78  C   UNL     1     -17.537  -2.671   2.592  1.00  0.00     0.009 A 
ATOM     79  C   UNL     1     -16.820  -0.016   2.111  1.00  0.00     0.001 A 
ATOM     80  C   UNL     1     -18.364  -1.632   3.023  1.00  0.00     0.001 A 
ATOM     81  C   UNL     1     -17.999  -0.306   2.793  1.00  0.00     0.000 A 
ENDBRANCH  57  76
BRANCH  69  82
ATOM     82  C   UNL     1     -16.889  -7.777  -2.552  1.00  0.00    -0.014 A 
ATOM     83  C   UNL     1     -17.550  -8.992  -2.303  1.00  0.00     0.009 A 
ATOM     84  C   UNL     1     -17.156  -7.096  -3.749  1.00  0.00     0.009 A 
ATOM     85  C   UNL     1     -18.430  -9.530  -3.243  1.00  0.00     0.001 A 
ATOM     86  C   UNL     1     -18.064  -7.619  -4.673  1.00  0.00     0.001 A 
ATOM     87  C   UNL     1     -18.688  -8.841  -4.426  1.00  0.00     0.000 A 
ENDBRANCH  69  82
ENDBRANCH  43  44
ENDBRANCH  36  38
ENDBRANCH  35  36
ENDBRANCH  34  35
ENDBRANCH  33  34
ENDBRANCH  32  33
ENDBRANCH   1  32
TORSDOF 19
