REMARK SMILES O=C(OCCOCCOCCOC(=O)c1cccc(-c2cc(NCc3ccccn3)nc3[nH]ccc23)c1)c1ccc(-c2c3nc(c(-c4ccccc4)c4ccc([nH]4)c(-c4ccccc4)c4nc(c(-c5ccccc5)c5ccc2[nH]5)C=C4)C=C3)cc1
REMARK SMILES IDX 8 1 7 2 6 3 5 4 4 5 3 6 2 7 1 8 38 9 39 10 85 11 40 12 84 13
REMARK SMILES IDX 41 14 42 15 43 16 78 17 44 18 83 19 77 20 79 21 45 22 82 23
REMARK SMILES IDX 76 24 75 25 46 27 68 28 53 29 67 30 54 31 57 32 66 33 80 34
REMARK SMILES IDX 55 35 56 36 65 38 81 39 58 40 47 41 48 42 52 43 49 44 51 45
REMARK SMILES IDX 50 46 69 47 70 48 74 49 71 50 73 51 72 52 59 53 60 54 64 55
REMARK SMILES IDX 61 56 63 57 62 58 9 59 10 60 11 61 12 62 13 63 14 64 15 65
REMARK SMILES IDX 16 66 37 67 17 68 19 69 18 70 20 71 21 72 36 73 22 74 32 75
REMARK SMILES IDX 35 76 31 77 33 78 34 79 23 81 24 83 25 84 26 85 30 86 27 87
REMARK SMILES IDX 29 88 28 89
REMARK H PARENT 79 26 57 37 33 80 23 82
REMARK Flexibility Score: inf
ROOT
ATOM      1  C   UNL     1       1.968   1.951   2.838  1.00  0.00     0.188 C 
ENDROOT
BRANCH   1   2
ATOM      2  C   UNL     1       2.442   1.828   1.386  1.00  0.00     0.188 C 
BRANCH   2   3
ATOM      3  O   UNL     1       3.682   1.111   1.300  1.00  0.00    -0.376 OA
BRANCH   3   4
ATOM      4  C   UNL     1       4.555   1.600   0.276  1.00  0.00     0.202 C 
BRANCH   4   5
ATOM      5  C   UNL     1       4.346   0.937  -1.091  1.00  0.00     0.261 C 
BRANCH   5   6
ATOM      6  O   UNL     1       2.965   0.612  -1.323  1.00  0.00    -0.460 OA
BRANCH   6   7
ATOM      7  C   UNL     1       2.337  -0.568  -1.093  1.00  0.00     0.338 C 
ATOM      8  O   UNL     1       1.136  -0.656  -1.348  1.00  0.00    -0.246 OA
BRANCH   7   9
ATOM      9  C   UNL     1       3.034  -1.801  -0.612  1.00  0.00     0.060 A 
ATOM     10  C   UNL     1       4.153  -1.821   0.221  1.00  0.00     0.016 A 
ATOM     11  C   UNL     1       2.480  -3.035  -0.995  1.00  0.00     0.016 A 
ATOM     12  C   UNL     1       4.793  -3.016   0.541  1.00  0.00     0.010 A 
ATOM     13  C   UNL     1       3.078  -4.245  -0.619  1.00  0.00     0.010 A 
ATOM     14  C   UNL     1       4.272  -4.237   0.109  1.00  0.00    -0.014 A 
BRANCH  14  15
ATOM     15  C   UNL     1       5.072  -5.470   0.302  1.00  0.00     0.031 A 
ATOM     16  C   UNL     1       5.751  -6.080  -0.897  1.00  0.00     0.074 A 
ATOM     17  C   UNL     1       5.319  -5.943   1.538  1.00  0.00     0.049 A 
ATOM     18  N   UNL     1       6.487  -7.159  -0.976  1.00  0.00    -0.248 NA
ATOM     19  C   UNL     1       5.604  -5.361  -2.175  1.00  0.00     0.031 C 
ATOM     20  C   UNL     1       4.853  -5.345   2.792  1.00  0.00     0.029 A 
ATOM     21  N   UNL     1       6.078  -7.008   1.945  1.00  0.00    -0.354 N 
ATOM     22  C   UNL     1       6.881  -7.249  -2.307  1.00  0.00     0.074 A 
ATOM     23  C   UNL     1       6.286  -6.134  -3.006  1.00  0.00     0.031 C 
ATOM     24  C   UNL     1       5.403  -6.005   3.827  1.00  0.00     0.029 A 
ATOM     25  C   UNL     1       6.191  -7.117   3.311  1.00  0.00     0.049 A 
ATOM     26  H   UNL     1       6.503  -7.638   1.318  1.00  0.00     0.167 HD
ATOM     27  C   UNL     1       7.678  -8.174  -2.893  1.00  0.00     0.031 A 
ATOM     28  C   UNL     1       6.844  -8.033   4.048  1.00  0.00     0.031 A 
ATOM     29  C   UNL     1       8.262  -9.285  -2.196  1.00  0.00     0.049 A 
ATOM     30  C   UNL     1       7.470  -9.198   3.339  1.00  0.00     0.074 A 
ATOM     31  C   UNL     1       9.047 -10.310  -2.693  1.00  0.00     0.029 A 
ATOM     32  N   UNL     1       8.118  -9.511  -0.837  1.00  0.00    -0.354 N 
ATOM     33  N   UNL     1       7.727  -9.353   2.064  1.00  0.00    -0.248 NA
ATOM     34  C   UNL     1       7.837 -10.346   4.179  1.00  0.00     0.031 C 
ATOM     35  C   UNL     1       9.342 -11.182  -1.638  1.00  0.00     0.029 A 
ATOM     36  C   UNL     1       8.775 -10.674  -0.481  1.00  0.00     0.049 A 
ATOM     37  H   UNL     1       7.622  -8.929  -0.217  1.00  0.00     0.167 HD
ATOM     38  C   UNL     1       8.323 -10.600   1.954  1.00  0.00     0.074 A 
ATOM     39  C   UNL     1       8.371 -11.167   3.287  1.00  0.00     0.031 C 
ATOM     40  C   UNL     1       8.809 -11.214   0.850  1.00  0.00     0.031 A 
BRANCH  27  41
ATOM     41  C   UNL     1       7.915  -8.036  -4.369  1.00  0.00    -0.014 A 
ATOM     42  C   UNL     1       8.777  -7.054  -4.880  1.00  0.00     0.009 A 
ATOM     43  C   UNL     1       7.258  -8.899  -5.260  1.00  0.00     0.009 A 
ATOM     44  C   UNL     1       8.950  -6.917  -6.260  1.00  0.00     0.001 A 
ATOM     45  C   UNL     1       7.450  -8.773  -6.637  1.00  0.00     0.001 A 
ATOM     46  C   UNL     1       8.289  -7.777  -7.136  1.00  0.00     0.000 A 
ENDBRANCH  27  41
BRANCH  28  47
ATOM     47  C   UNL     1       6.877  -7.989   5.531  1.00  0.00    -0.014 A 
ATOM     48  C   UNL     1       8.081  -7.759   6.215  1.00  0.00     0.009 A 
ATOM     49  C   UNL     1       5.734  -8.312   6.269  1.00  0.00     0.009 A 
ATOM     50  C   UNL     1       8.136  -7.869   7.608  1.00  0.00     0.001 A 
ATOM     51  C   UNL     1       5.789  -8.409   7.661  1.00  0.00     0.001 A 
ATOM     52  C   UNL     1       6.989  -8.191   8.330  1.00  0.00     0.000 A 
ENDBRANCH  28  47
BRANCH  40  53
ATOM     53  C   UNL     1       9.500 -12.523   1.067  1.00  0.00    -0.014 A 
ATOM     54  C   UNL     1       8.778 -13.707   1.268  1.00  0.00     0.009 A 
ATOM     55  C   UNL     1      10.903 -12.559   1.078  1.00  0.00     0.009 A 
ATOM     56  C   UNL     1       9.454 -14.905   1.506  1.00  0.00     0.001 A 
ATOM     57  C   UNL     1      11.574 -13.761   1.295  1.00  0.00     0.001 A 
ATOM     58  C   UNL     1      10.849 -14.931   1.517  1.00  0.00     0.000 A 
ENDBRANCH  40  53
ENDBRANCH  14  15
ENDBRANCH   7   9
ENDBRANCH   6   7
ENDBRANCH   5   6
ENDBRANCH   4   5
ENDBRANCH   3   4
ENDBRANCH   2   3
ENDBRANCH   1   2
BRANCH   1  59
ATOM     59  O   UNL     1       2.747   2.820   3.662  1.00  0.00    -0.376 OA
BRANCH  59  60
ATOM     60  C   UNL     1       4.120   2.479   3.847  1.00  0.00     0.202 C 
BRANCH  60  61
ATOM     61  C   UNL     1       4.403   1.249   4.713  1.00  0.00     0.261 C 
BRANCH  61  62
ATOM     62  O   UNL     1       3.813   0.035   4.210  1.00  0.00    -0.460 OA
BRANCH  62  63
ATOM     63  C   UNL     1       3.050  -0.618   5.112  1.00  0.00     0.338 C 
ATOM     64  O   UNL     1       2.822  -0.275   6.271  1.00  0.00    -0.246 OA
BRANCH  63  65
ATOM     65  C   UNL     1       2.554  -1.908   4.610  1.00  0.00     0.060 A 
ATOM     66  C   UNL     1       1.690  -2.026   3.525  1.00  0.00     0.016 A 
ATOM     67  C   UNL     1       2.800  -3.009   5.436  1.00  0.00     0.024 A 
ATOM     68  C   UNL     1       1.035  -3.240   3.316  1.00  0.00     0.002 A 
ATOM     69  C   UNL     1       2.114  -4.226   5.284  1.00  0.00    -0.017 A 
ATOM     70  C   UNL     1       1.224  -4.314   4.202  1.00  0.00     0.009 A 
BRANCH  69  71
ATOM     71  C   UNL     1       2.269  -5.281   6.306  1.00  0.00    -0.004 A 
ATOM     72  C   UNL     1       2.568  -4.955   7.648  1.00  0.00     0.056 A 
ATOM     73  C   UNL     1       2.149  -6.661   6.040  1.00  0.00     0.027 A 
ATOM     74  C   UNL     1       2.770  -5.922   8.630  1.00  0.00     0.129 A 
ATOM     75  C   UNL     1       2.291  -7.530   7.122  1.00  0.00     0.140 A 
ATOM     76  C   UNL     1       1.950  -7.494   4.897  1.00  0.00     0.030 A 
ATOM     77  N   UNL     1       2.607  -7.231   8.395  1.00  0.00    -0.213 NA
ATOM     78  N   UNL     1       2.089  -8.808   6.677  1.00  0.00    -0.346 N 
ATOM     79  C   UNL     1       1.908  -8.806   5.320  1.00  0.00     0.085 A 
ATOM     80  H   UNL     1       2.075  -9.610   7.248  1.00  0.00     0.167 HD
BRANCH  74  81
ATOM     81  N   UNL     1       3.236  -5.469   9.855  1.00  0.00    -0.364 N 
ATOM     82  H   UNL     1       3.156  -4.513  10.077  1.00  0.00     0.162 HD
BRANCH  81  83
ATOM     83  C   UNL     1       3.841  -6.372  10.819  1.00  0.00     0.170 C 
BRANCH  83  84
ATOM     84  C   UNL     1       5.062  -5.764  11.503  1.00  0.00     0.059 A 
ATOM     85  C   UNL     1       5.176  -4.391  11.739  1.00  0.00     0.026 A 
ATOM     86  N   UNL     1       6.018  -6.636  11.927  1.00  0.00    -0.259 NA
ATOM     87  C   UNL     1       6.305  -3.899  12.393  1.00  0.00     0.004 A 
ATOM     88  C   UNL     1       7.100  -6.129  12.560  1.00  0.00     0.111 A 
ATOM     89  C   UNL     1       7.288  -4.783  12.813  1.00  0.00     0.020 A 
ENDBRANCH  83  84
ENDBRANCH  81  83
ENDBRANCH  74  81
ENDBRANCH  69  71
ENDBRANCH  63  65
ENDBRANCH  62  63
ENDBRANCH  61  62
ENDBRANCH  60  61
ENDBRANCH  59  60
ENDBRANCH   1  59
TORSDOF 21
