REMARK SMILES O=C(OCCOCCOCCOC(=O)[C@H]1[C@H]2CC[C@H](CC2)[C@@H]1C(=O)Nc1sc2c(c1C(=O)N1CCCCC1)CCCC2)c1ccc(-c2c3nc(c(-c4ccccc4)c4ccc([nH]4)c(-c4ccccc4)c4nc(c(-c5ccccc5)c5ccc2[nH]5)C=C4)C=C3)cc1
REMARK SMILES IDX 8 1 7 2 6 3 5 4 4 5 3 6 2 7 1 8 43 9 44 10 90 11 45 12 89 13
REMARK SMILES IDX 46 14 47 15 48 16 83 17 49 18 88 19 82 20 84 21 50 22 87 23
REMARK SMILES IDX 81 24 80 25 51 27 73 28 58 29 72 30 59 31 62 32 71 33 85 34
REMARK SMILES IDX 60 35 61 36 70 38 86 39 63 40 52 41 53 42 57 43 54 44 56 45
REMARK SMILES IDX 55 46 74 47 75 48 79 49 76 50 78 51 77 52 64 53 65 54 69 55
REMARK SMILES IDX 66 56 68 57 67 58 9 59 10 60 11 61 12 62 13 63 14 64 15 65
REMARK SMILES IDX 16 66 22 67 21 68 17 69 19 70 20 71 18 72 23 73 24 74 25 75
REMARK SMILES IDX 26 77 27 78 30 79 28 80 29 81 42 82 39 83 41 84 40 85 31 86
REMARK SMILES IDX 32 87 33 88 34 89 38 90 35 91 37 92 36 93
REMARK H PARENT 84 26 62 37 25 76
REMARK Flexibility Score: inf
ROOT
ATOM      1  C   UNL     1       2.478   2.607   0.591  1.00  0.00     0.188 C 
ENDROOT
BRANCH   1   2
ATOM      2  C   UNL     1       3.067   1.483  -0.239  1.00  0.00     0.188 C 
BRANCH   2   3
ATOM      3  O   UNL     1       4.396   1.119   0.133  1.00  0.00    -0.376 OA
BRANCH   3   4
ATOM      4  C   UNL     1       5.244   0.936  -1.000  1.00  0.00     0.202 C 
BRANCH   4   5
ATOM      5  C   UNL     1       4.931  -0.268  -1.905  1.00  0.00     0.261 C 
BRANCH   5   6
ATOM      6  O   UNL     1       3.604  -0.814  -1.793  1.00  0.00    -0.460 OA
BRANCH   6   7
ATOM      7  C   UNL     1       3.055  -1.667  -0.895  1.00  0.00     0.338 C 
ATOM      8  O   UNL     1       1.891  -2.021  -1.088  1.00  0.00    -0.246 OA
BRANCH   7   9
ATOM      9  C   UNL     1       3.733  -2.175   0.344  1.00  0.00     0.060 A 
ATOM     10  C   UNL     1       5.058  -1.940   0.699  1.00  0.00     0.016 A 
ATOM     11  C   UNL     1       2.962  -2.980   1.214  1.00  0.00     0.016 A 
ATOM     12  C   UNL     1       5.610  -2.513   1.844  1.00  0.00     0.010 A 
ATOM     13  C   UNL     1       3.513  -3.575   2.361  1.00  0.00     0.010 A 
ATOM     14  C   UNL     1       4.856  -3.365   2.660  1.00  0.00    -0.014 A 
BRANCH  14  15
ATOM     15  C   UNL     1       5.615  -4.126   3.680  1.00  0.00     0.031 A 
ATOM     16  C   UNL     1       6.416  -5.285   3.210  1.00  0.00     0.074 A 
ATOM     17  C   UNL     1       5.755  -3.673   4.935  1.00  0.00     0.049 A 
ATOM     18  N   UNL     1       7.379  -5.908   3.824  1.00  0.00    -0.248 NA
ATOM     19  C   UNL     1       6.070  -5.823   1.885  1.00  0.00     0.031 C 
ATOM     20  C   UNL     1       4.928  -2.638   5.506  1.00  0.00     0.029 A 
ATOM     21  N   UNL     1       6.668  -3.945   5.924  1.00  0.00    -0.354 N 
ATOM     22  C   UNL     1       7.739  -6.938   2.977  1.00  0.00     0.074 A 
ATOM     23  C   UNL     1       6.913  -6.839   1.792  1.00  0.00     0.031 C 
ATOM     24  C   UNL     1       5.462  -2.228   6.665  1.00  0.00     0.029 A 
ATOM     25  C   UNL     1       6.637  -3.022   6.952  1.00  0.00     0.049 A 
ATOM     26  H   UNL     1       7.280  -4.715   5.903  1.00  0.00     0.167 HD
ATOM     27  C   UNL     1       8.649  -7.909   3.207  1.00  0.00     0.031 A 
ATOM     28  C   UNL     1       7.465  -2.825   7.997  1.00  0.00     0.031 A 
ATOM     29  C   UNL     1       9.374  -8.033   4.441  1.00  0.00     0.049 A 
ATOM     30  C   UNL     1       8.532  -3.859   8.185  1.00  0.00     0.074 A 
ATOM     31  C   UNL     1      10.223  -9.042   4.852  1.00  0.00     0.029 A 
ATOM     32  N   UNL     1       9.316  -7.109   5.480  1.00  0.00    -0.354 N 
ATOM     33  N   UNL     1       8.853  -4.852   7.389  1.00  0.00    -0.248 NA
ATOM     34  C   UNL     1       9.294  -3.808   9.437  1.00  0.00     0.031 C 
ATOM     35  C   UNL     1      10.651  -8.745   6.152  1.00  0.00     0.029 A 
ATOM     36  C   UNL     1      10.118  -7.521   6.529  1.00  0.00     0.049 A 
ATOM     37  H   UNL     1       8.782  -6.282   5.469  1.00  0.00     0.167 HD
ATOM     38  C   UNL     1       9.798  -5.590   8.075  1.00  0.00     0.074 A 
ATOM     39  C   UNL     1      10.077  -4.869   9.304  1.00  0.00     0.031 C 
ATOM     40  C   UNL     1      10.343  -6.786   7.748  1.00  0.00     0.031 A 
BRANCH  27  41
ATOM     41  C   UNL     1       8.778  -8.944   2.134  1.00  0.00    -0.014 A 
ATOM     42  C   UNL     1       9.390  -8.646   0.905  1.00  0.00     0.009 A 
ATOM     43  C   UNL     1       8.185 -10.202   2.315  1.00  0.00     0.009 A 
ATOM     44  C   UNL     1       9.367  -9.575  -0.136  1.00  0.00     0.001 A 
ATOM     45  C   UNL     1       8.185 -11.137   1.280  1.00  0.00     0.001 A 
ATOM     46  C   UNL     1       8.765 -10.819   0.052  1.00  0.00     0.000 A 
ENDBRANCH  27  41
BRANCH  28  47
ATOM     47  C   UNL     1       7.299  -1.688   8.957  1.00  0.00    -0.014 A 
ATOM     48  C   UNL     1       8.338  -0.765   9.176  1.00  0.00     0.009 A 
ATOM     49  C   UNL     1       6.109  -1.517   9.685  1.00  0.00     0.009 A 
ATOM     50  C   UNL     1       8.196   0.276  10.103  1.00  0.00     0.001 A 
ATOM     51  C   UNL     1       5.947  -0.446  10.570  1.00  0.00     0.001 A 
ATOM     52  C   UNL     1       6.996   0.442  10.790  1.00  0.00     0.000 A 
ENDBRANCH  28  47
BRANCH  40  53
ATOM     53  C   UNL     1      11.273  -7.372   8.765  1.00  0.00    -0.014 A 
ATOM     54  C   UNL     1      10.783  -7.894   9.974  1.00  0.00     0.009 A 
ATOM     55  C   UNL     1      12.651  -7.387   8.515  1.00  0.00     0.009 A 
ATOM     56  C   UNL     1      11.667  -8.379  10.936  1.00  0.00     0.001 A 
ATOM     57  C   UNL     1      13.529  -7.900   9.467  1.00  0.00     0.001 A 
ATOM     58  C   UNL     1      13.038  -8.383  10.680  1.00  0.00     0.000 A 
ENDBRANCH  40  53
ENDBRANCH  14  15
ENDBRANCH   7   9
ENDBRANCH   6   7
ENDBRANCH   5   6
ENDBRANCH   4   5
ENDBRANCH   3   4
ENDBRANCH   2   3
ENDBRANCH   1   2
BRANCH   1  59
ATOM     59  O   UNL     1       2.990   3.923   0.408  1.00  0.00    -0.376 OA
BRANCH  59  60
ATOM     60  C   UNL     1       4.392   4.112   0.566  1.00  0.00     0.202 C 
BRANCH  60  61
ATOM     61  C   UNL     1       5.000   3.951   1.964  1.00  0.00     0.261 C 
BRANCH  61  62
ATOM     62  O   UNL     1       4.359   2.944   2.746  1.00  0.00    -0.463 OA
BRANCH  62  63
ATOM     63  C   UNL     1       3.470   3.396   3.658  1.00  0.00     0.310 C 
ATOM     64  O   UNL     1       3.292   4.586   3.904  1.00  0.00    -0.252 OA
BRANCH  63  65
ATOM     65  C   UNL     1       2.696   2.287   4.364  1.00  0.00     0.115 C 
ATOM     66  C   UNL     1       2.839   0.820   3.858  1.00  0.00     0.004 C 
ATOM     67  C   UNL     1       3.010   2.399   5.871  1.00  0.00     0.096 C 
ATOM     68  C   UNL     1       4.295   0.370   3.912  1.00  0.00     0.005 C 
ATOM     69  C   UNL     1       2.034  -0.098   4.810  1.00  0.00     0.005 C 
ATOM     70  C   UNL     1       3.718   1.064   6.277  1.00  0.00     0.002 C 
ATOM     71  C   UNL     1       4.866   0.804   5.259  1.00  0.00     0.005 C 
ATOM     72  C   UNL     1       2.643  -0.043   6.214  1.00  0.00     0.005 C 
BRANCH  67  73
ATOM     73  C   UNL     1       1.900   2.744   6.898  1.00  0.00     0.229 C 
ATOM     74  O   UNL     1       2.108   2.479   8.094  1.00  0.00    -0.274 OA
ATOM     75  N   UNL     1       0.707   3.353   6.636  1.00  0.00    -0.317 N 
ATOM     76  H   UNL     1       0.082   3.419   7.394  1.00  0.00     0.170 HD
BRANCH  75  77
ATOM     77  C   UNL     1       0.272   3.885   5.450  1.00  0.00     0.108 A 
ATOM     78  S   UNL     1      -0.837   2.904   4.598  1.00  0.00    -0.122 S 
ATOM     79  C   UNL     1       0.451   5.137   4.876  1.00  0.00     0.078 A 
ATOM     80  C   UNL     1      -0.637   3.861   3.207  1.00  0.00     0.011 A 
ATOM     81  C   UNL     1      -0.008   5.063   3.491  1.00  0.00    -0.019 A 
ATOM     82  C   UNL     1      -1.124   3.415   1.858  1.00  0.00     0.047 C 
ATOM     83  C   UNL     1       0.234   6.041   2.384  1.00  0.00     0.037 C 
ATOM     84  C   UNL     1      -0.690   4.381   0.744  1.00  0.00     0.006 C 
ATOM     85  C   UNL     1      -0.704   5.834   1.189  1.00  0.00     0.005 C 
BRANCH  79  86
ATOM     86  C   UNL     1       1.213   6.193   5.573  1.00  0.00     0.257 C 
ATOM     87  O   UNL     1       1.927   5.915   6.540  1.00  0.00    -0.269 OA
ATOM     88  N   UNL     1       1.146   7.517   5.126  1.00  0.00    -0.339 N 
ATOM     89  C   UNL     1       2.282   8.369   5.448  1.00  0.00     0.120 C 
ATOM     90  C   UNL     1      -0.106   8.233   4.882  1.00  0.00     0.120 C 
ATOM     91  C   UNL     1       2.534   9.351   4.314  1.00  0.00     0.022 C 
ATOM     92  C   UNL     1       0.050   9.350   3.837  1.00  0.00     0.022 C 
ATOM     93  C   UNL     1       1.296  10.206   4.053  1.00  0.00     0.004 C 
ENDBRANCH  79  86
ENDBRANCH  75  77
ENDBRANCH  67  73
ENDBRANCH  63  65
ENDBRANCH  62  63
ENDBRANCH  61  62
ENDBRANCH  60  61
ENDBRANCH  59  60
ENDBRANCH   1  59
TORSDOF 20
