REMARK SMILES Cc1cc2c(c(C)c1Br)C=C(C(=O)OCCOCCOCCOC(=O)c1ccc(-c3c4nc(c(-c5ccccc5)c5ccc([nH]5)c(-c5ccccc5)c5nc(c(-c6ccccc6)c6ccc3[nH]6)C=C5)C=C4)cc1)[C@@H](C(F)(F)F)O2
REMARK SMILES IDX 19 1 18 2 17 3 16 4 15 5 14 6 12 7 13 8 11 9 1 10 2 11 3 12
REMARK SMILES IDX 8 13 4 14 6 15 9 16 5 17 79 18 7 19 10 20 74 21 75 22 76 23
REMARK SMILES IDX 77 24 78 25 20 26 21 27 22 28 23 29 24 30 25 31 26 32 27 33
REMARK SMILES IDX 73 34 28 35 72 36 29 37 30 38 31 39 66 40 32 41 71 42 65 43
REMARK SMILES IDX 67 44 33 45 70 46 64 47 63 48 34 50 56 51 41 52 55 53 42 54
REMARK SMILES IDX 45 55 54 56 68 57 43 58 44 59 53 61 69 62 46 63 35 64 36 65
REMARK SMILES IDX 40 66 37 67 39 68 38 69 57 70 58 71 62 72 59 73 61 74 60 75
REMARK SMILES IDX 47 76 48 77 52 78 49 79 51 80 50 81
REMARK H PARENT 67 49 45 60
REMARK Flexibility Score: inf
ROOT
ATOM      1  C   UNL     1      -3.626   1.126  -7.095  1.00  0.00     0.188 C 
ENDROOT
BRANCH   1   2
ATOM      2  C   UNL     1      -2.951   2.248  -7.912  1.00  0.00     0.188 C 
BRANCH   2   3
ATOM      3  O   UNL     1      -3.143   2.296  -9.307  1.00  0.00    -0.376 OA
BRANCH   3   4
ATOM      4  C   UNL     1      -2.580   1.317 -10.161  1.00  0.00     0.202 C 
BRANCH   4   5
ATOM      5  C   UNL     1      -1.402   0.398  -9.795  1.00  0.00     0.261 C 
BRANCH   5   6
ATOM      6  O   UNL     1      -1.248   0.060  -8.413  1.00  0.00    -0.460 OA
BRANCH   6   7
ATOM      7  C   UNL     1      -0.167   0.604  -7.803  1.00  0.00     0.338 C 
ATOM      8  O   UNL     1       0.669   1.332  -8.312  1.00  0.00    -0.246 OA
BRANCH   7   9
ATOM      9  C   UNL     1      -0.217   0.314  -6.356  1.00  0.00     0.087 C 
ATOM     10  C   UNL     1       0.874  -0.072  -0.002  1.00  0.00     0.046 C 
ATOM     11  C   UNL     1       0.528   0.395  -1.392  1.00  0.00    -0.033 A 
ATOM     12  C   UNL     1       0.099  -0.562  -2.320  1.00  0.00     0.051 A 
ATOM     13  C   UNL     1       0.675   1.734  -1.811  1.00  0.00     0.024 A 
ATOM     14  C   UNL     1      -0.110  -0.222  -3.654  1.00  0.00     0.128 A 
ATOM     15  C   UNL     1       0.436   2.105  -3.158  1.00  0.00    -0.026 A 
ATOM     16  Br  UNL     1       1.247   3.030  -0.523  1.00  0.00    -0.050 Br
ATOM     17  C   UNL     1       0.092   1.091  -4.092  1.00  0.00     0.021 A 
ATOM     18  O   UNL     1      -0.507  -1.256  -4.455  1.00  0.00    -0.475 OA
ATOM     19  C   UNL     1       0.544   3.538  -3.631  1.00  0.00     0.046 C 
ATOM     20  C   UNL     1       0.014   1.343  -5.530  1.00  0.00     0.027 C 
ATOM     21  C   UNL     1      -0.510  -1.083  -5.894  1.00  0.00     0.316 C 
BRANCH  21  22
ATOM     22  C   UNL     1       0.441  -2.116  -6.512  1.00  0.00     0.430 C 
ATOM     23  F   UNL     1       0.197  -3.360  -6.033  1.00  0.00    -0.167 F 
ATOM     24  F   UNL     1       0.300  -2.184  -7.857  1.00  0.00    -0.167 F 
ATOM     25  F   UNL     1       1.737  -1.828  -6.256  1.00  0.00    -0.167 F 
ENDBRANCH  21  22
ENDBRANCH   7   9
ENDBRANCH   6   7
ENDBRANCH   5   6
ENDBRANCH   4   5
ENDBRANCH   3   4
ENDBRANCH   2   3
ENDBRANCH   1   2
BRANCH   1  26
ATOM     26  O   UNL     1      -4.328   0.095  -7.751  1.00  0.00    -0.376 OA
BRANCH  26  27
ATOM     27  C   UNL     1      -5.468   0.421  -8.532  1.00  0.00     0.202 C 
BRANCH  27  28
ATOM     28  C   UNL     1      -6.447   1.557  -8.172  1.00  0.00     0.261 C 
BRANCH  28  29
ATOM     29  O   UNL     1      -5.865   2.770  -7.672  1.00  0.00    -0.460 OA
BRANCH  29  30
ATOM     30  C   UNL     1      -6.162   3.076  -6.380  1.00  0.00     0.338 C 
ATOM     31  O   UNL     1      -6.874   2.456  -5.616  1.00  0.00    -0.246 OA
BRANCH  30  32
ATOM     32  C   UNL     1      -5.301   4.197  -5.949  1.00  0.00     0.060 A 
ATOM     33  C   UNL     1      -4.277   3.936  -5.027  1.00  0.00     0.016 A 
ATOM     34  C   UNL     1      -5.504   5.488  -6.435  1.00  0.00     0.016 A 
ATOM     35  C   UNL     1      -3.439   4.965  -4.603  1.00  0.00     0.010 A 
ATOM     36  C   UNL     1      -4.686   6.529  -5.977  1.00  0.00     0.010 A 
ATOM     37  C   UNL     1      -3.659   6.274  -5.050  1.00  0.00    -0.014 A 
BRANCH  37  38
ATOM     38  C   UNL     1      -2.957   7.385  -4.364  1.00  0.00     0.031 A 
ATOM     39  C   UNL     1      -3.640   8.033  -3.192  1.00  0.00     0.074 A 
ATOM     40  C   UNL     1      -1.714   7.765  -4.712  1.00  0.00     0.049 A 
ATOM     41  N   UNL     1      -3.220   8.998  -2.416  1.00  0.00    -0.248 NA
ATOM     42  C   UNL     1      -4.972   7.511  -2.841  1.00  0.00     0.031 C 
ATOM     43  C   UNL     1      -0.910   7.170  -5.778  1.00  0.00     0.029 A 
ATOM     44  N   UNL     1      -0.904   8.743  -4.185  1.00  0.00    -0.354 N 
ATOM     45  C   UNL     1      -4.229   9.191  -1.483  1.00  0.00     0.074 A 
ATOM     46  C   UNL     1      -5.298   8.275  -1.810  1.00  0.00     0.031 C 
ATOM     47  C   UNL     1       0.282   7.793  -5.822  1.00  0.00     0.029 A 
ATOM     48  C   UNL     1       0.314   8.851  -4.811  1.00  0.00     0.049 A 
ATOM     49  H   UNL     1      -1.173   9.313  -3.429  1.00  0.00     0.167 HD
ATOM     50  C   UNL     1      -4.261  10.046  -0.435  1.00  0.00     0.031 A 
ATOM     51  C   UNL     1       1.330   9.713  -4.601  1.00  0.00     0.031 A 
ATOM     52  C   UNL     1      -3.212  10.972  -0.114  1.00  0.00     0.049 A 
ATOM     53  C   UNL     1       1.213  10.751  -3.511  1.00  0.00     0.074 A 
ATOM     54  C   UNL     1      -3.160  11.881   0.927  1.00  0.00     0.029 A 
ATOM     55  N   UNL     1      -2.038  11.114  -0.834  1.00  0.00    -0.354 N 
ATOM     56  N   UNL     1       0.264  10.910  -2.620  1.00  0.00    -0.248 NA
ATOM     57  C   UNL     1       2.305  11.731  -3.401  1.00  0.00     0.031 C 
ATOM     58  C   UNL     1      -1.982  12.621   0.798  1.00  0.00     0.029 A 
ATOM     59  C   UNL     1      -1.273  12.128  -0.286  1.00  0.00     0.049 A 
ATOM     60  H   UNL     1      -1.785  10.575  -1.618  1.00  0.00     0.167 HD
ATOM     61  C   UNL     1       0.652  11.992  -1.838  1.00  0.00     0.074 A 
ATOM     62  C   UNL     1       1.932  12.440  -2.343  1.00  0.00     0.031 C 
ATOM     63  C   UNL     1      -0.000  12.567  -0.797  1.00  0.00     0.031 A 
BRANCH  50  64
ATOM     64  C   UNL     1      -5.488  10.035   0.429  1.00  0.00    -0.014 A 
ATOM     65  C   UNL     1      -5.751   8.967   1.301  1.00  0.00     0.009 A 
ATOM     66  C   UNL     1      -6.366  11.130   0.407  1.00  0.00     0.009 A 
ATOM     67  C   UNL     1      -6.885   8.985   2.115  1.00  0.00     0.001 A 
ATOM     68  C   UNL     1      -7.481  11.158   1.244  1.00  0.00     0.001 A 
ATOM     69  C   UNL     1      -7.744  10.083   2.092  1.00  0.00     0.000 A 
ENDBRANCH  50  64
BRANCH  51  70
ATOM     70  C   UNL     1       2.550   9.655  -5.452  1.00  0.00    -0.014 A 
ATOM     71  C   UNL     1       3.787   9.280  -4.905  1.00  0.00     0.009 A 
ATOM     72  C   UNL     1       2.490   9.996  -6.813  1.00  0.00     0.009 A 
ATOM     73  C   UNL     1       4.938   9.262  -5.699  1.00  0.00     0.001 A 
ATOM     74  C   UNL     1       3.636   9.950  -7.610  1.00  0.00     0.001 A 
ATOM     75  C   UNL     1       4.860   9.590  -7.051  1.00  0.00     0.000 A 
ENDBRANCH  51  70
BRANCH  63  76
ATOM     76  C   UNL     1       0.639  13.749  -0.122  1.00  0.00    -0.014 A 
ATOM     77  C   UNL     1       0.655  15.008  -0.741  1.00  0.00     0.009 A 
ATOM     78  C   UNL     1       1.111  13.633   1.196  1.00  0.00     0.009 A 
ATOM     79  C   UNL     1       1.134  16.126  -0.055  1.00  0.00     0.001 A 
ATOM     80  C   UNL     1       1.563  14.758   1.889  1.00  0.00     0.001 A 
ATOM     81  C   UNL     1       1.576  16.002   1.262  1.00  0.00     0.000 A 
ENDBRANCH  63  76
ENDBRANCH  37  38
ENDBRANCH  30  32
ENDBRANCH  29  30
ENDBRANCH  28  29
ENDBRANCH  27  28
ENDBRANCH  26  27
ENDBRANCH   1  26
TORSDOF 18
