REMARK SMILES C[C@@H](C(=O)OCCOCCOCCOC(=O)c1ccc(-c2c3nc(c(-c4ccccc4)c4ccc([nH]4)c(-c4ccccc4)c4nc(c(-c5ccccc5)c5ccc2[nH]5)C=C4)C=C3)cc1)N(C)c1ccc(C(N)=O)nn1
REMARK SMILES IDX 9 1 8 2 7 3 6 4 5 5 3 6 4 7 2 8 1 9 65 10 66 11 67 12 68 13
REMARK SMILES IDX 75 14 69 15 74 16 70 17 71 18 72 19 73 20 10 23 11 24 12 25
REMARK SMILES IDX 13 26 14 27 15 28 16 29 17 30 18 31 64 32 19 33 63 34 20 35
REMARK SMILES IDX 21 36 22 37 57 38 23 39 62 40 56 41 58 42 24 43 61 44 55 45
REMARK SMILES IDX 54 46 25 48 47 49 32 50 46 51 33 52 36 53 45 54 59 55 34 56
REMARK SMILES IDX 35 57 44 59 60 60 37 61 26 62 27 63 31 64 28 65 30 66 29 67
REMARK SMILES IDX 48 68 49 69 53 70 50 71 52 72 51 73 38 74 39 75 43 76 40 77
REMARK SMILES IDX 42 78 41 79
REMARK H PARENT 72 21 72 22 58 47 36 58
REMARK Flexibility Score: inf
ROOT
ATOM      1  C   UNL     1       0.916   1.494   3.650  1.00  0.00     0.188 C 
ENDROOT
BRANCH   1   2
ATOM      2  O   UNL     1       1.665   1.208   4.813  1.00  0.00    -0.376 OA
BRANCH   2   3
ATOM      3  C   UNL     1       2.739   0.298   4.670  1.00  0.00     0.202 C 
BRANCH   3   4
ATOM      4  C   UNL     1       2.503  -1.023   3.904  1.00  0.00     0.261 C 
BRANCH   4   5
ATOM      5  O   UNL     1       2.021  -0.905   2.534  1.00  0.00    -0.462 OA
BRANCH   5   6
ATOM      6  C   UNL     1       0.778  -1.403   2.233  1.00  0.00     0.328 C 
ATOM      7  O   UNL     1       0.098  -2.033   3.039  1.00  0.00    -0.250 OA
BRANCH   6   8
ATOM      8  C   UNL     1       0.326  -1.173   0.745  1.00  0.00     0.190 C 
ATOM      9  C   UNL     1       1.274  -0.483  -0.235  1.00  0.00     0.044 C 
BRANCH   8  10
ATOM     10  N   UNL     1      -1.109  -0.727   0.545  1.00  0.00    -0.345 N 
ATOM     11  C   UNL     1      -2.103  -1.729   0.928  1.00  0.00     0.146 C 
BRANCH  10  12
ATOM     12  C   UNL     1      -1.565   0.593   0.781  1.00  0.00     0.151 A 
ATOM     13  C   UNL     1      -1.744   1.666  -0.620  1.00  0.00     0.051 A 
ATOM     14  N   UNL     1      -1.949   1.136   2.338  1.00  0.00    -0.132 NA
ATOM     15  C   UNL     1      -2.270   3.371  -0.497  1.00  0.00     0.040 A 
ATOM     16  N   UNL     1      -2.475   2.797   2.595  1.00  0.00    -0.143 NA
ATOM     17  C   UNL     1      -2.664   4.046   1.112  1.00  0.00     0.150 A 
BRANCH  17  18
ATOM     18  C   UNL     1      -2.832   5.574   1.061  1.00  0.00     0.269 C 
ATOM     19  N   UNL     1      -3.833   6.262   1.704  1.00  0.00    -0.364 N 
ATOM     20  O   UNL     1      -2.122   6.213   0.287  1.00  0.00    -0.268 OA
ATOM     21  H   UNL     1      -4.428   5.793   2.334  1.00  0.00     0.160 HD
ATOM     22  H   UNL     1      -3.956   7.224   1.536  1.00  0.00     0.160 HD
ENDBRANCH  17  18
ENDBRANCH  10  12
ENDBRANCH   8  10
ENDBRANCH   6   8
ENDBRANCH   5   6
ENDBRANCH   4   5
ENDBRANCH   3   4
ENDBRANCH   2   3
ENDBRANCH   1   2
BRANCH   1  23
ATOM     23  C   UNL     1       1.677   1.864   2.355  1.00  0.00     0.188 C 
BRANCH  23  24
ATOM     24  O   UNL     1       3.063   2.071   2.388  1.00  0.00    -0.376 OA
BRANCH  24  25
ATOM     25  C   UNL     1       3.539   3.321   2.856  1.00  0.00     0.202 C 
BRANCH  25  26
ATOM     26  C   UNL     1       2.655   4.580   3.023  1.00  0.00     0.261 C 
BRANCH  26  27
ATOM     27  O   UNL     1       1.274   4.365   3.367  1.00  0.00    -0.460 OA
BRANCH  27  28
ATOM     28  C   UNL     1       0.397   4.718   2.393  1.00  0.00     0.338 C 
ATOM     29  O   UNL     1       0.652   5.322   1.364  1.00  0.00    -0.246 OA
BRANCH  28  30
ATOM     30  C   UNL     1      -0.879   3.999   2.528  1.00  0.00     0.060 A 
ATOM     31  C   UNL     1      -1.254   2.754   1.298  1.00  0.00     0.016 A 
ATOM     32  C   UNL     1      -2.169   4.602   3.510  1.00  0.00     0.016 A 
ATOM     33  C   UNL     1      -3.178   2.184   1.067  1.00  0.00     0.010 A 
ATOM     34  C   UNL     1      -3.848   4.101   3.313  1.00  0.00     0.010 A 
ATOM     35  C   UNL     1      -4.404   2.989   2.080  1.00  0.00    -0.014 A 
BRANCH  35  36
ATOM     36  C   UNL     1      -5.855   2.913   1.809  1.00  0.00     0.031 A 
ATOM     37  C   UNL     1      -6.596   3.974   1.026  1.00  0.00     0.074 A 
ATOM     38  C   UNL     1      -6.525   1.959   2.458  1.00  0.00     0.049 A 
ATOM     39  N   UNL     1      -7.843   4.369   1.116  1.00  0.00    -0.248 NA
ATOM     40  C   UNL     1      -5.824   4.742   0.047  1.00  0.00     0.031 C 
ATOM     41  C   UNL     1      -5.905   0.885   3.230  1.00  0.00     0.029 A 
ATOM     42  N   UNL     1      -7.869   1.778   2.610  1.00  0.00    -0.354 N 
ATOM     43  C   UNL     1      -7.958   5.497   0.295  1.00  0.00     0.074 A 
ATOM     44  C   UNL     1      -6.642   5.748  -0.240  1.00  0.00     0.031 C 
ATOM     45  C   UNL     1      -6.876   0.172   3.817  1.00  0.00     0.029 A 
ATOM     46  C   UNL     1      -8.165   0.775   3.493  1.00  0.00     0.049 A 
ATOM     47  H   UNL     1      -8.550   2.310   2.137  1.00  0.00     0.167 HD
ATOM     48  C   UNL     1      -9.067   6.220  -0.015  1.00  0.00     0.031 A 
ATOM     49  C   UNL     1      -9.350   0.414   4.010  1.00  0.00     0.031 A 
ATOM     50  C   UNL     1     -10.394   5.799   0.369  1.00  0.00     0.049 A 
ATOM     51  C   UNL     1     -10.580   1.145   3.567  1.00  0.00     0.074 A 
ATOM     52  C   UNL     1     -11.617   6.330  -0.005  1.00  0.00     0.029 A 
ATOM     53  N   UNL     1     -10.666   4.697   1.167  1.00  0.00    -0.354 N 
ATOM     54  N   UNL     1     -10.678   2.228   2.830  1.00  0.00    -0.248 NA
ATOM     55  C   UNL     1     -11.863   0.579   3.990  1.00  0.00     0.031 C 
ATOM     56  C   UNL     1     -12.625   5.569   0.595  1.00  0.00     0.029 A 
ATOM     57  C   UNL     1     -12.033   4.528   1.293  1.00  0.00     0.049 A 
ATOM     58  H   UNL     1      -9.985   4.119   1.583  1.00  0.00     0.167 HD
ATOM     59  C   UNL     1     -12.038   2.455   2.673  1.00  0.00     0.074 A 
ATOM     60  C   UNL     1     -12.719   1.383   3.375  1.00  0.00     0.031 C 
ATOM     61  C   UNL     1     -12.672   3.453   2.008  1.00  0.00     0.031 A 
BRANCH  48  62
ATOM     62  C   UNL     1      -8.939   7.496  -0.830  1.00  0.00    -0.014 A 
ATOM     63  C   UNL     1      -8.455   7.513  -2.148  1.00  0.00     0.009 A 
ATOM     64  C   UNL     1      -9.415   8.710  -0.293  1.00  0.00     0.009 A 
ATOM     65  C   UNL     1      -8.400   8.706  -2.882  1.00  0.00     0.001 A 
ATOM     66  C   UNL     1      -9.403   9.892  -1.043  1.00  0.00     0.001 A 
ATOM     67  C   UNL     1      -8.883   9.892  -2.334  1.00  0.00     0.000 A 
ENDBRANCH  48  62
BRANCH  49  68
ATOM     68  C   UNL     1      -9.386  -0.737   4.941  1.00  0.00    -0.014 A 
ATOM     69  C   UNL     1      -9.837  -1.984   4.489  1.00  0.00     0.009 A 
ATOM     70  C   UNL     1      -8.838  -0.631   6.229  1.00  0.00     0.009 A 
ATOM     71  C   UNL     1      -9.741  -3.107   5.310  1.00  0.00     0.001 A 
ATOM     72  C   UNL     1      -8.714  -1.763   7.036  1.00  0.00     0.001 A 
ATOM     73  C   UNL     1      -9.169  -2.998   6.577  1.00  0.00     0.000 A 
ENDBRANCH  49  68
BRANCH  61  74
ATOM     74  C   UNL     1     -14.173   3.397   1.990  1.00  0.00    -0.014 A 
ATOM     75  C   UNL     1     -14.923   3.651   3.148  1.00  0.00     0.009 A 
ATOM     76  C   UNL     1     -14.842   3.093   0.794  1.00  0.00     0.009 A 
ATOM     77  C   UNL     1     -16.314   3.546   3.122  1.00  0.00     0.001 A 
ATOM     78  C   UNL     1     -16.235   3.025   0.762  1.00  0.00     0.001 A 
ATOM     79  C   UNL     1     -16.968   3.236   1.929  1.00  0.00     0.000 A 
ENDBRANCH  61  74
ENDBRANCH  35  36
ENDBRANCH  28  30
ENDBRANCH  27  28
ENDBRANCH  26  27
ENDBRANCH  25  26
ENDBRANCH  24  25
ENDBRANCH  23  24
ENDBRANCH   1  23
TORSDOF 20
