REMARK SMILES COc1ccc(CSc2ncccc2C(=O)OCCOCCOCCOC(=O)c2ccc(-c3c4nc(c(-c5ccccc5)c5ccc([nH]5)c(-c5ccccc5)c5nc(c(-c6ccccc6)c6ccc3[nH]6)C=C5)C=C4)cc2)cc1
REMARK SMILES IDX 21 1 20 2 19 3 18 4 17 5 15 6 16 7 14 8 9 9 10 10 11 11
REMARK SMILES IDX 13 12 12 13 8 14 7 15 6 16 3 17 4 18 78 19 5 20 77 21 2 22
REMARK SMILES IDX 1 23 22 24 23 25 24 26 25 27 26 28 27 29 28 30 29 31 30 32
REMARK SMILES IDX 76 33 31 34 75 35 32 36 33 37 34 38 69 39 35 40 74 41 68 42
REMARK SMILES IDX 70 43 36 44 73 45 67 46 66 47 37 49 59 50 44 51 58 52 45 53
REMARK SMILES IDX 48 54 57 55 71 56 46 57 47 58 56 60 72 61 49 62 38 63 39 64
REMARK SMILES IDX 43 65 40 66 42 67 41 68 60 69 61 70 65 71 62 72 64 73 63 74
REMARK SMILES IDX 50 75 51 76 55 77 52 78 54 79 53 80
REMARK H PARENT 70 48 48 59
REMARK Flexibility Score: inf
ROOT
ATOM      1  C   UNL     1       5.286  -2.574   8.472  1.00  0.00     0.188 C 
ENDROOT
BRANCH   1   2
ATOM      2  O   UNL     1       6.184  -3.493   7.864  1.00  0.00    -0.376 OA
BRANCH   2   3
ATOM      3  C   UNL     1       6.213  -3.483   6.441  1.00  0.00     0.202 C 
BRANCH   3   4
ATOM      4  C   UNL     1       6.927  -2.260   5.859  1.00  0.00     0.261 C 
BRANCH   4   5
ATOM      5  O   UNL     1       6.217  -1.032   6.101  1.00  0.00    -0.460 OA
BRANCH   5   6
ATOM      6  C   UNL     1       5.034  -0.891   5.454  1.00  0.00     0.340 C 
ATOM      7  O   UNL     1       4.596  -1.653   4.624  1.00  0.00    -0.246 OA
BRANCH   6   8
ATOM      8  C   UNL     1       4.388   0.344   5.930  1.00  0.00     0.092 A 
ATOM      9  C   UNL     1       3.138   0.405   6.551  1.00  0.00     0.111 A 
ATOM     10  N   UNL     1       2.654   1.595   7.014  1.00  0.00    -0.249 NA
ATOM     11  C   UNL     1       3.404   2.711   6.886  1.00  0.00     0.112 A 
ATOM     12  C   UNL     1       5.147   1.524   5.815  1.00  0.00     0.020 A 
ATOM     13  C   UNL     1       4.655   2.724   6.310  1.00  0.00     0.021 A 
BRANCH   9  14
ATOM     14  S   UNL     1       2.121  -0.926   7.167  1.00  0.00    -0.101 SA
BRANCH  14  15
ATOM     15  C   UNL     1       1.795  -2.034   5.769  1.00  0.00     0.112 C 
BRANCH  15  16
ATOM     16  C   UNL     1       1.306  -1.403   4.496  1.00  0.00    -0.037 A 
ATOM     17  C   UNL     1       0.437  -0.283   2.058  1.00  0.00     0.118 A 
ATOM     18  C   UNL     1      -0.265  -0.045   3.243  1.00  0.00     0.047 A 
ATOM     19  C   UNL     1       1.556  -1.109   2.089  1.00  0.00     0.047 A 
ATOM     20  C   UNL     1       0.163  -0.599   4.454  1.00  0.00     0.008 A 
ATOM     21  C   UNL     1       1.967  -1.681   3.292  1.00  0.00     0.008 A 
BRANCH  17  22
ATOM     22  O   UNL     1      -0.065   0.331   0.945  1.00  0.00    -0.497 OA
ATOM     23  C   UNL     1       0.657   0.130  -0.265  1.00  0.00     0.278 C 
ENDBRANCH  17  22
ENDBRANCH  15  16
ENDBRANCH  14  15
ENDBRANCH   9  14
ENDBRANCH   6   8
ENDBRANCH   5   6
ENDBRANCH   4   5
ENDBRANCH   3   4
ENDBRANCH   2   3
ENDBRANCH   1   2
BRANCH   1  24
ATOM     24  C   UNL     1       5.918  -1.278   9.023  1.00  0.00     0.188 C 
BRANCH  24  25
ATOM     25  O   UNL     1       7.310  -1.226   9.306  1.00  0.00    -0.376 OA
BRANCH  25  26
ATOM     26  C   UNL     1       7.941  -2.366   9.870  1.00  0.00     0.202 C 
BRANCH  26  27
ATOM     27  C   UNL     1       7.493  -2.816  11.265  1.00  0.00     0.261 C 
BRANCH  27  28
ATOM     28  O   UNL     1       6.078  -3.038  11.385  1.00  0.00    -0.460 OA
BRANCH  28  29
ATOM     29  C   UNL     1       5.418  -2.145  12.163  1.00  0.00     0.338 C 
ATOM     30  O   UNL     1       5.896  -1.224  12.802  1.00  0.00    -0.246 OA
BRANCH  29  31
ATOM     31  C   UNL     1       3.959  -2.333  12.021  1.00  0.00     0.060 A 
ATOM     32  C   UNL     1       3.187  -1.222  11.653  1.00  0.00     0.016 A 
ATOM     33  C   UNL     1       3.347  -3.550  12.327  1.00  0.00     0.016 A 
ATOM     34  C   UNL     1       1.796  -1.311  11.631  1.00  0.00     0.010 A 
ATOM     35  C   UNL     1       1.950  -3.631  12.330  1.00  0.00     0.010 A 
ATOM     36  C   UNL     1       1.170  -2.502  12.019  1.00  0.00    -0.014 A 
BRANCH  36  37
ATOM     37  C   UNL     1      -0.288  -2.506  12.287  1.00  0.00     0.031 A 
ATOM     38  C   UNL     1      -0.763  -2.254  13.693  1.00  0.00     0.074 A 
ATOM     39  C   UNL     1      -1.180  -2.710  11.304  1.00  0.00     0.049 A 
ATOM     40  N   UNL     1      -1.982  -2.241  14.168  1.00  0.00    -0.248 NA
ATOM     41  C   UNL     1       0.280  -1.978  14.695  1.00  0.00     0.031 C 
ATOM     42  C   UNL     1      -0.858  -2.912   9.893  1.00  0.00     0.029 A 
ATOM     43  N   UNL     1      -2.550  -2.788  11.356  1.00  0.00    -0.354 N 
ATOM     44  C   UNL     1      -1.854  -1.958  15.522  1.00  0.00     0.074 A 
ATOM     45  C   UNL     1      -0.439  -1.833  15.798  1.00  0.00     0.031 C 
ATOM     46  C   UNL     1      -2.002  -3.107   9.212  1.00  0.00     0.029 A 
ATOM     47  C   UNL     1      -3.129  -3.069  10.144  1.00  0.00     0.049 A 
ATOM     48  H   UNL     1      -3.067  -2.654  12.182  1.00  0.00     0.167 HD
ATOM     49  C   UNL     1      -2.824  -1.812  16.455  1.00  0.00     0.031 A 
ATOM     50  C   UNL     1      -4.419  -3.290   9.827  1.00  0.00     0.031 A 
ATOM     51  C   UNL     1      -4.230  -1.959  16.195  1.00  0.00     0.049 A 
ATOM     52  C   UNL     1      -5.474  -3.214  10.898  1.00  0.00     0.074 A 
ATOM     53  C   UNL     1      -5.290  -1.821  17.074  1.00  0.00     0.029 A 
ATOM     54  N   UNL     1      -4.771  -2.291  14.963  1.00  0.00    -0.354 N 
ATOM     55  N   UNL     1      -5.344  -2.924  12.170  1.00  0.00    -0.248 NA
ATOM     56  C   UNL     1      -6.858  -3.494  10.485  1.00  0.00     0.031 C 
ATOM     57  C   UNL     1      -6.471  -2.121  16.385  1.00  0.00     0.029 A 
ATOM     58  C   UNL     1      -6.148  -2.394  15.066  1.00  0.00     0.049 A 
ATOM     59  H   UNL     1      -4.254  -2.433  14.138  1.00  0.00     0.167 HD
ATOM     60  C   UNL     1      -6.628  -2.959  12.702  1.00  0.00     0.074 A 
ATOM     61  C   UNL     1      -7.524  -3.292  11.614  1.00  0.00     0.031 C 
ATOM     62  C   UNL     1      -7.028  -2.732  13.977  1.00  0.00     0.031 A 
BRANCH  49  63
ATOM     63  C   UNL     1      -2.382  -1.518  17.860  1.00  0.00    -0.014 A 
ATOM     64  C   UNL     1      -1.878  -0.256  18.215  1.00  0.00     0.009 A 
ATOM     65  C   UNL     1      -2.475  -2.516  18.841  1.00  0.00     0.009 A 
ATOM     66  C   UNL     1      -1.443  -0.013  19.520  1.00  0.00     0.001 A 
ATOM     67  C   UNL     1      -2.062  -2.262  20.150  1.00  0.00     0.001 A 
ATOM     68  C   UNL     1      -1.537  -1.015  20.485  1.00  0.00     0.000 A 
ENDBRANCH  49  63
BRANCH  50  69
ATOM     69  C   UNL     1      -4.789  -3.631   8.430  1.00  0.00    -0.014 A 
ATOM     70  C   UNL     1      -5.475  -2.709   7.626  1.00  0.00     0.009 A 
ATOM     71  C   UNL     1      -4.466  -4.889   7.899  1.00  0.00     0.009 A 
ATOM     72  C   UNL     1      -5.847  -3.049   6.323  1.00  0.00     0.001 A 
ATOM     73  C   UNL     1      -4.818  -5.217   6.588  1.00  0.00     0.001 A 
ATOM     74  C   UNL     1      -5.514  -4.299   5.804  1.00  0.00     0.000 A 
ENDBRANCH  50  69
BRANCH  62  75
ATOM     75  C   UNL     1      -8.501  -2.806  14.263  1.00  0.00    -0.014 A 
ATOM     76  C   UNL     1      -9.170  -4.038  14.325  1.00  0.00     0.009 A 
ATOM     77  C   UNL     1      -9.220  -1.628  14.521  1.00  0.00     0.009 A 
ATOM     78  C   UNL     1     -10.536  -4.086  14.614  1.00  0.00     0.001 A 
ATOM     79  C   UNL     1     -10.579  -1.680  14.834  1.00  0.00     0.001 A 
ATOM     80  C   UNL     1     -11.237  -2.908  14.873  1.00  0.00     0.000 A 
ENDBRANCH  62  75
ENDBRANCH  36  37
ENDBRANCH  29  31
ENDBRANCH  28  29
ENDBRANCH  27  28
ENDBRANCH  26  27
ENDBRANCH  25  26
ENDBRANCH  24  25
ENDBRANCH   1  24
TORSDOF 21
