REMARK SMILES C[C@H]1c2ccc(O)cc2OC(=O)[C@@H]1CC(=O)N[C@@H](CC1=c2ccccc2=NC1)C(=O)OCCOCCOCCOC(=O)c1ccc(-c2c3nc(c(-c4ccccc4)c4ccc([nH]4)c(-c4ccccc4)c4nc(c(-c5ccccc5)c5ccc2[nH]5)C=C4)C=C3)cc1
REMARK SMILES IDX 35 1 34 2 33 3 32 4 31 5 29 6 30 7 18 8 17 9 15 10 16 11
REMARK SMILES IDX 14 13 13 14 1 15 2 16 3 17 4 18 9 19 11 20 5 21 8 22 10 23
REMARK SMILES IDX 12 24 6 25 7 26 19 28 20 29 21 30 28 31 22 32 26 33 27 34
REMARK SMILES IDX 23 35 25 36 24 37 36 38 37 39 38 40 39 41 40 42 41 43 42 44
REMARK SMILES IDX 43 45 44 46 90 47 45 48 89 49 46 50 47 51 48 52 83 53 49 54
REMARK SMILES IDX 88 55 82 56 84 57 50 58 87 59 81 60 80 61 51 63 73 64 58 65
REMARK SMILES IDX 72 66 59 67 62 68 71 69 85 70 60 71 61 72 70 74 86 75 63 76
REMARK SMILES IDX 52 77 53 78 57 79 54 80 56 81 55 82 74 83 75 84 79 85 76 86
REMARK SMILES IDX 78 87 77 88 64 89 65 90 69 91 66 92 68 93 67 94
REMARK H PARENT 17 12 7 27 84 62 62 73
REMARK Flexibility Score: inf
ROOT
ATOM      1  C   UNL     1       1.500   7.035  -3.018  1.00  0.00     0.188 C 
ENDROOT
BRANCH   1   2
ATOM      2  O   UNL     1       2.086   8.327  -3.040  1.00  0.00    -0.376 OA
BRANCH   2   3
ATOM      3  C   UNL     1       3.363   8.512  -3.644  1.00  0.00     0.202 C 
BRANCH   3   4
ATOM      4  C   UNL     1       4.504   7.527  -3.347  1.00  0.00     0.261 C 
BRANCH   4   5
ATOM      5  O   UNL     1       4.213   6.156  -3.690  1.00  0.00    -0.462 OA
BRANCH   5   6
ATOM      6  C   UNL     1       4.263   5.285  -2.661  1.00  0.00     0.329 C 
ATOM      7  O   UNL     1       4.610   5.584  -1.518  1.00  0.00    -0.250 OA
BRANCH   6   8
ATOM      8  C   UNL     1       3.904   3.833  -3.006  1.00  0.00     0.196 C 
BRANCH   8   9
ATOM      9  N   UNL     1       3.060   3.350  -4.117  1.00  0.00    -0.342 N 
ATOM     10  C   UNL     1       2.006   2.470  -4.110  1.00  0.00     0.221 C 
ATOM     11  O   UNL     1       1.674   1.941  -5.172  1.00  0.00    -0.275 OA
ATOM     12  H   UNL     1       3.288   3.716  -5.002  1.00  0.00     0.164 HD
BRANCH  10  13
ATOM     13  C   UNL     1       1.157   2.253  -2.856  1.00  0.00     0.116 C 
BRANCH  13  14
ATOM     14  C   UNL     1       1.482   1.015  -1.993  1.00  0.00     0.116 C 
ATOM     15  C   UNL     1       0.750  -0.528  -0.080  1.00  0.00     0.014 C 
ATOM     16  C   UNL     1       0.515   0.809  -0.798  1.00  0.00     0.034 C 
ATOM     17  C   UNL     1       0.698   1.931   0.193  1.00  0.00    -0.001 A 
ATOM     18  C   UNL     1      -0.288   2.288   1.112  1.00  0.00     0.011 A 
ATOM     19  C   UNL     1       1.913   2.620   0.220  1.00  0.00     0.138 A 
ATOM     20  C   UNL     1       2.860   1.105  -1.402  1.00  0.00     0.315 C 
ATOM     21  C   UNL     1      -0.061   3.355   1.983  1.00  0.00     0.047 A 
ATOM     22  C   UNL     1       2.107   3.755   0.995  1.00  0.00     0.093 A 
ATOM     23  O   UNL     1       3.030   2.123  -0.474  1.00  0.00    -0.426 OA
ATOM     24  O   UNL     1       3.784   0.376  -1.737  1.00  0.00    -0.251 OA
ATOM     25  C   UNL     1       1.103   4.116   1.877  1.00  0.00     0.119 A 
BRANCH  25  26
ATOM     26  O   UNL     1       1.242   5.209   2.676  1.00  0.00    -0.508 OA
ATOM     27  H   UNL     1       0.557   5.445   3.270  1.00  0.00     0.293 HD
ENDBRANCH  25  26
ENDBRANCH  13  14
ENDBRANCH  10  13
ENDBRANCH   8   9
BRANCH   8  28
ATOM     28  C   UNL     1       5.243   3.068  -2.971  1.00  0.00     0.070 C 
BRANCH  28  29
ATOM     29  C   UNL     1       6.219   3.164  -4.160  1.00  0.00    -0.037 C 
ATOM     30  C   UNL     1       5.753   3.316  -5.405  1.00  0.00     0.001 A 
ATOM     31  C   UNL     1       7.080   1.910  -4.176  1.00  0.00     0.174 C 
ATOM     32  C   UNL     1       5.922   4.334  -6.407  1.00  0.00     0.010 A 
ATOM     33  C   UNL     1       5.789   1.921  -5.902  1.00  0.00     0.065 A 
ATOM     34  N   UNL     1       6.490   1.061  -5.235  1.00  0.00    -0.280 NA
ATOM     35  C   UNL     1       5.510   4.039  -7.656  1.00  0.00     0.001 A 
ATOM     36  C   UNL     1       4.996   1.702  -7.127  1.00  0.00     0.028 A 
ATOM     37  C   UNL     1       4.861   2.763  -7.943  1.00  0.00     0.002 A 
ENDBRANCH  28  29
ENDBRANCH   8  28
ENDBRANCH   6   8
ENDBRANCH   5   6
ENDBRANCH   4   5
ENDBRANCH   3   4
ENDBRANCH   2   3
ENDBRANCH   1   2
BRANCH   1  38
ATOM     38  C   UNL     1       1.431   6.212  -4.314  1.00  0.00     0.188 C 
BRANCH  38  39
ATOM     39  O   UNL     1       2.194   6.696  -5.388  1.00  0.00    -0.376 OA
BRANCH  39  40
ATOM     40  C   UNL     1       1.555   7.380  -6.450  1.00  0.00     0.202 C 
BRANCH  40  41
ATOM     41  C   UNL     1       0.218   8.141  -6.313  1.00  0.00     0.261 C 
BRANCH  41  42
ATOM     42  O   UNL     1      -0.614   7.859  -5.181  1.00  0.00    -0.460 OA
BRANCH  42  43
ATOM     43  C   UNL     1      -1.536   6.867  -5.328  1.00  0.00     0.338 C 
ATOM     44  O   UNL     1      -1.735   6.194  -6.310  1.00  0.00    -0.246 OA
BRANCH  43  45
ATOM     45  C   UNL     1      -2.096   6.584  -3.980  1.00  0.00     0.060 A 
ATOM     46  C   UNL     1      -2.778   7.574  -3.275  1.00  0.00     0.016 A 
ATOM     47  C   UNL     1      -1.905   5.315  -3.409  1.00  0.00     0.016 A 
ATOM     48  C   UNL     1      -3.303   7.282  -2.013  1.00  0.00     0.010 A 
ATOM     49  C   UNL     1      -2.405   5.034  -2.132  1.00  0.00     0.010 A 
ATOM     50  C   UNL     1      -3.136   6.008  -1.438  1.00  0.00    -0.014 A 
BRANCH  50  51
ATOM     51  C   UNL     1      -3.897   5.658  -0.209  1.00  0.00     0.031 A 
ATOM     52  C   UNL     1      -3.311   5.761   1.164  1.00  0.00     0.074 A 
ATOM     53  C   UNL     1      -5.189   5.311  -0.350  1.00  0.00     0.049 A 
ATOM     54  N   UNL     1      -3.863   5.487   2.322  1.00  0.00    -0.248 NA
ATOM     55  C   UNL     1      -1.931   6.242   1.250  1.00  0.00     0.031 C 
ATOM     56  C   UNL     1      -5.899   5.247  -1.626  1.00  0.00     0.029 A 
ATOM     57  N   UNL     1      -6.143   5.013   0.589  1.00  0.00    -0.354 N 
ATOM     58  C   UNL     1      -2.869   5.684   3.275  1.00  0.00     0.074 A 
ATOM     59  C   UNL     1      -1.720   6.189   2.559  1.00  0.00     0.031 C 
ATOM     60  C   UNL     1      -7.197   5.013  -1.385  1.00  0.00     0.029 A 
ATOM     61  C   UNL     1      -7.398   4.858   0.055  1.00  0.00     0.049 A 
ATOM     62  H   UNL     1      -5.948   4.920   1.549  1.00  0.00     0.167 HD
ATOM     63  C   UNL     1      -2.905   5.420   4.606  1.00  0.00     0.031 A 
ATOM     64  C   UNL     1      -8.586   4.643   0.653  1.00  0.00     0.031 A 
ATOM     65  C   UNL     1      -4.106   5.058   5.320  1.00  0.00     0.049 A 
ATOM     66  C   UNL     1      -8.659   4.549   2.151  1.00  0.00     0.074 A 
ATOM     67  C   UNL     1      -4.269   4.853   6.681  1.00  0.00     0.029 A 
ATOM     68  N   UNL     1      -5.357   4.909   4.744  1.00  0.00    -0.354 N 
ATOM     69  N   UNL     1      -7.692   4.641   3.030  1.00  0.00    -0.248 NA
ATOM     70  C   UNL     1      -9.989   4.339   2.743  1.00  0.00     0.031 C 
ATOM     71  C   UNL     1      -5.610   4.553   6.924  1.00  0.00     0.029 A 
ATOM     72  C   UNL     1      -6.296   4.642   5.725  1.00  0.00     0.049 A 
ATOM     73  H   UNL     1      -5.549   4.983   3.781  1.00  0.00     0.167 HD
ATOM     74  C   UNL     1      -8.295   4.516   4.276  1.00  0.00     0.074 A 
ATOM     75  C   UNL     1      -9.716   4.369   4.042  1.00  0.00     0.031 C 
ATOM     76  C   UNL     1      -7.713   4.513   5.499  1.00  0.00     0.031 A 
BRANCH  63  77
ATOM     77  C   UNL     1      -1.620   5.464   5.404  1.00  0.00    -0.014 A 
ATOM     78  C   UNL     1      -1.174   4.290   6.043  1.00  0.00     0.009 A 
ATOM     79  C   UNL     1      -0.909   6.650   5.626  1.00  0.00     0.009 A 
ATOM     80  C   UNL     1      -0.065   4.306   6.893  1.00  0.00     0.001 A 
ATOM     81  C   UNL     1       0.232   6.655   6.437  1.00  0.00     0.001 A 
ATOM     82  C   UNL     1       0.644   5.489   7.080  1.00  0.00     0.000 A 
ENDBRANCH  63  77
BRANCH  64  83
ATOM     83  C   UNL     1      -9.807   4.585  -0.191  1.00  0.00    -0.014 A 
ATOM     84  C   UNL     1     -10.003   3.530  -1.097  1.00  0.00     0.009 A 
ATOM     85  C   UNL     1     -10.735   5.636  -0.161  1.00  0.00     0.009 A 
ATOM     86  C   UNL     1     -11.082   3.548  -1.982  1.00  0.00     0.001 A 
ATOM     87  C   UNL     1     -11.834   5.633  -1.022  1.00  0.00     0.001 A 
ATOM     88  C   UNL     1     -11.999   4.597  -1.940  1.00  0.00     0.000 A 
ENDBRANCH  64  83
BRANCH  76  89
ATOM     89  C   UNL     1      -8.588   4.367   6.715  1.00  0.00    -0.014 A 
ATOM     90  C   UNL     1      -8.683   5.427   7.633  1.00  0.00     0.009 A 
ATOM     91  C   UNL     1      -9.195   3.143   7.030  1.00  0.00     0.009 A 
ATOM     92  C   UNL     1      -9.347   5.258   8.850  1.00  0.00     0.001 A 
ATOM     93  C   UNL     1      -9.884   2.985   8.236  1.00  0.00     0.001 A 
ATOM     94  C   UNL     1      -9.948   4.037   9.149  1.00  0.00     0.000 A 
ENDBRANCH  76  89
ENDBRANCH  50  51
ENDBRANCH  43  45
ENDBRANCH  42  43
ENDBRANCH  41  42
ENDBRANCH  40  41
ENDBRANCH  39  40
ENDBRANCH  38  39
ENDBRANCH   1  38
TORSDOF 23
