REMARK SMILES O=C(OCCOCCOCCOC(=O)[C@@H]1CC[C@H](CNC(=O)c2cccn2C2CC2)O1)c1ccc(-c2c3nc(c(-c4ccccc4)c4ccc([nH]4)c(-c4ccccc4)c4nc(c(-c5ccccc5)c5ccc2[nH]5)C=C4)C=C3)cc1
REMARK SMILES IDX 8 1 7 2 6 3 5 4 4 5 3 6 2 7 1 8 32 9 33 10 79 11 34 12 78 13
REMARK SMILES IDX 35 14 36 15 37 16 72 17 38 18 77 19 71 20 73 21 39 22 76 23
REMARK SMILES IDX 70 24 69 25 40 27 62 28 47 29 61 30 48 31 51 32 60 33 74 34
REMARK SMILES IDX 49 35 50 36 59 38 75 39 52 40 41 41 42 42 46 43 43 44 45 45
REMARK SMILES IDX 44 46 63 47 64 48 68 49 65 50 67 51 66 52 53 53 54 54 58 55
REMARK SMILES IDX 55 56 57 57 56 58 9 59 10 60 11 61 12 62 13 63 14 64 15 65
REMARK SMILES IDX 16 66 31 67 17 68 18 69 19 70 20 71 21 72 22 74 23 75 24 76
REMARK SMILES IDX 27 77 25 78 26 79 28 80 29 81 30 82
REMARK H PARENT 73 26 51 37 20 73
REMARK Flexibility Score: inf
ROOT
ATOM      1  C   UNL     1       2.538   1.528  -2.106  1.00  0.00     0.188 C 
ENDROOT
BRANCH   1   2
ATOM      2  C   UNL     1       3.368   1.475  -0.808  1.00  0.00     0.188 C 
BRANCH   2   3
ATOM      3  O   UNL     1       4.737   1.162  -1.005  1.00  0.00    -0.376 OA
BRANCH   3   4
ATOM      4  C   UNL     1       5.151  -0.081  -0.461  1.00  0.00     0.202 C 
BRANCH   4   5
ATOM      5  C   UNL     1       4.560  -1.325  -1.142  1.00  0.00     0.261 C 
BRANCH   5   6
ATOM      6  O   UNL     1       3.115  -1.398  -1.195  1.00  0.00    -0.460 OA
BRANCH   6   7
ATOM      7  C   UNL     1       2.145  -1.671  -0.303  1.00  0.00     0.338 C 
ATOM      8  O   UNL     1       0.984  -1.748  -0.706  1.00  0.00    -0.246 OA
BRANCH   7   9
ATOM      9  C   UNL     1       2.368  -1.775   1.168  1.00  0.00     0.060 A 
ATOM     10  C   UNL     1       3.611  -1.869   1.787  1.00  0.00     0.016 A 
ATOM     11  C   UNL     1       1.217  -1.797   1.986  1.00  0.00     0.016 A 
ATOM     12  C   UNL     1       3.723  -1.914   3.172  1.00  0.00     0.010 A 
ATOM     13  C   UNL     1       1.315  -1.925   3.374  1.00  0.00     0.010 A 
ATOM     14  C   UNL     1       2.577  -1.989   3.965  1.00  0.00    -0.014 A 
BRANCH  14  15
ATOM     15  C   UNL     1       2.775  -2.343   5.387  1.00  0.00     0.031 A 
ATOM     16  C   UNL     1       2.937  -1.191   6.348  1.00  0.00     0.074 A 
ATOM     17  C   UNL     1       2.911  -3.675   5.631  1.00  0.00     0.049 A 
ATOM     18  N   UNL     1       3.571  -1.156   7.482  1.00  0.00    -0.248 NA
ATOM     19  C   UNL     1       2.363   0.122   5.980  1.00  0.00     0.031 C 
ATOM     20  C   UNL     1       2.753  -4.703   4.588  1.00  0.00     0.029 A 
ATOM     21  N   UNL     1       3.220  -4.433   6.740  1.00  0.00    -0.354 N 
ATOM     22  C   UNL     1       3.364   0.118   8.030  1.00  0.00     0.074 A 
ATOM     23  C   UNL     1       2.691   0.890   7.021  1.00  0.00     0.031 C 
ATOM     24  C   UNL     1       3.014  -5.922   5.083  1.00  0.00     0.029 A 
ATOM     25  C   UNL     1       3.350  -5.815   6.488  1.00  0.00     0.049 A 
ATOM     26  H   UNL     1       3.340  -4.042   7.636  1.00  0.00     0.167 HD
ATOM     27  C   UNL     1       3.645   0.451   9.322  1.00  0.00     0.031 A 
ATOM     28  C   UNL     1       3.728  -6.826   7.322  1.00  0.00     0.031 A 
ATOM     29  C   UNL     1       4.290  -0.599  10.042  1.00  0.00     0.049 A 
ATOM     30  C   UNL     1       3.930  -6.255   8.671  1.00  0.00     0.074 A 
ATOM     31  C   UNL     1       5.561  -1.114  10.097  1.00  0.00     0.029 A 
ATOM     32  N   UNL     1       3.486  -1.417  10.799  1.00  0.00    -0.354 N 
ATOM     33  N   UNL     1       2.983  -5.809   9.441  1.00  0.00    -0.248 NA
ATOM     34  C   UNL     1       5.291  -6.102   9.197  1.00  0.00     0.031 C 
ATOM     35  C   UNL     1       5.413  -2.438  10.592  1.00  0.00     0.029 A 
ATOM     36  C   UNL     1       4.050  -2.675  10.766  1.00  0.00     0.049 A 
ATOM     37  H   UNL     1       2.665  -1.155  11.274  1.00  0.00     0.167 HD
ATOM     38  C   UNL     1       3.650  -5.011  10.344  1.00  0.00     0.074 A 
ATOM     39  C   UNL     1       5.032  -5.429  10.317  1.00  0.00     0.031 C 
ATOM     40  C   UNL     1       3.141  -3.799  10.684  1.00  0.00     0.031 A 
BRANCH  27  41
ATOM     41  C   UNL     1       3.177   1.657  10.090  1.00  0.00    -0.014 A 
ATOM     42  C   UNL     1       3.880   2.019  11.259  1.00  0.00     0.009 A 
ATOM     43  C   UNL     1       1.945   2.286   9.863  1.00  0.00     0.009 A 
ATOM     44  C   UNL     1       3.360   2.935  12.178  1.00  0.00     0.001 A 
ATOM     45  C   UNL     1       1.438   3.232  10.765  1.00  0.00     0.001 A 
ATOM     46  C   UNL     1       2.135   3.540  11.931  1.00  0.00     0.000 A 
ENDBRANCH  27  41
BRANCH  28  47
ATOM     47  C   UNL     1       4.014  -8.292   7.127  1.00  0.00    -0.014 A 
ATOM     48  C   UNL     1       3.870  -8.991   5.922  1.00  0.00     0.009 A 
ATOM     49  C   UNL     1       4.502  -9.055   8.214  1.00  0.00     0.009 A 
ATOM     50  C   UNL     1       4.245 -10.339   5.789  1.00  0.00     0.001 A 
ATOM     51  C   UNL     1       4.899 -10.392   8.086  1.00  0.00     0.001 A 
ATOM     52  C   UNL     1       4.779 -11.034   6.865  1.00  0.00     0.000 A 
ENDBRANCH  28  47
BRANCH  40  53
ATOM     53  C   UNL     1       1.660  -3.649  10.390  1.00  0.00    -0.014 A 
ATOM     54  C   UNL     1       0.696  -4.362  11.111  1.00  0.00     0.009 A 
ATOM     55  C   UNL     1       1.215  -2.870   9.307  1.00  0.00     0.009 A 
ATOM     56  C   UNL     1      -0.659  -4.293  10.755  1.00  0.00     0.001 A 
ATOM     57  C   UNL     1      -0.133  -2.783   8.957  1.00  0.00     0.001 A 
ATOM     58  C   UNL     1      -1.073  -3.503   9.682  1.00  0.00     0.000 A 
ENDBRANCH  40  53
ENDBRANCH  14  15
ENDBRANCH   7   9
ENDBRANCH   6   7
ENDBRANCH   5   6
ENDBRANCH   4   5
ENDBRANCH   3   4
ENDBRANCH   2   3
ENDBRANCH   1   2
BRANCH   1  59
ATOM     59  O   UNL     1       3.152   1.136  -3.330  1.00  0.00    -0.376 OA
BRANCH  59  60
ATOM     60  C   UNL     1       4.375   1.761  -3.721  1.00  0.00     0.202 C 
BRANCH  60  61
ATOM     61  C   UNL     1       4.415   3.290  -3.681  1.00  0.00     0.261 C 
BRANCH  61  62
ATOM     62  O   UNL     1       4.236   3.782  -2.342  1.00  0.00    -0.461 OA
BRANCH  62  63
ATOM     63  C   UNL     1       3.603   4.984  -2.248  1.00  0.00     0.335 C 
ATOM     64  O   UNL     1       3.316   5.684  -3.202  1.00  0.00    -0.249 OA
BRANCH  63  65
ATOM     65  C   UNL     1       3.211   5.283  -0.786  1.00  0.00     0.228 C 
ATOM     66  C   UNL     1       1.715   5.037  -0.568  1.00  0.00     0.047 C 
ATOM     67  O   UNL     1       3.453   6.655  -0.437  1.00  0.00    -0.361 OA
ATOM     68  C   UNL     1       1.198   6.333   0.026  1.00  0.00     0.037 C 
ATOM     69  C   UNL     1       2.199   7.364  -0.462  1.00  0.00     0.138 C 
BRANCH  69  70
ATOM     70  C   UNL     1       1.927   7.858  -1.891  1.00  0.00     0.148 C 
BRANCH  70  71
ATOM     71  N   UNL     1       1.137   9.076  -1.962  1.00  0.00    -0.348 N 
ATOM     72  C   UNL     1       1.548  10.324  -2.309  1.00  0.00     0.268 C 
ATOM     73  H   UNL     1       0.185   8.986  -1.730  1.00  0.00     0.163 HD
ATOM     74  O   UNL     1       0.653  11.194  -2.448  1.00  0.00    -0.268 OA
BRANCH  72  75
ATOM     75  C   UNL     1       2.934  10.598  -2.541  1.00  0.00     0.107 A 
ATOM     76  C   UNL     1       3.734  10.057  -3.554  1.00  0.00     0.033 A 
ATOM     77  N   UNL     1       3.735  11.512  -1.883  1.00  0.00    -0.340 N 
ATOM     78  C   UNL     1       5.016  10.641  -3.485  1.00  0.00     0.020 A 
ATOM     79  C   UNL     1       4.979  11.557  -2.461  1.00  0.00     0.086 A 
BRANCH  77  80
ATOM     80  C   UNL     1       3.469  12.293  -0.687  1.00  0.00     0.087 C 
ATOM     81  C   UNL     1       2.119  12.703  -0.141  1.00  0.00     0.027 C 
ATOM     82  C   UNL     1       2.896  11.642   0.559  1.00  0.00     0.027 C 
ENDBRANCH  77  80
ENDBRANCH  72  75
ENDBRANCH  70  71
ENDBRANCH  69  70
ENDBRANCH  63  65
ENDBRANCH  62  63
ENDBRANCH  61  62
ENDBRANCH  60  61
ENDBRANCH  59  60
ENDBRANCH   1  59
TORSDOF 21
