REMARK SMILES O=C(OCCOCCOCCOC(=O)[C@@H]1CN(C(=O)[C@H]2CC=CCC2)c2ccccc2O1)c1ccc(-c2c3nc(c(-c4ccccc4)c4ccc([nH]4)c(-c4ccccc4)c4nc(c(-c5ccccc5)c5ccc2[nH]5)C=C4)C=C3)cc1
REMARK SMILES IDX 7 1 6 2 5 3 4 4 3 5 2 6 1 7 33 8 34 9 80 10 35 11 79 12
REMARK SMILES IDX 36 13 37 14 38 15 73 16 39 17 78 18 72 19 74 20 40 21 77 22
REMARK SMILES IDX 71 23 70 24 41 26 63 27 48 28 62 29 49 30 52 31 61 32 75 33
REMARK SMILES IDX 50 34 51 35 60 37 76 38 53 39 42 40 43 41 47 42 44 43 46 44
REMARK SMILES IDX 45 45 64 46 65 47 69 48 66 49 68 50 67 51 54 52 55 53 59 54
REMARK SMILES IDX 56 55 58 56 57 57 8 58 9 59 10 60 11 61 12 62 13 63 14 64
REMARK SMILES IDX 15 65 16 66 32 67 17 68 31 69 26 70 30 71 27 72 29 73 28 74
REMARK SMILES IDX 18 75 19 76 20 77 21 78 25 79 22 80 24 81 23 82
REMARK H PARENT 74 25 52 36
REMARK Flexibility Score: inf
ROOT
ATOM      1  C   UNL     1       2.654   1.430  -0.258  1.00  0.00     0.188 C 
ENDROOT
BRANCH   1   2
ATOM      2  O   UNL     1       4.076   1.378  -0.095  1.00  0.00    -0.376 OA
BRANCH   2   3
ATOM      3  C   UNL     1       4.797   1.185  -1.313  1.00  0.00     0.202 C 
BRANCH   3   4
ATOM      4  C   UNL     1       4.968  -0.280  -1.745  1.00  0.00     0.261 C 
BRANCH   4   5
ATOM      5  O   UNL     1       3.808  -1.089  -1.510  1.00  0.00    -0.460 OA
BRANCH   5   6
ATOM      6  C   UNL     1       3.444  -1.760  -0.394  1.00  0.00     0.338 C 
ATOM      7  O   UNL     1       2.340  -2.310  -0.403  1.00  0.00    -0.246 OA
BRANCH   6   8
ATOM      8  C   UNL     1       4.278  -1.914   0.849  1.00  0.00     0.060 A 
ATOM      9  C   UNL     1       5.389  -1.155   1.228  1.00  0.00     0.016 A 
ATOM     10  C   UNL     1       3.822  -2.876   1.769  1.00  0.00     0.016 A 
ATOM     11  C   UNL     1       6.005  -1.324   2.484  1.00  0.00     0.010 A 
ATOM     12  C   UNL     1       4.400  -3.012   3.040  1.00  0.00     0.010 A 
ATOM     13  C   UNL     1       5.484  -2.212   3.428  1.00  0.00    -0.014 A 
BRANCH  13  14
ATOM     14  C   UNL     1       6.173  -2.420   4.732  1.00  0.00     0.031 A 
ATOM     15  C   UNL     1       6.862  -3.729   4.910  1.00  0.00     0.074 A 
ATOM     16  C   UNL     1       6.159  -1.550   5.766  1.00  0.00     0.049 A 
ATOM     17  N   UNL     1       7.410  -4.217   5.987  1.00  0.00    -0.248 NA
ATOM     18  C   UNL     1       6.798  -4.663   3.773  1.00  0.00     0.031 C 
ATOM     19  C   UNL     1       5.290  -0.400   5.882  1.00  0.00     0.029 A 
ATOM     20  N   UNL     1       6.869  -1.495   6.945  1.00  0.00    -0.354 N 
ATOM     21  C   UNL     1       7.693  -5.531   5.670  1.00  0.00     0.074 A 
ATOM     22  C   UNL     1       7.146  -5.792   4.359  1.00  0.00     0.031 C 
ATOM     23  C   UNL     1       5.587   0.328   6.962  1.00  0.00     0.029 A 
ATOM     24  C   UNL     1       6.640  -0.347   7.682  1.00  0.00     0.049 A 
ATOM     25  H   UNL     1       7.484  -2.207   7.235  1.00  0.00     0.167 HD
ATOM     26  C   UNL     1       8.409  -6.425   6.384  1.00  0.00     0.031 A 
ATOM     27  C   UNL     1       7.177   0.101   8.832  1.00  0.00     0.031 A 
ATOM     28  C   UNL     1       8.987  -6.124   7.660  1.00  0.00     0.049 A 
ATOM     29  C   UNL     1       8.079  -0.850   9.549  1.00  0.00     0.074 A 
ATOM     30  C   UNL     1       9.784  -6.918   8.458  1.00  0.00     0.029 A 
ATOM     31  N   UNL     1       8.845  -4.902   8.311  1.00  0.00    -0.354 N 
ATOM     32  N   UNL     1       8.391  -2.078   9.213  1.00  0.00    -0.248 NA
ATOM     33  C   UNL     1       8.655  -0.397  10.818  1.00  0.00     0.031 C 
ATOM     34  C   UNL     1      10.129  -6.174   9.593  1.00  0.00     0.029 A 
ATOM     35  C   UNL     1       9.574  -4.907   9.486  1.00  0.00     0.049 A 
ATOM     36  H   UNL     1       8.305  -4.146   7.983  1.00  0.00     0.167 HD
ATOM     37  C   UNL     1       9.184  -2.558  10.236  1.00  0.00     0.074 A 
ATOM     38  C   UNL     1       9.345  -1.468  11.183  1.00  0.00     0.031 C 
ATOM     39  C   UNL     1       9.709  -3.796  10.392  1.00  0.00     0.031 A 
BRANCH  26  40
ATOM     40  C   UNL     1       8.611  -7.753   5.720  1.00  0.00    -0.014 A 
ATOM     41  C   UNL     1       9.368  -7.840   4.535  1.00  0.00     0.009 A 
ATOM     42  C   UNL     1       7.920  -8.883   6.172  1.00  0.00     0.009 A 
ATOM     43  C   UNL     1       9.355  -9.005   3.770  1.00  0.00     0.001 A 
ATOM     44  C   UNL     1       7.946 -10.063   5.425  1.00  0.00     0.001 A 
ATOM     45  C   UNL     1       8.642 -10.115   4.215  1.00  0.00     0.000 A 
ENDBRANCH  26  40
BRANCH  27  46
ATOM     46  C   UNL     1       6.854   1.447   9.397  1.00  0.00    -0.014 A 
ATOM     47  C   UNL     1       7.844   2.442   9.485  1.00  0.00     0.009 A 
ATOM     48  C   UNL     1       5.568   1.751   9.871  1.00  0.00     0.009 A 
ATOM     49  C   UNL     1       7.564   3.686  10.063  1.00  0.00     0.001 A 
ATOM     50  C   UNL     1       5.279   3.009  10.413  1.00  0.00     0.001 A 
ATOM     51  C   UNL     1       6.281   3.971  10.523  1.00  0.00     0.000 A 
ENDBRANCH  27  46
BRANCH  39  52
ATOM     52  C   UNL     1      10.551  -3.991  11.611  1.00  0.00    -0.014 A 
ATOM     53  C   UNL     1       9.972  -4.128  12.881  1.00  0.00     0.009 A 
ATOM     54  C   UNL     1      11.945  -4.040  11.473  1.00  0.00     0.009 A 
ATOM     55  C   UNL     1      10.785  -4.281  14.002  1.00  0.00     0.001 A 
ATOM     56  C   UNL     1      12.752  -4.222  12.592  1.00  0.00     0.001 A 
ATOM     57  C   UNL     1      12.172  -4.334  13.856  1.00  0.00     0.000 A 
ENDBRANCH  39  52
ENDBRANCH  13  14
ENDBRANCH   6   8
ENDBRANCH   5   6
ENDBRANCH   4   5
ENDBRANCH   3   4
ENDBRANCH   2   3
ENDBRANCH   1   2
BRANCH   1  58
ATOM     58  C   UNL     1       2.079   2.780  -0.710  1.00  0.00     0.188 C 
BRANCH  58  59
ATOM     59  O   UNL     1       3.015   3.562  -1.444  1.00  0.00    -0.376 OA
BRANCH  59  60
ATOM     60  C   UNL     1       3.431   4.763  -0.795  1.00  0.00     0.202 C 
BRANCH  60  61
ATOM     61  C   UNL     1       4.153   4.569   0.538  1.00  0.00     0.261 C 
BRANCH  61  62
ATOM     62  O   UNL     1       3.315   4.034   1.579  1.00  0.00    -0.460 OA
BRANCH  62  63
ATOM     63  C   UNL     1       2.439   4.872   2.195  1.00  0.00     0.349 C 
ATOM     64  O   UNL     1       2.232   6.025   1.846  1.00  0.00    -0.248 OA
BRANCH  63  65
ATOM     65  C   UNL     1       1.813   4.234   3.449  1.00  0.00     0.302 C 
ATOM     66  C   UNL     1       2.930   3.874   4.420  1.00  0.00     0.183 C 
ATOM     67  O   UNL     1       0.870   3.187   3.288  1.00  0.00    -0.475 OA
ATOM     68  N   UNL     1       3.672   2.706   3.965  1.00  0.00    -0.304 N 
ATOM     69  C   UNL     1       1.369   1.925   3.490  1.00  0.00     0.144 A 
ATOM     70  C   UNL     1       2.739   1.648   3.624  1.00  0.00     0.086 A 
ATOM     71  C   UNL     1       0.407   0.904   3.536  1.00  0.00     0.049 A 
ATOM     72  C   UNL     1       3.089   0.317   3.557  1.00  0.00     0.030 A 
ATOM     73  C   UNL     1       0.794  -0.411   3.738  1.00  0.00     0.004 A 
ATOM     74  C   UNL     1       2.142  -0.699   3.735  1.00  0.00     0.002 A 
BRANCH  68  75
ATOM     75  C   UNL     1       5.065   2.620   3.869  1.00  0.00     0.230 C 
ATOM     76  O   UNL     1       5.624   1.663   3.314  1.00  0.00    -0.274 OA
BRANCH  75  77
ATOM     77  C   UNL     1       6.042   3.716   4.419  1.00  0.00     0.083 C 
ATOM     78  C   UNL     1       5.974   5.124   3.813  1.00  0.00     0.040 C 
ATOM     79  C   UNL     1       6.265   3.763   5.933  1.00  0.00     0.018 C 
ATOM     80  C   UNL     1       5.380   6.182   4.705  1.00  0.00    -0.030 C 
ATOM     81  C   UNL     1       5.297   4.663   6.690  1.00  0.00     0.028 C 
ATOM     82  C   UNL     1       5.053   5.967   5.989  1.00  0.00    -0.031 C 
ENDBRANCH  75  77
ENDBRANCH  68  75
ENDBRANCH  63  65
ENDBRANCH  62  63
ENDBRANCH  61  62
ENDBRANCH  60  61
ENDBRANCH  59  60
ENDBRANCH  58  59
ENDBRANCH   1  58
TORSDOF 19
