REMARK SMILES O=C(Cn1ccc(C(=O)NCCC[NH+]2CCOCC2)n1)OCCOCCOCCOC(=O)c1ccc(-c2c3nc(c(-c4ccccc4)c4ccc([nH]4)c(-c4ccccc4)c4nc(c(-c5ccccc5)c5ccc2[nH]5)C=C4)C=C3)cc1
REMARK SMILES IDX 23 1 22 2 21 3 2 4 1 5 3 6 4 7 5 8 20 9 6 10 7 11 8 12 9 13
REMARK SMILES IDX 10 14 11 16 12 17 13 18 14 19 15 20 19 21 16 23 18 24 17 25
REMARK SMILES IDX 24 26 25 27 26 28 27 29 28 30 29 31 30 32 31 33 32 34 33 35
REMARK SMILES IDX 34 36 80 37 35 38 79 39 36 40 37 41 38 42 73 43 39 44 78 45
REMARK SMILES IDX 72 46 74 47 40 48 77 49 71 50 70 51 41 53 63 54 48 55 62 56
REMARK SMILES IDX 49 57 52 58 61 59 75 60 50 61 51 62 60 64 76 65 53 66 42 67
REMARK SMILES IDX 43 68 47 69 44 70 46 71 45 72 64 73 65 74 69 75 66 76 68 77
REMARK SMILES IDX 67 78 54 79 55 80 59 81 56 82 58 83 57 84
REMARK H PARENT 10 15 14 22 74 52 52 63
REMARK Flexibility Score: inf
ROOT
ATOM      1  C   UNL     1       4.681   0.598  -0.074  1.00  0.00     0.202 C 
ENDROOT
BRANCH   1   2
ATOM      2  C   UNL     1       4.114  -0.824  -0.137  1.00  0.00     0.261 C 
BRANCH   2   3
ATOM      3  O   UNL     1       2.708  -0.984   0.177  1.00  0.00    -0.462 OA
BRANCH   3   4
ATOM      4  C   UNL     1       2.016  -0.688   1.302  1.00  0.00     0.327 C 
ATOM      5  O   UNL     1       0.804  -0.912   1.318  1.00  0.00    -0.250 OA
BRANCH   4   6
ATOM      6  C   UNL     1       2.672   0.029   2.454  1.00  0.00     0.266 C 
BRANCH   6   7
ATOM      7  N   UNL     1       3.762  -0.715   3.040  1.00  0.00    -0.261 N 
ATOM      8  C   UNL     1       5.005  -0.277   3.384  1.00  0.00     0.110 A 
ATOM      9  N   UNL     1       3.605  -2.025   3.224  1.00  0.00    -0.167 NA
ATOM     10  C   UNL     1       5.743  -1.420   3.613  1.00  0.00     0.056 A 
ATOM     11  C   UNL     1       4.849  -2.503   3.386  1.00  0.00     0.150 A 
BRANCH  11  12
ATOM     12  C   UNL     1       5.169  -3.939   3.324  1.00  0.00     0.271 C 
ATOM     13  O   UNL     1       6.150  -4.405   3.903  1.00  0.00    -0.267 OA
ATOM     14  N   UNL     1       4.400  -4.782   2.541  1.00  0.00    -0.350 N 
ATOM     15  H   UNL     1       4.671  -5.728   2.551  1.00  0.00     0.163 HD
BRANCH  14  16
ATOM     16  C   UNL     1       3.246  -4.476   1.704  1.00  0.00     0.122 C 
BRANCH  16  17
ATOM     17  C   UNL     1       3.409  -4.934   0.260  1.00  0.00     0.083 C 
BRANCH  17  18
ATOM     18  C   UNL     1       2.757  -6.276  -0.073  1.00  0.00     0.264 C 
BRANCH  18  19
ATOM     19  N   UNL     1       1.311  -6.445   0.150  1.00  0.00    -0.331 N 
ATOM     20  C   UNL     1       0.767  -7.490  -0.755  1.00  0.00     0.291 C 
ATOM     21  C   UNL     1       0.449  -5.251   0.022  1.00  0.00     0.291 C 
ATOM     22  H   UNL     1       1.274  -6.701   1.136  1.00  0.00     0.348 HD
ATOM     23  C   UNL     1       0.531  -6.987  -2.195  1.00  0.00     0.221 C 
ATOM     24  C   UNL     1       0.200  -4.788  -1.419  1.00  0.00     0.221 C 
ATOM     25  O   UNL     1      -0.339  -5.849  -2.217  1.00  0.00    -0.370 OA
ENDBRANCH  18  19
ENDBRANCH  17  18
ENDBRANCH  16  17
ENDBRANCH  14  16
ENDBRANCH  11  12
ENDBRANCH   6   7
ENDBRANCH   4   6
ENDBRANCH   3   4
ENDBRANCH   2   3
ENDBRANCH   1   2
BRANCH   1  26
ATOM     26  O   UNL     1       4.175   1.544  -1.005  1.00  0.00    -0.376 OA
BRANCH  26  27
ATOM     27  C   UNL     1       2.770   1.692  -1.095  1.00  0.00     0.188 C 
BRANCH  27  28
ATOM     28  C   UNL     1       2.177   1.241  -2.441  1.00  0.00     0.188 C 
BRANCH  28  29
ATOM     29  O   UNL     1       2.964   0.426  -3.301  1.00  0.00    -0.376 OA
BRANCH  29  30
ATOM     30  C   UNL     1       4.232   0.891  -3.763  1.00  0.00     0.202 C 
BRANCH  30  31
ATOM     31  C   UNL     1       4.351   2.312  -4.315  1.00  0.00     0.261 C 
BRANCH  31  32
ATOM     32  O   UNL     1       4.344   3.286  -3.266  1.00  0.00    -0.460 OA
BRANCH  32  33
ATOM     33  C   UNL     1       3.293   4.132  -3.258  1.00  0.00     0.338 C 
ATOM     34  O   UNL     1       2.356   4.142  -4.036  1.00  0.00    -0.246 OA
BRANCH  33  35
ATOM     35  C   UNL     1       3.438   5.121  -2.172  1.00  0.00     0.060 A 
ATOM     36  C   UNL     1       2.400   6.048  -2.041  1.00  0.00     0.016 A 
ATOM     37  C   UNL     1       4.635   5.265  -1.455  1.00  0.00     0.016 A 
ATOM     38  C   UNL     1       2.655   7.248  -1.410  1.00  0.00     0.010 A 
ATOM     39  C   UNL     1       4.888   6.466  -0.813  1.00  0.00     0.010 A 
ATOM     40  C   UNL     1       3.941   7.487  -0.918  1.00  0.00    -0.014 A 
BRANCH  40  41
ATOM     41  C   UNL     1       4.324   8.887  -0.798  1.00  0.00     0.031 A 
ATOM     42  C   UNL     1       3.801   9.665   0.342  1.00  0.00     0.074 A 
ATOM     43  C   UNL     1       5.129   9.460  -1.717  1.00  0.00     0.049 A 
ATOM     44  N   UNL     1       3.097  10.750   0.307  1.00  0.00    -0.248 NA
ATOM     45  C   UNL     1       4.095   9.165   1.689  1.00  0.00     0.031 C 
ATOM     46  C   UNL     1       5.925   8.784  -2.749  1.00  0.00     0.029 A 
ATOM     47  N   UNL     1       5.487  10.770  -1.850  1.00  0.00    -0.354 N 
ATOM     48  C   UNL     1       2.993  11.171   1.626  1.00  0.00     0.074 A 
ATOM     49  C   UNL     1       3.549  10.118   2.443  1.00  0.00     0.031 C 
ATOM     50  C   UNL     1       6.836   9.649  -3.239  1.00  0.00     0.029 A 
ATOM     51  C   UNL     1       6.599  10.958  -2.654  1.00  0.00     0.049 A 
ATOM     52  H   UNL     1       5.003  11.509  -1.417  1.00  0.00     0.167 HD
ATOM     53  C   UNL     1       2.645  12.440   1.963  1.00  0.00     0.031 A 
ATOM     54  C   UNL     1       7.331  12.086  -2.784  1.00  0.00     0.031 A 
ATOM     55  C   UNL     1       1.968  13.145   0.913  1.00  0.00     0.049 A 
ATOM     56  C   UNL     1       6.522  13.232  -2.323  1.00  0.00     0.074 A 
ATOM     57  C   UNL     1       0.797  12.963   0.206  1.00  0.00     0.029 A 
ATOM     58  N   UNL     1       2.661  14.123   0.245  1.00  0.00    -0.354 N 
ATOM     59  N   UNL     1       5.501  13.714  -2.970  1.00  0.00    -0.248 NA
ATOM     60  C   UNL     1       6.652  13.678  -0.944  1.00  0.00     0.031 C 
ATOM     61  C   UNL     1       1.033  13.533  -1.079  1.00  0.00     0.029 A 
ATOM     62  C   UNL     1       2.342  14.019  -1.085  1.00  0.00     0.049 A 
ATOM     63  H   UNL     1       3.276  14.780   0.646  1.00  0.00     0.167 HD
ATOM     64  C   UNL     1       4.647  14.186  -1.985  1.00  0.00     0.074 A 
ATOM     65  C   UNL     1       5.470  14.277  -0.786  1.00  0.00     0.031 C 
ATOM     66  C   UNL     1       3.293  14.180  -2.163  1.00  0.00     0.031 A 
BRANCH  53  67
ATOM     67  C   UNL     1       3.232  13.141   3.157  1.00  0.00    -0.014 A 
ATOM     68  C   UNL     1       2.667  14.347   3.603  1.00  0.00     0.009 A 
ATOM     69  C   UNL     1       4.483  12.781   3.698  1.00  0.00     0.009 A 
ATOM     70  C   UNL     1       3.332  15.157   4.532  1.00  0.00     0.001 A 
ATOM     71  C   UNL     1       5.128  13.565   4.657  1.00  0.00     0.001 A 
ATOM     72  C   UNL     1       4.559  14.764   5.061  1.00  0.00     0.000 A 
ENDBRANCH  53  67
BRANCH  54  73
ATOM     73  C   UNL     1       8.774  12.190  -3.080  1.00  0.00    -0.014 A 
ATOM     74  C   UNL     1       9.330  13.386  -3.553  1.00  0.00     0.009 A 
ATOM     75  C   UNL     1       9.655  11.167  -2.680  1.00  0.00     0.009 A 
ATOM     76  C   UNL     1      10.720  13.555  -3.607  1.00  0.00     0.001 A 
ATOM     77  C   UNL     1      11.040  11.331  -2.745  1.00  0.00     0.001 A 
ATOM     78  C   UNL     1      11.573  12.531  -3.197  1.00  0.00     0.000 A 
ENDBRANCH  54  73
BRANCH  66  79
ATOM     79  C   UNL     1       2.772  13.975  -3.564  1.00  0.00    -0.014 A 
ATOM     80  C   UNL     1       3.028  12.804  -4.297  1.00  0.00     0.009 A 
ATOM     81  C   UNL     1       1.892  14.923  -4.108  1.00  0.00     0.009 A 
ATOM     82  C   UNL     1       2.454  12.605  -5.556  1.00  0.00     0.001 A 
ATOM     83  C   UNL     1       1.301  14.715  -5.358  1.00  0.00     0.001 A 
ATOM     84  C   UNL     1       1.589  13.560  -6.084  1.00  0.00     0.000 A 
ENDBRANCH  66  79
ENDBRANCH  40  41
ENDBRANCH  33  35
ENDBRANCH  32  33
ENDBRANCH  31  32
ENDBRANCH  30  31
ENDBRANCH  29  30
ENDBRANCH  28  29
ENDBRANCH  27  28
ENDBRANCH  26  27
ENDBRANCH   1  26
TORSDOF 23
