REMARK SMILES CCNC(=O)c1cccc(-c2ccc(Cl)c(C(=O)OCCOCCOCCOC(=O)c3ccc(-c4c5nc(c(-c6ccccc6)c6ccc([nH]6)c(-c6ccccc6)c6nc(c(-c7ccccc7)c7ccc4[nH]7)C=C6)C=C5)cc3)c2)c1
REMARK SMILES IDX 23 1 22 2 21 3 20 4 19 5 17 6 18 7 16 8 11 9 12 10 79 11
REMARK SMILES IDX 13 12 14 13 15 14 10 15 6 16 7 17 80 18 8 19 9 20 4 21 3 22
REMARK SMILES IDX 5 24 2 25 1 26 24 27 25 28 26 29 27 30 28 31 29 32 30 33
REMARK SMILES IDX 31 34 32 35 78 36 33 37 77 38 34 39 35 40 36 41 71 42 37 43
REMARK SMILES IDX 76 44 70 45 72 46 38 47 75 48 69 49 68 50 39 52 61 53 46 54
REMARK SMILES IDX 60 55 47 56 50 57 59 58 73 59 48 60 49 61 58 63 74 64 51 65
REMARK SMILES IDX 40 66 41 67 45 68 42 69 44 70 43 71 62 72 63 73 67 74 64 75
REMARK SMILES IDX 66 76 65 77 52 78 53 79 57 80 54 81 56 82 55 83
REMARK H PARENT 3 23 72 51 50 62
REMARK Flexibility Score: inf
ROOT
ATOM      1  C   UNL     1      -5.196  -8.457  -1.197  1.00  0.00     0.188 C 
ENDROOT
BRANCH   1   2
ATOM      2  O   UNL     1      -4.478  -9.677  -1.199  1.00  0.00    -0.376 OA
BRANCH   2   3
ATOM      3  C   UNL     1      -3.159  -9.740  -0.677  1.00  0.00     0.202 C 
BRANCH   3   4
ATOM      4  C   UNL     1      -2.124  -8.678  -1.050  1.00  0.00     0.261 C 
BRANCH   4   5
ATOM      5  O   UNL     1      -2.603  -7.347  -0.834  1.00  0.00    -0.460 OA
BRANCH   5   6
ATOM      6  C   UNL     1      -2.475  -6.494  -1.886  1.00  0.00     0.339 C 
ATOM      7  O   UNL     1      -1.899  -6.696  -2.929  1.00  0.00    -0.246 OA
BRANCH   6   8
ATOM      8  C   UNL     1      -3.235  -5.266  -1.564  1.00  0.00     0.079 A 
ATOM      9  C   UNL     1      -3.659  -3.463   0.040  1.00  0.00    -0.017 A 
ATOM     10  C   UNL     1      -4.597  -2.933  -0.858  1.00  0.00     0.010 A 
ATOM     11  C   UNL     1      -3.006  -4.653  -0.324  1.00  0.00     0.026 A 
ATOM     12  C   UNL     1      -4.853  -3.557  -2.085  1.00  0.00     0.022 A 
ATOM     13  C   UNL     1      -4.166  -4.719  -2.447  1.00  0.00     0.055 A 
ATOM     14  Cl  UNL     1      -4.574  -5.445  -3.959  1.00  0.00    -0.083 Cl
BRANCH   9  15
ATOM     15  C   UNL     1      -3.265  -2.749   1.267  1.00  0.00    -0.018 A 
ATOM     16  C   UNL     1      -1.450  -1.862   2.643  1.00  0.00     0.040 A 
ATOM     17  C   UNL     1      -2.372  -1.256   3.495  1.00  0.00     0.014 A 
ATOM     18  C   UNL     1      -1.901  -2.645   1.581  1.00  0.00     0.022 A 
ATOM     19  C   UNL     1      -3.737  -1.384   3.232  1.00  0.00     0.001 A 
ATOM     20  C   UNL     1      -4.179  -2.110   2.117  1.00  0.00     0.009 A 
BRANCH  16  21
ATOM     21  C   UNL     1       0.001  -1.707   2.883  1.00  0.00     0.251 C 
ATOM     22  N   UNL     1       0.857  -1.468   1.834  1.00  0.00    -0.352 N 
ATOM     23  H   UNL     1       1.813  -1.539   2.054  1.00  0.00     0.163 HD
ATOM     24  O   UNL     1       0.438  -1.799   4.026  1.00  0.00    -0.269 OA
BRANCH  22  25
ATOM     25  C   UNL     1       0.570  -1.126   0.447  1.00  0.00     0.112 C 
ATOM     26  C   UNL     1       1.237   0.178   0.054  1.00  0.00     0.027 C 
ENDBRANCH  22  25
ENDBRANCH  16  21
ENDBRANCH   9  15
ENDBRANCH   6   8
ENDBRANCH   5   6
ENDBRANCH   4   5
ENDBRANCH   3   4
ENDBRANCH   2   3
ENDBRANCH   1   2
BRANCH   1  27
ATOM     27  C   UNL     1      -5.441  -7.671   0.110  1.00  0.00     0.188 C 
BRANCH  27  28
ATOM     28  O   UNL     1      -5.106  -8.212   1.372  1.00  0.00    -0.376 OA
BRANCH  28  29
ATOM     29  C   UNL     1      -5.590  -9.493   1.738  1.00  0.00     0.202 C 
BRANCH  29  30
ATOM     30  C   UNL     1      -7.082  -9.819   1.627  1.00  0.00     0.261 C 
BRANCH  30  31
ATOM     31  O   UNL     1      -7.646  -9.555   0.335  1.00  0.00    -0.460 OA
BRANCH  31  32
ATOM     32  C   UNL     1      -8.627  -8.621   0.318  1.00  0.00     0.338 C 
ATOM     33  O   UNL     1      -9.091  -8.008   1.264  1.00  0.00    -0.246 OA
BRANCH  32  34
ATOM     34  C   UNL     1      -8.969  -8.298  -1.078  1.00  0.00     0.060 A 
ATOM     35  C   UNL     1      -8.788  -6.980  -1.518  1.00  0.00     0.016 A 
ATOM     36  C   UNL     1      -9.511  -9.265  -1.925  1.00  0.00     0.016 A 
ATOM     37  C   UNL     1      -9.173  -6.617  -2.808  1.00  0.00     0.010 A 
ATOM     38  C   UNL     1      -9.918  -8.894  -3.209  1.00  0.00     0.010 A 
ATOM     39  C   UNL     1      -9.775  -7.564  -3.646  1.00  0.00    -0.014 A 
BRANCH  39  40
ATOM     40  C   UNL     1     -10.399  -7.137  -4.919  1.00  0.00     0.031 A 
ATOM     41  C   UNL     1     -11.873  -6.847  -4.940  1.00  0.00     0.074 A 
ATOM     42  C   UNL     1      -9.670  -7.014  -6.041  1.00  0.00     0.049 A 
ATOM     43  N   UNL     1     -12.642  -6.530  -5.951  1.00  0.00    -0.248 NA
ATOM     44  C   UNL     1     -12.575  -6.924  -3.648  1.00  0.00     0.031 C 
ATOM     45  C   UNL     1      -8.226  -7.215  -6.142  1.00  0.00     0.029 A 
ATOM     46  N   UNL     1     -10.060  -6.699  -7.319  1.00  0.00    -0.354 N 
ATOM     47  C   UNL     1     -13.916  -6.377  -5.420  1.00  0.00     0.074 A 
ATOM     48  C   UNL     1     -13.822  -6.656  -4.003  1.00  0.00     0.031 C 
ATOM     49  C   UNL     1      -7.852  -7.036  -7.422  1.00  0.00     0.029 A 
ATOM     50  C   UNL     1      -9.034  -6.744  -8.231  1.00  0.00     0.049 A 
ATOM     51  H   UNL     1     -10.985  -6.464  -7.558  1.00  0.00     0.167 HD
ATOM     52  C   UNL     1     -15.062  -6.035  -6.053  1.00  0.00     0.031 A 
ATOM     53  C   UNL     1      -9.055  -6.596  -9.569  1.00  0.00     0.031 A 
ATOM     54  C   UNL     1     -15.164  -5.782  -7.465  1.00  0.00     0.049 A 
ATOM     55  C   UNL     1     -10.361  -6.315 -10.266  1.00  0.00     0.074 A 
ATOM     56  C   UNL     1     -16.281  -5.418  -8.197  1.00  0.00     0.029 A 
ATOM     57  N   UNL     1     -14.111  -5.880  -8.361  1.00  0.00    -0.354 N 
ATOM     58  N   UNL     1     -11.555  -6.146  -9.751  1.00  0.00    -0.248 NA
ATOM     59  C   UNL     1     -10.318  -6.204 -11.732  1.00  0.00     0.031 C 
ATOM     60  C   UNL     1     -15.915  -5.351  -9.546  1.00  0.00     0.029 A 
ATOM     61  C   UNL     1     -14.558  -5.615  -9.644  1.00  0.00     0.049 A 
ATOM     62  H   UNL     1     -13.184  -6.106  -8.120  1.00  0.00     0.167 HD
ATOM     63  C   UNL     1     -12.397  -5.880 -10.825  1.00  0.00     0.074 A 
ATOM     64  C   UNL     1     -11.577  -5.899 -12.018  1.00  0.00     0.031 C 
ATOM     65  C   UNL     1     -13.731  -5.637 -10.822  1.00  0.00     0.031 A 
BRANCH  52  66
ATOM     66  C   UNL     1     -16.310  -5.954  -5.222  1.00  0.00    -0.014 A 
ATOM     67  C   UNL     1     -16.516  -4.901  -4.318  1.00  0.00     0.009 A 
ATOM     68  C   UNL     1     -17.304  -6.934  -5.365  1.00  0.00     0.009 A 
ATOM     69  C   UNL     1     -17.681  -4.848  -3.550  1.00  0.00     0.001 A 
ATOM     70  C   UNL     1     -18.479  -6.864  -4.615  1.00  0.00     0.001 A 
ATOM     71  C   UNL     1     -18.663  -5.827  -3.702  1.00  0.00     0.000 A 
ENDBRANCH  52  66
BRANCH  53  72
ATOM     72  C   UNL     1      -7.802  -6.741 -10.355  1.00  0.00    -0.014 A 
ATOM     73  C   UNL     1      -7.219  -5.630 -10.982  1.00  0.00     0.009 A 
ATOM     74  C   UNL     1      -7.199  -7.999 -10.505  1.00  0.00     0.009 A 
ATOM     75  C   UNL     1      -6.072  -5.781 -11.765  1.00  0.00     0.001 A 
ATOM     76  C   UNL     1      -6.037  -8.143 -11.265  1.00  0.00     0.001 A 
ATOM     77  C   UNL     1      -5.479  -7.035 -11.902  1.00  0.00     0.000 A 
ENDBRANCH  53  72
BRANCH  65  78
ATOM     78  C   UNL     1     -14.384  -5.336 -12.142  1.00  0.00    -0.014 A 
ATOM     79  C   UNL     1     -14.608  -6.343 -13.092  1.00  0.00     0.009 A 
ATOM     80  C   UNL     1     -14.828  -4.032 -12.414  1.00  0.00     0.009 A 
ATOM     81  C   UNL     1     -15.240  -6.043 -14.301  1.00  0.00     0.001 A 
ATOM     82  C   UNL     1     -15.483  -3.741 -13.611  1.00  0.00     0.001 A 
ATOM     83  C   UNL     1     -15.682  -4.745 -14.557  1.00  0.00     0.000 A 
ENDBRANCH  65  78
ENDBRANCH  39  40
ENDBRANCH  32  34
ENDBRANCH  31  32
ENDBRANCH  30  31
ENDBRANCH  29  30
ENDBRANCH  28  29
ENDBRANCH  27  28
ENDBRANCH   1  27
TORSDOF 20
