REMARK SMILES CS(=O)(=O)c1ccc(C2=NN(c3ccc(C(=O)OCCOCCOCCOC(=O)c4ccc(-c5c6nc(c(-c7ccccc7)c7ccc([nH]7)c(-c7ccccc7)c7nc(c(-c8ccccc8)c8ccc5[nH]8)C=C7)C=C6)cc4)cc3)[C@H](c3cccs3)C2)cc1
REMARK SMILES IDX 22 1 21 2 20 3 19 4 18 5 16 6 17 7 15 8 12 9 13 10 79 11
REMARK SMILES IDX 14 12 78 13 11 14 9 15 10 16 86 17 80 18 8 19 5 20 6 21
REMARK SMILES IDX 88 22 7 23 87 24 2 25 1 26 3 27 4 28 81 29 82 30 85 31 83 32
REMARK SMILES IDX 84 33 23 34 24 35 25 36 26 37 27 38 28 39 29 40 30 41 31 42
REMARK SMILES IDX 77 43 32 44 76 45 33 46 34 47 35 48 70 49 36 50 75 51 69 52
REMARK SMILES IDX 71 53 37 54 74 55 68 56 67 57 38 59 60 60 45 61 59 62 46 63
REMARK SMILES IDX 49 64 58 65 72 66 47 67 48 68 57 70 73 71 50 72 39 73 40 74
REMARK SMILES IDX 44 75 41 76 43 77 42 78 61 79 62 80 66 81 63 82 65 83 64 84
REMARK SMILES IDX 51 85 52 86 56 87 53 88 55 89 54 90
REMARK H PARENT 71 58 49 69
REMARK Flexibility Score: inf
ROOT
ATOM      1  C   UNL     1       9.663   8.527   6.134  1.00  0.00     0.188 C 
ENDROOT
BRANCH   1   2
ATOM      2  O   UNL     1      10.635   9.366   6.732  1.00  0.00    -0.376 OA
BRANCH   2   3
ATOM      3  C   UNL     1      10.284  10.222   7.807  1.00  0.00     0.202 C 
BRANCH   3   4
ATOM      4  C   UNL     1       8.962  11.008   7.843  1.00  0.00     0.261 C 
BRANCH   4   5
ATOM      5  O   UNL     1       7.797  10.280   7.438  1.00  0.00    -0.460 OA
BRANCH   5   6
ATOM      6  C   UNL     1       7.226  10.685   6.275  1.00  0.00     0.338 C 
ATOM      7  O   UNL     1       7.572  11.626   5.580  1.00  0.00    -0.246 OA
BRANCH   6   8
ATOM      8  C   UNL     1       6.194   9.709   5.849  1.00  0.00     0.060 A 
ATOM      9  C   UNL     1       4.202   7.944   4.936  1.00  0.00     0.060 A 
ATOM     10  C   UNL     1       5.084   8.543   4.031  1.00  0.00     0.029 A 
ATOM     11  C   UNL     1       4.404   8.162   6.309  1.00  0.00     0.029 A 
ATOM     12  C   UNL     1       6.067   9.431   4.481  1.00  0.00     0.018 A 
ATOM     13  C   UNL     1       5.382   9.046   6.770  1.00  0.00     0.018 A 
BRANCH   9  14
ATOM     14  N   UNL     1       3.068   7.247   4.508  1.00  0.00    -0.257 N 
ATOM     15  C   UNL     1       2.010   6.150   3.020  1.00  0.00     0.071 C 
ATOM     16  N   UNL     1       3.166   6.233   3.606  1.00  0.00    -0.176 NA
ATOM     17  C   UNL     1       1.013   7.222   3.358  1.00  0.00     0.091 C 
ATOM     18  C   UNL     1       1.794   7.990   4.430  1.00  0.00     0.154 C 
BRANCH  15  19
ATOM     19  C   UNL     1       1.649   5.056   2.105  1.00  0.00    -0.002 A 
ATOM     20  C   UNL     1       0.916   2.923   0.471  1.00  0.00     0.067 A 
ATOM     21  C   UNL     1       1.439   2.668   1.741  1.00  0.00     0.021 A 
ATOM     22  C   UNL     1       0.763   4.241   0.015  1.00  0.00     0.021 A 
ATOM     23  C   UNL     1       1.816   3.741   2.553  1.00  0.00     0.011 A 
ATOM     24  C   UNL     1       1.119   5.313   0.840  1.00  0.00     0.011 A 
BRANCH  20  25
ATOM     25  S   UNL     1       0.430   1.612  -0.629  1.00  0.00     0.175 S 
ATOM     26  C   UNL     1       1.121   0.106  -0.003  1.00  0.00     0.163 C 
ATOM     27  O   UNL     1       1.078   1.884  -1.899  1.00  0.00    -0.224 OA
ATOM     28  O   UNL     1      -1.013   1.514  -0.529  1.00  0.00    -0.224 OA
ENDBRANCH  20  25
ENDBRANCH  15  19
BRANCH  18  29
ATOM     29  C   UNL     1       1.099   8.198   5.764  1.00  0.00     0.030 A 
ATOM     30  C   UNL     1       1.349   9.226   6.662  1.00  0.00     0.017 A 
ATOM     31  S   UNL     1      -0.044   7.097   6.412  1.00  0.00    -0.147 S 
ATOM     32  C   UNL     1       0.649   9.073   7.891  1.00  0.00     0.012 A 
ATOM     33  C   UNL     1      -0.175   7.973   7.872  1.00  0.00     0.065 A 
ENDBRANCH  18  29
ENDBRANCH   9  14
ENDBRANCH   6   8
ENDBRANCH   5   6
ENDBRANCH   4   5
ENDBRANCH   3   4
ENDBRANCH   2   3
ENDBRANCH   1   2
BRANCH   1  34
ATOM     34  C   UNL     1       8.840   7.545   6.994  1.00  0.00     0.188 C 
BRANCH  34  35
ATOM     35  O   UNL     1       8.979   7.632   8.391  1.00  0.00    -0.376 OA
BRANCH  35  36
ATOM     36  C   UNL     1      10.070   7.008   9.045  1.00  0.00     0.202 C 
BRANCH  36  37
ATOM     37  C   UNL     1      11.172   6.158   8.378  1.00  0.00     0.261 C 
BRANCH  37  38
ATOM     38  O   UNL     1      11.272   6.160   6.953  1.00  0.00    -0.460 OA
BRANCH  38  39
ATOM     39  C   UNL     1      10.825   5.045   6.328  1.00  0.00     0.338 C 
ATOM     40  O   UNL     1      10.316   4.056   6.838  1.00  0.00    -0.246 OA
BRANCH  39  41
ATOM     41  C   UNL     1      10.896   5.261   4.873  1.00  0.00     0.060 A 
ATOM     42  C   UNL     1       9.707   5.410   4.145  1.00  0.00     0.016 A 
ATOM     43  C   UNL     1      12.133   5.292   4.229  1.00  0.00     0.016 A 
ATOM     44  C   UNL     1       9.754   5.585   2.762  1.00  0.00     0.010 A 
ATOM     45  C   UNL     1      12.176   5.443   2.841  1.00  0.00     0.010 A 
ATOM     46  C   UNL     1      10.987   5.568   2.098  1.00  0.00    -0.014 A 
BRANCH  46  47
ATOM     47  C   UNL     1      11.039   5.525   0.618  1.00  0.00     0.031 A 
ATOM     48  C   UNL     1      11.248   4.198  -0.058  1.00  0.00     0.074 A 
ATOM     49  C   UNL     1      10.915   6.644  -0.118  1.00  0.00     0.049 A 
ATOM     50  N   UNL     1      11.416   3.930  -1.328  1.00  0.00    -0.248 NA
ATOM     51  C   UNL     1      11.277   3.016   0.818  1.00  0.00     0.031 C 
ATOM     52  C   UNL     1      10.662   7.982   0.410  1.00  0.00     0.029 A 
ATOM     53  N   UNL     1      11.002   6.826  -1.476  1.00  0.00    -0.354 N 
ATOM     54  C   UNL     1      11.583   2.553  -1.402  1.00  0.00     0.074 A 
ATOM     55  C   UNL     1      11.522   2.045  -0.049  1.00  0.00     0.031 C 
ATOM     56  C   UNL     1      10.630   8.854  -0.613  1.00  0.00     0.029 A 
ATOM     57  C   UNL     1      10.900   8.140  -1.861  1.00  0.00     0.049 A 
ATOM     58  H   UNL     1      11.125   6.086  -2.113  1.00  0.00     0.167 HD
ATOM     59  C   UNL     1      11.768   1.780  -2.498  1.00  0.00     0.031 A 
ATOM     60  C   UNL     1      11.040   8.706  -3.076  1.00  0.00     0.031 A 
ATOM     61  C   UNL     1      11.848   2.288  -3.842  1.00  0.00     0.049 A 
ATOM     62  C   UNL     1      11.336   7.835  -4.270  1.00  0.00     0.074 A 
ATOM     63  C   UNL     1      12.021   1.581  -5.019  1.00  0.00     0.029 A 
ATOM     64  N   UNL     1      11.774   3.628  -4.185  1.00  0.00    -0.354 N 
ATOM     65  N   UNL     1      11.467   6.531  -4.333  1.00  0.00    -0.248 NA
ATOM     66  C   UNL     1      11.500   8.516  -5.563  1.00  0.00     0.031 C 
ATOM     67  C   UNL     1      12.116   2.500  -6.069  1.00  0.00     0.029 A 
ATOM     68  C   UNL     1      11.930   3.773  -5.554  1.00  0.00     0.049 A 
ATOM     69  H   UNL     1      11.631   4.367  -3.551  1.00  0.00     0.167 HD
ATOM     70  C   UNL     1      11.695   6.236  -5.673  1.00  0.00     0.074 A 
ATOM     71  C   UNL     1      11.670   7.493  -6.389  1.00  0.00     0.031 C 
ATOM     72  C   UNL     1      11.902   5.030  -6.257  1.00  0.00     0.031 A 
BRANCH  59  73
ATOM     73  C   UNL     1      11.938   0.302  -2.282  1.00  0.00    -0.014 A 
ATOM     74  C   UNL     1      10.866  -0.507  -1.875  1.00  0.00     0.009 A 
ATOM     75  C   UNL     1      13.184  -0.295  -2.527  1.00  0.00     0.009 A 
ATOM     76  C   UNL     1      11.048  -1.879  -1.685  1.00  0.00     0.001 A 
ATOM     77  C   UNL     1      13.355  -1.671  -2.367  1.00  0.00     0.001 A 
ATOM     78  C   UNL     1      12.290  -2.460  -1.937  1.00  0.00     0.000 A 
ENDBRANCH  59  73
BRANCH  60  79
ATOM     79  C   UNL     1      10.933  10.182  -3.230  1.00  0.00    -0.014 A 
ATOM     80  C   UNL     1       9.866  10.754  -3.939  1.00  0.00     0.009 A 
ATOM     81  C   UNL     1      11.917  11.026  -2.690  1.00  0.00     0.009 A 
ATOM     82  C   UNL     1       9.801  12.137  -4.128  1.00  0.00     0.001 A 
ATOM     83  C   UNL     1      11.832  12.411  -2.852  1.00  0.00     0.001 A 
ATOM     84  C   UNL     1      10.781  12.964  -3.580  1.00  0.00     0.000 A 
ENDBRANCH  60  79
BRANCH  72  85
ATOM     85  C   UNL     1      12.075   5.000  -7.751  1.00  0.00    -0.014 A 
ATOM     86  C   UNL     1      13.236   5.494  -8.367  1.00  0.00     0.009 A 
ATOM     87  C   UNL     1      11.078   4.418  -8.552  1.00  0.00     0.009 A 
ATOM     88  C   UNL     1      13.379   5.434  -9.755  1.00  0.00     0.001 A 
ATOM     89  C   UNL     1      11.239   4.330  -9.935  1.00  0.00     0.001 A 
ATOM     90  C   UNL     1      12.385   4.847 -10.537  1.00  0.00     0.000 A 
ENDBRANCH  72  85
ENDBRANCH  46  47
ENDBRANCH  39  41
ENDBRANCH  38  39
ENDBRANCH  37  38
ENDBRANCH  36  37
ENDBRANCH  35  36
ENDBRANCH  34  35
ENDBRANCH   1  34
TORSDOF 21
