REMARK SMILES C[C@H](CC(=O)NC[C@@]1(C)CCCO1)CC(=O)OCCOCCOCCOC(=O)c1ccc(-c2c3nc(c(-c4ccccc4)c4ccc([nH]4)c(-c4ccccc4)c4nc(c(-c5ccccc5)c5ccc2[nH]5)C=C4)C=C3)cc1
REMARK SMILES IDX 20 1 19 2 18 3 17 4 15 5 16 6 14 7 2 8 1 9 3 10 4 11 5 12
REMARK SMILES IDX 6 13 7 15 8 16 9 17 10 18 13 19 11 20 12 21 21 22 22 23
REMARK SMILES IDX 23 24 24 25 25 26 26 27 27 28 28 29 29 30 30 31 76 32 31 33
REMARK SMILES IDX 75 34 32 35 33 36 34 37 69 38 35 39 74 40 68 41 70 42 36 43
REMARK SMILES IDX 73 44 67 45 66 46 37 48 59 49 44 50 58 51 45 52 48 53 57 54
REMARK SMILES IDX 71 55 46 56 47 57 56 59 72 60 49 61 38 62 39 63 43 64 40 65
REMARK SMILES IDX 42 66 41 67 60 68 61 69 65 70 62 71 64 72 63 73 50 74 51 75
REMARK SMILES IDX 55 76 52 77 54 78 53 79
REMARK H PARENT 6 14 70 47 48 58
REMARK Flexibility Score: inf
ROOT
ATOM      1  O   UNL     1      -1.760  -4.797  -0.862  1.00  0.00    -0.376 OA
ENDROOT
BRANCH   1   2
ATOM      2  C   UNL     1      -1.919  -3.823  -1.886  1.00  0.00     0.202 C 
BRANCH   2   3
ATOM      3  C   UNL     1      -2.387  -2.407  -1.546  1.00  0.00     0.261 C 
BRANCH   3   4
ATOM      4  O   UNL     1      -1.417  -1.669  -0.776  1.00  0.00    -0.463 OA
BRANCH   4   5
ATOM      5  C   UNL     1      -1.839  -1.234   0.431  1.00  0.00     0.306 C 
ATOM      6  O   UNL     1      -2.975  -1.399   0.868  1.00  0.00    -0.252 OA
BRANCH   5   7
ATOM      7  C   UNL     1      -0.782  -0.558   1.280  1.00  0.00     0.126 C 
BRANCH   7   8
ATOM      8  C   UNL     1       0.572  -0.097   0.751  1.00  0.00     0.006 C 
ATOM      9  C   UNL     1       1.332   0.552   1.928  1.00  0.00     0.009 C 
BRANCH   8  10
ATOM     10  C   UNL     1       0.471   0.857  -0.452  1.00  0.00     0.104 C 
BRANCH  10  11
ATOM     11  C   UNL     1       0.138   2.302  -0.115  1.00  0.00     0.220 C 
ATOM     12  O   UNL     1       1.026   3.158  -0.120  1.00  0.00    -0.275 OA
ATOM     13  N   UNL     1      -1.116   2.688   0.245  1.00  0.00    -0.353 N 
ATOM     14  H   UNL     1      -1.152   3.548   0.722  1.00  0.00     0.163 HD
BRANCH  13  15
ATOM     15  C   UNL     1      -2.416   2.057   0.054  1.00  0.00     0.151 C 
BRANCH  15  16
ATOM     16  C   UNL     1      -3.380   2.159   1.276  1.00  0.00     0.083 C 
ATOM     17  C   UNL     1      -4.738   1.575   0.853  1.00  0.00     0.044 C 
ATOM     18  C   UNL     1      -2.925   1.532   2.603  1.00  0.00     0.039 C 
ATOM     19  O   UNL     1      -3.582   3.562   1.591  1.00  0.00    -0.373 OA
ATOM     20  C   UNL     1      -3.590   2.388   3.645  1.00  0.00     0.031 C 
ATOM     21  C   UNL     1      -3.405   3.744   3.008  1.00  0.00     0.161 C 
ENDBRANCH  15  16
ENDBRANCH  13  15
ENDBRANCH  10  11
ENDBRANCH   8  10
ENDBRANCH   7   8
ENDBRANCH   5   7
ENDBRANCH   4   5
ENDBRANCH   3   4
ENDBRANCH   2   3
ENDBRANCH   1   2
BRANCH   1  22
ATOM     22  C   UNL     1      -1.271  -4.418   0.408  1.00  0.00     0.188 C 
BRANCH  22  23
ATOM     23  C   UNL     1       0.098  -3.739   0.518  1.00  0.00     0.188 C 
BRANCH  23  24
ATOM     24  O   UNL     1       0.945  -3.556  -0.589  1.00  0.00    -0.376 OA
BRANCH  24  25
ATOM     25  C   UNL     1       1.391  -4.700  -1.292  1.00  0.00     0.202 C 
BRANCH  25  26
ATOM     26  C   UNL     1       1.903  -5.954  -0.556  1.00  0.00     0.261 C 
BRANCH  26  27
ATOM     27  O   UNL     1       1.284  -6.258   0.704  1.00  0.00    -0.460 OA
BRANCH  27  28
ATOM     28  C   UNL     1       2.020  -5.942   1.804  1.00  0.00     0.338 C 
ATOM     29  O   UNL     1       3.163  -5.511   1.825  1.00  0.00    -0.246 OA
BRANCH  28  30
ATOM     30  C   UNL     1       1.140  -5.937   2.999  1.00  0.00     0.060 A 
ATOM     31  C   UNL     1       1.076  -4.764   3.773  1.00  0.00     0.016 A 
ATOM     32  C   UNL     1       0.382  -7.052   3.354  1.00  0.00     0.016 A 
ATOM     33  C   UNL     1       0.291  -4.717   4.925  1.00  0.00     0.010 A 
ATOM     34  C   UNL     1      -0.376  -7.017   4.531  1.00  0.00     0.010 A 
ATOM     35  C   UNL     1      -0.391  -5.866   5.342  1.00  0.00    -0.014 A 
BRANCH  35  36
ATOM     36  C   UNL     1      -0.869  -5.958   6.745  1.00  0.00     0.031 A 
ATOM     37  C   UNL     1       0.061  -6.573   7.758  1.00  0.00     0.074 A 
ATOM     38  C   UNL     1      -2.072  -5.500   7.133  1.00  0.00     0.049 A 
ATOM     39  N   UNL     1      -0.136  -6.827   9.026  1.00  0.00    -0.248 NA
ATOM     40  C   UNL     1       1.397  -6.956   7.267  1.00  0.00     0.031 C 
ATOM     41  C   UNL     1      -3.046  -4.825   6.279  1.00  0.00     0.029 A 
ATOM     42  N   UNL     1      -2.677  -5.547   8.366  1.00  0.00    -0.354 N 
ATOM     43  C   UNL     1       1.043  -7.409   9.478  1.00  0.00     0.074 A 
ATOM     44  C   UNL     1       1.938  -7.495   8.347  1.00  0.00     0.031 C 
ATOM     45  C   UNL     1      -4.136  -4.533   7.013  1.00  0.00     0.029 A 
ATOM     46  C   UNL     1      -3.949  -5.029   8.376  1.00  0.00     0.049 A 
ATOM     47  H   UNL     1      -2.240  -5.917   9.167  1.00  0.00     0.167 HD
ATOM     48  C   UNL     1       1.359  -7.833  10.724  1.00  0.00     0.031 A 
ATOM     49  C   UNL     1      -4.862  -4.983   9.367  1.00  0.00     0.031 A 
ATOM     50  C   UNL     1       0.470  -7.771  11.851  1.00  0.00     0.049 A 
ATOM     51  C   UNL     1      -4.523  -5.548  10.724  1.00  0.00     0.074 A 
ATOM     52  C   UNL     1       0.701  -8.176  13.153  1.00  0.00     0.029 A 
ATOM     53  N   UNL     1      -0.824  -7.279  11.806  1.00  0.00    -0.354 N 
ATOM     54  N   UNL     1      -3.402  -6.083  11.144  1.00  0.00    -0.248 NA
ATOM     55  C   UNL     1      -5.579  -5.493  11.747  1.00  0.00     0.031 C 
ATOM     56  C   UNL     1      -0.475  -7.981  13.885  1.00  0.00     0.029 A 
ATOM     57  C   UNL     1      -1.414  -7.394  13.053  1.00  0.00     0.049 A 
ATOM     58  H   UNL     1      -1.260  -6.904  11.007  1.00  0.00     0.167 HD
ATOM     59  C   UNL     1      -3.607  -6.395  12.484  1.00  0.00     0.074 A 
ATOM     60  C   UNL     1      -4.954  -5.978  12.810  1.00  0.00     0.031 C 
ATOM     61  C   UNL     1      -2.754  -6.971  13.367  1.00  0.00     0.031 A 
BRANCH  48  62
ATOM     62  C   UNL     1       2.717  -8.447  10.914  1.00  0.00    -0.014 A 
ATOM     63  C   UNL     1       3.884  -7.666  10.874  1.00  0.00     0.009 A 
ATOM     64  C   UNL     1       2.829  -9.826  11.148  1.00  0.00     0.009 A 
ATOM     65  C   UNL     1       5.137  -8.262  11.030  1.00  0.00     0.001 A 
ATOM     66  C   UNL     1       4.080 -10.413  11.333  1.00  0.00     0.001 A 
ATOM     67  C   UNL     1       5.234  -9.633  11.264  1.00  0.00     0.000 A 
ENDBRANCH  48  62
BRANCH  49  68
ATOM     68  C   UNL     1      -6.210  -4.400   9.120  1.00  0.00    -0.014 A 
ATOM     69  C   UNL     1      -6.598  -3.204   9.743  1.00  0.00     0.009 A 
ATOM     70  C   UNL     1      -7.131  -5.064   8.294  1.00  0.00     0.009 A 
ATOM     71  C   UNL     1      -7.890  -2.701   9.567  1.00  0.00     0.001 A 
ATOM     72  C   UNL     1      -8.412  -4.542   8.097  1.00  0.00     0.001 A 
ATOM     73  C   UNL     1      -8.794  -3.367   8.741  1.00  0.00     0.000 A 
ENDBRANCH  49  68
BRANCH  61  74
ATOM     74  C   UNL     1      -3.230  -7.141  14.785  1.00  0.00    -0.014 A 
ATOM     75  C   UNL     1      -4.209  -8.088  15.124  1.00  0.00     0.009 A 
ATOM     76  C   UNL     1      -2.654  -6.366  15.805  1.00  0.00     0.009 A 
ATOM     77  C   UNL     1      -4.627  -8.227  16.450  1.00  0.00     0.001 A 
ATOM     78  C   UNL     1      -3.051  -6.530  17.133  1.00  0.00     0.001 A 
ATOM     79  C   UNL     1      -4.045  -7.453  17.453  1.00  0.00     0.000 A 
ENDBRANCH  61  74
ENDBRANCH  35  36
ENDBRANCH  28  30
ENDBRANCH  27  28
ENDBRANCH  26  27
ENDBRANCH  25  26
ENDBRANCH  24  25
ENDBRANCH  23  24
ENDBRANCH  22  23
ENDBRANCH   1  22
TORSDOF 22
