REMARK SMILES Cc1ccc(C(=O)OCCOCCOCCOC(=O)c2ccc(-c3c4nc(c(-c5ccccc5)c5ccc([nH]5)c(-c5ccccc5)c5nc(c(-c6ccccc6)c6ccc3[nH]6)C=C5)C=C4)cc2)c(Cl)c1
REMARK SMILES IDX 13 1 12 2 11 3 10 4 9 5 8 6 6 7 7 8 5 9 1 10 2 11 3 12 70 13
REMARK SMILES IDX 4 14 68 15 69 16 14 17 15 18 16 19 17 20 18 21 19 22 20 23
REMARK SMILES IDX 21 24 67 25 22 26 66 27 23 28 24 29 25 30 60 31 26 32 65 33
REMARK SMILES IDX 59 34 61 35 27 36 64 37 58 38 57 39 28 41 50 42 35 43 49 44
REMARK SMILES IDX 36 45 39 46 48 47 62 48 37 49 38 50 47 52 63 53 40 54 29 55
REMARK SMILES IDX 30 56 34 57 31 58 33 59 32 60 51 61 52 62 56 63 53 64 55 65
REMARK SMILES IDX 54 66 41 67 42 68 46 69 43 70 45 71 44 72
REMARK H PARENT 61 40 39 51
REMARK Flexibility Score: inf
ROOT
ATOM      1  C   UNL     1       1.406  -2.702  -2.238  1.00  0.00     0.188 C 
ENDROOT
BRANCH   1   2
ATOM      2  C   UNL     1       2.759  -2.592  -1.503  1.00  0.00     0.188 C 
BRANCH   2   3
ATOM      3  O   UNL     1       3.510  -3.776  -1.376  1.00  0.00    -0.376 OA
BRANCH   3   4
ATOM      4  C   UNL     1       3.235  -4.701  -0.337  1.00  0.00     0.202 C 
BRANCH   4   5
ATOM      5  C   UNL     1       2.131  -4.563   0.731  1.00  0.00     0.261 C 
BRANCH   5   6
ATOM      6  O   UNL     1       1.144  -3.551   0.527  1.00  0.00    -0.460 OA
BRANCH   6   7
ATOM      7  C   UNL     1       1.123  -2.545   1.444  1.00  0.00     0.339 C 
ATOM      8  O   UNL     1       1.815  -2.444   2.431  1.00  0.00    -0.246 OA
BRANCH   7   9
ATOM      9  C   UNL     1       0.158  -1.516   0.992  1.00  0.00     0.078 A 
ATOM     10  C   UNL     1      -2.728   1.462  -0.186  1.00  0.00     0.044 C 
ATOM     11  C   UNL     1      -1.726   0.410   0.192  1.00  0.00    -0.050 A 
ATOM     12  C   UNL     1      -2.087  -0.939   0.273  1.00  0.00     0.004 A 
ATOM     13  C   UNL     1      -0.403   0.780   0.469  1.00  0.00     0.024 A 
ATOM     14  C   UNL     1      -1.153  -1.899   0.673  1.00  0.00     0.017 A 
ATOM     15  C   UNL     1       0.539  -0.175   0.869  1.00  0.00     0.055 A 
ATOM     16  Cl  UNL     1       2.159   0.375   1.115  1.00  0.00    -0.083 Cl
ENDBRANCH   7   9
ENDBRANCH   6   7
ENDBRANCH   5   6
ENDBRANCH   4   5
ENDBRANCH   3   4
ENDBRANCH   2   3
ENDBRANCH   1   2
BRANCH   1  17
ATOM     17  O   UNL     1       0.909  -3.961  -2.651  1.00  0.00    -0.376 OA
BRANCH  17  18
ATOM     18  C   UNL     1       1.720  -4.809  -3.450  1.00  0.00     0.202 C 
BRANCH  18  19
ATOM     19  C   UNL     1       2.561  -4.281  -4.627  1.00  0.00     0.261 C 
BRANCH  19  20
ATOM     20  O   UNL     1       3.235  -3.032  -4.422  1.00  0.00    -0.460 OA
BRANCH  20  21
ATOM     21  C   UNL     1       2.755  -1.988  -5.142  1.00  0.00     0.338 C 
ATOM     22  O   UNL     1       1.831  -1.994  -5.936  1.00  0.00    -0.246 OA
BRANCH  21  23
ATOM     23  C   UNL     1       3.415  -0.747  -4.698  1.00  0.00     0.060 A 
ATOM     24  C   UNL     1       2.644   0.231  -4.052  1.00  0.00     0.016 A 
ATOM     25  C   UNL     1       4.765  -0.522  -4.967  1.00  0.00     0.016 A 
ATOM     26  C   UNL     1       3.220   1.445  -3.685  1.00  0.00     0.010 A 
ATOM     27  C   UNL     1       5.334   0.708  -4.622  1.00  0.00     0.010 A 
ATOM     28  C   UNL     1       4.558   1.706  -4.004  1.00  0.00    -0.014 A 
BRANCH  28  29
ATOM     29  C   UNL     1       5.099   3.077  -3.844  1.00  0.00     0.031 A 
ATOM     30  C   UNL     1       5.155   3.976  -5.049  1.00  0.00     0.074 A 
ATOM     31  C   UNL     1       5.519   3.526  -2.649  1.00  0.00     0.049 A 
ATOM     32  N   UNL     1       5.637   5.187  -5.160  1.00  0.00    -0.248 NA
ATOM     33  C   UNL     1       4.589   3.435  -6.297  1.00  0.00     0.031 C 
ATOM     34  C   UNL     1       5.467   2.777  -1.394  1.00  0.00     0.029 A 
ATOM     35  N   UNL     1       6.085   4.728  -2.303  1.00  0.00    -0.354 N 
ATOM     36  C   UNL     1       5.442   5.550  -6.487  1.00  0.00     0.074 A 
ATOM     37  C   UNL     1       4.823   4.422  -7.149  1.00  0.00     0.031 C 
ATOM     38  C   UNL     1       5.994   3.534  -0.415  1.00  0.00     0.029 A 
ATOM     39  C   UNL     1       6.453   4.802  -0.982  1.00  0.00     0.049 A 
ATOM     40  H   UNL     1       6.213   5.467  -2.940  1.00  0.00     0.167 HD
ATOM     41  C   UNL     1       5.747   6.718  -7.100  1.00  0.00     0.031 A 
ATOM     42  C   UNL     1       7.110   5.771  -0.314  1.00  0.00     0.031 A 
ATOM     43  C   UNL     1       6.381   7.833  -6.449  1.00  0.00     0.049 A 
ATOM     44  C   UNL     1       7.528   7.022  -1.044  1.00  0.00     0.074 A 
ATOM     45  C   UNL     1       6.723   9.062  -6.986  1.00  0.00     0.029 A 
ATOM     46  N   UNL     1       6.778   7.851  -5.122  1.00  0.00    -0.354 N 
ATOM     47  N   UNL     1       7.315   7.365  -2.292  1.00  0.00    -0.248 NA
ATOM     48  C   UNL     1       8.273   8.024  -0.267  1.00  0.00     0.031 C 
ATOM     49  C   UNL     1       7.382   9.801  -5.999  1.00  0.00     0.029 A 
ATOM     50  C   UNL     1       7.389   9.059  -4.829  1.00  0.00     0.049 A 
ATOM     51  H   UNL     1       6.645   7.115  -4.482  1.00  0.00     0.167 HD
ATOM     52  C   UNL     1       7.869   8.632  -2.438  1.00  0.00     0.074 A 
ATOM     53  C   UNL     1       8.412   9.003  -1.149  1.00  0.00     0.031 C 
ATOM     54  C   UNL     1       7.921   9.419  -3.541  1.00  0.00     0.031 A 
BRANCH  41  55
ATOM     55  C   UNL     1       5.432   6.834  -8.565  1.00  0.00    -0.014 A 
ATOM     56  C   UNL     1       4.109   6.940  -9.021  1.00  0.00     0.009 A 
ATOM     57  C   UNL     1       6.478   6.881  -9.499  1.00  0.00     0.009 A 
ATOM     58  C   UNL     1       3.839   7.060 -10.386  1.00  0.00     0.001 A 
ATOM     59  C   UNL     1       6.208   7.030 -10.860  1.00  0.00     0.001 A 
ATOM     60  C   UNL     1       4.888   7.111 -11.303  1.00  0.00     0.000 A 
ENDBRANCH  41  55
BRANCH  42  61
ATOM     61  C   UNL     1       7.450   5.595   1.123  1.00  0.00    -0.014 A 
ATOM     62  C   UNL     1       6.862   6.407   2.105  1.00  0.00     0.009 A 
ATOM     63  C   UNL     1       8.402   4.641   1.517  1.00  0.00     0.009 A 
ATOM     64  C   UNL     1       7.245   6.292   3.443  1.00  0.00     0.001 A 
ATOM     65  C   UNL     1       8.758   4.505   2.860  1.00  0.00     0.001 A 
ATOM     66  C   UNL     1       8.189   5.338   3.820  1.00  0.00     0.000 A 
ENDBRANCH  42  61
BRANCH  54  67
ATOM     67  C   UNL     1       8.546  10.780  -3.394  1.00  0.00    -0.014 A 
ATOM     68  C   UNL     1       9.929  10.938  -3.216  1.00  0.00     0.009 A 
ATOM     69  C   UNL     1       7.739  11.926  -3.481  1.00  0.00     0.009 A 
ATOM     70  C   UNL     1      10.485  12.213  -3.092  1.00  0.00     0.001 A 
ATOM     71  C   UNL     1       8.301  13.200  -3.390  1.00  0.00     0.001 A 
ATOM     72  C   UNL     1       9.672  13.342  -3.185  1.00  0.00     0.000 A 
ENDBRANCH  54  67
ENDBRANCH  28  29
ENDBRANCH  21  23
ENDBRANCH  20  21
ENDBRANCH  19  20
ENDBRANCH  18  19
ENDBRANCH  17  18
ENDBRANCH   1  17
TORSDOF 17
