REMARK SMILES CC[C@@H](C(=O)OCCOCCOCCOC(=O)c1ccc(-c2c3nc(c(-c4ccccc4)c4ccc([nH]4)c(-c4ccccc4)c4nc(c(-c5ccccc5)c5ccc2[nH]5)C=C4)C=C3)cc1)N(C)C(=O)N(C)CC(C)(C)O
REMARK SMILES IDX 8 1 7 2 6 3 4 4 5 5 3 6 2 7 1 8 66 9 67 10 68 11 69 12 70 13
REMARK SMILES IDX 71 14 72 15 73 16 74 17 75 18 76 19 9 21 10 22 11 23 12 24
REMARK SMILES IDX 13 25 14 26 15 27 16 28 17 29 18 30 19 31 65 32 20 33 64 34
REMARK SMILES IDX 21 35 22 36 23 37 58 38 24 39 63 40 57 41 59 42 25 43 62 44
REMARK SMILES IDX 56 45 55 46 26 48 48 49 33 50 47 51 34 52 37 53 46 54 60 55
REMARK SMILES IDX 35 56 36 57 45 59 61 60 38 61 27 62 28 63 32 64 29 65 31 66
REMARK SMILES IDX 30 67 49 68 50 69 54 70 51 71 53 72 52 73 39 74 40 75 44 76
REMARK SMILES IDX 41 77 43 78 42 79
REMARK H PARENT 76 20 59 47 37 58
REMARK Flexibility Score: inf
ROOT
ATOM      1  C   UNL     1      -0.164  -4.200   2.002  1.00  0.00     0.202 C 
ENDROOT
BRANCH   1   2
ATOM      2  C   UNL     1       1.327  -4.046   1.583  1.00  0.00     0.261 C 
BRANCH   2   3
ATOM      3  O   UNL     1       1.653  -2.989   0.660  1.00  0.00    -0.462 OA
BRANCH   3   4
ATOM      4  C   UNL     1       1.779  -3.341  -0.648  1.00  0.00     0.328 C 
ATOM      5  O   UNL     1       1.843  -4.511  -1.016  1.00  0.00    -0.250 OA
BRANCH   4   6
ATOM      6  C   UNL     1       1.903  -2.124  -1.624  1.00  0.00     0.196 C 
BRANCH   6   7
ATOM      7  C   UNL     1       1.446  -0.696  -1.222  1.00  0.00     0.034 C 
ATOM      8  C   UNL     1       1.960  -0.101   0.077  1.00  0.00     0.007 C 
ENDBRANCH   6   7
BRANCH   6   9
ATOM      9  N   UNL     1       1.317  -2.580  -2.942  1.00  0.00    -0.314 N 
ATOM     10  C   UNL     1       2.256  -3.224  -3.840  1.00  0.00     0.149 C 
BRANCH   9  11
ATOM     11  C   UNL     1      -0.060  -2.582  -3.080  1.00  0.00     0.320 C 
ATOM     12  O   UNL     1      -0.742  -1.764  -2.462  1.00  0.00    -0.248 OA
BRANCH  11  13
ATOM     13  N   UNL     1      -0.731  -3.540  -3.804  1.00  0.00    -0.325 N 
ATOM     14  C   UNL     1      -0.402  -3.907  -5.175  1.00  0.00     0.148 C 
BRANCH  13  15
ATOM     15  C   UNL     1      -2.148  -3.783  -3.388  1.00  0.00     0.155 C 
BRANCH  15  16
ATOM     16  C   UNL     1      -2.553  -5.162  -2.752  1.00  0.00     0.077 C 
ATOM     17  C   UNL     1      -2.653  -4.940  -1.244  1.00  0.00     0.043 C 
ATOM     18  C   UNL     1      -3.907  -5.771  -3.165  1.00  0.00     0.043 C 
BRANCH  16  19
ATOM     19  O   UNL     1      -1.567  -6.156  -3.028  1.00  0.00    -0.389 OA
ATOM     20  H   UNL     1      -0.691  -5.819  -2.784  1.00  0.00     0.211 HD
ENDBRANCH  16  19
ENDBRANCH  15  16
ENDBRANCH  13  15
ENDBRANCH  11  13
ENDBRANCH   9  11
ENDBRANCH   6   9
ENDBRANCH   4   6
ENDBRANCH   3   4
ENDBRANCH   2   3
ENDBRANCH   1   2
BRANCH   1  21
ATOM     21  O   UNL     1      -1.241  -3.588   1.294  1.00  0.00    -0.376 OA
BRANCH  21  22
ATOM     22  C   UNL     1      -0.900  -2.396   0.602  1.00  0.00     0.188 C 
BRANCH  22  23
ATOM     23  C   UNL     1      -2.077  -1.543   0.199  1.00  0.00     0.188 C 
BRANCH  23  24
ATOM     24  O   UNL     1      -2.400  -0.602   1.218  1.00  0.00    -0.376 OA
BRANCH  24  25
ATOM     25  C   UNL     1      -3.199  -1.163   2.239  1.00  0.00     0.202 C 
BRANCH  25  26
ATOM     26  C   UNL     1      -4.693  -1.198   1.879  1.00  0.00     0.261 C 
BRANCH  26  27
ATOM     27  O   UNL     1      -5.000  -1.639   0.532  1.00  0.00    -0.460 OA
BRANCH  27  28
ATOM     28  C   UNL     1      -4.969  -0.693  -0.463  1.00  0.00     0.338 C 
ATOM     29  O   UNL     1      -4.798   0.494  -0.324  1.00  0.00    -0.246 OA
BRANCH  28  30
ATOM     30  C   UNL     1      -5.091  -1.369  -1.804  1.00  0.00     0.060 A 
ATOM     31  C   UNL     1      -4.347  -0.930  -2.914  1.00  0.00     0.016 A 
ATOM     32  C   UNL     1      -5.963  -2.440  -1.982  1.00  0.00     0.016 A 
ATOM     33  C   UNL     1      -4.444  -1.581  -4.179  1.00  0.00     0.010 A 
ATOM     34  C   UNL     1      -6.060  -3.076  -3.236  1.00  0.00     0.010 A 
ATOM     35  C   UNL     1      -5.277  -2.698  -4.358  1.00  0.00    -0.014 A 
BRANCH  35  36
ATOM     36  C   UNL     1      -5.606  -3.368  -5.689  1.00  0.00     0.031 A 
ATOM     37  C   UNL     1      -6.876  -2.889  -6.327  1.00  0.00     0.074 A 
ATOM     38  C   UNL     1      -5.003  -4.427  -6.302  1.00  0.00     0.049 A 
ATOM     39  N   UNL     1      -7.519  -3.386  -7.350  1.00  0.00    -0.248 NA
ATOM     40  C   UNL     1      -7.474  -1.673  -5.754  1.00  0.00     0.031 C 
ATOM     41  C   UNL     1      -3.676  -4.958  -6.081  1.00  0.00     0.029 A 
ATOM     42  N   UNL     1      -5.495  -5.337  -7.233  1.00  0.00    -0.354 N 
ATOM     43  C   UNL     1      -8.561  -2.509  -7.579  1.00  0.00     0.074 A 
ATOM     44  C   UNL     1      -8.535  -1.518  -6.526  1.00  0.00     0.031 C 
ATOM     45  C   UNL     1      -3.526  -6.176  -6.616  1.00  0.00     0.029 A 
ATOM     46  C   UNL     1      -4.722  -6.483  -7.362  1.00  0.00     0.049 A 
ATOM     47  H   UNL     1      -6.316  -5.181  -7.754  1.00  0.00     0.167 HD
ATOM     48  C   UNL     1      -9.430  -2.489  -8.612  1.00  0.00     0.031 A 
ATOM     49  C   UNL     1      -4.881  -7.646  -8.026  1.00  0.00     0.031 A 
ATOM     50  C   UNL     1      -9.509  -3.490  -9.635  1.00  0.00     0.049 A 
ATOM     51  C   UNL     1      -5.988  -7.734  -9.021  1.00  0.00     0.074 A 
ATOM     52  C   UNL     1     -10.362  -3.534 -10.722  1.00  0.00     0.029 A 
ATOM     53  N   UNL     1      -8.735  -4.639  -9.683  1.00  0.00    -0.354 N 
ATOM     54  N   UNL     1      -6.904  -6.840  -9.286  1.00  0.00    -0.248 NA
ATOM     55  C   UNL     1      -6.024  -8.922  -9.886  1.00  0.00     0.031 C 
ATOM     56  C   UNL     1     -10.157  -4.746 -11.387  1.00  0.00     0.029 A 
ATOM     57  C   UNL     1      -9.129  -5.425 -10.754  1.00  0.00     0.049 A 
ATOM     58  H   UNL     1      -8.013  -4.863  -9.052  1.00  0.00     0.167 HD
ATOM     59  C   UNL     1      -7.567  -7.309 -10.405  1.00  0.00     0.074 A 
ATOM     60  C   UNL     1      -6.971  -8.583 -10.751  1.00  0.00     0.031 C 
ATOM     61  C   UNL     1      -8.553  -6.698 -11.100  1.00  0.00     0.031 A 
BRANCH  48  62
ATOM     62  C   UNL     1     -10.370  -1.327  -8.639  1.00  0.00    -0.014 A 
ATOM     63  C   UNL     1      -9.898  -0.029  -8.904  1.00  0.00     0.009 A 
ATOM     64  C   UNL     1     -11.720  -1.519  -8.327  1.00  0.00     0.009 A 
ATOM     65  C   UNL     1     -10.756   1.064  -8.800  1.00  0.00     0.001 A 
ATOM     66  C   UNL     1     -12.583  -0.426  -8.258  1.00  0.00     0.001 A 
ATOM     67  C   UNL     1     -12.097   0.863  -8.479  1.00  0.00     0.000 A 
ENDBRANCH  48  62
BRANCH  49  68
ATOM     68  C   UNL     1      -3.908  -8.771  -7.874  1.00  0.00    -0.014 A 
ATOM     69  C   UNL     1      -2.959  -9.051  -8.870  1.00  0.00     0.009 A 
ATOM     70  C   UNL     1      -3.944  -9.594  -6.735  1.00  0.00     0.009 A 
ATOM     71  C   UNL     1      -2.097 -10.148  -8.750  1.00  0.00     0.001 A 
ATOM     72  C   UNL     1      -3.069 -10.680  -6.609  1.00  0.00     0.001 A 
ATOM     73  C   UNL     1      -2.153 -10.962  -7.620  1.00  0.00     0.000 A 
ENDBRANCH  49  68
BRANCH  61  74
ATOM     74  C   UNL     1      -9.043  -7.379 -12.340  1.00  0.00    -0.014 A 
ATOM     75  C   UNL     1      -9.815  -8.548 -12.274  1.00  0.00     0.009 A 
ATOM     76  C   UNL     1      -8.781  -6.799 -13.591  1.00  0.00     0.009 A 
ATOM     77  C   UNL     1     -10.306  -9.130 -13.443  1.00  0.00     0.001 A 
ATOM     78  C   UNL     1      -9.300  -7.366 -14.754  1.00  0.00     0.001 A 
ATOM     79  C   UNL     1     -10.058  -8.533 -14.679  1.00  0.00     0.000 A 
ENDBRANCH  61  74
ENDBRANCH  35  36
ENDBRANCH  28  30
ENDBRANCH  27  28
ENDBRANCH  26  27
ENDBRANCH  25  26
ENDBRANCH  24  25
ENDBRANCH  23  24
ENDBRANCH  22  23
ENDBRANCH  21  22
ENDBRANCH   1  21
TORSDOF 24
