REMARK SMILES CC(C)(CC(=O)OCCOCCOCCOC(=O)c1ccc(-c2c3nc(c(-c4ccccc4)c4ccc([nH]4)c(-c4ccccc4)c4nc(c(-c5ccccc5)c5ccc2[nH]5)C=C4)C=C3)cc1)Cc1nc([C@@]2(C)CCCO2)no1
REMARK SMILES IDX 11 1 10 2 9 3 8 4 7 5 5 6 6 7 4 8 2 9 1 10 3 11 67 12 68 13
REMARK SMILES IDX 69 14 78 15 70 16 77 17 71 18 72 19 73 20 76 21 74 22 75 23
REMARK SMILES IDX 12 24 13 25 14 26 15 27 16 28 17 29 18 30 19 31 20 32 66 33
REMARK SMILES IDX 21 34 65 35 22 36 23 37 24 38 59 39 25 40 64 41 58 42 60 43
REMARK SMILES IDX 26 44 63 45 57 46 56 47 27 49 49 50 34 51 48 52 35 53 38 54
REMARK SMILES IDX 47 55 61 56 36 57 37 58 46 60 62 61 39 62 28 63 29 64 33 65
REMARK SMILES IDX 30 66 32 67 31 68 50 69 51 70 55 71 52 72 54 73 53 74 40 75
REMARK SMILES IDX 41 76 45 77 42 78 44 79 43 80
REMARK H PARENT 60 48 38 59
REMARK Flexibility Score: inf
ROOT
ATOM      1  C   UNL     1      -2.661  -2.936  -1.607  1.00  0.00     0.188 C 
ENDROOT
BRANCH   1   2
ATOM      2  O   UNL     1      -3.195  -2.336  -2.763  1.00  0.00    -0.376 OA
BRANCH   2   3
ATOM      3  C   UNL     1      -2.878  -0.973  -3.027  1.00  0.00     0.202 C 
BRANCH   3   4
ATOM      4  C   UNL     1      -2.983   0.029  -1.867  1.00  0.00     0.261 C 
BRANCH   4   5
ATOM      5  O   UNL     1      -1.882  -0.084  -0.929  1.00  0.00    -0.463 OA
BRANCH   5   6
ATOM      6  C   UNL     1      -2.200  -0.253   0.368  1.00  0.00     0.306 C 
ATOM      7  O   UNL     1      -3.352  -0.233   0.798  1.00  0.00    -0.252 OA
BRANCH   6   8
ATOM      8  C   UNL     1      -1.045  -0.528   1.320  1.00  0.00     0.129 C 
BRANCH   8   9
ATOM      9  C   UNL     1       0.482  -0.564   1.000  1.00  0.00    -0.016 C 
ATOM     10  C   UNL     1       0.929   0.488  -0.027  1.00  0.00     0.012 C 
ATOM     11  C   UNL     1       1.163  -0.139   2.348  1.00  0.00     0.012 C 
BRANCH   9  12
ATOM     12  C   UNL     1       1.067  -1.992   0.704  1.00  0.00     0.107 C 
BRANCH  12  13
ATOM     13  C   UNL     1       0.632  -2.732  -0.508  1.00  0.00     0.227 A 
ATOM     14  N   UNL     1       0.592  -4.307  -0.982  1.00  0.00    -0.193 NA
ATOM     15  O   UNL     1      -0.357  -1.804  -1.781  1.00  0.00    -0.339 OA
ATOM     16  C   UNL     1      -0.224  -4.532  -2.674  1.00  0.00     0.203 A 
ATOM     17  N   UNL     1      -0.805  -3.050  -3.226  1.00  0.00    -0.059 NA
BRANCH  16  18
ATOM     18  C   UNL     1      -0.448  -5.774  -3.500  1.00  0.00     0.128 C 
ATOM     19  C   UNL     1      -0.210  -7.085  -2.768  1.00  0.00     0.051 C 
ATOM     20  C   UNL     1      -1.876  -5.771  -4.095  1.00  0.00     0.046 C 
ATOM     21  O   UNL     1       0.449  -5.804  -4.652  1.00  0.00    -0.367 OA
ATOM     22  C   UNL     1      -1.677  -6.212  -5.525  1.00  0.00     0.032 C 
ATOM     23  C   UNL     1      -0.325  -5.629  -5.842  1.00  0.00     0.161 C 
ENDBRANCH  16  18
ENDBRANCH  12  13
ENDBRANCH   9  12
ENDBRANCH   8   9
ENDBRANCH   6   8
ENDBRANCH   5   6
ENDBRANCH   4   5
ENDBRANCH   3   4
ENDBRANCH   2   3
ENDBRANCH   1   2
BRANCH   1  24
ATOM     24  C   UNL     1      -1.103  -3.447  -1.304  1.00  0.00     0.188 C 
BRANCH  24  25
ATOM     25  O   UNL     1       0.705  -3.005  -2.262  1.00  0.00    -0.376 OA
BRANCH  25  26
ATOM     26  C   UNL     1       1.938  -3.619  -2.906  1.00  0.00     0.202 C 
BRANCH  26  27
ATOM     27  C   UNL     1       2.921  -4.700  -2.325  1.00  0.00     0.261 C 
BRANCH  27  28
ATOM     28  O   UNL     1       2.387  -5.785  -1.544  1.00  0.00    -0.460 OA
BRANCH  28  29
ATOM     29  C   UNL     1       2.737  -5.752  -0.231  1.00  0.00     0.338 C 
ATOM     30  O   UNL     1       3.690  -5.152   0.249  1.00  0.00    -0.246 OA
BRANCH  29  31
ATOM     31  C   UNL     1       1.704  -6.373   0.644  1.00  0.00     0.060 A 
ATOM     32  C   UNL     1       1.412  -5.691   1.835  1.00  0.00     0.016 A 
ATOM     33  C   UNL     1       1.058  -7.581   0.370  1.00  0.00     0.016 A 
ATOM     34  C   UNL     1       0.560  -6.245   2.788  1.00  0.00     0.010 A 
ATOM     35  C   UNL     1       0.186  -8.138   1.322  1.00  0.00     0.010 A 
ATOM     36  C   UNL     1       0.005  -7.510   2.571  1.00  0.00    -0.014 A 
BRANCH  36  37
ATOM     37  C   UNL     1      -0.403  -8.295   3.771  1.00  0.00     0.031 A 
ATOM     38  C   UNL     1       0.607  -9.272   4.330  1.00  0.00     0.074 A 
ATOM     39  C   UNL     1      -1.547  -8.070   4.443  1.00  0.00     0.049 A 
ATOM     40  N   UNL     1       0.541 -10.024   5.400  1.00  0.00    -0.248 NA
ATOM     41  C   UNL     1       1.867  -9.412   3.580  1.00  0.00     0.031 C 
ATOM     42  C   UNL     1      -2.582  -7.107   4.074  1.00  0.00     0.029 A 
ATOM     43  N   UNL     1      -2.015  -8.637   5.606  1.00  0.00    -0.354 N 
ATOM     44  C   UNL     1       1.741 -10.727   5.437  1.00  0.00     0.074 A 
ATOM     45  C   UNL     1       2.493 -10.353   4.264  1.00  0.00     0.031 C 
ATOM     46  C   UNL     1      -3.559  -7.142   4.999  1.00  0.00     0.029 A 
ATOM     47  C   UNL     1      -3.231  -8.145   6.013  1.00  0.00     0.049 A 
ATOM     48  H   UNL     1      -1.522  -9.331   6.101  1.00  0.00     0.167 HD
ATOM     49  C   UNL     1       2.199 -11.593   6.370  1.00  0.00     0.031 A 
ATOM     50  C   UNL     1      -3.992  -8.470   7.078  1.00  0.00     0.031 A 
ATOM     51  C   UNL     1       1.472 -11.975   7.547  1.00  0.00     0.049 A 
ATOM     52  C   UNL     1      -3.501  -9.507   8.061  1.00  0.00     0.074 A 
ATOM     53  C   UNL     1       1.853 -12.850   8.548  1.00  0.00     0.029 A 
ATOM     54  N   UNL     1       0.213 -11.504   7.878  1.00  0.00    -0.354 N 
ATOM     55  N   UNL     1      -2.362 -10.156   8.085  1.00  0.00    -0.248 NA
ATOM     56  C   UNL     1      -4.404  -9.843   9.173  1.00  0.00     0.031 C 
ATOM     57  C   UNL     1       0.798 -12.951   9.460  1.00  0.00     0.029 A 
ATOM     58  C   UNL     1      -0.210 -12.090   9.059  1.00  0.00     0.049 A 
ATOM     59  H   UNL     1      -0.303 -10.851   7.354  1.00  0.00     0.167 HD
ATOM     60  C   UNL     1      -2.400 -10.950   9.228  1.00  0.00     0.074 A 
ATOM     61  C   UNL     1      -3.665 -10.685   9.880  1.00  0.00     0.031 C 
ATOM     62  C   UNL     1      -1.471 -11.819   9.698  1.00  0.00     0.031 A 
BRANCH  49  63
ATOM     63  C   UNL     1       3.544 -12.215   6.120  1.00  0.00    -0.014 A 
ATOM     64  C   UNL     1       4.728 -11.464   6.212  1.00  0.00     0.009 A 
ATOM     65  C   UNL     1       3.625 -13.573   5.779  1.00  0.00     0.009 A 
ATOM     66  C   UNL     1       5.961 -12.053   5.926  1.00  0.00     0.001 A 
ATOM     67  C   UNL     1       4.862 -14.167   5.526  1.00  0.00     0.001 A 
ATOM     68  C   UNL     1       6.027 -13.404   5.588  1.00  0.00     0.000 A 
ENDBRANCH  49  63
BRANCH  50  69
ATOM     69  C   UNL     1      -5.320  -7.829   7.282  1.00  0.00    -0.014 A 
ATOM     70  C   UNL     1      -5.551  -6.977   8.374  1.00  0.00     0.009 A 
ATOM     71  C   UNL     1      -6.386  -8.119   6.416  1.00  0.00     0.009 A 
ATOM     72  C   UNL     1      -6.827  -6.458   8.612  1.00  0.00     0.001 A 
ATOM     73  C   UNL     1      -7.653  -7.574   6.638  1.00  0.00     0.001 A 
ATOM     74  C   UNL     1      -7.876  -6.754   7.742  1.00  0.00     0.000 A 
ENDBRANCH  50  69
BRANCH  62  75
ATOM     75  C   UNL     1      -1.767 -12.518  10.997  1.00  0.00    -0.014 A 
ATOM     76  C   UNL     1      -2.759 -13.506  11.090  1.00  0.00     0.009 A 
ATOM     77  C   UNL     1      -1.012 -12.207  12.140  1.00  0.00     0.009 A 
ATOM     78  C   UNL     1      -3.019 -14.135  12.310  1.00  0.00     0.001 A 
ATOM     79  C   UNL     1      -1.251 -12.860  13.350  1.00  0.00     0.001 A 
ATOM     80  C   UNL     1      -2.263 -13.814  13.437  1.00  0.00     0.000 A 
ENDBRANCH  62  75
ENDBRANCH  36  37
ENDBRANCH  29  31
ENDBRANCH  28  29
ENDBRANCH  27  28
ENDBRANCH  26  27
ENDBRANCH  25  26
ENDBRANCH  24  25
ENDBRANCH   1  24
TORSDOF 21
