REMARK SMILES O=C(OCCOCCOCCOC(=O)c1ccc2c(c1)=N[C@H](C(F)(F)F)N=2)c1ccc(-c2c3nc(c(-c4ccccc4)c4ccc([nH]4)c(-c4ccccc4)c4nc(c(-c5ccccc5)c5ccc2[nH]5)C=C4)C=C3)cc1
REMARK SMILES IDX 7 1 6 2 5 3 4 4 3 5 2 6 1 7 28 8 29 9 75 10 30 11 74 12
REMARK SMILES IDX 31 13 32 14 33 15 68 16 34 17 73 18 67 19 69 20 35 21 72 22
REMARK SMILES IDX 66 23 65 24 36 26 58 27 43 28 57 29 44 30 47 31 56 32 70 33
REMARK SMILES IDX 45 34 46 35 55 37 71 38 48 39 37 40 38 41 42 42 39 43 41 44
REMARK SMILES IDX 40 45 59 46 60 47 64 48 61 49 63 50 62 51 49 52 50 53 54 54
REMARK SMILES IDX 51 55 53 56 52 57 8 58 9 59 10 60 11 61 12 62 13 63 14 64
REMARK SMILES IDX 15 65 16 66 20 67 17 68 19 69 18 70 21 71 27 72 22 73 23 74
REMARK SMILES IDX 24 75 25 76 26 77
REMARK H PARENT 69 25 47 36
REMARK Flexibility Score: inf
ROOT
ATOM      1  C   UNL     1       2.432   1.695  -0.987  1.00  0.00     0.188 C 
ENDROOT
BRANCH   1   2
ATOM      2  O   UNL     1       3.707   1.450  -0.371  1.00  0.00    -0.376 OA
BRANCH   2   3
ATOM      3  C   UNL     1       4.645   0.840  -1.265  1.00  0.00     0.202 C 
BRANCH   3   4
ATOM      4  C   UNL     1       4.514  -0.681  -1.404  1.00  0.00     0.261 C 
BRANCH   4   5
ATOM      5  O   UNL     1       3.187  -1.170  -1.168  1.00  0.00    -0.460 OA
BRANCH   5   6
ATOM      6  C   UNL     1       2.582  -1.498  -0.002  1.00  0.00     0.338 C 
ATOM      7  O   UNL     1       1.458  -1.996  -0.073  1.00  0.00    -0.246 OA
BRANCH   6   8
ATOM      8  C   UNL     1       3.151  -1.273   1.373  1.00  0.00     0.060 A 
ATOM      9  C   UNL     1       2.328  -1.641   2.458  1.00  0.00     0.016 A 
ATOM     10  C   UNL     1       4.408  -0.746   1.680  1.00  0.00     0.016 A 
ATOM     11  C   UNL     1       2.760  -1.518   3.785  1.00  0.00     0.010 A 
ATOM     12  C   UNL     1       4.856  -0.639   2.997  1.00  0.00     0.010 A 
ATOM     13  C   UNL     1       4.043  -1.039   4.056  1.00  0.00    -0.014 A 
BRANCH  13  14
ATOM     14  C   UNL     1       4.634  -1.107   5.405  1.00  0.00     0.031 A 
ATOM     15  C   UNL     1       4.850   0.118   6.232  1.00  0.00     0.074 A 
ATOM     16  C   UNL     1       5.120  -2.294   5.809  1.00  0.00     0.049 A 
ATOM     17  N   UNL     1       5.288   0.206   7.461  1.00  0.00    -0.248 NA
ATOM     18  C   UNL     1       4.561   1.414   5.599  1.00  0.00     0.031 C 
ATOM     19  C   UNL     1       5.069  -3.530   5.026  1.00  0.00     0.029 A 
ATOM     20  N   UNL     1       5.784  -2.646   6.954  1.00  0.00    -0.354 N 
ATOM     21  C   UNL     1       5.253   1.556   7.775  1.00  0.00     0.074 A 
ATOM     22  C   UNL     1       4.855   2.260   6.579  1.00  0.00     0.031 C 
ATOM     23  C   UNL     1       5.686  -4.504   5.710  1.00  0.00     0.029 A 
ATOM     24  C   UNL     1       6.173  -3.961   6.974  1.00  0.00     0.049 A 
ATOM     25  H   UNL     1       5.964  -2.017   7.689  1.00  0.00     0.167 HD
ATOM     26  C   UNL     1       5.504   2.143   8.967  1.00  0.00     0.031 A 
ATOM     27  C   UNL     1       6.838  -4.657   7.913  1.00  0.00     0.031 A 
ATOM     28  C   UNL     1       6.017   1.440  10.109  1.00  0.00     0.049 A 
ATOM     29  C   UNL     1       7.187  -3.978   9.203  1.00  0.00     0.074 A 
ATOM     30  C   UNL     1       6.284   1.930  11.374  1.00  0.00     0.029 A 
ATOM     31  N   UNL     1       6.384   0.103  10.105  1.00  0.00    -0.354 N 
ATOM     32  N   UNL     1       6.973  -2.733   9.558  1.00  0.00    -0.248 NA
ATOM     33  C   UNL     1       7.834  -4.798  10.234  1.00  0.00     0.031 C 
ATOM     34  C   UNL     1       6.883   0.906  12.113  1.00  0.00     0.029 A 
ATOM     35  C   UNL     1       6.925  -0.238  11.330  1.00  0.00     0.049 A 
ATOM     36  H   UNL     1       6.276  -0.511   9.344  1.00  0.00     0.167 HD
ATOM     37  C   UNL     1       7.432  -2.626  10.863  1.00  0.00     0.074 A 
ATOM     38  C   UNL     1       7.931  -3.935  11.238  1.00  0.00     0.031 C 
ATOM     39  C   UNL     1       7.432  -1.542  11.678  1.00  0.00     0.031 A 
BRANCH  26  40
ATOM     40  C   UNL     1       5.196   3.605   9.112  1.00  0.00    -0.014 A 
ATOM     41  C   UNL     1       6.223   4.549   9.248  1.00  0.00     0.009 A 
ATOM     42  C   UNL     1       3.862   4.030   9.229  1.00  0.00     0.009 A 
ATOM     43  C   UNL     1       5.921   5.891   9.499  1.00  0.00     0.001 A 
ATOM     44  C   UNL     1       3.563   5.374   9.464  1.00  0.00     0.001 A 
ATOM     45  C   UNL     1       4.593   6.302   9.602  1.00  0.00     0.000 A 
ENDBRANCH  26  40
BRANCH  27  46
ATOM     46  C   UNL     1       7.112  -6.095   7.665  1.00  0.00    -0.014 A 
ATOM     47  C   UNL     1       8.056  -6.487   6.701  1.00  0.00     0.009 A 
ATOM     48  C   UNL     1       6.332  -7.077   8.291  1.00  0.00     0.009 A 
ATOM     49  C   UNL     1       8.188  -7.831   6.346  1.00  0.00     0.001 A 
ATOM     50  C   UNL     1       6.484  -8.423   7.951  1.00  0.00     0.001 A 
ATOM     51  C   UNL     1       7.402  -8.797   6.970  1.00  0.00     0.000 A 
ENDBRANCH  27  46
BRANCH  39  52
ATOM     52  C   UNL     1       7.994  -1.706  13.059  1.00  0.00    -0.014 A 
ATOM     53  C   UNL     1       7.141  -1.631  14.172  1.00  0.00     0.009 A 
ATOM     54  C   UNL     1       9.377  -1.813  13.265  1.00  0.00     0.009 A 
ATOM     55  C   UNL     1       7.663  -1.639  15.465  1.00  0.00     0.001 A 
ATOM     56  C   UNL     1       9.895  -1.851  14.561  1.00  0.00     0.001 A 
ATOM     57  C   UNL     1       9.039  -1.752  15.658  1.00  0.00     0.000 A 
ENDBRANCH  39  52
ENDBRANCH  13  14
ENDBRANCH   6   8
ENDBRANCH   5   6
ENDBRANCH   4   5
ENDBRANCH   3   4
ENDBRANCH   2   3
ENDBRANCH   1   2
BRANCH   1  58
ATOM     58  C   UNL     1       1.886   3.086  -0.654  1.00  0.00     0.188 C 
BRANCH  58  59
ATOM     59  O   UNL     1       2.580   4.197  -1.219  1.00  0.00    -0.376 OA
BRANCH  59  60
ATOM     60  C   UNL     1       3.958   4.345  -0.897  1.00  0.00     0.202 C 
BRANCH  60  61
ATOM     61  C   UNL     1       4.313   4.793   0.525  1.00  0.00     0.261 C 
BRANCH  61  62
ATOM     62  O   UNL     1       3.674   4.059   1.584  1.00  0.00    -0.460 OA
BRANCH  62  63
ATOM     63  C   UNL     1       2.725   4.760   2.252  1.00  0.00     0.338 C 
ATOM     64  O   UNL     1       2.327   5.890   1.988  1.00  0.00    -0.246 OA
BRANCH  63  65
ATOM     65  C   UNL     1       2.288   4.055   3.481  1.00  0.00     0.062 A 
ATOM     66  C   UNL     1       2.594   4.688   4.755  1.00  0.00     0.018 A 
ATOM     67  C   UNL     1       1.527   2.951   3.380  1.00  0.00     0.046 A 
ATOM     68  C   UNL     1       2.115   4.257   5.928  1.00  0.00     0.031 A 
ATOM     69  C   UNL     1       0.950   2.418   4.623  1.00  0.00     0.087 A 
ATOM     70  C   UNL     1       1.254   3.077   5.911  1.00  0.00     0.086 A 
ATOM     71  N   UNL     1       0.166   1.407   4.771  1.00  0.00    -0.247 NA
ATOM     72  N   UNL     1       0.700   2.488   6.910  1.00  0.00    -0.247 NA
ATOM     73  C   UNL     1      -0.127   1.417   6.253  1.00  0.00     0.326 C 
BRANCH  73  74
ATOM     74  C   UNL     1      -1.643   1.625   6.550  1.00  0.00     0.431 C 
ATOM     75  F   UNL     1      -1.893   1.621   7.882  1.00  0.00    -0.167 F 
ATOM     76  F   UNL     1      -2.085   2.810   6.059  1.00  0.00    -0.167 F 
ATOM     77  F   UNL     1      -2.402   0.648   6.001  1.00  0.00    -0.167 F 
ENDBRANCH  73  74
ENDBRANCH  63  65
ENDBRANCH  62  63
ENDBRANCH  61  62
ENDBRANCH  60  61
ENDBRANCH  59  60
ENDBRANCH  58  59
ENDBRANCH   1  58
TORSDOF 18
