REMARK SMILES CC(C)c1csc(C(=O)N2C[C@@H]3c4ccccc4OC[C@]3(C(=O)OCCOCCOCCOC(=O)c3ccc(-c4c5nc(c(-c6ccccc6)c6ccc([nH]6)c(-c6ccccc6)c6nc(c(-c7ccccc7)c7ccc4[nH]7)C=C6)C=C5)cc3)C2)n1
REMARK SMILES IDX 28 1 27 2 26 3 25 4 24 5 22 6 23 7 21 8 10 9 11 10 84 11
REMARK SMILES IDX 12 12 13 13 20 14 14 15 18 16 19 17 15 18 17 19 16 20 8 21
REMARK SMILES IDX 9 22 7 23 4 24 5 25 85 26 6 27 2 28 1 29 3 30 29 31 30 32
REMARK SMILES IDX 31 33 32 34 33 35 34 36 35 37 36 38 37 39 83 40 38 41 82 42
REMARK SMILES IDX 39 43 40 44 41 45 76 46 42 47 81 48 75 49 77 50 43 51 80 52
REMARK SMILES IDX 74 53 73 54 44 56 66 57 51 58 65 59 52 60 55 61 64 62 78 63
REMARK SMILES IDX 53 64 54 65 63 67 79 68 56 69 45 70 46 71 50 72 47 73 49 74
REMARK SMILES IDX 48 75 67 76 68 77 72 78 69 79 71 80 70 81 57 82 58 83 62 84
REMARK SMILES IDX 59 85 61 86 60 87
REMARK H PARENT 77 55 55 66
REMARK Flexibility Score: inf
ROOT
ATOM      1  C   UNL     1      -3.755  -8.219   2.958  1.00  0.00     0.188 C 
ENDROOT
BRANCH   1   2
ATOM      2  O   UNL     1      -3.558  -7.354   4.064  1.00  0.00    -0.376 OA
BRANCH   2   3
ATOM      3  C   UNL     1      -2.272  -6.796   4.247  1.00  0.00     0.202 C 
BRANCH   3   4
ATOM      4  C   UNL     1      -1.726  -5.780   3.204  1.00  0.00     0.261 C 
BRANCH   4   5
ATOM      5  O   UNL     1      -2.156  -6.011   1.849  1.00  0.00    -0.463 OA
BRANCH   5   6
ATOM      6  C   UNL     1      -1.405  -5.756   0.701  1.00  0.00     0.318 C 
ATOM      7  O   UNL     1      -0.226  -5.460   0.686  1.00  0.00    -0.251 OA
BRANCH   6   8
ATOM      8  C   UNL     1      -2.359  -6.011  -0.498  1.00  0.00     0.128 C 
ATOM      9  N   UNL     1      -3.583  -4.143  -1.399  1.00  0.00    -0.335 N 
ATOM     10  C   UNL     1      -3.299  -4.932  -2.532  1.00  0.00     0.129 C 
ATOM     11  C   UNL     1      -3.423  -4.909  -0.189  1.00  0.00     0.143 C 
ATOM     12  C   UNL     1      -2.157  -5.861  -2.067  1.00  0.00     0.065 C 
ATOM     13  C   UNL     1      -2.453  -7.110  -2.920  1.00  0.00     0.000 A 
ATOM     14  C   UNL     1      -2.495  -7.526  -0.315  1.00  0.00     0.251 C 
ATOM     15  C   UNL     1      -2.285  -7.125  -4.311  1.00  0.00     0.008 A 
ATOM     16  C   UNL     1      -3.186  -8.161  -2.356  1.00  0.00     0.122 A 
ATOM     17  O   UNL     1      -3.544  -8.120  -1.043  1.00  0.00    -0.492 OA
ATOM     18  C   UNL     1      -2.818  -8.171  -5.082  1.00  0.00     0.001 A 
ATOM     19  C   UNL     1      -3.686  -9.220  -3.107  1.00  0.00     0.047 A 
ATOM     20  C   UNL     1      -3.496  -9.230  -4.479  1.00  0.00     0.004 A 
BRANCH   9  21
ATOM     21  C   UNL     1      -4.100  -2.870  -1.521  1.00  0.00     0.282 C 
ATOM     22  O   UNL     1      -5.230  -2.692  -1.977  1.00  0.00    -0.266 OA
BRANCH  21  23
ATOM     23  C   UNL     1      -3.124  -1.812  -1.267  1.00  0.00     0.181 A 
ATOM     24  C   UNL     1      -1.124  -0.852  -1.126  1.00  0.00     0.055 A 
ATOM     25  C   UNL     1      -1.923   0.277  -1.199  1.00  0.00     0.091 A 
ATOM     26  N   UNL     1      -1.831  -2.045  -1.121  1.00  0.00    -0.236 NA
ATOM     27  S   UNL     1      -3.577  -0.162  -1.297  1.00  0.00    -0.117 S 
BRANCH  24  28
ATOM     28  C   UNL     1       0.386  -0.882  -1.117  1.00  0.00     0.033 C 
ATOM     29  C   UNL     1       0.969  -0.023   0.007  1.00  0.00     0.014 C 
ATOM     30  C   UNL     1       0.952  -2.303  -1.027  1.00  0.00     0.014 C 
ENDBRANCH  24  28
ENDBRANCH  21  23
ENDBRANCH   9  21
ENDBRANCH   6   8
ENDBRANCH   5   6
ENDBRANCH   4   5
ENDBRANCH   3   4
ENDBRANCH   2   3
ENDBRANCH   1   2
BRANCH   1  31
ATOM     31  C   UNL     1      -4.861  -7.620   2.066  1.00  0.00     0.188 C 
BRANCH  31  32
ATOM     32  O   UNL     1      -5.938  -6.950   2.713  1.00  0.00    -0.376 OA
BRANCH  32  33
ATOM     33  C   UNL     1      -6.487  -7.586   3.859  1.00  0.00     0.202 C 
BRANCH  33  34
ATOM     34  C   UNL     1      -7.138  -8.954   3.616  1.00  0.00     0.261 C 
BRANCH  34  35
ATOM     35  O   UNL     1      -6.231  -9.935   3.059  1.00  0.00    -0.460 OA
BRANCH  35  36
ATOM     36  C   UNL     1      -6.642 -10.585   1.947  1.00  0.00     0.338 C 
ATOM     37  O   UNL     1      -7.737 -10.496   1.396  1.00  0.00    -0.246 OA
BRANCH  36  38
ATOM     38  C   UNL     1      -5.537 -11.396   1.393  1.00  0.00     0.060 A 
ATOM     39  C   UNL     1      -5.387 -12.736   1.745  1.00  0.00     0.016 A 
ATOM     40  C   UNL     1      -4.707 -10.852   0.410  1.00  0.00     0.016 A 
ATOM     41  C   UNL     1      -4.395 -13.513   1.121  1.00  0.00     0.010 A 
ATOM     42  C   UNL     1      -3.708 -11.620  -0.198  1.00  0.00     0.010 A 
ATOM     43  C   UNL     1      -3.549 -12.968   0.132  1.00  0.00    -0.014 A 
BRANCH  43  44
ATOM     44  C   UNL     1      -2.639 -13.831  -0.678  1.00  0.00     0.031 A 
ATOM     45  C   UNL     1      -1.139 -13.689  -0.655  1.00  0.00     0.074 A 
ATOM     46  C   UNL     1      -3.187 -14.713  -1.539  1.00  0.00     0.049 A 
ATOM     47  N   UNL     1      -0.235 -14.474  -1.192  1.00  0.00    -0.248 NA
ATOM     48  C   UNL     1      -0.578 -12.510   0.021  1.00  0.00     0.031 C 
ATOM     49  C   UNL     1      -4.622 -14.852  -1.791  1.00  0.00     0.029 A 
ATOM     50  N   UNL     1      -2.612 -15.660  -2.354  1.00  0.00    -0.354 N 
ATOM     51  C   UNL     1       0.997 -13.897  -0.905  1.00  0.00     0.074 A 
ATOM     52  C   UNL     1       0.722 -12.659  -0.206  1.00  0.00     0.031 C 
ATOM     53  C   UNL     1      -4.820 -15.866  -2.645  1.00  0.00     0.029 A 
ATOM     54  C   UNL     1      -3.529 -16.440  -3.018  1.00  0.00     0.049 A 
ATOM     55  H   UNL     1      -1.639 -15.768  -2.453  1.00  0.00     0.167 HD
ATOM     56  C   UNL     1       2.238 -14.371  -1.173  1.00  0.00     0.031 A 
ATOM     57  C   UNL     1      -3.366 -17.519  -3.811  1.00  0.00     0.031 A 
ATOM     58  C   UNL     1       2.504 -15.599  -1.882  1.00  0.00     0.049 A 
ATOM     59  C   UNL     1      -1.986 -18.064  -4.054  1.00  0.00     0.074 A 
ATOM     60  C   UNL     1       3.724 -16.223  -2.088  1.00  0.00     0.029 A 
ATOM     61  N   UNL     1       1.548 -16.375  -2.519  1.00  0.00    -0.354 N 
ATOM     62  N   UNL     1      -0.837 -17.621  -3.605  1.00  0.00    -0.248 NA
ATOM     63  C   UNL     1      -1.879 -19.268  -4.891  1.00  0.00     0.031 C 
ATOM     64  C   UNL     1       3.518 -17.326  -2.918  1.00  0.00     0.029 A 
ATOM     65  C   UNL     1       2.158 -17.443  -3.157  1.00  0.00     0.049 A 
ATOM     66  H   UNL     1       0.581 -16.194  -2.519  1.00  0.00     0.167 HD
ATOM     67  C   UNL     1       0.126 -18.498  -4.090  1.00  0.00     0.074 A 
ATOM     68  C   UNL     1      -0.575 -19.514  -4.846  1.00  0.00     0.031 C 
ATOM     69  C   UNL     1       1.469 -18.453  -3.922  1.00  0.00     0.031 A 
BRANCH  56  70
ATOM     70  C   UNL     1       3.433 -13.603  -0.663  1.00  0.00    -0.014 A 
ATOM     71  C   UNL     1       4.391 -13.101  -1.560  1.00  0.00     0.009 A 
ATOM     72  C   UNL     1       3.693 -13.517   0.715  1.00  0.00     0.009 A 
ATOM     73  C   UNL     1       5.588 -12.551  -1.092  1.00  0.00     0.001 A 
ATOM     74  C   UNL     1       4.875 -12.935   1.181  1.00  0.00     0.001 A 
ATOM     75  C   UNL     1       5.827 -12.466   0.278  1.00  0.00     0.000 A 
ENDBRANCH  56  70
BRANCH  57  76
ATOM     76  C   UNL     1      -4.573 -18.204  -4.348  1.00  0.00    -0.014 A 
ATOM     77  C   UNL     1      -5.390 -17.580  -5.304  1.00  0.00     0.009 A 
ATOM     78  C   UNL     1      -4.962 -19.453  -3.837  1.00  0.00     0.009 A 
ATOM     79  C   UNL     1      -6.588 -18.173  -5.710  1.00  0.00     0.001 A 
ATOM     80  C   UNL     1      -6.143 -20.060  -4.272  1.00  0.00     0.001 A 
ATOM     81  C   UNL     1      -6.961 -19.413  -5.196  1.00  0.00     0.000 A 
ENDBRANCH  57  76
BRANCH  69  82
ATOM     82  C   UNL     1       2.310 -19.521  -4.572  1.00  0.00    -0.014 A 
ATOM     83  C   UNL     1       3.042 -20.418  -3.776  1.00  0.00     0.009 A 
ATOM     84  C   UNL     1       2.486 -19.555  -5.963  1.00  0.00     0.009 A 
ATOM     85  C   UNL     1       3.955 -21.302  -4.355  1.00  0.00     0.001 A 
ATOM     86  C   UNL     1       3.374 -20.464  -6.543  1.00  0.00     0.001 A 
ATOM     87  C   UNL     1       4.119 -21.326  -5.738  1.00  0.00     0.000 A 
ENDBRANCH  69  82
ENDBRANCH  43  44
ENDBRANCH  36  38
ENDBRANCH  35  36
ENDBRANCH  34  35
ENDBRANCH  33  34
ENDBRANCH  32  33
ENDBRANCH  31  32
ENDBRANCH   1  31
TORSDOF 20
