REMARK SMILES C[C@@](NC(=O)C[C@@H]1CCC[NH2+]C1)(C(=O)OCCOCCOCCOC(=O)c1ccc(-c2c3nc(c(-c4ccccc4)c4ccc([nH]4)c(-c4ccccc4)c4nc(c(-c5ccccc5)c5ccc2[nH]5)C=C4)C=C3)cc1)C(F)(F)F
REMARK SMILES IDX 19 1 18 2 17 3 16 4 15 5 13 6 14 7 2 8 1 9 3 10 4 11 5 13
REMARK SMILES IDX 6 14 7 15 8 16 12 17 9 18 11 19 10 20 75 23 76 24 77 25
REMARK SMILES IDX 78 26 20 27 21 28 22 29 23 30 24 31 25 32 26 33 27 34 28 35
REMARK SMILES IDX 74 36 29 37 73 38 30 39 31 40 32 41 67 42 33 43 72 44 66 45
REMARK SMILES IDX 68 46 34 47 71 48 65 49 64 50 35 52 57 53 42 54 56 55 43 56
REMARK SMILES IDX 46 57 55 58 69 59 44 60 45 61 54 63 70 64 47 65 36 66 37 67
REMARK SMILES IDX 41 68 38 69 40 70 39 71 58 72 59 73 63 74 60 75 62 76 61 77
REMARK SMILES IDX 48 78 49 79 53 80 50 81 52 82 51 83
REMARK H PARENT 3 12 11 21 11 22 68 51 46 62
REMARK Flexibility Score: inf
ROOT
ATOM      1  C   UNL     1      -2.462   2.407   0.958  1.00  0.00     0.188 C 
ENDROOT
BRANCH   1   2
ATOM      2  O   UNL     1      -3.818   2.422   0.534  1.00  0.00    -0.376 OA
BRANCH   2   3
ATOM      3  C   UNL     1      -4.191   1.542  -0.520  1.00  0.00     0.202 C 
BRANCH   3   4
ATOM      4  C   UNL     1      -3.316   1.582  -1.775  1.00  0.00     0.261 C 
BRANCH   4   5
ATOM      5  O   UNL     1      -1.946   1.184  -1.527  1.00  0.00    -0.461 OA
BRANCH   5   6
ATOM      6  C   UNL     1      -0.969   1.877  -2.171  1.00  0.00     0.341 C 
ATOM      7  O   UNL     1      -1.214   2.822  -2.913  1.00  0.00    -0.249 OA
BRANCH   6   8
ATOM      8  C   UNL     1       0.435   1.260  -2.020  1.00  0.00     0.231 C 
ATOM      9  C   UNL     1       0.744   0.223  -0.926  1.00  0.00     0.058 C 
BRANCH   8  10
ATOM     10  N   UNL     1       0.825   0.658  -3.326  1.00  0.00    -0.333 N 
ATOM     11  C   UNL     1       0.281  -0.379  -4.017  1.00  0.00     0.221 C 
ATOM     12  H   UNL     1       1.602   1.080  -3.759  1.00  0.00     0.164 HD
ATOM     13  O   UNL     1       1.023  -0.966  -4.809  1.00  0.00    -0.275 OA
BRANCH  11  14
ATOM     14  C   UNL     1      -1.187  -0.763  -3.902  1.00  0.00     0.109 C 
BRANCH  14  15
ATOM     15  C   UNL     1      -1.621  -1.663  -2.727  1.00  0.00     0.054 C 
ATOM     16  C   UNL     1      -0.659  -2.818  -2.427  1.00  0.00     0.016 C 
ATOM     17  C   UNL     1      -3.041  -2.217  -2.958  1.00  0.00     0.264 C 
ATOM     18  C   UNL     1      -0.745  -3.900  -3.493  1.00  0.00     0.062 C 
ATOM     19  N   UNL     1      -3.073  -3.231  -4.009  1.00  0.00    -0.346 N 
ATOM     20  C   UNL     1      -2.189  -4.354  -3.694  1.00  0.00     0.260 C 
ATOM     21  H   UNL     1      -4.027  -3.577  -4.107  1.00  0.00     0.346 HD
ATOM     22  H   UNL     1      -2.752  -2.803  -4.877  1.00  0.00     0.346 HD
ENDBRANCH  14  15
ENDBRANCH  11  14
ENDBRANCH   8  10
BRANCH   8  23
ATOM     23  C   UNL     1       1.284   2.503  -1.645  1.00  0.00     0.422 C 
ATOM     24  F   UNL     1       0.866   3.043  -0.471  1.00  0.00    -0.168 F 
ATOM     25  F   UNL     1       2.583   2.146  -1.463  1.00  0.00    -0.168 F 
ATOM     26  F   UNL     1       1.285   3.477  -2.574  1.00  0.00    -0.168 F 
ENDBRANCH   8  23
ENDBRANCH   6   8
ENDBRANCH   5   6
ENDBRANCH   4   5
ENDBRANCH   3   4
ENDBRANCH   2   3
ENDBRANCH   1   2
BRANCH   1  27
ATOM     27  C   UNL     1      -1.812   1.049   1.277  1.00  0.00     0.188 C 
BRANCH  27  28
ATOM     28  O   UNL     1      -2.681  -0.067   1.239  1.00  0.00    -0.376 OA
BRANCH  28  29
ATOM     29  C   UNL     1      -2.841  -0.743   2.479  1.00  0.00     0.202 C 
BRANCH  29  30
ATOM     30  C   UNL     1      -3.608   0.056   3.543  1.00  0.00     0.261 C 
BRANCH  30  31
ATOM     31  O   UNL     1      -3.086   1.370   3.831  1.00  0.00    -0.460 OA
BRANCH  31  32
ATOM     32  C   UNL     1      -1.873   1.466   4.426  1.00  0.00     0.338 C 
ATOM     33  O   UNL     1      -1.186   0.543   4.830  1.00  0.00    -0.246 OA
BRANCH  32  34
ATOM     34  C   UNL     1      -1.390   2.861   4.225  1.00  0.00     0.060 A 
ATOM     35  C   UNL     1      -0.129   3.067   3.639  1.00  0.00     0.016 A 
ATOM     36  C   UNL     1      -2.223   3.955   4.479  1.00  0.00     0.016 A 
ATOM     37  C   UNL     1       0.303   4.360   3.320  1.00  0.00     0.010 A 
ATOM     38  C   UNL     1      -1.780   5.250   4.182  1.00  0.00     0.010 A 
ATOM     39  C   UNL     1      -0.504   5.464   3.628  1.00  0.00    -0.014 A 
BRANCH  39  40
ATOM     40  C   UNL     1       0.077   6.833   3.645  1.00  0.00     0.031 A 
ATOM     41  C   UNL     1       0.629   7.330   4.956  1.00  0.00     0.074 A 
ATOM     42  C   UNL     1       0.122   7.631   2.562  1.00  0.00     0.049 A 
ATOM     43  N   UNL     1       1.135   8.497   5.263  1.00  0.00    -0.248 NA
ATOM     44  C   UNL     1       0.598   6.372   6.074  1.00  0.00     0.031 C 
ATOM     45  C   UNL     1      -0.322   7.276   1.217  1.00  0.00     0.029 A 
ATOM     46  N   UNL     1       0.568   8.927   2.439  1.00  0.00    -0.354 N 
ATOM     47  C   UNL     1       1.471   8.414   6.609  1.00  0.00     0.074 A 
ATOM     48  C   UNL     1       1.081   7.099   7.066  1.00  0.00     0.031 C 
ATOM     49  C   UNL     1      -0.134   8.333   0.404  1.00  0.00     0.029 A 
ATOM     50  C   UNL     1       0.411   9.450   1.177  1.00  0.00     0.049 A 
ATOM     51  H   UNL     1       0.962   9.434   3.185  1.00  0.00     0.167 HD
ATOM     52  C   UNL     1       2.056   9.342   7.401  1.00  0.00     0.031 A 
ATOM     53  C   UNL     1       0.660  10.690   0.708  1.00  0.00     0.031 A 
ATOM     54  C   UNL     1       2.418  10.664   6.969  1.00  0.00     0.049 A 
ATOM     55  C   UNL     1       1.217  11.746   1.633  1.00  0.00     0.074 A 
ATOM     56  C   UNL     1       3.020  11.673   7.699  1.00  0.00     0.029 A 
ATOM     57  N   UNL     1       2.195  11.166   5.697  1.00  0.00    -0.354 N 
ATOM     58  N   UNL     1       1.559  11.648   2.896  1.00  0.00    -0.248 NA
ATOM     59  C   UNL     1       1.428  13.086   1.061  1.00  0.00     0.031 C 
ATOM     60  C   UNL     1       3.101  12.809   6.888  1.00  0.00     0.029 A 
ATOM     61  C   UNL     1       2.618  12.483   5.631  1.00  0.00     0.049 A 
ATOM     62  H   UNL     1       1.795  10.662   4.952  1.00  0.00     0.167 HD
ATOM     63  C   UNL     1       2.057  12.897   3.256  1.00  0.00     0.074 A 
ATOM     64  C   UNL     1       1.982  13.734   2.077  1.00  0.00     0.031 C 
ATOM     65  C   UNL     1       2.540  13.310   4.454  1.00  0.00     0.031 A 
BRANCH  52  66
ATOM     66  C   UNL     1       2.288   8.962   8.836  1.00  0.00    -0.014 A 
ATOM     67  C   UNL     1       3.238   7.991   9.193  1.00  0.00     0.009 A 
ATOM     68  C   UNL     1       1.535   9.579   9.847  1.00  0.00     0.009 A 
ATOM     69  C   UNL     1       3.394   7.613  10.528  1.00  0.00     0.001 A 
ATOM     70  C   UNL     1       1.718   9.225  11.184  1.00  0.00     0.001 A 
ATOM     71  C   UNL     1       2.638   8.233  11.522  1.00  0.00     0.000 A 
ENDBRANCH  52  66
BRANCH  53  72
ATOM     72  C   UNL     1       0.375  11.027  -0.715  1.00  0.00    -0.014 A 
ATOM     73  C   UNL     1       1.421  11.304  -1.609  1.00  0.00     0.009 A 
ATOM     74  C   UNL     1      -0.948  11.111  -1.177  1.00  0.00     0.009 A 
ATOM     75  C   UNL     1       1.149  11.679  -2.928  1.00  0.00     0.001 A 
ATOM     76  C   UNL     1      -1.216  11.457  -2.504  1.00  0.00     0.001 A 
ATOM     77  C   UNL     1      -0.169  11.750  -3.376  1.00  0.00     0.000 A 
ENDBRANCH  53  72
BRANCH  65  78
ATOM     78  C   UNL     1       3.074  14.715   4.549  1.00  0.00    -0.014 A 
ATOM     79  C   UNL     1       2.225  15.832   4.513  1.00  0.00     0.009 A 
ATOM     80  C   UNL     1       4.452  14.919   4.738  1.00  0.00     0.009 A 
ATOM     81  C   UNL     1       2.748  17.122   4.629  1.00  0.00     0.001 A 
ATOM     82  C   UNL     1       4.968  16.207   4.887  1.00  0.00     0.001 A 
ATOM     83  C   UNL     1       4.117  17.309   4.822  1.00  0.00     0.000 A 
ENDBRANCH  65  78
ENDBRANCH  39  40
ENDBRANCH  32  34
ENDBRANCH  31  32
ENDBRANCH  30  31
ENDBRANCH  29  30
ENDBRANCH  28  29
ENDBRANCH  27  28
ENDBRANCH   1  27
TORSDOF 21
