REMARK SMILES O=C(Cn1c(=O)[nH]c2ccccc2c1=O)NC[C@H]1CC[C@@H](C(=O)N2CCC(C(=O)OCCOCCOCCOC(=O)c3ccc(-c4c5nc(c(-c6ccccc6)c6ccc([nH]6)c(-c6ccccc6)c6nc(c(-c7ccccc7)c7ccc4[nH]7)C=C6)C=C5)cc3)CC2)CC1
REMARK SMILES IDX 33 1 32 2 31 3 30 4 28 5 29 6 27 7 22 8 23 9 24 10 25 11
REMARK SMILES IDX 91 12 26 13 90 14 21 15 18 16 19 17 93 18 20 19 92 20 17 21
REMARK SMILES IDX 16 22 1 23 2 24 3 26 4 27 5 28 14 29 6 30 7 31 13 32 15 33
REMARK SMILES IDX 8 34 12 36 9 37 11 38 10 39 34 40 35 41 36 42 37 43 38 44
REMARK SMILES IDX 39 45 40 46 41 47 42 48 43 49 89 50 44 51 88 52 45 53 46 54
REMARK SMILES IDX 47 55 82 56 48 57 87 58 81 59 83 60 49 61 86 62 80 63 79 64
REMARK SMILES IDX 50 66 72 67 57 68 71 69 58 70 61 71 70 72 84 73 59 74 60 75
REMARK SMILES IDX 69 77 85 78 62 79 51 80 52 81 56 82 53 83 55 84 54 85 73 86
REMARK SMILES IDX 74 87 78 88 75 89 77 90 76 91 63 92 64 93 68 94 65 95 67 96
REMARK SMILES IDX 66 97
REMARK H PARENT 16 25 7 35 83 65 61 76
REMARK Flexibility Score: inf
ROOT
ATOM      1  O   UNL     1      -4.686  -2.442  -2.151  1.00  0.00    -0.376 OA
ENDROOT
BRANCH   1   2
ATOM      2  C   UNL     1      -4.712  -3.804  -1.723  1.00  0.00     0.202 C 
BRANCH   2   3
ATOM      3  C   UNL     1      -3.397  -4.381  -1.188  1.00  0.00     0.261 C 
BRANCH   3   4
ATOM      4  O   UNL     1      -2.898  -3.718  -0.011  1.00  0.00    -0.463 OA
BRANCH   4   5
ATOM      5  C   UNL     1      -1.739  -3.030  -0.180  1.00  0.00     0.309 C 
ATOM      6  O   UNL     1      -1.129  -2.940  -1.241  1.00  0.00    -0.252 OA
BRANCH   5   7
ATOM      7  C   UNL     1      -1.226  -2.381   1.087  1.00  0.00     0.103 C 
ATOM      8  C   UNL     1       0.333  -2.347   5.092  1.00  0.00     0.225 C 
ATOM      9  O   UNL     1      -0.482  -2.527   6.008  1.00  0.00    -0.275 OA
ATOM     10  N   UNL     1      -0.114  -2.298   3.784  1.00  0.00    -0.342 N 
ATOM     11  C   UNL     1      -1.440  -1.726   3.517  1.00  0.00     0.120 C 
ATOM     12  C   UNL     1       0.734  -2.494   2.637  1.00  0.00     0.120 C 
ATOM     13  C   UNL     1      -2.154  -2.330   2.301  1.00  0.00     0.037 C 
ATOM     14  C   UNL     1       0.043  -3.133   1.456  1.00  0.00     0.037 C 
BRANCH   8  15
ATOM     15  C   UNL     1       1.786  -1.958   5.501  1.00  0.00     0.078 C 
ATOM     16  C   UNL     1       3.008   0.248   3.807  1.00  0.00     0.008 C 
ATOM     17  C   UNL     1       1.806   0.446   4.751  1.00  0.00     0.006 C 
ATOM     18  C   UNL     1       3.434  -1.216   3.593  1.00  0.00     0.006 C 
ATOM     19  C   UNL     1       1.797  -0.492   5.946  1.00  0.00     0.014 C 
ATOM     20  C   UNL     1       3.052  -2.231   4.685  1.00  0.00     0.014 C 
BRANCH  16  21
ATOM     21  C   UNL     1       2.739   1.064   2.510  1.00  0.00     0.119 C 
BRANCH  21  22
ATOM     22  N   UNL     1       3.243   0.525   1.260  1.00  0.00    -0.354 N 
ATOM     23  O   UNL     1       1.185  -0.175   0.528  1.00  0.00    -0.273 OA
ATOM     24  C   UNL     1       2.368   0.066   0.289  1.00  0.00     0.240 C 
ATOM     25  H   UNL     1       4.214   0.484   1.101  1.00  0.00     0.163 HD
BRANCH  24  26
ATOM     26  C   UNL     1       2.966  -0.268  -1.077  1.00  0.00     0.230 C 
BRANCH  26  27
ATOM     27  N   UNL     1       3.837   0.778  -1.595  1.00  0.00    -0.250 N 
ATOM     28  C   UNL     1       4.993   0.397  -2.253  1.00  0.00     0.329 A 
ATOM     29  C   UNL     1       3.304   2.064  -1.662  1.00  0.00     0.264 A 
ATOM     30  O   UNL     1       5.394  -0.763  -2.328  1.00  0.00    -0.248 OA
ATOM     31  N   UNL     1       5.706   1.388  -2.869  1.00  0.00    -0.307 N 
ATOM     32  C   UNL     1       4.173   3.115  -2.205  1.00  0.00     0.064 A 
ATOM     33  O   UNL     1       2.172   2.363  -1.293  1.00  0.00    -0.268 OA
ATOM     34  C   UNL     1       5.350   2.734  -2.837  1.00  0.00     0.055 A 
ATOM     35  H   UNL     1       6.519   1.136  -3.363  1.00  0.00     0.171 HD
ATOM     36  C   UNL     1       3.821   4.463  -2.105  1.00  0.00     0.016 A 
ATOM     37  C   UNL     1       6.167   3.697  -3.425  1.00  0.00     0.027 A 
ATOM     38  C   UNL     1       4.652   5.432  -2.664  1.00  0.00     0.001 A 
ATOM     39  C   UNL     1       5.816   5.048  -3.334  1.00  0.00     0.002 A 
ENDBRANCH  26  27
ENDBRANCH  24  26
ENDBRANCH  21  22
ENDBRANCH  16  21
ENDBRANCH   8  15
ENDBRANCH   5   7
ENDBRANCH   4   5
ENDBRANCH   3   4
ENDBRANCH   2   3
ENDBRANCH   1   2
BRANCH   1  40
ATOM     40  C   UNL     1      -4.444  -1.459  -1.154  1.00  0.00     0.188 C 
BRANCH  40  41
ATOM     41  C   UNL     1      -5.446  -1.395  -0.004  1.00  0.00     0.188 C 
BRANCH  41  42
ATOM     42  O   UNL     1      -5.704  -2.620   0.670  1.00  0.00    -0.376 OA
BRANCH  42  43
ATOM     43  C   UNL     1      -6.575  -2.517   1.804  1.00  0.00     0.202 C 
BRANCH  43  44
ATOM     44  C   UNL     1      -7.965  -1.899   1.535  1.00  0.00     0.261 C 
BRANCH  44  45
ATOM     45  O   UNL     1      -7.947  -0.525   1.089  1.00  0.00    -0.460 OA
BRANCH  45  46
ATOM     46  C   UNL     1      -7.286   0.381   1.849  1.00  0.00     0.338 C 
ATOM     47  O   UNL     1      -6.930   0.231   3.005  1.00  0.00    -0.246 OA
BRANCH  46  48
ATOM     48  C   UNL     1      -6.803   1.473   0.954  1.00  0.00     0.060 A 
ATOM     49  C   UNL     1      -7.527   1.887  -0.170  1.00  0.00     0.016 A 
ATOM     50  C   UNL     1      -5.527   2.005   1.188  1.00  0.00     0.016 A 
ATOM     51  C   UNL     1      -6.982   2.838  -1.043  1.00  0.00     0.010 A 
ATOM     52  C   UNL     1      -4.980   2.948   0.309  1.00  0.00     0.010 A 
ATOM     53  C   UNL     1      -5.709   3.385  -0.806  1.00  0.00    -0.014 A 
BRANCH  53  54
ATOM     54  C   UNL     1      -5.214   4.526  -1.619  1.00  0.00     0.031 A 
ATOM     55  C   UNL     1      -4.224   4.356  -2.736  1.00  0.00     0.074 A 
ATOM     56  C   UNL     1      -5.667   5.759  -1.316  1.00  0.00     0.049 A 
ATOM     57  N   UNL     1      -3.743   5.269  -3.545  1.00  0.00    -0.248 NA
ATOM     58  C   UNL     1      -3.712   3.001  -2.984  1.00  0.00     0.031 C 
ATOM     59  C   UNL     1      -6.633   6.058  -0.259  1.00  0.00     0.029 A 
ATOM     60  N   UNL     1      -5.380   6.984  -1.866  1.00  0.00    -0.354 N 
ATOM     61  C   UNL     1      -2.893   4.599  -4.415  1.00  0.00     0.074 A 
ATOM     62  C   UNL     1      -2.892   3.208  -4.009  1.00  0.00     0.031 C 
ATOM     63  C   UNL     1      -6.873   7.378  -0.249  1.00  0.00     0.029 A 
ATOM     64  C   UNL     1      -6.056   8.023  -1.273  1.00  0.00     0.049 A 
ATOM     65  H   UNL     1      -4.751   7.106  -2.613  1.00  0.00     0.167 HD
ATOM     66  C   UNL     1      -2.193   5.099  -5.462  1.00  0.00     0.031 A 
ATOM     67  C   UNL     1      -6.026   9.347  -1.518  1.00  0.00     0.031 A 
ATOM     68  C   UNL     1      -2.168   6.488  -5.849  1.00  0.00     0.049 A 
ATOM     69  C   UNL     1      -5.160   9.884  -2.622  1.00  0.00     0.074 A 
ATOM     70  C   UNL     1      -1.506   7.066  -6.921  1.00  0.00     0.029 A 
ATOM     71  N   UNL     1      -2.815   7.515  -5.181  1.00  0.00    -0.354 N 
ATOM     72  N   UNL     1      -4.419   9.227  -3.478  1.00  0.00    -0.248 NA
ATOM     73  C   UNL     1      -5.134  11.344  -2.802  1.00  0.00     0.031 C 
ATOM     74  C   UNL     1      -1.695   8.447  -6.863  1.00  0.00     0.029 A 
ATOM     75  C   UNL     1      -2.534   8.724  -5.797  1.00  0.00     0.049 A 
ATOM     76  H   UNL     1      -3.387   7.402  -4.388  1.00  0.00     0.167 HD
ATOM     77  C   UNL     1      -3.867  10.187  -4.317  1.00  0.00     0.074 A 
ATOM     78  C   UNL     1      -4.359  11.472  -3.872  1.00  0.00     0.031 C 
ATOM     79  C   UNL     1      -3.030  10.006  -5.366  1.00  0.00     0.031 A 
BRANCH  66  80
ATOM     80  C   UNL     1      -1.391   4.150  -6.311  1.00  0.00    -0.014 A 
ATOM     81  C   UNL     1       0.011   4.226  -6.320  1.00  0.00     0.009 A 
ATOM     82  C   UNL     1      -2.032   3.305  -7.230  1.00  0.00     0.009 A 
ATOM     83  C   UNL     1       0.755   3.497  -7.250  1.00  0.00     0.001 A 
ATOM     84  C   UNL     1      -1.284   2.558  -8.143  1.00  0.00     0.001 A 
ATOM     85  C   UNL     1       0.106   2.664  -8.161  1.00  0.00     0.000 A 
ENDBRANCH  66  80
BRANCH  67  86
ATOM     86  C   UNL     1      -6.877  10.258  -0.709  1.00  0.00    -0.014 A 
ATOM     87  C   UNL     1      -6.607  10.473   0.652  1.00  0.00     0.009 A 
ATOM     88  C   UNL     1      -7.985  10.893  -1.290  1.00  0.00     0.009 A 
ATOM     89  C   UNL     1      -7.440  11.289   1.419  1.00  0.00     0.001 A 
ATOM     90  C   UNL     1      -8.798  11.734  -0.527  1.00  0.00     0.001 A 
ATOM     91  C   UNL     1      -8.530  11.924   0.828  1.00  0.00     0.000 A 
ENDBRANCH  67  86
BRANCH  79  92
ATOM     92  C   UNL     1      -2.591  11.212  -6.149  1.00  0.00    -0.014 A 
ATOM     93  C   UNL     1      -3.042  11.384  -7.469  1.00  0.00     0.009 A 
ATOM     94  C   UNL     1      -1.632  12.098  -5.638  1.00  0.00     0.009 A 
ATOM     95  C   UNL     1      -2.520  12.401  -8.271  1.00  0.00     0.001 A 
ATOM     96  C   UNL     1      -1.131  13.132  -6.434  1.00  0.00     0.001 A 
ATOM     97  C   UNL     1      -1.565  13.274  -7.753  1.00  0.00     0.000 A 
ENDBRANCH  79  92
ENDBRANCH  53  54
ENDBRANCH  46  48
ENDBRANCH  45  46
ENDBRANCH  44  45
ENDBRANCH  43  44
ENDBRANCH  42  43
ENDBRANCH  41  42
ENDBRANCH  40  41
ENDBRANCH   1  40
TORSDOF 22
