REMARK SMILES COc1ccc(/C(=C/C(=O)OCCOCCOCCOC(=O)c2ccc(-c3c4nc(c(-c5ccccc5)c5ccc([nH]5)c(-c5ccccc5)c5nc(c(-c6ccccc6)c6ccc3[nH]6)C=C5)C=C4)cc2)C(C)C)cc1C
REMARK SMILES IDX 15 1 14 2 13 3 12 4 11 5 9 6 10 7 8 8 7 9 6 10 3 11 4 12
REMARK SMILES IDX 75 13 5 14 74 15 76 16 2 17 1 18 71 19 72 20 73 21 16 22
REMARK SMILES IDX 17 23 18 24 19 25 20 26 21 27 22 28 23 29 24 30 70 31 25 32
REMARK SMILES IDX 69 33 26 34 27 35 28 36 63 37 29 38 68 39 62 40 64 41 30 42
REMARK SMILES IDX 67 43 61 44 60 45 31 47 53 48 38 49 52 50 39 51 42 52 51 53
REMARK SMILES IDX 65 54 40 55 41 56 50 58 66 59 43 60 32 61 33 62 37 63 34 64
REMARK SMILES IDX 36 65 35 66 54 67 55 68 59 69 56 70 58 71 57 72 44 73 45 74
REMARK SMILES IDX 49 75 46 76 48 77 47 78
REMARK H PARENT 64 46 42 57
REMARK Flexibility Score: inf
ROOT
ATOM      1  C   UNL     1       1.903  -4.941 -11.655  1.00  0.00     0.188 C 
ENDROOT
BRANCH   1   2
ATOM      2  O   UNL     1       2.799  -3.848 -11.768  1.00  0.00    -0.376 OA
BRANCH   2   3
ATOM      3  C   UNL     1       3.968  -3.460 -11.023  1.00  0.00     0.202 C 
BRANCH   3   4
ATOM      4  C   UNL     1       4.396  -3.365  -9.412  1.00  0.00     0.261 C 
BRANCH   4   5
ATOM      5  O   UNL     1       3.940  -2.328  -8.076  1.00  0.00    -0.460 OA
BRANCH   5   6
ATOM      6  C   UNL     1       2.800  -1.789  -7.359  1.00  0.00     0.331 C 
ATOM      7  O   UNL     1       2.300  -0.673  -7.509  1.00  0.00    -0.247 OA
BRANCH   6   8
ATOM      8  C   UNL     1       2.235  -2.382  -6.121  1.00  0.00     0.098 C 
ATOM      9  C   UNL     1       2.725  -1.870  -4.980  1.00  0.00    -0.031 C 
BRANCH   9  10
ATOM     10  C   UNL     1       1.955  -1.864  -3.691  1.00  0.00    -0.021 A 
ATOM     11  C   UNL     1       0.635  -1.433  -1.211  1.00  0.00     0.121 A 
ATOM     12  C   UNL     1       2.021  -1.419  -1.291  1.00  0.00     0.047 A 
ATOM     13  C   UNL     1      -0.123  -1.790  -2.330  1.00  0.00    -0.008 A 
ATOM     14  C   UNL     1       2.659  -1.629  -2.508  1.00  0.00     0.012 A 
ATOM     15  C   UNL     1       0.545  -1.977  -3.572  1.00  0.00     0.015 A 
ATOM     16  C   UNL     1      -1.622  -1.933  -2.241  1.00  0.00     0.048 C 
BRANCH  11  17
ATOM     17  O   UNL     1       0.009  -1.121  -0.031  1.00  0.00    -0.496 OA
ATOM     18  C   UNL     1       0.426   0.158   0.460  1.00  0.00     0.278 C 
ENDBRANCH  11  17
ENDBRANCH   9  10
BRANCH   9  19
ATOM     19  C   UNL     1       4.109  -1.224  -5.085  1.00  0.00     0.014 C 
ATOM     20  C   UNL     1       4.209   0.205  -4.566  1.00  0.00     0.012 C 
ATOM     21  C   UNL     1       5.171  -2.249  -4.705  1.00  0.00     0.012 C 
ENDBRANCH   9  19
ENDBRANCH   6   8
ENDBRANCH   5   6
ENDBRANCH   4   5
ENDBRANCH   3   4
ENDBRANCH   2   3
ENDBRANCH   1   2
BRANCH   1  22
ATOM     22  C   UNL     1       2.352  -6.299 -11.202  1.00  0.00     0.188 C 
BRANCH  22  23
ATOM     23  O   UNL     1       3.338  -6.144 -10.208  1.00  0.00    -0.376 OA
BRANCH  23  24
ATOM     24  C   UNL     1       3.959  -7.360  -9.838  1.00  0.00     0.202 C 
BRANCH  24  25
ATOM     25  C   UNL     1       2.998  -8.360  -9.165  1.00  0.00     0.261 C 
BRANCH  25  26
ATOM     26  O   UNL     1       2.306  -7.752  -8.047  1.00  0.00    -0.460 OA
BRANCH  26  27
ATOM     27  C   UNL     1       0.965  -7.433  -8.203  1.00  0.00     0.338 C 
ATOM     28  O   UNL     1       0.126  -8.153  -8.661  1.00  0.00    -0.246 OA
BRANCH  27  29
ATOM     29  C   UNL     1       0.808  -5.946  -7.995  1.00  0.00     0.060 A 
ATOM     30  C   UNL     1      -0.154  -5.112  -8.579  1.00  0.00     0.016 A 
ATOM     31  C   UNL     1       1.909  -5.316  -7.573  1.00  0.00     0.016 A 
ATOM     32  C   UNL     1       0.157  -3.751  -9.052  1.00  0.00     0.010 A 
ATOM     33  C   UNL     1       2.206  -4.125  -8.233  1.00  0.00     0.010 A 
ATOM     34  C   UNL     1       1.450  -3.228  -9.079  1.00  0.00    -0.014 A 
BRANCH  34  35
ATOM     35  C   UNL     1       1.921  -1.820 -10.004  1.00  0.00     0.031 A 
ATOM     36  C   UNL     1       2.982  -0.534  -9.767  1.00  0.00     0.074 A 
ATOM     37  C   UNL     1       1.342  -1.589 -11.209  1.00  0.00     0.049 A 
ATOM     38  N   UNL     1       2.586   0.717  -9.626  1.00  0.00    -0.248 NA
ATOM     39  C   UNL     1       4.477  -0.537  -9.614  1.00  0.00     0.031 C 
ATOM     40  C   UNL     1       1.615  -0.510 -12.172  1.00  0.00     0.029 A 
ATOM     41  N   UNL     1       0.332  -2.317 -11.828  1.00  0.00    -0.354 N 
ATOM     42  C   UNL     1       3.680   1.487  -9.203  1.00  0.00     0.074 A 
ATOM     43  C   UNL     1       4.776   0.610  -9.008  1.00  0.00     0.031 C 
ATOM     44  C   UNL     1       0.599  -0.453 -13.050  1.00  0.00     0.029 A 
ATOM     45  C   UNL     1      -0.390  -1.428 -12.626  1.00  0.00     0.049 A 
ATOM     46  H   UNL     1       0.158  -3.281 -11.724  1.00  0.00     0.167 HD
ATOM     47  C   UNL     1       3.787   2.842  -9.270  1.00  0.00     0.031 A 
ATOM     48  C   UNL     1      -1.699  -1.201 -12.343  1.00  0.00     0.031 A 
ATOM     49  C   UNL     1       2.805   3.320 -10.197  1.00  0.00     0.049 A 
ATOM     50  C   UNL     1      -1.905   0.239 -11.946  1.00  0.00     0.074 A 
ATOM     51  C   UNL     1       2.861   3.366 -11.580  1.00  0.00     0.029 A 
ATOM     52  N   UNL     1       1.474   3.280  -9.834  1.00  0.00    -0.354 N 
ATOM     53  N   UNL     1      -0.973   1.021 -11.467  1.00  0.00    -0.248 NA
ATOM     54  C   UNL     1      -3.183   0.919 -12.111  1.00  0.00     0.031 C 
ATOM     55  C   UNL     1       1.535   3.232 -12.056  1.00  0.00     0.029 A 
ATOM     56  C   UNL     1       0.685   3.233 -10.964  1.00  0.00     0.049 A 
ATOM     57  H   UNL     1       1.139   3.285  -8.908  1.00  0.00     0.167 HD
ATOM     58  C   UNL     1      -1.489   2.278 -11.287  1.00  0.00     0.074 A 
ATOM     59  C   UNL     1      -2.874   2.160 -11.701  1.00  0.00     0.031 C 
ATOM     60  C   UNL     1      -0.753   3.336 -10.840  1.00  0.00     0.031 A 
BRANCH  47  61
ATOM     61  C   UNL     1       5.064   3.546  -8.862  1.00  0.00    -0.014 A 
ATOM     62  C   UNL     1       5.768   4.367  -9.757  1.00  0.00     0.009 A 
ATOM     63  C   UNL     1       5.650   3.346  -7.591  1.00  0.00     0.009 A 
ATOM     64  C   UNL     1       7.032   4.891  -9.438  1.00  0.00     0.001 A 
ATOM     65  C   UNL     1       6.923   3.855  -7.275  1.00  0.00     0.001 A 
ATOM     66  C   UNL     1       7.620   4.617  -8.206  1.00  0.00     0.000 A 
ENDBRANCH  47  61
BRANCH  48  67
ATOM     67  C   UNL     1      -2.418  -2.404 -11.805  1.00  0.00    -0.014 A 
ATOM     68  C   UNL     1      -2.354  -3.604 -12.560  1.00  0.00     0.009 A 
ATOM     69  C   UNL     1      -2.858  -2.497 -10.479  1.00  0.00     0.009 A 
ATOM     70  C   UNL     1      -2.583  -4.856 -11.977  1.00  0.00     0.001 A 
ATOM     71  C   UNL     1      -3.128  -3.755  -9.906  1.00  0.00     0.001 A 
ATOM     72  C   UNL     1      -2.956  -4.931 -10.643  1.00  0.00     0.000 A 
ENDBRANCH  48  67
BRANCH  60  73
ATOM     73  C   UNL     1      -1.296   4.646 -10.320  1.00  0.00    -0.014 A 
ATOM     74  C   UNL     1      -2.616   4.832  -9.905  1.00  0.00     0.009 A 
ATOM     75  C   UNL     1      -0.403   5.722 -10.087  1.00  0.00     0.009 A 
ATOM     76  C   UNL     1      -3.037   6.045  -9.347  1.00  0.00     0.001 A 
ATOM     77  C   UNL     1      -0.800   6.904  -9.464  1.00  0.00     0.001 A 
ATOM     78  C   UNL     1      -2.128   7.073  -9.113  1.00  0.00     0.000 A 
ENDBRANCH  60  73
ENDBRANCH  34  35
ENDBRANCH  27  29
ENDBRANCH  26  27
ENDBRANCH  25  26
ENDBRANCH  24  25
ENDBRANCH  23  24
ENDBRANCH  22  23
ENDBRANCH   1  22
TORSDOF 20
