REMARK SMILES CN(C)S(=O)(=O)c1cccc(-c2cc(Cl)cc(C(=O)OCCOCCOCCOC(=O)c3ccc(-c4c5nc(c(-c6ccccc6)c6ccc([nH]6)c(-c6ccccc6)c6nc(c(-c7ccccc7)c7ccc4[nH]7)C=C6)C=C5)cc3)c2)c1
REMARK SMILES IDX 24 1 23 2 22 3 21 4 20 5 18 6 19 7 17 8 12 9 13 10 80 11
REMARK SMILES IDX 14 12 15 13 16 14 11 15 7 16 8 17 81 18 9 19 10 20 4 21 5 22
REMARK SMILES IDX 6 23 2 24 1 25 3 26 25 27 26 28 27 29 28 30 29 31 30 32
REMARK SMILES IDX 31 33 32 34 33 35 79 36 34 37 78 38 35 39 36 40 37 41 72 42
REMARK SMILES IDX 38 43 77 44 71 45 73 46 39 47 76 48 70 49 69 50 40 52 62 53
REMARK SMILES IDX 47 54 61 55 48 56 51 57 60 58 74 59 49 60 50 61 59 63 75 64
REMARK SMILES IDX 52 65 41 66 42 67 46 68 43 69 45 70 44 71 63 72 64 73 68 74
REMARK SMILES IDX 65 75 67 76 66 77 53 78 54 79 58 80 55 81 57 82 56 83
REMARK H PARENT 73 51 51 62
REMARK Flexibility Score: inf
ROOT
ATOM      1  C   UNL     1       3.539  -8.001   8.270  1.00  0.00     0.188 C 
ENDROOT
BRANCH   1   2
ATOM      2  O   UNL     1       4.619  -8.800   7.797  1.00  0.00    -0.376 OA
BRANCH   2   3
ATOM      3  C   UNL     1       5.286  -8.449   6.589  1.00  0.00     0.202 C 
BRANCH   3   4
ATOM      4  C   UNL     1       4.462  -8.330   5.300  1.00  0.00     0.261 C 
BRANCH   4   5
ATOM      5  O   UNL     1       3.340  -7.439   5.405  1.00  0.00    -0.460 OA
BRANCH   5   6
ATOM      6  C   UNL     1       2.116  -8.012   5.253  1.00  0.00     0.338 C 
ATOM      7  O   UNL     1       1.870  -9.163   4.972  1.00  0.00    -0.246 OA
BRANCH   6   8
ATOM      8  C   UNL     1       1.076  -7.048   5.685  1.00  0.00     0.062 A 
ATOM      9  C   UNL     1       0.138  -4.789   5.750  1.00  0.00    -0.016 A 
ATOM     10  C   UNL     1      -0.863  -5.268   6.612  1.00  0.00     0.029 A 
ATOM     11  C   UNL     1       1.125  -5.700   5.318  1.00  0.00     0.024 A 
ATOM     12  C   UNL     1      -0.893  -6.613   6.993  1.00  0.00     0.042 A 
ATOM     13  Cl  UNL     1      -2.111  -7.165   8.076  1.00  0.00    -0.084 Cl
ATOM     14  C   UNL     1       0.056  -7.511   6.517  1.00  0.00     0.036 A 
BRANCH   9  15
ATOM     15  C   UNL     1       0.161  -3.391   5.276  1.00  0.00    -0.017 A 
ATOM     16  C   UNL     1       0.594  -1.808   3.468  1.00  0.00     0.083 A 
ATOM     17  C   UNL     1       0.367  -0.728   4.317  1.00  0.00     0.022 A 
ATOM     18  C   UNL     1       0.470  -3.120   3.934  1.00  0.00     0.030 A 
ATOM     19  C   UNL     1       0.008  -0.977   5.643  1.00  0.00     0.002 A 
ATOM     20  C   UNL     1      -0.087  -2.294   6.118  1.00  0.00     0.009 A 
BRANCH  16  21
ATOM     21  S   UNL     1       1.111  -1.586   1.788  1.00  0.00     0.242 S 
ATOM     22  O   UNL     1       0.549  -2.671   1.010  1.00  0.00    -0.207 OA
ATOM     23  O   UNL     1       2.538  -1.354   1.828  1.00  0.00    -0.207 OA
BRANCH  21  24
ATOM     24  N   UNL     1       0.349  -0.150   1.250  1.00  0.00    -0.204 NA
ATOM     25  C   UNL     1       0.904   0.299  -0.054  1.00  0.00     0.124 C 
ATOM     26  C   UNL     1      -1.130  -0.205   1.199  1.00  0.00     0.124 C 
ENDBRANCH  21  24
ENDBRANCH  16  21
ENDBRANCH   9  15
ENDBRANCH   6   8
ENDBRANCH   5   6
ENDBRANCH   4   5
ENDBRANCH   3   4
ENDBRANCH   2   3
ENDBRANCH   1   2
BRANCH   1  27
ATOM     27  C   UNL     1       3.652  -6.461   8.248  1.00  0.00     0.188 C 
BRANCH  27  28
ATOM     28  O   UNL     1       4.913  -5.999   7.824  1.00  0.00    -0.376 OA
BRANCH  28  29
ATOM     29  C   UNL     1       5.811  -5.470   8.781  1.00  0.00     0.202 C 
BRANCH  29  30
ATOM     30  C   UNL     1       6.103  -6.194  10.108  1.00  0.00     0.261 C 
BRANCH  30  31
ATOM     31  O   UNL     1       5.046  -6.966  10.688  1.00  0.00    -0.460 OA
BRANCH  31  32
ATOM     32  C   UNL     1       4.181  -6.314  11.496  1.00  0.00     0.338 C 
ATOM     33  O   UNL     1       4.158  -5.123  11.745  1.00  0.00    -0.246 OA
BRANCH  32  34
ATOM     34  C   UNL     1       3.138  -7.273  11.917  1.00  0.00     0.060 A 
ATOM     35  C   UNL     1       1.806  -7.013  11.572  1.00  0.00     0.016 A 
ATOM     36  C   UNL     1       3.469  -8.405  12.668  1.00  0.00     0.016 A 
ATOM     37  C   UNL     1       0.792  -7.859  12.022  1.00  0.00     0.010 A 
ATOM     38  C   UNL     1       2.451  -9.244  13.130  1.00  0.00     0.010 A 
ATOM     39  C   UNL     1       1.105  -8.951  12.844  1.00  0.00    -0.014 A 
BRANCH  39  40
ATOM     40  C   UNL     1       0.022  -9.654  13.572  1.00  0.00     0.031 A 
ATOM     41  C   UNL     1      -0.281  -9.236  14.984  1.00  0.00     0.074 A 
ATOM     42  C   UNL     1      -0.694 -10.634  12.994  1.00  0.00     0.049 A 
ATOM     43  N   UNL     1      -1.176  -9.702  15.818  1.00  0.00    -0.248 NA
ATOM     44  C   UNL     1       0.542  -8.144  15.530  1.00  0.00     0.031 C 
ATOM     45  C   UNL     1      -0.521 -11.118  11.627  1.00  0.00     0.029 A 
ATOM     46  N   UNL     1      -1.712 -11.402  13.502  1.00  0.00    -0.354 N 
ATOM     47  C   UNL     1      -1.021  -8.964  16.984  1.00  0.00     0.074 A 
ATOM     48  C   UNL     1       0.076  -8.046  16.764  1.00  0.00     0.031 C 
ATOM     49  C   UNL     1      -1.397 -12.114  11.407  1.00  0.00     0.029 A 
ATOM     50  C   UNL     1      -2.174 -12.350  12.624  1.00  0.00     0.049 A 
ATOM     51  H   UNL     1      -2.076 -11.284  14.409  1.00  0.00     0.167 HD
ATOM     52  C   UNL     1      -1.731  -9.034  18.136  1.00  0.00     0.031 A 
ATOM     53  C   UNL     1      -3.106 -13.309  12.789  1.00  0.00     0.031 A 
ATOM     54  C   UNL     1      -2.801  -9.964  18.372  1.00  0.00     0.049 A 
ATOM     55  C   UNL     1      -3.842 -13.415  14.097  1.00  0.00     0.074 A 
ATOM     56  C   UNL     1      -3.589 -10.107  19.500  1.00  0.00     0.029 A 
ATOM     57  N   UNL     1      -3.224 -10.922  17.463  1.00  0.00    -0.354 N 
ATOM     58  N   UNL     1      -3.716 -12.685  15.180  1.00  0.00    -0.248 NA
ATOM     59  C   UNL     1      -4.862 -14.469  14.199  1.00  0.00     0.031 C 
ATOM     60  C   UNL     1      -4.453 -11.188  19.294  1.00  0.00     0.029 A 
ATOM     61  C   UNL     1      -4.244 -11.679  18.015  1.00  0.00     0.049 A 
ATOM     62  H   UNL     1      -2.853 -11.047  16.560  1.00  0.00     0.167 HD
ATOM     63  C   UNL     1      -4.657 -13.173  16.080  1.00  0.00     0.074 A 
ATOM     64  C   UNL     1      -5.353 -14.254  15.412  1.00  0.00     0.031 C 
ATOM     65  C   UNL     1      -4.923 -12.758  17.343  1.00  0.00     0.031 A 
BRANCH  52  66
ATOM     66  C   UNL     1      -1.326  -8.097  19.239  1.00  0.00    -0.014 A 
ATOM     67  C   UNL     1      -1.551  -6.713  19.143  1.00  0.00     0.009 A 
ATOM     68  C   UNL     1      -0.693  -8.603  20.384  1.00  0.00     0.009 A 
ATOM     69  C   UNL     1      -1.105  -5.852  20.147  1.00  0.00     0.001 A 
ATOM     70  C   UNL     1      -0.275  -7.743  21.401  1.00  0.00     0.001 A 
ATOM     71  C   UNL     1      -0.469  -6.368  21.276  1.00  0.00     0.000 A 
ENDBRANCH  52  66
BRANCH  53  72
ATOM     72  C   UNL     1      -3.387 -14.256  11.679  1.00  0.00    -0.014 A 
ATOM     73  C   UNL     1      -4.584 -14.175  10.951  1.00  0.00     0.009 A 
ATOM     74  C   UNL     1      -2.448 -15.242  11.336  1.00  0.00     0.009 A 
ATOM     75  C   UNL     1      -4.840 -15.073   9.912  1.00  0.00     0.001 A 
ATOM     76  C   UNL     1      -2.696 -16.121  10.281  1.00  0.00     0.001 A 
ATOM     77  C   UNL     1      -3.894 -16.040   9.573  1.00  0.00     0.000 A 
ENDBRANCH  53  72
BRANCH  65  78
ATOM     78  C   UNL     1      -6.038 -13.451  18.078  1.00  0.00    -0.014 A 
ATOM     79  C   UNL     1      -5.895 -14.761  18.559  1.00  0.00     0.009 A 
ATOM     80  C   UNL     1      -7.235 -12.762  18.330  1.00  0.00     0.009 A 
ATOM     81  C   UNL     1      -6.942 -15.379  19.248  1.00  0.00     0.001 A 
ATOM     82  C   UNL     1      -8.269 -13.371  19.043  1.00  0.00     0.001 A 
ATOM     83  C   UNL     1      -8.125 -14.682  19.493  1.00  0.00     0.000 A 
ENDBRANCH  65  78
ENDBRANCH  39  40
ENDBRANCH  32  34
ENDBRANCH  31  32
ENDBRANCH  30  31
ENDBRANCH  29  30
ENDBRANCH  28  29
ENDBRANCH  27  28
ENDBRANCH   1  27
TORSDOF 20
