REMARK SMILES NS(=O)(=O)c1ccc(-n2nc(NC(=O)NCCCCCCCCCCC(=O)OCCOCCOCCOC(=O)c3ccc(-c4c5nc(c(-c6ccccc6)c6ccc([nH]6)c(-c6ccccc6)c6nc(c(-c7ccccc7)c7ccc4[nH]7)C=C6)C=C5)cc3)cc2-c2ccccc2)cc1
REMARK SMILES IDX 25 1 24 2 23 3 22 4 21 5 20 6 19 7 18 8 17 9 16 10 15 11
REMARK SMILES IDX 12 12 13 13 14 15 11 17 9 18 10 19 89 20 88 21 8 22 5 23
REMARK SMILES IDX 6 24 97 25 7 26 96 27 2 28 3 29 4 30 1 31 90 34 91 35 95 36
REMARK SMILES IDX 92 37 94 38 93 39 26 40 27 41 28 42 29 43 30 44 31 45 32 46
REMARK SMILES IDX 33 47 34 48 35 49 36 50 37 51 38 52 39 53 40 54 41 55 87 56
REMARK SMILES IDX 42 57 86 58 43 59 44 60 45 61 80 62 46 63 85 64 79 65 81 66
REMARK SMILES IDX 47 67 84 68 78 69 77 70 48 72 70 73 55 74 69 75 56 76 59 77
REMARK SMILES IDX 68 78 82 79 57 80 58 81 67 83 83 84 60 85 49 86 50 87 54 88
REMARK SMILES IDX 51 89 53 90 52 91 71 92 72 93 76 94 73 95 75 96 74 97 61 98
REMARK SMILES IDX 62 99 66 100 63 101 65 102 64 103
REMARK H PARENT 12 14 15 16 1 32 1 33 81 71 59 82
REMARK Flexibility Score: inf
ROOT
ATOM      1  C   UNL     1       3.272   0.207   3.372  1.00  0.00     0.123 C 
ENDROOT
BRANCH   1   2
ATOM      2  C   UNL     1       2.040   1.103   3.218  1.00  0.00     0.012 C 
BRANCH   2   3
ATOM      3  C   UNL     1       2.235   2.587   3.531  1.00  0.00     0.001 C 
BRANCH   3   4
ATOM      4  C   UNL     1       3.444   3.228   2.860  1.00  0.00     0.000 C 
BRANCH   4   5
ATOM      5  C   UNL     1       3.319   3.355   1.344  1.00  0.00     0.000 C 
BRANCH   5   6
ATOM      6  C   UNL     1       2.199   4.285   0.871  1.00  0.00     0.000 C 
BRANCH   6   7
ATOM      7  C   UNL     1       2.185   5.687   1.493  1.00  0.00     0.000 C 
BRANCH   7   8
ATOM      8  C   UNL     1       3.490   6.487   1.394  1.00  0.00     0.002 C 
BRANCH   8   9
ATOM      9  C   UNL     1       4.122   6.579   0.004  1.00  0.00     0.021 C 
BRANCH   9  10
ATOM     10  C   UNL     1       3.182   7.045  -1.098  1.00  0.00     0.117 C 
BRANCH  10  11
ATOM     11  N   UNL     1       2.827   8.446  -1.021  1.00  0.00    -0.338 N 
ATOM     12  N   UNL     1       2.386   8.933  -3.305  1.00  0.00    -0.291 N 
ATOM     13  C   UNL     1       2.527   9.313  -2.015  1.00  0.00     0.320 C 
ATOM     14  H   UNL     1       2.579   9.638  -3.964  1.00  0.00     0.173 HD
ATOM     15  O   UNL     1       2.503  10.517  -1.742  1.00  0.00    -0.248 OA
ATOM     16  H   UNL     1       2.801   8.824  -0.112  1.00  0.00     0.165 HD
BRANCH  12  17
ATOM     17  C   UNL     1       2.018   7.725  -3.849  1.00  0.00     0.157 A 
ATOM     18  N   UNL     1       1.468   5.678  -3.996  1.00  0.00    -0.231 N 
ATOM     19  N   UNL     1       1.323   6.776  -3.223  1.00  0.00    -0.149 NA
ATOM     20  C   UNL     1       1.906   6.013  -5.273  1.00  0.00     0.076 A 
ATOM     21  C   UNL     1       2.286   7.341  -5.180  1.00  0.00     0.078 A 
BRANCH  18  22
ATOM     22  C   UNL     1       1.265   4.391  -3.425  1.00  0.00     0.065 A 
ATOM     23  C   UNL     1       0.802   1.852  -2.369  1.00  0.00     0.082 A 
ATOM     24  C   UNL     1       1.843   2.041  -3.280  1.00  0.00     0.024 A 
ATOM     25  C   UNL     1       0.014   2.931  -1.950  1.00  0.00     0.024 A 
ATOM     26  C   UNL     1       2.071   3.310  -3.811  1.00  0.00     0.030 A 
ATOM     27  C   UNL     1       0.265   4.210  -2.458  1.00  0.00     0.030 A 
BRANCH  23  28
ATOM     28  S   UNL     1       0.403   0.213  -1.836  1.00  0.00     0.238 S 
ATOM     29  O   UNL     1       1.097  -0.741  -2.672  1.00  0.00    -0.207 OA
ATOM     30  O   UNL     1      -1.014   0.131  -1.582  1.00  0.00    -0.207 OA
BRANCH  28  31
ATOM     31  N   UNL     1       1.151   0.122  -0.338  1.00  0.00    -0.225 NA
ATOM     32  H   UNL     1       0.984  -0.797   0.070  1.00  0.00     0.137 HD
ATOM     33  H   UNL     1       0.769   0.841   0.277  1.00  0.00     0.137 HD
ENDBRANCH  28  31
ENDBRANCH  23  28
ENDBRANCH  18  22
BRANCH  20  34
ATOM     34  C   UNL     1       1.920   5.111  -6.423  1.00  0.00     0.000 A 
ATOM     35  C   UNL     1       0.794   4.329  -6.725  1.00  0.00     0.010 A 
ATOM     36  C   UNL     1       3.062   4.993  -7.223  1.00  0.00     0.010 A 
ATOM     37  C   UNL     1       0.824   3.419  -7.782  1.00  0.00     0.001 A 
ATOM     38  C   UNL     1       3.088   4.086  -8.285  1.00  0.00     0.001 A 
ATOM     39  C   UNL     1       1.972   3.296  -8.559  1.00  0.00     0.000 A 
ENDBRANCH  20  34
ENDBRANCH  12  17
ENDBRANCH  10  11
ENDBRANCH   9  10
ENDBRANCH   8   9
ENDBRANCH   7   8
ENDBRANCH   6   7
ENDBRANCH   5   6
ENDBRANCH   4   5
ENDBRANCH   3   4
ENDBRANCH   2   3
ENDBRANCH   1   2
BRANCH   1  40
ATOM     40  C   UNL     1       3.989   0.181   4.710  1.00  0.00     0.305 C 
ATOM     41  O   UNL     1       5.054  -0.406   4.862  1.00  0.00    -0.252 OA
BRANCH  40  42
ATOM     42  O   UNL     1       3.294   0.792   5.696  1.00  0.00    -0.463 OA
BRANCH  42  43
ATOM     43  C   UNL     1       3.759   0.624   7.045  1.00  0.00     0.261 C 
BRANCH  43  44
ATOM     44  C   UNL     1       2.667   0.094   7.990  1.00  0.00     0.202 C 
BRANCH  44  45
ATOM     45  O   UNL     1       1.990  -1.092   7.569  1.00  0.00    -0.376 OA
BRANCH  45  46
ATOM     46  C   UNL     1       1.155  -0.977   6.416  1.00  0.00     0.188 C 
BRANCH  46  47
ATOM     47  C   UNL     1       0.139   0.175   6.435  1.00  0.00     0.188 C 
BRANCH  47  48
ATOM     48  O   UNL     1       0.753   1.459   6.498  1.00  0.00    -0.376 OA
BRANCH  48  49
ATOM     49  C   UNL     1      -0.064   2.616   6.322  1.00  0.00     0.202 C 
BRANCH  49  50
ATOM     50  C   UNL     1      -1.271   2.746   7.252  1.00  0.00     0.261 C 
BRANCH  50  51
ATOM     51  O   UNL     1      -2.236   1.707   7.106  1.00  0.00    -0.460 OA
BRANCH  51  52
ATOM     52  C   UNL     1      -2.658   1.357   5.873  1.00  0.00     0.338 C 
ATOM     53  O   UNL     1      -2.499   1.954   4.827  1.00  0.00    -0.246 OA
BRANCH  52  54
ATOM     54  C   UNL     1      -3.322   0.049   6.019  1.00  0.00     0.060 A 
ATOM     55  C   UNL     1      -4.133  -0.403   4.979  1.00  0.00     0.016 A 
ATOM     56  C   UNL     1      -3.217  -0.665   7.229  1.00  0.00     0.016 A 
ATOM     57  C   UNL     1      -5.012  -1.437   5.237  1.00  0.00     0.010 A 
ATOM     58  C   UNL     1      -4.077  -1.702   7.483  1.00  0.00     0.010 A 
ATOM     59  C   UNL     1      -5.036  -1.995   6.521  1.00  0.00    -0.014 A 
BRANCH  59  60
ATOM     60  C   UNL     1      -6.221  -2.713   6.934  1.00  0.00     0.031 A 
ATOM     61  C   UNL     1      -6.251  -4.163   6.694  1.00  0.00     0.074 A 
ATOM     62  C   UNL     1      -7.176  -2.075   7.640  1.00  0.00     0.049 A 
ATOM     63  N   UNL     1      -7.067  -4.815   5.938  1.00  0.00    -0.248 NA
ATOM     64  C   UNL     1      -5.216  -4.985   7.336  1.00  0.00     0.031 C 
ATOM     65  C   UNL     1      -7.086  -0.734   8.235  1.00  0.00     0.029 A 
ATOM     66  N   UNL     1      -8.380  -2.535   8.078  1.00  0.00    -0.354 N 
ATOM     67  C   UNL     1      -6.781  -6.155   6.160  1.00  0.00     0.074 A 
ATOM     68  C   UNL     1      -5.544  -6.200   6.898  1.00  0.00     0.031 C 
ATOM     69  C   UNL     1      -8.092  -0.573   9.119  1.00  0.00     0.029 A 
ATOM     70  C   UNL     1      -8.961  -1.736   9.050  1.00  0.00     0.049 A 
ATOM     71  H   UNL     1      -8.799  -3.357   7.736  1.00  0.00     0.167 HD
ATOM     72  C   UNL     1      -7.722  -7.117   5.972  1.00  0.00     0.031 A 
ATOM     73  C   UNL     1     -10.051  -2.025   9.795  1.00  0.00     0.031 A 
ATOM     74  C   UNL     1      -8.824  -6.659   5.167  1.00  0.00     0.049 A 
ATOM     75  C   UNL     1     -10.809  -3.091   9.107  1.00  0.00     0.074 A 
ATOM     76  C   UNL     1      -8.980  -6.193   3.879  1.00  0.00     0.029 A 
ATOM     77  N   UNL     1      -9.974  -6.335   5.842  1.00  0.00    -0.354 N 
ATOM     78  N   UNL     1     -11.436  -2.922   7.979  1.00  0.00    -0.248 NA
ATOM     79  C   UNL     1     -10.614  -4.478   9.506  1.00  0.00     0.031 C 
ATOM     80  C   UNL     1     -10.079  -5.286   3.928  1.00  0.00     0.029 A 
ATOM     81  C   UNL     1     -10.545  -5.242   5.244  1.00  0.00     0.049 A 
ATOM     82  H   UNL     1     -10.330  -6.809   6.627  1.00  0.00     0.167 HD
ATOM     83  C   UNL     1     -11.338  -4.144   7.334  1.00  0.00     0.074 A 
ATOM     84  C   UNL     1     -10.986  -5.094   8.381  1.00  0.00     0.031 C 
ATOM     85  C   UNL     1     -11.256  -4.212   5.973  1.00  0.00     0.031 A 
BRANCH  72  86
ATOM     86  C   UNL     1      -7.853  -8.309   6.888  1.00  0.00    -0.014 A 
ATOM     87  C   UNL     1      -8.781  -9.313   6.563  1.00  0.00     0.009 A 
ATOM     88  C   UNL     1      -7.317  -8.337   8.191  1.00  0.00     0.009 A 
ATOM     89  C   UNL     1      -9.186 -10.261   7.511  1.00  0.00     0.001 A 
ATOM     90  C   UNL     1      -7.684  -9.310   9.124  1.00  0.00     0.001 A 
ATOM     91  C   UNL     1      -8.639 -10.257   8.790  1.00  0.00     0.000 A 
ENDBRANCH  72  86
BRANCH  73  92
ATOM     92  C   UNL     1     -10.365  -1.568  11.162  1.00  0.00    -0.014 A 
ATOM     93  C   UNL     1     -11.675  -1.623  11.658  1.00  0.00     0.009 A 
ATOM     94  C   UNL     1      -9.328  -1.290  12.073  1.00  0.00     0.009 A 
ATOM     95  C   UNL     1     -11.932  -1.437  13.022  1.00  0.00     0.001 A 
ATOM     96  C   UNL     1      -9.585  -1.095  13.432  1.00  0.00     0.001 A 
ATOM     97  C   UNL     1     -10.887  -1.183  13.909  1.00  0.00     0.000 A 
ENDBRANCH  73  92
BRANCH  85  98
ATOM     98  C   UNL     1     -11.668  -2.989   5.195  1.00  0.00    -0.014 A 
ATOM     99  C   UNL     1     -10.983  -1.765   5.286  1.00  0.00     0.009 A 
ATOM    100  C   UNL     1     -12.706  -3.106   4.258  1.00  0.00     0.009 A 
ATOM    101  C   UNL     1     -11.350  -0.678   4.488  1.00  0.00     0.001 A 
ATOM    102  C   UNL     1     -13.059  -2.025   3.446  1.00  0.00     0.001 A 
ATOM    103  C   UNL     1     -12.386  -0.810   3.566  1.00  0.00     0.000 A 
ENDBRANCH  85  98
ENDBRANCH  59  60
ENDBRANCH  52  54
ENDBRANCH  51  52
ENDBRANCH  50  51
ENDBRANCH  49  50
ENDBRANCH  48  49
ENDBRANCH  47  48
ENDBRANCH  46  47
ENDBRANCH  45  46
ENDBRANCH  44  45
ENDBRANCH  43  44
ENDBRANCH  42  43
ENDBRANCH  40  42
ENDBRANCH   1  40
TORSDOF 32
