REMARK SMILES Cc1cccc(-n2c(C)cc(/C=N\c3ccc(O)c(C(=O)OCCOCCOCCOC(=O)c4ccc(-c5c6nc(c(-c7ccccc7)c7ccc([nH]7)c(-c7ccccc7)c7nc(c(-c8ccccc8)c8ccc5[nH]8)C=C7)C=C6)cc4)c3)c2C)c1
REMARK SMILES IDX 26 1 25 2 24 3 23 4 22 5 20 6 21 7 19 8 14 9 15 10 82 11
REMARK SMILES IDX 16 12 17 13 13 14 12 15 11 16 7 17 8 18 83 19 9 20 10 21
REMARK SMILES IDX 84 22 6 23 1 24 2 25 3 26 85 27 4 28 5 29 18 30 27 32 28 33
REMARK SMILES IDX 29 34 30 35 31 36 32 37 33 38 34 39 35 40 81 41 36 42 80 43
REMARK SMILES IDX 37 44 38 45 39 46 74 47 40 48 79 49 73 50 75 51 41 52 78 53
REMARK SMILES IDX 72 54 71 55 42 57 64 58 49 59 63 60 50 61 53 62 62 63 76 64
REMARK SMILES IDX 51 65 52 66 61 68 77 69 54 70 43 71 44 72 48 73 45 74 47 75
REMARK SMILES IDX 46 76 65 77 66 78 70 79 67 80 69 81 68 82 55 83 56 84 60 85
REMARK SMILES IDX 57 86 59 87 58 88
REMARK H PARENT 18 31 75 56 53 67
REMARK Flexibility Score: inf
ROOT
ATOM      1  C   UNL     1      -8.152  -0.748   7.602  1.00  0.00     0.188 C 
ENDROOT
BRANCH   1   2
ATOM      2  O   UNL     1      -7.890  -1.999   6.955  1.00  0.00    -0.376 OA
BRANCH   2   3
ATOM      3  C   UNL     1      -6.680  -2.748   7.165  1.00  0.00     0.202 C 
BRANCH   3   4
ATOM      4  C   UNL     1      -5.418  -2.847   6.144  1.00  0.00     0.261 C 
BRANCH   4   5
ATOM      5  O   UNL     1      -4.656  -1.624   5.673  1.00  0.00    -0.460 OA
BRANCH   5   6
ATOM      6  C   UNL     1      -3.342  -1.219   5.589  1.00  0.00     0.342 C 
ATOM      7  O   UNL     1      -2.439  -1.995   5.893  1.00  0.00    -0.246 OA
BRANCH   6   8
ATOM      8  C   UNL     1      -2.917   0.363   5.131  1.00  0.00     0.103 A 
ATOM      9  C   UNL     1      -3.026   2.641   3.833  1.00  0.00     0.064 A 
ATOM     10  C   UNL     1      -1.800   2.959   4.365  1.00  0.00     0.032 A 
ATOM     11  C   UNL     1      -3.568   1.398   4.297  1.00  0.00     0.048 A 
ATOM     12  C   UNL     1      -1.132   2.037   5.198  1.00  0.00     0.049 A 
ATOM     13  C   UNL     1      -1.653   0.764   5.534  1.00  0.00     0.130 A 
BRANCH   9  14
ATOM     14  N   UNL     1      -3.777   3.575   3.059  1.00  0.00    -0.256 NA
ATOM     15  C   UNL     1      -3.631   4.021   1.830  1.00  0.00     0.121 C 
BRANCH  15  16
ATOM     16  C   UNL     1      -2.771   3.624   0.699  1.00  0.00     0.014 A 
ATOM     17  N   UNL     1      -1.568   2.296  -0.711  1.00  0.00    -0.318 N 
ATOM     18  C   UNL     1      -1.512   3.568  -1.238  1.00  0.00     0.021 A 
ATOM     19  C   UNL     1      -2.398   2.337   0.387  1.00  0.00     0.029 A 
ATOM     20  C   UNL     1      -0.764   3.861  -2.494  1.00  0.00     0.065 C 
ATOM     21  C   UNL     1      -2.298   4.387  -0.424  1.00  0.00     0.033 A 
ATOM     22  C   UNL     1      -2.746   1.152   1.143  1.00  0.00     0.065 C 
BRANCH  17  23
ATOM     23  C   UNL     1      -0.773   1.158  -1.031  1.00  0.00     0.046 A 
ATOM     24  C   UNL     1       2.698   0.009   0.004  1.00  0.00     0.044 C 
ATOM     25  C   UNL     1       1.267  -0.001  -0.444  1.00  0.00    -0.049 A 
ATOM     26  C   UNL     1       0.594  -1.225  -0.579  1.00  0.00     0.003 A 
ATOM     27  C   UNL     1       0.577   1.199  -0.672  1.00  0.00     0.030 A 
ATOM     28  C   UNL     1      -0.731  -1.262  -1.010  1.00  0.00     0.002 A 
ATOM     29  C   UNL     1      -1.406  -0.071  -1.271  1.00  0.00     0.026 A 
ENDBRANCH  17  23
ENDBRANCH  15  16
ENDBRANCH   9  14
BRANCH  13  30
ATOM     30  O   UNL     1      -0.821  -0.041   6.264  1.00  0.00    -0.507 OA
ATOM     31  H   UNL     1       0.027   0.267   6.517  1.00  0.00     0.293 HD
ENDBRANCH  13  30
ENDBRANCH   6   8
ENDBRANCH   5   6
ENDBRANCH   4   5
ENDBRANCH   3   4
ENDBRANCH   2   3
ENDBRANCH   1   2
BRANCH   1  32
ATOM     32  C   UNL     1      -7.803  -0.471   9.041  1.00  0.00     0.188 C 
BRANCH  32  33
ATOM     33  O   UNL     1      -6.420  -0.688   9.226  1.00  0.00    -0.376 OA
BRANCH  33  34
ATOM     34  C   UNL     1      -5.952  -0.452  10.540  1.00  0.00     0.202 C 
BRANCH  34  35
ATOM     35  C   UNL     1      -6.102   1.014  10.998  1.00  0.00     0.261 C 
BRANCH  35  36
ATOM     36  O   UNL     1      -5.300   1.899  10.169  1.00  0.00    -0.460 OA
BRANCH  36  37
ATOM     37  C   UNL     1      -5.939   2.773   9.328  1.00  0.00     0.338 C 
ATOM     38  O   UNL     1      -6.784   3.592   9.691  1.00  0.00    -0.246 OA
BRANCH  37  39
ATOM     39  C   UNL     1      -5.643   2.437   7.891  1.00  0.00     0.060 A 
ATOM     40  C   UNL     1      -6.324   2.920   6.759  1.00  0.00     0.016 A 
ATOM     41  C   UNL     1      -4.927   1.300   7.706  1.00  0.00     0.016 A 
ATOM     42  C   UNL     1      -6.431   2.135   5.533  1.00  0.00     0.010 A 
ATOM     43  C   UNL     1      -5.364   0.472   6.678  1.00  0.00     0.010 A 
ATOM     44  C   UNL     1      -6.028   0.795   5.468  1.00  0.00    -0.014 A 
BRANCH  44  45
ATOM     45  C   UNL     1      -6.340  -0.309   4.298  1.00  0.00     0.031 A 
ATOM     46  C   UNL     1      -5.360  -1.239   3.386  1.00  0.00     0.074 A 
ATOM     47  C   UNL     1      -7.598  -0.805   4.308  1.00  0.00     0.049 A 
ATOM     48  N   UNL     1      -5.604  -2.486   3.074  1.00  0.00    -0.248 NA
ATOM     49  C   UNL     1      -4.015  -0.983   2.856  1.00  0.00     0.031 C 
ATOM     50  C   UNL     1      -8.159  -2.054   3.774  1.00  0.00     0.029 A 
ATOM     51  N   UNL     1      -8.742  -0.171   4.777  1.00  0.00    -0.354 N 
ATOM     52  C   UNL     1      -4.495  -3.103   2.515  1.00  0.00     0.074 A 
ATOM     53  C   UNL     1      -3.473  -2.134   2.467  1.00  0.00     0.031 C 
ATOM     54  C   UNL     1      -9.480  -1.898   3.585  1.00  0.00     0.029 A 
ATOM     55  C   UNL     1      -9.766  -0.510   3.877  1.00  0.00     0.049 A 
ATOM     56  H   UNL     1      -8.819   0.399   5.575  1.00  0.00     0.167 HD
ATOM     57  C   UNL     1      -4.566  -4.286   1.859  1.00  0.00     0.031 A 
ATOM     58  C   UNL     1     -10.171   0.465   3.020  1.00  0.00     0.031 A 
ATOM     59  C   UNL     1      -5.903  -4.383   1.306  1.00  0.00     0.049 A 
ATOM     60  C   UNL     1      -9.716   0.111   1.613  1.00  0.00     0.074 A 
ATOM     61  C   UNL     1      -7.083  -5.006   1.647  1.00  0.00     0.029 A 
ATOM     62  N   UNL     1      -6.249  -3.347   0.446  1.00  0.00    -0.354 N 
ATOM     63  N   UNL     1      -8.906  -0.885   1.339  1.00  0.00    -0.248 NA
ATOM     64  C   UNL     1     -10.147   0.790   0.401  1.00  0.00     0.031 C 
ATOM     65  C   UNL     1      -8.149  -4.251   1.040  1.00  0.00     0.029 A 
ATOM     66  C   UNL     1      -7.609  -3.209   0.296  1.00  0.00     0.049 A 
ATOM     67  H   UNL     1      -5.590  -2.773  -0.008  1.00  0.00     0.167 HD
ATOM     68  C   UNL     1      -8.778  -1.062  -0.001  1.00  0.00     0.074 A 
ATOM     69  C   UNL     1      -9.513   0.072  -0.550  1.00  0.00     0.031 C 
ATOM     70  C   UNL     1      -8.109  -2.124  -0.555  1.00  0.00     0.031 A 
BRANCH  57  71
ATOM     71  C   UNL     1      -3.406  -5.224   1.601  1.00  0.00    -0.014 A 
ATOM     72  C   UNL     1      -3.671  -6.505   1.086  1.00  0.00     0.009 A 
ATOM     73  C   UNL     1      -2.065  -4.988   1.984  1.00  0.00     0.009 A 
ATOM     74  C   UNL     1      -2.672  -7.489   0.973  1.00  0.00     0.001 A 
ATOM     75  C   UNL     1      -1.054  -5.956   1.840  1.00  0.00     0.001 A 
ATOM     76  C   UNL     1      -1.361  -7.215   1.347  1.00  0.00     0.000 A 
ENDBRANCH  57  71
BRANCH  58  77
ATOM     77  C   UNL     1     -10.279   1.776   3.771  1.00  0.00    -0.014 A 
ATOM     78  C   UNL     1     -11.024   1.729   4.990  1.00  0.00     0.009 A 
ATOM     79  C   UNL     1      -9.393   2.848   3.620  1.00  0.00     0.009 A 
ATOM     80  C   UNL     1     -10.744   2.572   6.073  1.00  0.00     0.001 A 
ATOM     81  C   UNL     1      -9.181   3.754   4.687  1.00  0.00     0.001 A 
ATOM     82  C   UNL     1      -9.800   3.575   5.928  1.00  0.00     0.000 A 
ENDBRANCH  58  77
BRANCH  70  83
ATOM     83  C   UNL     1      -7.821  -2.180  -2.031  1.00  0.00    -0.014 A 
ATOM     84  C   UNL     1      -8.777  -1.842  -2.991  1.00  0.00     0.009 A 
ATOM     85  C   UNL     1      -6.561  -2.604  -2.506  1.00  0.00     0.009 A 
ATOM     86  C   UNL     1      -8.442  -1.783  -4.347  1.00  0.00     0.001 A 
ATOM     87  C   UNL     1      -6.235  -2.590  -3.860  1.00  0.00     0.001 A 
ATOM     88  C   UNL     1      -7.168  -2.142  -4.779  1.00  0.00     0.000 A 
ENDBRANCH  70  83
ENDBRANCH  44  45
ENDBRANCH  37  39
ENDBRANCH  36  37
ENDBRANCH  35  36
ENDBRANCH  34  35
ENDBRANCH  33  34
ENDBRANCH  32  33
ENDBRANCH   1  32
TORSDOF 21
