REMARK SMILES CC(=O)Nc1cc(NC(C)=O)cc(C(=O)Nc2ccc(Br)cc2C(=O)OCCOCCOCCOC(=O)c2ccc(-c3c4nc(c(-c5ccccc5)c5ccc([nH]5)c(-c5ccccc5)c5nc(c(-c6ccccc6)c6ccc3[nH]6)C=C5)C=C4)cc2)c1
REMARK SMILES IDX 30 1 29 2 28 3 27 4 26 5 24 6 25 7 23 8 17 9 18 10 19 11
REMARK SMILES IDX 22 12 20 13 21 14 16 15 14 16 15 17 13 19 5 20 6 21 86 22
REMARK SMILES IDX 7 23 12 24 4 25 1 26 2 27 3 28 8 30 9 31 10 33 11 34 31 35
REMARK SMILES IDX 32 36 33 37 34 38 35 39 36 40 37 41 38 42 39 43 85 44 40 45
REMARK SMILES IDX 84 46 41 47 42 48 43 49 78 50 44 51 83 52 77 53 79 54 45 55
REMARK SMILES IDX 82 56 76 57 75 58 46 60 68 61 53 62 67 63 54 64 57 65 66 66
REMARK SMILES IDX 80 67 55 68 56 69 65 71 81 72 58 73 47 74 48 75 52 76 49 77
REMARK SMILES IDX 51 78 50 79 69 80 70 81 74 82 71 83 73 84 72 85 59 86 60 87
REMARK SMILES IDX 64 88 61 89 63 90 62 91
REMARK H PARENT 16 18 4 29 8 32 79 59 57 70
REMARK Flexibility Score: inf
ROOT
ATOM      1  C   UNL     1       5.247  -3.341   3.599  1.00  0.00     0.188 C 
ENDROOT
BRANCH   1   2
ATOM      2  O   UNL     1       5.256  -4.751   3.533  1.00  0.00    -0.376 OA
BRANCH   2   3
ATOM      3  C   UNL     1       4.862  -5.396   2.336  1.00  0.00     0.202 C 
BRANCH   3   4
ATOM      4  C   UNL     1       3.934  -4.749   1.306  1.00  0.00     0.261 C 
BRANCH   4   5
ATOM      5  O   UNL     1       4.219  -3.396   0.916  1.00  0.00    -0.460 OA
BRANCH   5   6
ATOM      6  C   UNL     1       3.292  -2.487   1.310  1.00  0.00     0.340 C 
ATOM      7  O   UNL     1       2.336  -2.727   2.035  1.00  0.00    -0.246 OA
BRANCH   6   8
ATOM      8  C   UNL     1       3.632  -1.091   0.920  1.00  0.00     0.084 A 
ATOM      9  C   UNL     1       4.307  -0.667  -0.242  1.00  0.00     0.056 A 
ATOM     10  C   UNL     1       4.666   0.696  -0.332  1.00  0.00     0.028 A 
ATOM     11  C   UNL     1       4.290   1.627   0.643  1.00  0.00     0.018 A 
ATOM     12  C   UNL     1       3.263  -0.140   1.902  1.00  0.00     0.033 A 
ATOM     13  C   UNL     1       3.579   1.205   1.754  1.00  0.00     0.018 A 
ATOM     14  Br  UNL     1       3.036   2.449   3.066  1.00  0.00    -0.051 Br
BRANCH   9  15
ATOM     15  N   UNL     1       4.658  -1.420  -1.390  1.00  0.00    -0.321 N 
ATOM     16  C   UNL     1       4.115  -2.516  -2.030  1.00  0.00     0.255 C 
ATOM     17  O   UNL     1       4.760  -3.071  -2.920  1.00  0.00    -0.269 OA
ATOM     18  H   UNL     1       5.473  -1.086  -1.830  1.00  0.00     0.170 HD
BRANCH  16  19
ATOM     19  C   UNL     1       2.758  -3.027  -1.720  1.00  0.00     0.044 A 
ATOM     20  C   UNL     1       0.707  -2.685  -0.522  1.00  0.00     0.044 A 
ATOM     21  C   UNL     1       0.572  -4.082  -0.417  1.00  0.00     0.052 A 
ATOM     22  C   UNL     1       1.750  -2.166  -1.279  1.00  0.00     0.040 A 
ATOM     23  C   UNL     1       1.488  -4.957  -1.011  1.00  0.00     0.044 A 
ATOM     24  C   UNL     1       2.580  -4.416  -1.691  1.00  0.00     0.040 A 
BRANCH  20  25
ATOM     25  N   UNL     1      -0.051  -1.920   0.391  1.00  0.00    -0.326 N 
ATOM     26  C   UNL     1       0.275   0.443  -0.348  1.00  0.00     0.114 C 
ATOM     27  C   UNL     1      -0.115  -0.587   0.671  1.00  0.00     0.221 C 
ATOM     28  O   UNL     1      -0.527  -0.231   1.778  1.00  0.00    -0.275 OA
ATOM     29  H   UNL     1      -0.661  -2.462   0.940  1.00  0.00     0.169 HD
ENDBRANCH  20  25
BRANCH  23  30
ATOM     30  N   UNL     1       1.460  -6.362  -0.846  1.00  0.00    -0.326 N 
ATOM     31  C   UNL     1       0.654  -7.078   0.023  1.00  0.00     0.221 C 
ATOM     32  H   UNL     1       2.077  -6.884  -1.407  1.00  0.00     0.169 HD
ATOM     33  C   UNL     1       0.846  -8.571  -0.073  1.00  0.00     0.114 C 
ATOM     34  O   UNL     1      -0.150  -6.613   0.823  1.00  0.00    -0.275 OA
ENDBRANCH  23  30
ENDBRANCH  16  19
ENDBRANCH   9  15
ENDBRANCH   6   8
ENDBRANCH   5   6
ENDBRANCH   4   5
ENDBRANCH   3   4
ENDBRANCH   2   3
ENDBRANCH   1   2
BRANCH   1  35
ATOM     35  C   UNL     1       6.264  -2.555   2.744  1.00  0.00     0.188 C 
BRANCH  35  36
ATOM     36  O   UNL     1       7.046  -3.244   1.799  1.00  0.00    -0.376 OA
BRANCH  36  37
ATOM     37  C   UNL     1       8.021  -4.173   2.240  1.00  0.00     0.202 C 
BRANCH  37  38
ATOM     38  C   UNL     1       8.611  -4.240   3.668  1.00  0.00     0.261 C 
BRANCH  38  39
ATOM     39  O   UNL     1       7.863  -3.658   4.745  1.00  0.00    -0.460 OA
BRANCH  39  40
ATOM     40  C   UNL     1       8.299  -2.447   5.188  1.00  0.00     0.338 C 
ATOM     41  O   UNL     1       9.274  -1.837   4.802  1.00  0.00    -0.246 OA
BRANCH  40  42
ATOM     42  C   UNL     1       7.247  -1.836   6.042  1.00  0.00     0.060 A 
ATOM     43  C   UNL     1       6.692  -0.614   5.630  1.00  0.00     0.016 A 
ATOM     44  C   UNL     1       6.790  -2.453   7.208  1.00  0.00     0.016 A 
ATOM     45  C   UNL     1       5.715   0.015   6.400  1.00  0.00     0.010 A 
ATOM     46  C   UNL     1       5.832  -1.803   8.000  1.00  0.00     0.010 A 
ATOM     47  C   UNL     1       5.322  -0.546   7.621  1.00  0.00    -0.014 A 
BRANCH  47  48
ATOM     48  C   UNL     1       4.574   0.302   8.586  1.00  0.00     0.031 A 
ATOM     49  C   UNL     1       5.356   1.022   9.655  1.00  0.00     0.074 A 
ATOM     50  C   UNL     1       3.248   0.505   8.481  1.00  0.00     0.049 A 
ATOM     51  N   UNL     1       4.942   1.861  10.570  1.00  0.00    -0.248 NA
ATOM     52  C   UNL     1       6.805   0.762   9.690  1.00  0.00     0.031 C 
ATOM     53  C   UNL     1       2.374  -0.081   7.468  1.00  0.00     0.029 A 
ATOM     54  N   UNL     1       2.408   1.281   9.244  1.00  0.00    -0.354 N 
ATOM     55  C   UNL     1       6.076   2.225  11.288  1.00  0.00     0.074 A 
ATOM     56  C   UNL     1       7.186   1.487  10.728  1.00  0.00     0.031 C 
ATOM     57  C   UNL     1       1.118   0.358   7.671  1.00  0.00     0.029 A 
ATOM     58  C   UNL     1       1.096   1.235   8.841  1.00  0.00     0.049 A 
ATOM     59  H   UNL     1       2.718   1.819  10.008  1.00  0.00     0.167 HD
ATOM     60  C   UNL     1       6.191   3.102  12.314  1.00  0.00     0.031 A 
ATOM     61  C   UNL     1       0.002   1.826   9.361  1.00  0.00     0.031 A 
ATOM     62  C   UNL     1       5.089   3.825  12.892  1.00  0.00     0.049 A 
ATOM     63  C   UNL     1       0.143   2.734  10.557  1.00  0.00     0.074 A 
ATOM     64  C   UNL     1       5.109   4.742  13.928  1.00  0.00     0.029 A 
ATOM     65  N   UNL     1       3.768   3.702  12.493  1.00  0.00    -0.354 N 
ATOM     66  N   UNL     1       1.224   3.095  11.206  1.00  0.00    -0.248 NA
ATOM     67  C   UNL     1      -1.095   3.331  11.080  1.00  0.00     0.031 C 
ATOM     68  C   UNL     1       3.791   5.124  14.201  1.00  0.00     0.029 A 
ATOM     69  C   UNL     1       2.959   4.502  13.284  1.00  0.00     0.049 A 
ATOM     70  H   UNL     1       3.450   3.131  11.757  1.00  0.00     0.167 HD
ATOM     71  C   UNL     1       0.800   3.983  12.190  1.00  0.00     0.074 A 
ATOM     72  C   UNL     1      -0.632   4.124  12.035  1.00  0.00     0.031 C 
ATOM     73  C   UNL     1       1.531   4.625  13.135  1.00  0.00     0.031 A 
BRANCH  60  74
ATOM     74  C   UNL     1       7.561   3.293  12.905  1.00  0.00    -0.014 A 
ATOM     75  C   UNL     1       8.584   3.942  12.194  1.00  0.00     0.009 A 
ATOM     76  C   UNL     1       7.827   2.834  14.204  1.00  0.00     0.009 A 
ATOM     77  C   UNL     1       9.853   4.092  12.758  1.00  0.00     0.001 A 
ATOM     78  C   UNL     1       9.086   3.015  14.778  1.00  0.00     0.001 A 
ATOM     79  C   UNL     1      10.101   3.634  14.051  1.00  0.00     0.000 A 
ENDBRANCH  60  74
BRANCH  61  80
ATOM     80  C   UNL     1      -1.340   1.575   8.769  1.00  0.00    -0.014 A 
ATOM     81  C   UNL     1      -2.050   2.603   8.128  1.00  0.00     0.009 A 
ATOM     82  C   UNL     1      -1.937   0.309   8.879  1.00  0.00     0.009 A 
ATOM     83  C   UNL     1      -3.340   2.376   7.639  1.00  0.00     0.001 A 
ATOM     84  C   UNL     1      -3.212   0.076   8.359  1.00  0.00     0.001 A 
ATOM     85  C   UNL     1      -3.917   1.112   7.750  1.00  0.00     0.000 A 
ENDBRANCH  61  80
BRANCH  73  86
ATOM     86  C   UNL     1       0.794   5.566  14.053  1.00  0.00    -0.014 A 
ATOM     87  C   UNL     1      -0.131   5.098  15.001  1.00  0.00     0.009 A 
ATOM     88  C   UNL     1       1.033   6.948  13.969  1.00  0.00     0.009 A 
ATOM     89  C   UNL     1      -0.842   5.996  15.800  1.00  0.00     0.001 A 
ATOM     90  C   UNL     1       0.349   7.840  14.797  1.00  0.00     0.001 A 
ATOM     91  C   UNL     1      -0.601   7.365  15.699  1.00  0.00     0.000 A 
ENDBRANCH  73  86
ENDBRANCH  47  48
ENDBRANCH  40  42
ENDBRANCH  39  40
ENDBRANCH  38  39
ENDBRANCH  37  38
ENDBRANCH  36  37
ENDBRANCH  35  36
ENDBRANCH   1  35
TORSDOF 21
