REMARK SMILES C[C@@H](C(=O)OCCOCCOCCOC(=O)c1ccc(-c2c3nc(c(-c4ccccc4)c4ccc([nH]4)c(-c4ccccc4)c4nc(c(-c5ccccc5)c5ccc2[nH]5)C=C4)C=C3)cc1)c1ccc(C[C@H]2CCC[C@H]2O)cc1
REMARK SMILES IDX 9 1 8 2 7 3 6 4 5 5 3 6 4 7 2 8 1 9 65 10 66 11 77 12 67 13
REMARK SMILES IDX 76 14 68 15 69 16 70 17 71 18 74 19 72 20 73 21 75 22 10 24
REMARK SMILES IDX 11 25 12 26 13 27 14 28 15 29 16 30 17 31 18 32 64 33 19 34
REMARK SMILES IDX 63 35 20 36 21 37 22 38 57 39 23 40 62 41 56 42 58 43 24 44
REMARK SMILES IDX 61 45 55 46 54 47 25 49 47 50 32 51 46 52 33 53 36 54 45 55
REMARK SMILES IDX 59 56 34 57 35 58 44 60 60 61 37 62 26 63 27 64 31 65 28 66
REMARK SMILES IDX 30 67 29 68 48 69 49 70 53 71 50 72 52 73 51 74 38 75 39 76
REMARK SMILES IDX 43 77 40 78 42 79 41 80
REMARK H PARENT 75 23 58 48 36 59
REMARK Flexibility Score: inf
ROOT
ATOM      1  C   UNL     1       0.294   1.609   3.497  1.00  0.00     0.188 C 
ENDROOT
BRANCH   1   2
ATOM      2  O   UNL     1       1.051   1.615   4.702  1.00  0.00    -0.376 OA
BRANCH   2   3
ATOM      3  C   UNL     1       2.317   0.959   4.704  1.00  0.00     0.202 C 
BRANCH   3   4
ATOM      4  C   UNL     1       2.388  -0.482   4.178  1.00  0.00     0.261 C 
BRANCH   4   5
ATOM      5  O   UNL     1       2.058  -0.639   2.777  1.00  0.00    -0.463 OA
BRANCH   5   6
ATOM      6  C   UNL     1       1.235  -1.683   2.480  1.00  0.00     0.313 C 
ATOM      7  O   UNL     1       0.785  -2.448   3.332  1.00  0.00    -0.252 OA
BRANCH   6   8
ATOM      8  C   UNL     1       0.898  -1.847   0.980  1.00  0.00     0.126 C 
ATOM      9  C   UNL     1       1.726  -1.012   0.002  1.00  0.00     0.025 C 
BRANCH   8  10
ATOM     10  C   UNL     1      -0.618  -1.793   0.772  1.00  0.00    -0.034 A 
ATOM     11  C   UNL     1      -1.295  -0.683   0.253  1.00  0.00     0.005 A 
ATOM     12  C   UNL     1      -1.388  -2.864   1.261  1.00  0.00     0.005 A 
ATOM     13  C   UNL     1      -2.687  -0.579   0.379  1.00  0.00     0.004 A 
ATOM     14  C   UNL     1      -2.771  -2.758   1.392  1.00  0.00     0.004 A 
ATOM     15  C   UNL     1      -3.414  -1.566   1.058  1.00  0.00    -0.048 A 
BRANCH  15  16
ATOM     16  C   UNL     1      -4.784  -1.254   1.617  1.00  0.00     0.041 C 
BRANCH  16  17
ATOM     17  C   UNL     1      -4.805  -0.779   3.096  1.00  0.00     0.022 C 
ATOM     18  C   UNL     1      -4.505  -1.863   4.138  1.00  0.00     0.007 C 
ATOM     19  C   UNL     1      -3.882   0.381   3.507  1.00  0.00     0.117 C 
ATOM     20  C   UNL     1      -4.052  -1.137   5.403  1.00  0.00     0.003 C 
ATOM     21  C   UNL     1      -3.817   0.321   5.029  1.00  0.00     0.032 C 
BRANCH  19  22
ATOM     22  O   UNL     1      -2.547   0.305   3.048  1.00  0.00    -0.393 OA
ATOM     23  H   UNL     1      -2.126  -0.491   3.408  1.00  0.00     0.210 HD
ENDBRANCH  19  22
ENDBRANCH  16  17
ENDBRANCH  15  16
ENDBRANCH   8  10
ENDBRANCH   6   8
ENDBRANCH   5   6
ENDBRANCH   4   5
ENDBRANCH   3   4
ENDBRANCH   2   3
ENDBRANCH   1   2
BRANCH   1  24
ATOM     24  C   UNL     1       0.990   2.037   2.197  1.00  0.00     0.188 C 
BRANCH  24  25
ATOM     25  O   UNL     1       2.332   2.450   2.368  1.00  0.00    -0.376 OA
BRANCH  25  26
ATOM     26  C   UNL     1       2.631   3.802   2.059  1.00  0.00     0.202 C 
BRANCH  26  27
ATOM     27  C   UNL     1       1.928   4.872   2.910  1.00  0.00     0.261 C 
BRANCH  27  28
ATOM     28  O   UNL     1       0.490   4.815   2.935  1.00  0.00    -0.460 OA
BRANCH  28  29
ATOM     29  C   UNL     1      -0.156   5.145   1.793  1.00  0.00     0.338 C 
ATOM     30  O   UNL     1       0.343   5.472   0.734  1.00  0.00    -0.246 OA
BRANCH  29  31
ATOM     31  C   UNL     1      -1.600   4.889   1.992  1.00  0.00     0.060 A 
ATOM     32  C   UNL     1      -2.228   3.901   1.229  1.00  0.00     0.016 A 
ATOM     33  C   UNL     1      -2.338   5.650   2.904  1.00  0.00     0.016 A 
ATOM     34  C   UNL     1      -3.602   3.684   1.367  1.00  0.00     0.010 A 
ATOM     35  C   UNL     1      -3.721   5.450   3.020  1.00  0.00     0.010 A 
ATOM     36  C   UNL     1      -4.366   4.479   2.240  1.00  0.00    -0.014 A 
BRANCH  36  37
ATOM     37  C   UNL     1      -5.849   4.368   2.206  1.00  0.00     0.031 A 
ATOM     38  C   UNL     1      -6.609   5.117   1.158  1.00  0.00     0.074 A 
ATOM     39  C   UNL     1      -6.528   3.599   3.075  1.00  0.00     0.049 A 
ATOM     40  N   UNL     1      -7.897   5.127   0.933  1.00  0.00    -0.248 NA
ATOM     41  C   UNL     1      -5.831   6.023   0.301  1.00  0.00     0.031 C 
ATOM     42  C   UNL     1      -5.940   2.925   4.217  1.00  0.00     0.029 A 
ATOM     43  N   UNL     1      -7.845   3.197   3.096  1.00  0.00    -0.354 N 
ATOM     44  C   UNL     1      -8.099   6.120  -0.012  1.00  0.00     0.074 A 
ATOM     45  C   UNL     1      -6.793   6.632  -0.376  1.00  0.00     0.031 C 
ATOM     46  C   UNL     1      -6.834   2.053   4.714  1.00  0.00     0.029 A 
ATOM     47  C   UNL     1      -8.077   2.157   3.969  1.00  0.00     0.049 A 
ATOM     48  H   UNL     1      -8.547   3.611   2.544  1.00  0.00     0.167 HD
ATOM     49  C   UNL     1      -9.276   6.612  -0.465  1.00  0.00     0.031 A 
ATOM     50  C   UNL     1      -9.155   1.363   4.129  1.00  0.00     0.031 A 
ATOM     51  C   UNL     1     -10.568   6.118  -0.068  1.00  0.00     0.049 A 
ATOM     52  C   UNL     1     -10.426   1.774   3.445  1.00  0.00     0.074 A 
ATOM     53  C   UNL     1     -11.821   6.589  -0.420  1.00  0.00     0.029 A 
ATOM     54  N   UNL     1     -10.773   5.033   0.772  1.00  0.00    -0.354 N 
ATOM     55  N   UNL     1     -10.616   2.745   2.586  1.00  0.00    -0.248 NA
ATOM     56  C   UNL     1     -11.649   1.051   3.824  1.00  0.00     0.031 C 
ATOM     57  C   UNL     1     -12.783   5.807   0.232  1.00  0.00     0.029 A 
ATOM     58  C   UNL     1     -12.130   4.815   0.945  1.00  0.00     0.049 A 
ATOM     59  H   UNL     1     -10.058   4.495   1.184  1.00  0.00     0.167 HD
ATOM     60  C   UNL     1     -11.986   2.807   2.390  1.00  0.00     0.074 A 
ATOM     61  C   UNL     1     -12.569   1.707   3.131  1.00  0.00     0.031 C 
ATOM     62  C   UNL     1     -12.699   3.738   1.712  1.00  0.00     0.031 A 
BRANCH  49  63
ATOM     63  C   UNL     1      -9.198   7.830  -1.337  1.00  0.00    -0.014 A 
ATOM     64  C   UNL     1      -8.741   7.768  -2.661  1.00  0.00     0.009 A 
ATOM     65  C   UNL     1      -9.557   9.076  -0.797  1.00  0.00     0.009 A 
ATOM     66  C   UNL     1      -8.607   8.938  -3.413  1.00  0.00     0.001 A 
ATOM     67  C   UNL     1      -9.450  10.238  -1.560  1.00  0.00     0.001 A 
ATOM     68  C   UNL     1      -8.963  10.169  -2.864  1.00  0.00     0.000 A 
ENDBRANCH  49  63
BRANCH  50  69
ATOM     69  C   UNL     1      -9.111   0.125   4.963  1.00  0.00    -0.014 A 
ATOM     70  C   UNL     1      -9.341  -1.127   4.363  1.00  0.00     0.009 A 
ATOM     71  C   UNL     1      -8.862   0.163   6.343  1.00  0.00     0.009 A 
ATOM     72  C   UNL     1      -9.334  -2.301   5.123  1.00  0.00     0.001 A 
ATOM     73  C   UNL     1      -8.809  -1.016   7.093  1.00  0.00     0.001 A 
ATOM     74  C   UNL     1      -9.055  -2.246   6.486  1.00  0.00     0.000 A 
ENDBRANCH  50  69
BRANCH  62  75
ATOM     75  C   UNL     1     -14.193   3.626   1.793  1.00  0.00    -0.014 A 
ATOM     76  C   UNL     1     -14.872   3.954   2.979  1.00  0.00     0.009 A 
ATOM     77  C   UNL     1     -14.929   3.205   0.678  1.00  0.00     0.009 A 
ATOM     78  C   UNL     1     -16.259   3.828   3.056  1.00  0.00     0.001 A 
ATOM     79  C   UNL     1     -16.319   3.102   0.751  1.00  0.00     0.001 A 
ATOM     80  C   UNL     1     -16.981   3.404   1.941  1.00  0.00     0.000 A 
ENDBRANCH  62  75
ENDBRANCH  36  37
ENDBRANCH  29  31
ENDBRANCH  28  29
ENDBRANCH  27  28
ENDBRANCH  26  27
ENDBRANCH  25  26
ENDBRANCH  24  25
ENDBRANCH   1  24
TORSDOF 21
