REMARK SMILES CCc1cccc(CC)c1N1/C(=[NH+]/C(=O)CCCC(=O)OCCOCCOCCOC(=O)c2ccc(-c3c4nc(c(-c5ccccc5)c5ccc([nH]5)c(-c5ccccc5)c5nc(c(-c6ccccc6)c6ccc3[nH]6)C=C5)C=C4)cc2)S[C@@H]2CS(=O)(=O)C[C@@H]21
REMARK SMILES IDX 24 1 23 2 22 3 21 4 19 5 20 6 18 7 17 8 16 9 14 10 11 11
REMARK SMILES IDX 12 12 88 13 13 14 81 15 82 16 87 17 83 19 84 20 15 21 85 22
REMARK SMILES IDX 86 23 10 24 3 25 4 26 5 27 7 28 6 29 2 30 1 31 8 32 9 33
REMARK SMILES IDX 25 34 26 35 27 36 28 37 29 38 30 39 31 40 32 41 33 42 34 43
REMARK SMILES IDX 80 44 35 45 79 46 36 47 37 48 38 49 73 50 39 51 78 52 72 53
REMARK SMILES IDX 74 54 40 55 77 56 71 57 70 58 41 60 63 61 48 62 62 63 49 64
REMARK SMILES IDX 52 65 61 66 75 67 50 68 51 69 60 71 76 72 53 73 42 74 43 75
REMARK SMILES IDX 47 76 44 77 46 78 45 79 64 80 65 81 69 82 66 83 68 84 67 85
REMARK SMILES IDX 54 86 55 87 59 88 56 89 58 90 57 91
REMARK H PARENT 13 18 74 59 52 70
REMARK Flexibility Score: inf
ROOT
ATOM      1  O   UNL     1       5.176   2.674   5.460  1.00  0.00    -0.376 OA
ENDROOT
BRANCH   1   2
ATOM      2  C   UNL     1       4.194   3.707   5.524  1.00  0.00     0.202 C 
BRANCH   2   3
ATOM      3  C   UNL     1       3.031   3.714   4.514  1.00  0.00     0.261 C 
BRANCH   3   4
ATOM      4  O   UNL     1       2.128   2.592   4.632  1.00  0.00    -0.463 OA
BRANCH   4   5
ATOM      5  C   UNL     1       2.085   1.725   3.593  1.00  0.00     0.305 C 
ATOM      6  O   UNL     1       2.770   1.843   2.582  1.00  0.00    -0.252 OA
BRANCH   5   7
ATOM      7  C   UNL     1       1.228   0.479   3.819  1.00  0.00     0.123 C 
BRANCH   7   8
ATOM      8  C   UNL     1       0.385   0.238   5.070  1.00  0.00     0.024 C 
BRANCH   8   9
ATOM      9  C   UNL     1      -0.405   1.423   5.599  1.00  0.00     0.128 C 
BRANCH   9  10
ATOM     10  C   UNL     1      -1.444   1.887   4.603  1.00  0.00     0.307 C 
ATOM     11  N   UNL     1      -1.306   3.257   1.198  1.00  0.00    -0.216 N 
ATOM     12  C   UNL     1      -1.661   2.932   2.514  1.00  0.00     0.319 C 
ATOM     13  C   UNL     1      -2.434   3.638   0.314  1.00  0.00     0.212 C 
ATOM     14  N   UNL     1      -0.921   2.410   3.434  1.00  0.00    -0.204 N 
ATOM     15  S   UNL     1      -3.402   3.281   2.709  1.00  0.00    -0.029 SA
ATOM     16  C   UNL     1      -3.691   3.034   0.956  1.00  0.00     0.120 C 
ATOM     17  C   UNL     1      -2.376   3.110  -1.113  1.00  0.00     0.188 C 
ATOM     18  H   UNL     1       0.053   2.382   3.298  1.00  0.00     0.316 HD
ATOM     19  C   UNL     1      -3.716   1.556   0.596  1.00  0.00     0.156 C 
ATOM     20  S   UNL     1      -3.275   1.573  -1.122  1.00  0.00     0.155 S 
ATOM     21  O   UNL     1      -2.623   1.642   4.847  1.00  0.00    -0.247 OA
ATOM     22  O   UNL     1      -2.365   0.477  -1.388  1.00  0.00    -0.229 OA
ATOM     23  O   UNL     1      -4.486   1.768  -1.885  1.00  0.00    -0.229 OA
BRANCH  11  24
ATOM     24  C   UNL     1      -0.000   3.517   0.710  1.00  0.00     0.134 A 
ATOM     25  C   UNL     1       0.808   2.460   0.189  1.00  0.00    -0.001 A 
ATOM     26  C   UNL     1       2.041   2.765  -0.422  1.00  0.00     0.008 A 
ATOM     27  C   UNL     1       2.467   4.073  -0.585  1.00  0.00     0.001 A 
ATOM     28  C   UNL     1       0.470   4.857   0.575  1.00  0.00    -0.001 A 
ATOM     29  C   UNL     1       1.683   5.108  -0.101  1.00  0.00     0.008 A 
BRANCH  25  30
ATOM     30  C   UNL     1       0.462   0.993   0.352  1.00  0.00     0.036 C 
ATOM     31  C   UNL     1       0.842   0.034  -0.771  1.00  0.00     0.009 C 
ENDBRANCH  25  30
BRANCH  28  32
ATOM     32  C   UNL     1      -0.289   6.069   1.084  1.00  0.00     0.036 C 
ATOM     33  C   UNL     1       0.540   7.005   1.960  1.00  0.00     0.009 C 
ENDBRANCH  28  32
ENDBRANCH  11  24
ENDBRANCH   9  10
ENDBRANCH   8   9
ENDBRANCH   7   8
ENDBRANCH   5   7
ENDBRANCH   4   5
ENDBRANCH   3   4
ENDBRANCH   2   3
ENDBRANCH   1   2
BRANCH   1  34
ATOM     34  C   UNL     1       4.745   1.327   5.353  1.00  0.00     0.188 C 
BRANCH  34  35
ATOM     35  C   UNL     1       3.655   0.832   6.304  1.00  0.00     0.188 C 
BRANCH  35  36
ATOM     36  O   UNL     1       3.080   1.805   7.134  1.00  0.00    -0.376 OA
BRANCH  36  37
ATOM     37  C   UNL     1       3.206   1.718   8.542  1.00  0.00     0.202 C 
BRANCH  37  38
ATOM     38  C   UNL     1       4.479   1.190   9.237  1.00  0.00     0.261 C 
BRANCH  38  39
ATOM     39  O   UNL     1       5.179   0.087   8.638  1.00  0.00    -0.460 OA
BRANCH  39  40
ATOM     40  C   UNL     1       4.604  -1.142   8.704  1.00  0.00     0.338 C 
ATOM     41  O   UNL     1       3.576  -1.437   9.282  1.00  0.00    -0.246 OA
BRANCH  40  42
ATOM     42  C   UNL     1       5.286  -1.993   7.686  1.00  0.00     0.060 A 
ATOM     43  C   UNL     1       4.519  -2.562   6.655  1.00  0.00     0.016 A 
ATOM     44  C   UNL     1       6.674  -2.137   7.680  1.00  0.00     0.016 A 
ATOM     45  C   UNL     1       5.137  -3.273   5.621  1.00  0.00     0.010 A 
ATOM     46  C   UNL     1       7.288  -2.876   6.663  1.00  0.00     0.010 A 
ATOM     47  C   UNL     1       6.525  -3.460   5.634  1.00  0.00    -0.014 A 
BRANCH  47  48
ATOM     48  C   UNL     1       7.180  -4.383   4.672  1.00  0.00     0.031 A 
ATOM     49  C   UNL     1       7.510  -5.778   5.127  1.00  0.00     0.074 A 
ATOM     50  C   UNL     1       7.508  -3.995   3.426  1.00  0.00     0.049 A 
ATOM     51  N   UNL     1       8.193  -6.713   4.518  1.00  0.00    -0.248 NA
ATOM     52  C   UNL     1       7.002  -6.164   6.453  1.00  0.00     0.031 C 
ATOM     53  C   UNL     1       7.202  -2.697   2.832  1.00  0.00     0.029 A 
ATOM     54  N   UNL     1       8.198  -4.664   2.442  1.00  0.00    -0.354 N 
ATOM     55  C   UNL     1       8.206  -7.795   5.389  1.00  0.00     0.074 A 
ATOM     56  C   UNL     1       7.488  -7.389   6.579  1.00  0.00     0.031 C 
ATOM     57  C   UNL     1       7.725  -2.652   1.594  1.00  0.00     0.029 A 
ATOM     58  C   UNL     1       8.441  -3.900   1.327  1.00  0.00     0.049 A 
ATOM     59  H   UNL     1       8.490  -5.600   2.529  1.00  0.00     0.167 HD
ATOM     60  C   UNL     1       8.765  -9.017   5.217  1.00  0.00     0.031 A 
ATOM     61  C   UNL     1       9.189  -4.158   0.235  1.00  0.00     0.031 A 
ATOM     62  C   UNL     1       9.508  -9.413   4.051  1.00  0.00     0.049 A 
ATOM     63  C   UNL     1       9.901  -5.482   0.113  1.00  0.00     0.074 A 
ATOM     64  C   UNL     1      10.108 -10.632   3.784  1.00  0.00     0.029 A 
ATOM     65  N   UNL     1       9.768  -8.594   2.963  1.00  0.00    -0.354 N 
ATOM     66  N   UNL     1       9.892  -6.506   0.931  1.00  0.00    -0.248 NA
ATOM     67  C   UNL     1      10.729  -5.683  -1.087  1.00  0.00     0.031 C 
ATOM     68  C   UNL     1      10.789 -10.527   2.567  1.00  0.00     0.029 A 
ATOM     69  C   UNL     1      10.553  -9.267   2.042  1.00  0.00     0.049 A 
ATOM     70  H   UNL     1       9.442  -7.671   2.861  1.00  0.00     0.167 HD
ATOM     71  C   UNL     1      10.694  -7.476   0.339  1.00  0.00     0.074 A 
ATOM     72  C   UNL     1      11.155  -6.927  -0.919  1.00  0.00     0.031 C 
ATOM     73  C   UNL     1      11.019  -8.710   0.798  1.00  0.00     0.031 A 
BRANCH  60  74
ATOM     74  C   UNL     1       8.629  -9.999   6.349  1.00  0.00    -0.014 A 
ATOM     75  C   UNL     1       7.389 -10.570   6.677  1.00  0.00     0.009 A 
ATOM     76  C   UNL     1       9.764 -10.371   7.086  1.00  0.00     0.009 A 
ATOM     77  C   UNL     1       7.283 -11.462   7.747  1.00  0.00     0.001 A 
ATOM     78  C   UNL     1       9.661 -11.288   8.133  1.00  0.00     0.001 A 
ATOM     79  C   UNL     1       8.418 -11.823   8.470  1.00  0.00     0.000 A 
ENDBRANCH  60  74
BRANCH  61  80
ATOM     80  C   UNL     1       9.352  -3.118  -0.817  1.00  0.00    -0.014 A 
ATOM     81  C   UNL     1       8.810  -3.297  -2.099  1.00  0.00     0.009 A 
ATOM     82  C   UNL     1      10.073  -1.942  -0.547  1.00  0.00     0.009 A 
ATOM     83  C   UNL     1       9.001  -2.331  -3.091  1.00  0.00     0.001 A 
ATOM     84  C   UNL     1      10.234  -0.964  -1.530  1.00  0.00     0.001 A 
ATOM     85  C   UNL     1       9.706  -1.163  -2.804  1.00  0.00     0.000 A 
ENDBRANCH  61  80
BRANCH  73  86
ATOM     86  C   UNL     1      11.904  -9.565  -0.070  1.00  0.00    -0.014 A 
ATOM     87  C   UNL     1      13.266  -9.271  -0.238  1.00  0.00     0.009 A 
ATOM     88  C   UNL     1      11.379 -10.715  -0.684  1.00  0.00     0.009 A 
ATOM     89  C   UNL     1      14.076 -10.093  -1.026  1.00  0.00     0.001 A 
ATOM     90  C   UNL     1      12.198 -11.551  -1.444  1.00  0.00     0.001 A 
ATOM     91  C   UNL     1      13.544 -11.235  -1.622  1.00  0.00     0.000 A 
ENDBRANCH  73  86
ENDBRANCH  47  48
ENDBRANCH  40  42
ENDBRANCH  39  40
ENDBRANCH  38  39
ENDBRANCH  37  38
ENDBRANCH  36  37
ENDBRANCH  35  36
ENDBRANCH  34  35
ENDBRANCH   1  34
TORSDOF 23
