REMARK SMILES Cc1ccc2nc(Cl)c([C@@H]3CC(c4cccs4)=NN3C(=O)CCCC(=O)OCCOCCOCCOC(=O)c3ccc(-c4c5nc(c(-c6ccccc6)c6ccc([nH]6)c(-c6ccccc6)c6nc(c(-c7ccccc7)c7ccc4[nH]7)C=C6)C=C5)cc3)cc2c1
REMARK SMILES IDX 30 1 29 2 28 3 27 4 25 5 26 6 24 7 23 8 22 9 20 10 21 11
REMARK SMILES IDX 19 12 10 13 11 14 12 15 18 16 9 17 1 18 2 19 3 20 89 21 4 22
REMARK SMILES IDX 88 23 5 24 87 25 6 26 7 27 8 28 13 29 14 30 17 31 15 32
REMARK SMILES IDX 16 33 31 34 32 35 33 36 34 37 35 38 36 39 37 40 38 41 39 42
REMARK SMILES IDX 40 43 86 44 41 45 85 46 42 47 43 48 44 49 79 50 45 51 84 52
REMARK SMILES IDX 78 53 80 54 46 55 83 56 77 57 76 58 47 60 69 61 54 62 68 63
REMARK SMILES IDX 55 64 58 65 67 66 81 67 56 68 57 69 66 71 82 72 59 73 48 74
REMARK SMILES IDX 49 75 53 76 50 77 52 78 51 79 70 80 71 81 75 82 72 83 74 84
REMARK SMILES IDX 73 85 60 86 61 87 65 88 62 89 64 90 63 91
REMARK H PARENT 80 59 58 70
REMARK Flexibility Score: inf
ROOT
ATOM      1  O   UNL     1      -3.775  -2.195   1.448  1.00  0.00    -0.376 OA
ENDROOT
BRANCH   1   2
ATOM      2  C   UNL     1      -4.408  -0.905   1.908  1.00  0.00     0.202 C 
BRANCH   2   3
ATOM      3  C   UNL     1      -5.143   0.522   0.881  1.00  0.00     0.261 C 
BRANCH   3   4
ATOM      4  O   UNL     1      -4.356   1.041  -0.948  1.00  0.00    -0.463 OA
BRANCH   4   5
ATOM      5  C   UNL     1      -3.064   0.843  -1.831  1.00  0.00     0.305 C 
ATOM      6  O   UNL     1      -2.071   0.155  -1.511  1.00  0.00    -0.252 OA
BRANCH   5   7
ATOM      7  C   UNL     1      -2.647   1.716  -2.959  1.00  0.00     0.123 C 
BRANCH   7   8
ATOM      8  C   UNL     1      -3.564   2.597  -3.700  1.00  0.00     0.022 C 
BRANCH   8   9
ATOM      9  C   UNL     1      -4.107   3.643  -2.772  1.00  0.00     0.103 C 
BRANCH   9  10
ATOM     10  C   UNL     1      -3.046   4.439  -2.014  1.00  0.00     0.243 C 
ATOM     11  O   UNL     1      -2.513   5.364  -2.647  1.00  0.00    -0.273 OA
BRANCH  10  12
ATOM     12  N   UNL     1      -2.800   4.261  -0.648  1.00  0.00    -0.225 N 
ATOM     13  C   UNL     1      -2.471   3.102   0.325  1.00  0.00     0.150 C 
ATOM     14  C   UNL     1      -2.178   3.833   1.644  1.00  0.00     0.092 C 
ATOM     15  C   UNL     1      -2.356   5.262   1.235  1.00  0.00     0.081 C 
ATOM     16  N   UNL     1      -2.637   5.465  -0.006  1.00  0.00    -0.173 NA
BRANCH  13  17
ATOM     17  C   UNL     1      -3.554   2.038   0.511  1.00  0.00     0.015 A 
ATOM     18  C   UNL     1      -6.585  -4.221  -1.219  1.00  0.00     0.044 C 
ATOM     19  C   UNL     1      -6.342  -2.731  -1.284  1.00  0.00    -0.050 A 
ATOM     20  C   UNL     1      -7.259  -1.884  -1.877  1.00  0.00     0.005 A 
ATOM     21  C   UNL     1      -5.155  -2.211  -0.690  1.00  0.00     0.013 A 
ATOM     22  C   UNL     1      -7.116  -0.507  -1.770  1.00  0.00     0.029 A 
ATOM     23  C   UNL     1      -4.662  -0.813  -0.534  1.00  0.00     0.001 A 
ATOM     24  C   UNL     1      -6.058   0.096  -1.110  1.00  0.00     0.072 A 
ATOM     25  C   UNL     1      -3.291   0.242   0.322  1.00  0.00     0.019 A 
ATOM     26  N   UNL     1      -6.253   1.703  -0.747  1.00  0.00    -0.236 NA
ATOM     27  C   UNL     1      -5.099   2.617   0.018  1.00  0.00     0.135 A 
ATOM     28  Cl  UNL     1      -5.697   4.165   0.487  1.00  0.00    -0.062 Cl
ENDBRANCH  13  17
BRANCH  15  29
ATOM     29  C   UNL     1      -2.256   6.378   2.132  1.00  0.00     0.050 A 
ATOM     30  C   UNL     1      -1.212   6.776   2.937  1.00  0.00     0.022 A 
ATOM     31  S   UNL     1      -3.577   7.472   2.216  1.00  0.00    -0.142 S 
ATOM     32  C   UNL     1      -1.488   8.013   3.597  1.00  0.00     0.012 A 
ATOM     33  C   UNL     1      -2.743   8.495   3.297  1.00  0.00     0.065 A 
ENDBRANCH  15  29
ENDBRANCH  10  12
ENDBRANCH   9  10
ENDBRANCH   8   9
ENDBRANCH   7   8
ENDBRANCH   5   7
ENDBRANCH   4   5
ENDBRANCH   3   4
ENDBRANCH   2   3
ENDBRANCH   1   2
BRANCH   1  34
ATOM     34  C   UNL     1      -2.530  -2.483   0.670  1.00  0.00     0.188 C 
BRANCH  34  35
ATOM     35  C   UNL     1      -2.510  -3.053  -0.910  1.00  0.00     0.188 C 
BRANCH  35  36
ATOM     36  O   UNL     1      -2.464  -2.160  -2.030  1.00  0.00    -0.376 OA
BRANCH  36  37
ATOM     37  C   UNL     1      -3.424  -2.016  -3.099  1.00  0.00     0.202 C 
BRANCH  37  38
ATOM     38  C   UNL     1      -3.901  -3.227  -3.906  1.00  0.00     0.261 C 
BRANCH  38  39
ATOM     39  O   UNL     1      -2.849  -4.138  -4.180  1.00  0.00    -0.460 OA
BRANCH  39  40
ATOM     40  C   UNL     1      -1.768  -3.528  -4.718  1.00  0.00     0.338 C 
ATOM     41  O   UNL     1      -1.769  -2.648  -5.560  1.00  0.00    -0.246 OA
BRANCH  40  42
ATOM     42  C   UNL     1      -0.625  -3.913  -3.874  1.00  0.00     0.060 A 
ATOM     43  C   UNL     1       0.401  -2.982  -3.692  1.00  0.00     0.016 A 
ATOM     44  C   UNL     1      -0.624  -5.137  -3.187  1.00  0.00     0.016 A 
ATOM     45  C   UNL     1       1.487  -3.316  -2.896  1.00  0.00     0.010 A 
ATOM     46  C   UNL     1       0.444  -5.460  -2.367  1.00  0.00     0.010 A 
ATOM     47  C   UNL     1       1.529  -4.577  -2.285  1.00  0.00    -0.014 A 
BRANCH  47  48
ATOM     48  C   UNL     1       2.826  -5.106  -1.837  1.00  0.00     0.031 A 
ATOM     49  C   UNL     1       3.583  -5.960  -2.814  1.00  0.00     0.074 A 
ATOM     50  C   UNL     1       3.316  -4.816  -0.624  1.00  0.00     0.049 A 
ATOM     51  N   UNL     1       4.751  -6.529  -2.684  1.00  0.00    -0.248 NA
ATOM     52  C   UNL     1       2.933  -6.207  -4.117  1.00  0.00     0.031 C 
ATOM     53  C   UNL     1       2.664  -3.980   0.383  1.00  0.00     0.029 A 
ATOM     54  N   UNL     1       4.493  -5.200  -0.042  1.00  0.00    -0.354 N 
ATOM     55  C   UNL     1       4.976  -7.185  -3.887  1.00  0.00     0.074 A 
ATOM     56  C   UNL     1       3.808  -6.997  -4.714  1.00  0.00     0.031 C 
ATOM     57  C   UNL     1       3.457  -3.914   1.467  1.00  0.00     0.029 A 
ATOM     58  C   UNL     1       4.656  -4.715   1.230  1.00  0.00     0.049 A 
ATOM     59  H   UNL     1       5.157  -5.769  -0.492  1.00  0.00     0.167 HD
ATOM     60  C   UNL     1       6.072  -7.868  -4.280  1.00  0.00     0.031 A 
ATOM     61  C   UNL     1       5.667  -4.910   2.096  1.00  0.00     0.031 A 
ATOM     62  C   UNL     1       7.220  -8.072  -3.446  1.00  0.00     0.049 A 
ATOM     63  C   UNL     1       6.846  -5.741   1.663  1.00  0.00     0.074 A 
ATOM     64  C   UNL     1       8.386  -8.755  -3.733  1.00  0.00     0.029 A 
ATOM     65  N   UNL     1       7.335  -7.594  -2.150  1.00  0.00    -0.354 N 
ATOM     66  N   UNL     1       7.069  -6.327   0.510  1.00  0.00    -0.248 NA
ATOM     67  C   UNL     1       7.920  -5.926   2.649  1.00  0.00     0.031 C 
ATOM     68  C   UNL     1       9.191  -8.730  -2.590  1.00  0.00     0.029 A 
ATOM     69  C   UNL     1       8.546  -7.986  -1.613  1.00  0.00     0.049 A 
ATOM     70  H   UNL     1       6.656  -7.056  -1.682  1.00  0.00     0.167 HD
ATOM     71  C   UNL     1       8.318  -6.926   0.623  1.00  0.00     0.074 A 
ATOM     72  C   UNL     1       8.808  -6.619   1.952  1.00  0.00     0.031 C 
ATOM     73  C   UNL     1       9.002  -7.663  -0.287  1.00  0.00     0.031 A 
BRANCH  60  74
ATOM     74  C   UNL     1       6.053  -8.452  -5.660  1.00  0.00    -0.014 A 
ATOM     75  C   UNL     1       6.158  -7.630  -6.795  1.00  0.00     0.009 A 
ATOM     76  C   UNL     1       5.920  -9.837  -5.831  1.00  0.00     0.009 A 
ATOM     77  C   UNL     1       6.101  -8.183  -8.075  1.00  0.00     0.001 A 
ATOM     78  C   UNL     1       5.889 -10.390  -7.112  1.00  0.00     0.001 A 
ATOM     79  C   UNL     1       5.971  -9.563  -8.232  1.00  0.00     0.000 A 
ENDBRANCH  60  74
BRANCH  61  80
ATOM     80  C   UNL     1       5.610  -4.316   3.455  1.00  0.00    -0.014 A 
ATOM     81  C   UNL     1       6.473  -3.272   3.820  1.00  0.00     0.009 A 
ATOM     82  C   UNL     1       4.705  -4.814   4.406  1.00  0.00     0.009 A 
ATOM     83  C   UNL     1       6.452  -2.759   5.119  1.00  0.00     0.001 A 
ATOM     84  C   UNL     1       4.669  -4.282   5.696  1.00  0.00     0.001 A 
ATOM     85  C   UNL     1       5.549  -3.263   6.055  1.00  0.00     0.000 A 
ENDBRANCH  61  80
BRANCH  73  86
ATOM     86  C   UNL     1      10.360  -8.160   0.115  1.00  0.00    -0.014 A 
ATOM     87  C   UNL     1      10.506  -9.217   1.025  1.00  0.00     0.009 A 
ATOM     88  C   UNL     1      11.504  -7.600  -0.474  1.00  0.00     0.009 A 
ATOM     89  C   UNL     1      11.778  -9.684   1.360  1.00  0.00     0.001 A 
ATOM     90  C   UNL     1      12.772  -8.088  -0.158  1.00  0.00     0.001 A 
ATOM     91  C   UNL     1      12.908  -9.123   0.765  1.00  0.00     0.000 A 
ENDBRANCH  73  86
ENDBRANCH  47  48
ENDBRANCH  40  42
ENDBRANCH  39  40
ENDBRANCH  38  39
ENDBRANCH  37  38
ENDBRANCH  36  37
ENDBRANCH  35  36
ENDBRANCH  34  35
ENDBRANCH   1  34
TORSDOF 23
