REMARK SMILES CC(C)(C)C(=O)NCCC(=O)N1C[C@@H](O)C[C@@H]1C(=O)OCCOCCOCCOC(=O)c1ccc(-c2c3nc(c(-c4ccccc4)c4ccc([nH]4)c(-c4ccccc4)c4nc(c(-c5ccccc5)c5ccc2[nH]5)C=C4)C=C3)cc1
REMARK SMILES IDX 23 1 22 2 21 3 20 4 18 5 19 6 17 7 12 8 13 9 14 10 16 11
REMARK SMILES IDX 10 12 11 13 9 14 8 15 7 16 5 17 6 18 2 20 1 21 3 22 4 23
REMARK SMILES IDX 15 24 24 26 25 27 26 28 27 29 28 30 29 31 30 32 31 33 32 34
REMARK SMILES IDX 33 35 79 36 34 37 78 38 35 39 36 40 37 41 72 42 38 43 77 44
REMARK SMILES IDX 71 45 73 46 39 47 76 48 70 49 69 50 40 52 62 53 47 54 61 55
REMARK SMILES IDX 48 56 51 57 60 58 74 59 49 60 50 61 59 63 75 64 52 65 41 66
REMARK SMILES IDX 42 67 46 68 43 69 45 70 44 71 63 72 64 73 68 74 65 75 67 76
REMARK SMILES IDX 66 77 53 78 54 79 58 80 55 81 57 82 56 83
REMARK H PARENT 7 19 15 25 73 51 51 62
REMARK Flexibility Score: inf
ROOT
ATOM      1  O   UNL     1      -4.549   6.393  -2.511  1.00  0.00    -0.376 OA
ENDROOT
BRANCH   1   2
ATOM      2  C   UNL     1      -4.438   7.765  -2.847  1.00  0.00     0.202 C 
BRANCH   2   3
ATOM      3  C   UNL     1      -3.139   8.468  -2.465  1.00  0.00     0.261 C 
BRANCH   3   4
ATOM      4  O   UNL     1      -1.999   8.028  -3.226  1.00  0.00    -0.462 OA
BRANCH   4   5
ATOM      5  C   UNL     1      -1.124   7.231  -2.557  1.00  0.00     0.329 C 
ATOM      6  O   UNL     1      -1.296   6.823  -1.412  1.00  0.00    -0.250 OA
BRANCH   5   7
ATOM      7  C   UNL     1       0.127   6.904  -3.397  1.00  0.00     0.197 C 
ATOM      8  N   UNL     1       0.394   5.460  -3.366  1.00  0.00    -0.326 N 
ATOM      9  C   UNL     1       1.168   5.118  -2.179  1.00  0.00     0.152 C 
ATOM     10  C   UNL     1       1.631   6.459  -1.586  1.00  0.00     0.136 C 
ATOM     11  C   UNL     1       1.348   7.481  -2.696  1.00  0.00     0.070 C 
BRANCH   8  12
ATOM     12  C   UNL     1       0.086   4.621  -4.411  1.00  0.00     0.225 C 
ATOM     13  O   UNL     1      -0.160   5.050  -5.538  1.00  0.00    -0.275 OA
BRANCH  12  14
ATOM     14  C   UNL     1      -0.112   3.149  -4.098  1.00  0.00     0.121 C 
BRANCH  14  15
ATOM     15  C   UNL     1       1.032   2.180  -4.372  1.00  0.00     0.125 C 
BRANCH  15  16
ATOM     16  N   UNL     1       2.205   2.332  -3.529  1.00  0.00    -0.355 N 
ATOM     17  C   UNL     1       2.623   1.778  -2.358  1.00  0.00     0.225 C 
ATOM     18  O   UNL     1       3.673   2.250  -1.906  1.00  0.00    -0.275 OA
ATOM     19  H   UNL     1       2.846   2.987  -3.888  1.00  0.00     0.163 HD
BRANCH  17  20
ATOM     20  C   UNL     1       1.874   0.650  -1.621  1.00  0.00     0.041 C 
ATOM     21  C   UNL     1       2.577   0.370  -0.272  1.00  0.00     0.021 C 
ATOM     22  C   UNL     1       1.920  -0.652  -2.435  1.00  0.00     0.021 C 
ATOM     23  C   UNL     1       0.438   1.046  -1.294  1.00  0.00     0.021 C 
ENDBRANCH  17  20
ENDBRANCH  15  16
ENDBRANCH  14  15
ENDBRANCH  12  14
ENDBRANCH   8  12
BRANCH  10  24
ATOM     24  O   UNL     1       3.009   6.480  -1.246  1.00  0.00    -0.391 OA
ATOM     25  H   UNL     1       3.540   6.301  -2.038  1.00  0.00     0.211 HD
ENDBRANCH  10  24
ENDBRANCH   5   7
ENDBRANCH   4   5
ENDBRANCH   3   4
ENDBRANCH   2   3
ENDBRANCH   1   2
BRANCH   1  26
ATOM     26  C   UNL     1      -3.783   5.428  -3.215  1.00  0.00     0.188 C 
BRANCH  26  27
ATOM     27  C   UNL     1      -3.478   5.598  -4.718  1.00  0.00     0.188 C 
BRANCH  27  28
ATOM     28  O   UNL     1      -4.400   6.284  -5.552  1.00  0.00    -0.376 OA
BRANCH  28  29
ATOM     29  C   UNL     1      -5.773   5.916  -5.492  1.00  0.00     0.202 C 
BRANCH  29  30
ATOM     30  C   UNL     1      -6.084   4.472  -5.875  1.00  0.00     0.261 C 
BRANCH  30  31
ATOM     31  O   UNL     1      -5.555   3.574  -4.888  1.00  0.00    -0.460 OA
BRANCH  31  32
ATOM     32  C   UNL     1      -5.743   2.267  -5.147  1.00  0.00     0.338 C 
ATOM     33  O   UNL     1      -6.387   1.787  -6.077  1.00  0.00    -0.246 OA
BRANCH  32  34
ATOM     34  C   UNL     1      -5.044   1.457  -4.131  1.00  0.00     0.060 A 
ATOM     35  C   UNL     1      -3.713   1.727  -3.809  1.00  0.00     0.016 A 
ATOM     36  C   UNL     1      -5.684   0.355  -3.561  1.00  0.00     0.016 A 
ATOM     37  C   UNL     1      -3.019   0.883  -2.942  1.00  0.00     0.010 A 
ATOM     38  C   UNL     1      -4.987  -0.484  -2.680  1.00  0.00     0.010 A 
ATOM     39  C   UNL     1      -3.636  -0.246  -2.386  1.00  0.00    -0.014 A 
BRANCH  39  40
ATOM     40  C   UNL     1      -2.819  -1.254  -1.654  1.00  0.00     0.031 A 
ATOM     41  C   UNL     1      -2.385  -2.503  -2.377  1.00  0.00     0.074 A 
ATOM     42  C   UNL     1      -2.366  -1.039  -0.404  1.00  0.00     0.049 A 
ATOM     43  N   UNL     1      -1.707  -3.529  -1.927  1.00  0.00    -0.248 NA
ATOM     44  C   UNL     1      -2.756  -2.605  -3.798  1.00  0.00     0.031 C 
ATOM     45  C   UNL     1      -2.586   0.172   0.382  1.00  0.00     0.029 A 
ATOM     46  N   UNL     1      -1.553  -1.813   0.394  1.00  0.00    -0.354 N 
ATOM     47  C   UNL     1      -1.654  -4.436  -2.978  1.00  0.00     0.074 A 
ATOM     48  C   UNL     1      -2.303  -3.811  -4.109  1.00  0.00     0.031 C 
ATOM     49  C   UNL     1      -1.840   0.105   1.501  1.00  0.00     0.029 A 
ATOM     50  C   UNL     1      -1.145  -1.181   1.546  1.00  0.00     0.049 A 
ATOM     51  H   UNL     1      -1.288  -2.732   0.161  1.00  0.00     0.167 HD
ATOM     52  C   UNL     1      -1.156  -5.695  -2.987  1.00  0.00     0.031 A 
ATOM     53  C   UNL     1      -0.298  -1.590   2.513  1.00  0.00     0.031 A 
ATOM     54  C   UNL     1      -0.488  -6.324  -1.882  1.00  0.00     0.049 A 
ATOM     55  C   UNL     1       0.257  -2.993   2.478  1.00  0.00     0.074 A 
ATOM     56  C   UNL     1      -0.034  -7.628  -1.778  1.00  0.00     0.029 A 
ATOM     57  N   UNL     1      -0.161  -5.691  -0.697  1.00  0.00    -0.354 N 
ATOM     58  N   UNL     1       0.198  -3.888   1.524  1.00  0.00    -0.248 NA
ATOM     59  C   UNL     1       0.959  -3.454   3.689  1.00  0.00     0.031 C 
ATOM     60  C   UNL     1       0.534  -7.795  -0.511  1.00  0.00     0.029 A 
ATOM     61  C   UNL     1       0.475  -6.581   0.152  1.00  0.00     0.049 A 
ATOM     62  H   UNL     1      -0.351  -4.748  -0.488  1.00  0.00     0.167 HD
ATOM     63  C   UNL     1       0.830  -5.020   2.029  1.00  0.00     0.074 A 
ATOM     64  C   UNL     1       1.323  -4.681   3.345  1.00  0.00     0.031 C 
ATOM     65  C   UNL     1       0.957  -6.245   1.464  1.00  0.00     0.031 A 
BRANCH  52  66
ATOM     66  C   UNL     1      -1.436  -6.527  -4.202  1.00  0.00    -0.014 A 
ATOM     67  C   UNL     1      -0.690  -6.403  -5.381  1.00  0.00     0.009 A 
ATOM     68  C   UNL     1      -2.465  -7.482  -4.138  1.00  0.00     0.009 A 
ATOM     69  C   UNL     1      -0.986  -7.210  -6.483  1.00  0.00     0.001 A 
ATOM     70  C   UNL     1      -2.743  -8.300  -5.232  1.00  0.00     0.001 A 
ATOM     71  C   UNL     1      -2.007  -8.158  -6.406  1.00  0.00     0.000 A 
ENDBRANCH  52  66
BRANCH  53  72
ATOM     72  C   UNL     1       0.094  -0.687   3.630  1.00  0.00    -0.014 A 
ATOM     73  C   UNL     1       1.438  -0.301   3.775  1.00  0.00     0.009 A 
ATOM     74  C   UNL     1      -0.835  -0.270   4.594  1.00  0.00     0.009 A 
ATOM     75  C   UNL     1       1.847   0.458   4.874  1.00  0.00     0.001 A 
ATOM     76  C   UNL     1      -0.429   0.518   5.675  1.00  0.00     0.001 A 
ATOM     77  C   UNL     1       0.912   0.870   5.821  1.00  0.00     0.000 A 
ENDBRANCH  53  72
BRANCH  65  78
ATOM     78  C   UNL     1       1.623  -7.324   2.272  1.00  0.00    -0.014 A 
ATOM     79  C   UNL     1       0.968  -7.902   3.372  1.00  0.00     0.009 A 
ATOM     80  C   UNL     1       2.884  -7.814   1.900  1.00  0.00     0.009 A 
ATOM     81  C   UNL     1       1.573  -8.929   4.099  1.00  0.00     0.001 A 
ATOM     82  C   UNL     1       3.476  -8.858   2.614  1.00  0.00     0.001 A 
ATOM     83  C   UNL     1       2.824  -9.410   3.716  1.00  0.00     0.000 A 
ENDBRANCH  65  78
ENDBRANCH  39  40
ENDBRANCH  32  34
ENDBRANCH  31  32
ENDBRANCH  30  31
ENDBRANCH  29  30
ENDBRANCH  28  29
ENDBRANCH  27  28
ENDBRANCH  26  27
ENDBRANCH   1  26
TORSDOF 23
