REMARK SMILES O=C(OCCOCCOCCOC(=O)[C@H](Cc1ccc(O)cc1)NC(=O)c1ccc(Cl)s1)c1ccc(-c2c3nc(c(-c4ccccc4)c4ccc([nH]4)c(-c4ccccc4)c4nc(c(-c5ccccc5)c5ccc2[nH]5)C=C4)C=C3)cc1
REMARK SMILES IDX 8 1 7 2 6 3 5 4 4 5 3 6 2 7 1 8 33 9 34 10 80 11 35 12 79 13
REMARK SMILES IDX 36 14 37 15 38 16 73 17 39 18 78 19 72 20 74 21 40 22 77 23
REMARK SMILES IDX 71 24 70 25 41 27 63 28 48 29 62 30 49 31 52 32 61 33 75 34
REMARK SMILES IDX 50 35 51 36 60 38 76 39 53 40 42 41 43 42 47 43 44 44 46 45
REMARK SMILES IDX 45 46 64 47 65 48 69 49 66 50 68 51 67 52 54 53 55 54 59 55
REMARK SMILES IDX 56 56 58 57 57 58 9 59 10 60 11 61 12 62 13 63 14 64 15 65
REMARK SMILES IDX 24 66 25 67 26 69 27 70 28 71 32 72 29 73 30 74 31 75 16 76
REMARK SMILES IDX 17 77 18 78 23 79 19 80 22 81 20 82 21 83
REMARK H PARENT 74 26 52 37 24 68 21 84
REMARK Flexibility Score: inf
ROOT
ATOM      1  C   UNL     1       4.050  -1.587  -1.736  1.00  0.00     0.188 C 
ENDROOT
BRANCH   1   2
ATOM      2  C   UNL     1       2.575  -1.233  -1.920  1.00  0.00     0.188 C 
BRANCH   2   3
ATOM      3  O   UNL     1       1.759  -2.166  -2.620  1.00  0.00    -0.376 OA
BRANCH   3   4
ATOM      4  C   UNL     1       0.916  -1.666  -3.664  1.00  0.00     0.202 C 
BRANCH   4   5
ATOM      5  C   UNL     1       0.160  -0.331  -3.483  1.00  0.00     0.261 C 
BRANCH   5   6
ATOM      6  O   UNL     1       0.408   0.449  -2.294  1.00  0.00    -0.460 OA
BRANCH   6   7
ATOM      7  C   UNL     1       0.086   0.285  -0.995  1.00  0.00     0.338 C 
ATOM      8  O   UNL     1       0.594   1.028  -0.158  1.00  0.00    -0.246 OA
BRANCH   7   9
ATOM      9  C   UNL     1      -0.828  -0.778  -0.518  1.00  0.00     0.060 A 
ATOM     10  C   UNL     1      -0.942  -2.021  -1.118  1.00  0.00     0.016 A 
ATOM     11  C   UNL     1      -1.502  -0.573   0.689  1.00  0.00     0.016 A 
ATOM     12  C   UNL     1      -1.721  -3.025  -0.592  1.00  0.00     0.010 A 
ATOM     13  C   UNL     1      -2.172  -1.633   1.306  1.00  0.00     0.010 A 
ATOM     14  C   UNL     1      -2.232  -2.884   0.681  1.00  0.00    -0.014 A 
BRANCH  14  15
ATOM     15  C   UNL     1      -2.929  -4.024   1.278  1.00  0.00     0.031 A 
ATOM     16  C   UNL     1      -4.416  -4.043   1.147  1.00  0.00     0.074 A 
ATOM     17  C   UNL     1      -2.280  -5.192   1.497  1.00  0.00     0.049 A 
ATOM     18  N   UNL     1      -5.257  -4.987   1.456  1.00  0.00    -0.248 NA
ATOM     19  C   UNL     1      -5.014  -2.909   0.413  1.00  0.00     0.031 C 
ATOM     20  C   UNL     1      -0.726  -5.717   0.484  1.00  0.00     0.029 A 
ATOM     21  N   UNL     1      -2.789  -6.623   2.327  1.00  0.00    -0.354 N 
ATOM     22  C   UNL     1      -6.466  -4.589   0.919  1.00  0.00     0.074 A 
ATOM     23  C   UNL     1      -6.269  -3.304   0.289  1.00  0.00     0.031 C 
ATOM     24  C   UNL     1      -0.536  -7.602   0.770  1.00  0.00     0.029 A 
ATOM     25  C   UNL     1      -1.901  -8.098   1.987  1.00  0.00     0.049 A 
ATOM     26  H   UNL     1      -3.543  -6.610   2.960  1.00  0.00     0.167 HD
ATOM     27  C   UNL     1      -7.639  -5.252   0.950  1.00  0.00     0.031 A 
ATOM     28  C   UNL     1      -1.875  -9.180   2.781  1.00  0.00     0.031 A 
ATOM     29  C   UNL     1      -7.818  -6.550   1.543  1.00  0.00     0.049 A 
ATOM     30  C   UNL     1      -3.222  -9.552   3.240  1.00  0.00     0.074 A 
ATOM     31  C   UNL     1      -9.014  -7.204   1.763  1.00  0.00     0.029 A 
ATOM     32  N   UNL     1      -6.805  -7.388   2.010  1.00  0.00    -0.354 N 
ATOM     33  N   UNL     1      -4.340  -8.933   2.957  1.00  0.00    -0.248 NA
ATOM     34  C   UNL     1      -3.363 -10.823   3.941  1.00  0.00     0.031 C 
ATOM     35  C   UNL     1      -8.742  -8.370   2.473  1.00  0.00     0.029 A 
ATOM     36  C   UNL     1      -7.368  -8.509   2.608  1.00  0.00     0.049 A 
ATOM     37  H   UNL     1      -5.840  -7.212   1.928  1.00  0.00     0.167 HD
ATOM     38  C   UNL     1      -5.339  -9.775   3.364  1.00  0.00     0.074 A 
ATOM     39  C   UNL     1      -4.683 -10.948   3.930  1.00  0.00     0.031 C 
ATOM     40  C   UNL     1      -6.673  -9.608   3.237  1.00  0.00     0.031 A 
BRANCH  27  41
ATOM     41  C   UNL     1      -8.847  -4.457   0.548  1.00  0.00    -0.014 A 
ATOM     42  C   UNL     1      -9.202  -4.181  -0.780  1.00  0.00     0.009 A 
ATOM     43  C   UNL     1      -9.636  -3.938   1.588  1.00  0.00     0.009 A 
ATOM     44  C   UNL     1     -10.324  -3.390  -1.051  1.00  0.00     0.001 A 
ATOM     45  C   UNL     1     -10.769  -3.179   1.315  1.00  0.00     0.001 A 
ATOM     46  C   UNL     1     -11.110  -2.900  -0.006  1.00  0.00     0.000 A 
ENDBRANCH  27  41
BRANCH  28  47
ATOM     47  C   UNL     1      -0.622  -9.892   3.124  1.00  0.00    -0.014 A 
ATOM     48  C   UNL     1      -0.311 -11.167   2.648  1.00  0.00     0.009 A 
ATOM     49  C   UNL     1       0.277  -9.288   4.030  1.00  0.00     0.009 A 
ATOM     50  C   UNL     1       0.852 -11.823   3.080  1.00  0.00     0.001 A 
ATOM     51  C   UNL     1       1.452  -9.928   4.436  1.00  0.00     0.001 A 
ATOM     52  C   UNL     1       1.733 -11.204   3.969  1.00  0.00     0.000 A 
ENDBRANCH  28  47
BRANCH  40  53
ATOM     53  C   UNL     1      -7.491 -10.716   3.811  1.00  0.00    -0.014 A 
ATOM     54  C   UNL     1      -7.525 -10.916   5.199  1.00  0.00     0.009 A 
ATOM     55  C   UNL     1      -8.227 -11.557   2.966  1.00  0.00     0.009 A 
ATOM     56  C   UNL     1      -8.252 -11.974   5.732  1.00  0.00     0.001 A 
ATOM     57  C   UNL     1      -8.993 -12.584   3.508  1.00  0.00     0.001 A 
ATOM     58  C   UNL     1      -8.993 -12.799   4.887  1.00  0.00     0.000 A 
ENDBRANCH  40  53
ENDBRANCH  14  15
ENDBRANCH   7   9
ENDBRANCH   6   7
ENDBRANCH   5   6
ENDBRANCH   4   5
ENDBRANCH   3   4
ENDBRANCH   2   3
ENDBRANCH   1   2
BRANCH   1  59
ATOM     59  O   UNL     1       4.791  -2.013  -2.865  1.00  0.00    -0.376 OA
BRANCH  59  60
ATOM     60  C   UNL     1       4.203  -3.010  -3.688  1.00  0.00     0.202 C 
BRANCH  60  61
ATOM     61  C   UNL     1       3.839  -4.373  -3.065  1.00  0.00     0.261 C 
BRANCH  61  62
ATOM     62  O   UNL     1       3.201  -4.328  -1.772  1.00  0.00    -0.462 OA
BRANCH  62  63
ATOM     63  C   UNL     1       3.979  -4.565  -0.672  1.00  0.00     0.329 C 
ATOM     64  O   UNL     1       5.169  -4.851  -0.705  1.00  0.00    -0.250 OA
BRANCH  63  65
ATOM     65  C   UNL     1       3.145  -4.474   0.622  1.00  0.00     0.197 C 
BRANCH  65  66
ATOM     66  N   UNL     1       3.387  -5.762   1.264  1.00  0.00    -0.338 N 
ATOM     67  C   UNL     1       2.499  -6.778   1.360  1.00  0.00     0.262 C 
ATOM     68  H   UNL     1       4.276  -5.904   1.663  1.00  0.00     0.164 HD
ATOM     69  O   UNL     1       2.838  -7.857   1.829  1.00  0.00    -0.268 OA
BRANCH  67  70
ATOM     70  C   UNL     1       1.218  -6.519   0.775  1.00  0.00     0.093 A 
ATOM     71  C   UNL     1       0.721  -6.737  -0.810  1.00  0.00     0.027 A 
ATOM     72  S   UNL     1      -0.483  -6.373   2.314  1.00  0.00    -0.118 S 
ATOM     73  C   UNL     1      -1.086  -6.944  -1.137  1.00  0.00     0.033 A 
ATOM     74  C   UNL     1      -2.070  -6.858   0.324  1.00  0.00     0.094 A 
ATOM     75  Cl  UNL     1      -3.839  -7.365   0.105  1.00  0.00    -0.072 Cl
ENDBRANCH  67  70
ENDBRANCH  65  66
BRANCH  65  76
ATOM     76  C   UNL     1       3.490  -3.355   1.616  1.00  0.00     0.072 C 
BRANCH  76  77
ATOM     77  C   UNL     1       2.287  -2.759   2.342  1.00  0.00    -0.045 A 
ATOM     78  C   UNL     1       1.480  -3.521   3.204  1.00  0.00     0.007 A 
ATOM     79  C   UNL     1       1.999  -1.393   2.213  1.00  0.00     0.007 A 
ATOM     80  C   UNL     1       0.398  -2.945   3.889  1.00  0.00     0.046 A 
ATOM     81  C   UNL     1       0.946  -0.809   2.925  1.00  0.00     0.046 A 
ATOM     82  C   UNL     1       0.146  -1.587   3.750  1.00  0.00     0.115 A 
BRANCH  82  83
ATOM     83  O   UNL     1      -0.894  -0.980   4.391  1.00  0.00    -0.508 OA
ATOM     84  H   UNL     1      -1.453  -1.478   4.955  1.00  0.00     0.293 HD
ENDBRANCH  82  83
ENDBRANCH  76  77
ENDBRANCH  65  76
ENDBRANCH  63  65
ENDBRANCH  62  63
ENDBRANCH  61  62
ENDBRANCH  60  61
ENDBRANCH  59  60
ENDBRANCH   1  59
TORSDOF 22
