REMARK SMILES Cc1ccc(-c2cc(C(=O)OCCOCCOCCOC(=O)c3ccc(-c4c5nc(c(-c6ccccc6)c6ccc([nH]6)c(-c6ccccc6)c6nc(c(-c7ccccc7)c7ccc4[nH]7)C=C6)C=C5)cc3)c3cc(C)ccc3n2)c(C)c1
REMARK SMILES IDX 16 1 15 2 14 3 13 4 12 5 11 6 9 7 10 8 8 9 6 10 7 11 78 12
REMARK SMILES IDX 77 13 71 14 76 15 72 16 75 17 73 18 74 19 5 20 1 21 2 22
REMARK SMILES IDX 3 23 81 24 4 25 79 26 80 27 17 28 18 29 19 30 20 31 21 32
REMARK SMILES IDX 22 33 23 34 24 35 70 36 25 37 69 38 26 39 27 40 28 41 63 42
REMARK SMILES IDX 29 43 68 44 62 45 64 46 30 47 67 48 61 49 60 50 31 52 53 53
REMARK SMILES IDX 38 54 52 55 39 56 42 57 51 58 65 59 40 60 41 61 50 63 66 64
REMARK SMILES IDX 43 65 32 66 33 67 37 68 34 69 36 70 35 71 54 72 55 73 59 74
REMARK SMILES IDX 56 75 58 76 57 77 44 78 45 79 49 80 46 81 48 82 47 83
REMARK H PARENT 64 51 42 62
REMARK Flexibility Score: inf
ROOT
ATOM      1  C   UNL     1      -3.536  -6.207   1.233  1.00  0.00     0.188 C 
ENDROOT
BRANCH   1   2
ATOM      2  C   UNL     1      -2.968  -5.861   2.627  1.00  0.00     0.188 C 
BRANCH   2   3
ATOM      3  O   UNL     1      -3.533  -6.478   3.781  1.00  0.00    -0.376 OA
BRANCH   3   4
ATOM      4  C   UNL     1      -4.946  -6.433   3.970  1.00  0.00     0.202 C 
BRANCH   4   5
ATOM      5  C   UNL     1      -5.645  -5.071   3.890  1.00  0.00     0.261 C 
BRANCH   5   6
ATOM      6  O   UNL     1      -5.447  -4.414   2.626  1.00  0.00    -0.460 OA
BRANCH   6   7
ATOM      7  C   UNL     1      -5.025  -3.128   2.681  1.00  0.00     0.338 C 
ATOM      8  O   UNL     1      -4.876  -2.456   3.688  1.00  0.00    -0.246 OA
BRANCH   7   9
ATOM      9  C   UNL     1      -4.545  -2.676   1.354  1.00  0.00     0.071 A 
ATOM     10  C   UNL     1      -2.767  -1.614   0.161  1.00  0.00     0.072 A 
ATOM     11  C   UNL     1      -3.277  -2.086   1.355  1.00  0.00     0.045 A 
ATOM     12  N   UNL     1      -3.455  -1.696  -0.997  1.00  0.00    -0.248 NA
ATOM     13  C   UNL     1      -4.674  -2.259  -1.000  1.00  0.00     0.072 A 
ATOM     14  C   UNL     1      -5.283  -2.797   0.153  1.00  0.00     0.015 A 
ATOM     15  C   UNL     1      -5.357  -2.299  -2.205  1.00  0.00     0.029 A 
ATOM     16  C   UNL     1      -6.561  -3.401   0.023  1.00  0.00     0.014 A 
ATOM     17  C   UNL     1      -6.616  -2.889  -2.324  1.00  0.00     0.005 A 
ATOM     18  C   UNL     1      -7.226  -3.456  -1.209  1.00  0.00    -0.050 A 
ATOM     19  C   UNL     1      -8.537  -4.173  -1.331  1.00  0.00     0.044 C 
BRANCH  10  20
ATOM     20  C   UNL     1      -1.466  -0.940   0.090  1.00  0.00     0.003 A 
ATOM     21  C   UNL     1       2.429   0.959   0.001  1.00  0.00     0.044 C 
ATOM     22  C   UNL     1       1.088   0.287   0.026  1.00  0.00    -0.051 A 
ATOM     23  C   UNL     1       0.975  -1.104   0.010  1.00  0.00     0.004 A 
ATOM     24  C   UNL     1      -0.078   1.061   0.057  1.00  0.00     0.007 A 
ATOM     25  C   UNL     1      -0.287  -1.707   0.039  1.00  0.00     0.011 A 
ATOM     26  C   UNL     1      -1.353   0.466   0.092  1.00  0.00    -0.041 A 
ATOM     27  C   UNL     1      -2.551   1.378   0.096  1.00  0.00     0.045 C 
ENDBRANCH  10  20
ENDBRANCH   7   9
ENDBRANCH   6   7
ENDBRANCH   5   6
ENDBRANCH   4   5
ENDBRANCH   3   4
ENDBRANCH   2   3
ENDBRANCH   1   2
BRANCH   1  28
ATOM     28  O   UNL     1      -4.638  -7.081   1.273  1.00  0.00    -0.376 OA
BRANCH  28  29
ATOM     29  C   UNL     1      -4.455  -8.451   0.967  1.00  0.00     0.202 C 
BRANCH  29  30
ATOM     30  C   UNL     1      -3.195  -9.257   1.346  1.00  0.00     0.261 C 
BRANCH  30  31
ATOM     31  O   UNL     1      -1.993  -8.536   1.634  1.00  0.00    -0.460 OA
BRANCH  31  32
ATOM     32  C   UNL     1      -1.125  -8.363   0.610  1.00  0.00     0.338 C 
ATOM     33  O   UNL     1      -1.273  -8.697  -0.549  1.00  0.00    -0.246 OA
BRANCH  32  34
ATOM     34  C   UNL     1      -0.005  -7.531   1.097  1.00  0.00     0.060 A 
ATOM     35  C   UNL     1       0.168  -6.251   0.557  1.00  0.00     0.016 A 
ATOM     36  C   UNL     1       0.879  -8.019   2.062  1.00  0.00     0.016 A 
ATOM     37  C   UNL     1       1.244  -5.462   0.968  1.00  0.00     0.010 A 
ATOM     38  C   UNL     1       1.967  -7.234   2.458  1.00  0.00     0.010 A 
ATOM     39  C   UNL     1       2.168  -5.961   1.895  1.00  0.00    -0.014 A 
BRANCH  39  40
ATOM     40  C   UNL     1       3.436  -5.229   2.137  1.00  0.00     0.031 A 
ATOM     41  C   UNL     1       4.660  -5.641   1.363  1.00  0.00     0.074 A 
ATOM     42  C   UNL     1       3.500  -4.196   2.996  1.00  0.00     0.049 A 
ATOM     43  N   UNL     1       5.885  -5.189   1.446  1.00  0.00    -0.248 NA
ATOM     44  C   UNL     1       4.472  -6.698   0.355  1.00  0.00     0.031 C 
ATOM     45  C   UNL     1       2.377  -3.647   3.754  1.00  0.00     0.029 A 
ATOM     46  N   UNL     1       4.572  -3.423   3.375  1.00  0.00    -0.354 N 
ATOM     47  C   UNL     1       6.611  -5.902   0.500  1.00  0.00     0.074 A 
ATOM     48  C   UNL     1       5.699  -6.835  -0.124  1.00  0.00     0.031 C 
ATOM     49  C   UNL     1       2.822  -2.633   4.519  1.00  0.00     0.029 A 
ATOM     50  C   UNL     1       4.265  -2.487   4.332  1.00  0.00     0.049 A 
ATOM     51  H   UNL     1       5.474  -3.531   2.996  1.00  0.00     0.167 HD
ATOM     52  C   UNL     1       7.919  -5.786   0.172  1.00  0.00     0.031 A 
ATOM     53  C   UNL     1       5.064  -1.632   5.000  1.00  0.00     0.031 A 
ATOM     54  C   UNL     1       8.838  -4.880   0.804  1.00  0.00     0.049 A 
ATOM     55  C   UNL     1       6.543  -1.614   4.704  1.00  0.00     0.074 A 
ATOM     56  C   UNL     1      10.191  -4.714   0.560  1.00  0.00     0.029 A 
ATOM     57  N   UNL     1       8.499  -3.990   1.809  1.00  0.00    -0.354 N 
ATOM     58  N   UNL     1       7.219  -2.293   3.809  1.00  0.00    -0.248 NA
ATOM     59  C   UNL     1       7.369  -0.702   5.512  1.00  0.00     0.031 C 
ATOM     60  C   UNL     1      10.680  -3.752   1.449  1.00  0.00     0.029 A 
ATOM     61  C   UNL     1       9.620  -3.281   2.207  1.00  0.00     0.049 A 
ATOM     62  H   UNL     1       7.596  -3.877   2.184  1.00  0.00     0.167 HD
ATOM     63  C   UNL     1       8.537  -1.863   3.921  1.00  0.00     0.074 A 
ATOM     64  C   UNL     1       8.564  -0.855   4.959  1.00  0.00     0.031 C 
ATOM     65  C   UNL     1       9.628  -2.266   3.226  1.00  0.00     0.031 A 
BRANCH  52  66
ATOM     66  C   UNL     1       8.442  -6.685  -0.912  1.00  0.00    -0.014 A 
ATOM     67  C   UNL     1       8.117  -6.456  -2.258  1.00  0.00     0.009 A 
ATOM     68  C   UNL     1       9.306  -7.741  -0.589  1.00  0.00     0.009 A 
ATOM     69  C   UNL     1       8.632  -7.284  -3.258  1.00  0.00     0.001 A 
ATOM     70  C   UNL     1       9.840  -8.551  -1.593  1.00  0.00     0.001 A 
ATOM     71  C   UNL     1       9.498  -8.325  -2.925  1.00  0.00     0.000 A 
ENDBRANCH  52  66
BRANCH  53  72
ATOM     72  C   UNL     1       4.511  -0.739   6.055  1.00  0.00    -0.014 A 
ATOM     73  C   UNL     1       4.521   0.656   5.893  1.00  0.00     0.009 A 
ATOM     74  C   UNL     1       4.044  -1.275   7.265  1.00  0.00     0.009 A 
ATOM     75  C   UNL     1       4.116   1.494   6.936  1.00  0.00     0.001 A 
ATOM     76  C   UNL     1       3.609  -0.436   8.294  1.00  0.00     0.001 A 
ATOM     77  C   UNL     1       3.660   0.947   8.134  1.00  0.00     0.000 A 
ENDBRANCH  53  72
BRANCH  65  78
ATOM     78  C   UNL     1      10.931  -1.575   3.517  1.00  0.00    -0.014 A 
ATOM     79  C   UNL     1      11.634  -1.805   4.710  1.00  0.00     0.009 A 
ATOM     80  C   UNL     1      11.484  -0.712   2.558  1.00  0.00     0.009 A 
ATOM     81  C   UNL     1      12.847  -1.157   4.949  1.00  0.00     0.001 A 
ATOM     82  C   UNL     1      12.712  -0.089   2.787  1.00  0.00     0.001 A 
ATOM     83  C   UNL     1      13.388  -0.304   3.986  1.00  0.00     0.000 A 
ENDBRANCH  65  78
ENDBRANCH  39  40
ENDBRANCH  32  34
ENDBRANCH  31  32
ENDBRANCH  30  31
ENDBRANCH  29  30
ENDBRANCH  28  29
ENDBRANCH   1  28
TORSDOF 18
