REMARK SMILES CC1(C)S[C@H]2[C@H](NC(=O)[C@H](NN3CCNC3=O)c3ccccc3)C(=O)N2[C@H]1C(=O)OCCOCCOCCOC(=O)c1ccc(-c2c3nc(c(-c4ccccc4)c4ccc([nH]4)c(-c4ccccc4)c4nc(c(-c5ccccc5)c5ccc2[nH]5)C=C4)C=C3)cc1
REMARK SMILES IDX 34 1 33 2 32 3 31 4 30 5 28 6 29 7 27 8 1 9 2 10 3 11 4 12
REMARK SMILES IDX 5 13 26 14 6 15 24 16 25 17 7 18 8 19 9 21 10 22 18 23 19 24
REMARK SMILES IDX 23 25 20 26 22 27 21 28 11 29 12 31 13 32 16 33 14 34 15 35
REMARK SMILES IDX 17 36 35 38 36 39 37 40 38 41 39 42 40 43 41 44 42 45 43 46
REMARK SMILES IDX 89 47 44 48 88 49 45 50 46 51 47 52 82 53 48 54 87 55 81 56
REMARK SMILES IDX 83 57 49 58 86 59 80 60 79 61 50 63 72 64 57 65 71 66 58 67
REMARK SMILES IDX 61 68 70 69 84 70 59 71 60 72 69 74 85 75 62 76 51 77 52 78
REMARK SMILES IDX 56 79 53 80 55 81 54 82 73 83 74 84 78 85 75 86 77 87 76 88
REMARK SMILES IDX 63 89 64 90 68 91 65 92 67 93 66 94
REMARK H PARENT 7 20 11 30 15 37 83 62 61 73
REMARK Flexibility Score: inf
ROOT
ATOM      1  C   UNL     1     -10.501   1.991   6.980  1.00  0.00     0.188 C 
ENDROOT
BRANCH   1   2
ATOM      2  O   UNL     1     -10.627   2.513   5.662  1.00  0.00    -0.376 OA
BRANCH   2   3
ATOM      3  C   UNL     1      -9.947   1.886   4.582  1.00  0.00     0.202 C 
BRANCH   3   4
ATOM      4  C   UNL     1      -8.441   2.138   4.501  1.00  0.00     0.261 C 
BRANCH   4   5
ATOM      5  O   UNL     1      -7.676   1.499   5.544  1.00  0.00    -0.462 OA
BRANCH   5   6
ATOM      6  C   UNL     1      -7.105   2.329   6.453  1.00  0.00     0.330 C 
ATOM      7  O   UNL     1      -7.352   3.527   6.551  1.00  0.00    -0.250 OA
BRANCH   6   8
ATOM      8  C   UNL     1      -5.981   1.665   7.256  1.00  0.00     0.212 C 
ATOM      9  C   UNL     1      -6.920   0.333   9.234  1.00  0.00     0.026 C 
ATOM     10  C   UNL     1      -6.110   0.277   7.931  1.00  0.00     0.044 C 
ATOM     11  C   UNL     1      -6.562  -0.923   7.089  1.00  0.00     0.026 C 
ATOM     12  S   UNL     1      -4.346  -0.104   8.435  1.00  0.00    -0.125 SA
ATOM     13  C   UNL     1      -3.607   0.934   7.121  1.00  0.00     0.176 C 
ATOM     14  N   UNL     1      -4.703   1.724   6.554  1.00  0.00    -0.311 N 
ATOM     15  C   UNL     1      -3.507   0.215   5.758  1.00  0.00     0.205 C 
ATOM     16  C   UNL     1      -4.500   1.281   5.283  1.00  0.00     0.250 C 
ATOM     17  O   UNL     1      -5.089   1.514   4.249  1.00  0.00    -0.272 OA
BRANCH  15  18
ATOM     18  N   UNL     1      -2.175   0.155   5.146  1.00  0.00    -0.340 N 
ATOM     19  C   UNL     1      -1.492  -0.985   4.786  1.00  0.00     0.244 C 
ATOM     20  H   UNL     1      -1.725   1.014   4.977  1.00  0.00     0.164 HD
ATOM     21  O   UNL     1      -0.404  -0.828   4.226  1.00  0.00    -0.273 OA
BRANCH  19  22
ATOM     22  C   UNL     1      -2.145  -2.383   5.052  1.00  0.00     0.194 C 
BRANCH  22  23
ATOM     23  C   UNL     1      -2.879  -2.960   3.832  1.00  0.00    -0.020 A 
ATOM     24  C   UNL     1      -3.045  -2.229   2.641  1.00  0.00     0.006 A 
ATOM     25  C   UNL     1      -3.446  -4.248   3.881  1.00  0.00     0.006 A 
ATOM     26  C   UNL     1      -3.676  -2.791   1.526  1.00  0.00     0.000 A 
ATOM     27  C   UNL     1      -4.045  -4.822   2.756  1.00  0.00     0.000 A 
ATOM     28  C   UNL     1      -4.153  -4.096   1.575  1.00  0.00     0.000 A 
ENDBRANCH  22  23
BRANCH  22  29
ATOM     29  N   UNL     1      -1.121  -3.235   5.724  1.00  0.00    -0.213 NA
ATOM     30  H   UNL     1      -1.568  -3.711   6.508  1.00  0.00     0.149 HD
BRANCH  29  31
ATOM     31  N   UNL     1      -0.540  -4.202   4.903  1.00  0.00    -0.257 N 
ATOM     32  C   UNL     1       0.378  -3.942   3.826  1.00  0.00     0.163 C 
ATOM     33  C   UNL     1      -0.737  -5.580   5.092  1.00  0.00     0.331 C 
ATOM     34  C   UNL     1       0.374  -5.270   3.075  1.00  0.00     0.141 C 
ATOM     35  N   UNL     1      -0.108  -6.227   4.040  1.00  0.00    -0.335 N 
ATOM     36  O   UNL     1      -1.384  -6.115   5.978  1.00  0.00    -0.247 OA
ATOM     37  H   UNL     1      -0.004  -7.203   3.962  1.00  0.00     0.165 HD
ENDBRANCH  29  31
ENDBRANCH  22  29
ENDBRANCH  19  22
ENDBRANCH  15  18
ENDBRANCH   6   8
ENDBRANCH   5   6
ENDBRANCH   4   5
ENDBRANCH   3   4
ENDBRANCH   2   3
ENDBRANCH   1   2
BRANCH   1  38
ATOM     38  C   UNL     1     -10.089   0.532   7.165  1.00  0.00     0.188 C 
BRANCH  38  39
ATOM     39  O   UNL     1     -10.769  -0.354   6.292  1.00  0.00    -0.376 OA
BRANCH  39  40
ATOM     40  C   UNL     1     -11.325  -1.504   6.915  1.00  0.00     0.202 C 
BRANCH  40  41
ATOM     41  C   UNL     1     -12.698  -1.169   7.502  1.00  0.00     0.261 C 
BRANCH  41  42
ATOM     42  O   UNL     1     -12.656  -0.200   8.567  1.00  0.00    -0.460 OA
BRANCH  42  43
ATOM     43  C   UNL     1     -11.993  -0.561   9.690  1.00  0.00     0.338 C 
ATOM     44  O   UNL     1     -11.464  -1.633   9.920  1.00  0.00    -0.246 OA
BRANCH  43  45
ATOM     45  C   UNL     1     -11.821   0.647  10.525  1.00  0.00     0.060 A 
ATOM     46  C   UNL     1     -10.553   0.930  11.051  1.00  0.00     0.016 A 
ATOM     47  C   UNL     1     -12.902   1.490  10.789  1.00  0.00     0.016 A 
ATOM     48  C   UNL     1     -10.371   2.045  11.871  1.00  0.00     0.010 A 
ATOM     49  C   UNL     1     -12.724   2.592  11.625  1.00  0.00     0.010 A 
ATOM     50  C   UNL     1     -11.466   2.858  12.193  1.00  0.00    -0.014 A 
BRANCH  50  51
ATOM     51  C   UNL     1     -11.363   3.861  13.278  1.00  0.00     0.031 A 
ATOM     52  C   UNL     1     -11.793   3.455  14.661  1.00  0.00     0.074 A 
ATOM     53  C   UNL     1     -10.908   5.105  13.049  1.00  0.00     0.049 A 
ATOM     54  N   UNL     1     -11.896   4.180  15.745  1.00  0.00    -0.248 NA
ATOM     55  C   UNL     1     -12.155   2.039  14.843  1.00  0.00     0.031 C 
ATOM     56  C   UNL     1     -10.404   5.607  11.773  1.00  0.00     0.029 A 
ATOM     57  N   UNL     1     -10.809   6.179  13.898  1.00  0.00    -0.354 N 
ATOM     58  C   UNL     1     -12.334   3.310  16.735  1.00  0.00     0.074 A 
ATOM     59  C   UNL     1     -12.502   2.011  16.121  1.00  0.00     0.031 C 
ATOM     60  C   UNL     1     -10.055   6.898  11.921  1.00  0.00     0.029 A 
ATOM     61  C   UNL     1     -10.350   7.321  13.289  1.00  0.00     0.049 A 
ATOM     62  H   UNL     1     -11.044   6.135  14.853  1.00  0.00     0.167 HD
ATOM     63  C   UNL     1     -12.574   3.565  18.043  1.00  0.00     0.031 A 
ATOM     64  C   UNL     1     -10.213   8.569  13.777  1.00  0.00     0.031 A 
ATOM     65  C   UNL     1     -12.438   4.858  18.653  1.00  0.00     0.049 A 
ATOM     66  C   UNL     1     -10.596   8.853  15.207  1.00  0.00     0.074 A 
ATOM     67  C   UNL     1     -12.690   5.225  19.963  1.00  0.00     0.029 A 
ATOM     68  N   UNL     1     -12.016   5.998  17.990  1.00  0.00    -0.354 N 
ATOM     69  N   UNL     1     -11.020   8.026  16.132  1.00  0.00    -0.248 NA
ATOM     70  C   UNL     1     -10.481  10.249  15.658  1.00  0.00     0.031 C 
ATOM     71  C   UNL     1     -12.456   6.599  20.084  1.00  0.00     0.029 A 
ATOM     72  C   UNL     1     -12.012   7.074  18.860  1.00  0.00     0.049 A 
ATOM     73  H   UNL     1     -11.757   6.038  17.041  1.00  0.00     0.167 HD
ATOM     74  C   UNL     1     -11.191   8.794  17.278  1.00  0.00     0.074 A 
ATOM     75  C   UNL     1     -10.815  10.149  16.937  1.00  0.00     0.031 C 
ATOM     76  C   UNL     1     -11.621   8.412  18.506  1.00  0.00     0.031 A 
BRANCH  63  77
ATOM     77  C   UNL     1     -13.037   2.417  18.889  1.00  0.00    -0.014 A 
ATOM     78  C   UNL     1     -12.147   1.406  19.285  1.00  0.00     0.009 A 
ATOM     79  C   UNL     1     -14.374   2.354  19.312  1.00  0.00     0.009 A 
ATOM     80  C   UNL     1     -12.594   0.339  20.065  1.00  0.00     0.001 A 
ATOM     81  C   UNL     1     -14.812   1.297  20.112  1.00  0.00     0.001 A 
ATOM     82  C   UNL     1     -13.925   0.287  20.481  1.00  0.00     0.000 A 
ENDBRANCH  63  77
BRANCH  64  83
ATOM     83  C   UNL     1      -9.723   9.672  12.908  1.00  0.00    -0.014 A 
ATOM     84  C   UNL     1      -8.475  10.268  13.147  1.00  0.00     0.009 A 
ATOM     85  C   UNL     1     -10.527  10.175  11.873  1.00  0.00     0.009 A 
ATOM     86  C   UNL     1      -8.056  11.364  12.389  1.00  0.00     0.001 A 
ATOM     87  C   UNL     1     -10.094  11.253  11.099  1.00  0.00     0.001 A 
ATOM     88  C   UNL     1      -8.865  11.855  11.365  1.00  0.00     0.000 A 
ENDBRANCH  64  83
BRANCH  76  89
ATOM     89  C   UNL     1     -11.656   9.459  19.582  1.00  0.00    -0.014 A 
ATOM     90  C   UNL     1     -12.647  10.452  19.603  1.00  0.00     0.009 A 
ATOM     91  C   UNL     1     -10.707   9.421  20.616  1.00  0.00     0.009 A 
ATOM     92  C   UNL     1     -12.668  11.405  20.624  1.00  0.00     0.001 A 
ATOM     93  C   UNL     1     -10.746  10.358  21.648  1.00  0.00     0.001 A 
ATOM     94  C   UNL     1     -11.721  11.354  21.647  1.00  0.00     0.000 A 
ENDBRANCH  76  89
ENDBRANCH  50  51
ENDBRANCH  43  45
ENDBRANCH  42  43
ENDBRANCH  41  42
ENDBRANCH  40  41
ENDBRANCH  39  40
ENDBRANCH  38  39
ENDBRANCH   1  38
TORSDOF 22
