REMARK SMILES NC(=O)c1ccc(NC(=O)Cc2ccccc2C(=O)OCCOCCOCCOC(=O)c2ccc(-c3c4nc(c(-c5ccccc5)c5ccc([nH]5)c(-c5ccccc5)c5nc(c(-c6ccccc6)c6ccc3[nH]6)C=C5)C=C4)cc2)cc1
REMARK SMILES IDX 24 1 23 2 22 3 21 4 20 5 18 6 19 7 17 8 12 9 13 10 14 11
REMARK SMILES IDX 16 12 15 13 11 14 9 15 8 16 10 18 7 19 4 20 5 21 81 22 6 23
REMARK SMILES IDX 80 24 2 25 1 26 3 29 25 30 26 31 27 32 28 33 29 34 30 35
REMARK SMILES IDX 31 36 32 37 33 38 79 39 34 40 78 41 35 42 36 43 37 44 72 45
REMARK SMILES IDX 38 46 77 47 71 48 73 49 39 50 76 51 70 52 69 53 40 55 62 56
REMARK SMILES IDX 47 57 61 58 48 59 51 60 60 61 74 62 49 63 50 64 59 66 75 67
REMARK SMILES IDX 52 68 41 69 42 70 46 71 43 72 45 73 44 74 63 75 64 76 68 77
REMARK SMILES IDX 65 78 67 79 66 80 53 81 54 82 58 83 55 84 57 85 56 86
REMARK H PARENT 8 17 1 27 1 28 73 54 51 65
REMARK Flexibility Score: inf
ROOT
ATOM      1  C   UNL     1      -1.664   1.015   6.337  1.00  0.00     0.188 C 
ENDROOT
BRANCH   1   2
ATOM      2  O   UNL     1      -0.709   0.021   6.662  1.00  0.00    -0.376 OA
BRANCH   2   3
ATOM      3  C   UNL     1       0.323  -0.145   5.712  1.00  0.00     0.202 C 
BRANCH   3   4
ATOM      4  C   UNL     1       1.222   1.059   5.440  1.00  0.00     0.261 C 
BRANCH   4   5
ATOM      5  O   UNL     1       0.630   2.353   5.196  1.00  0.00    -0.460 OA
BRANCH   5   6
ATOM      6  C   UNL     1      -0.100   2.623   4.093  1.00  0.00     0.338 C 
ATOM      7  O   UNL     1      -0.513   1.783   3.311  1.00  0.00    -0.246 OA
BRANCH   6   8
ATOM      8  C   UNL     1      -0.436   4.088   4.025  1.00  0.00     0.063 A 
ATOM      9  C   UNL     1       0.372   5.147   4.508  1.00  0.00    -0.024 A 
ATOM     10  C   UNL     1      -0.135   6.467   4.420  1.00  0.00     0.005 A 
ATOM     11  C   UNL     1      -1.384   6.740   3.859  1.00  0.00     0.000 A 
ATOM     12  C   UNL     1      -1.689   4.386   3.448  1.00  0.00     0.016 A 
ATOM     13  C   UNL     1      -2.160   5.700   3.368  1.00  0.00     0.001 A 
BRANCH   9  14
ATOM     14  C   UNL     1       1.742   4.996   5.148  1.00  0.00     0.136 C 
BRANCH  14  15
ATOM     15  C   UNL     1       2.878   5.689   4.406  1.00  0.00     0.228 C 
ATOM     16  N   UNL     1       3.335   5.284   3.181  1.00  0.00    -0.326 N 
ATOM     17  H   UNL     1       4.013   5.882   2.790  1.00  0.00     0.169 HD
ATOM     18  O   UNL     1       3.391   6.706   4.890  1.00  0.00    -0.274 OA
BRANCH  16  19
ATOM     19  C   UNL     1       3.020   4.180   2.377  1.00  0.00     0.041 A 
ATOM     20  C   UNL     1       1.977   2.200   0.703  1.00  0.00     0.039 A 
ATOM     21  C   UNL     1       2.177   1.934   2.051  1.00  0.00     0.016 A 
ATOM     22  C   UNL     1       2.460   3.382   0.151  1.00  0.00     0.016 A 
ATOM     23  C   UNL     1       2.706   2.928   2.885  1.00  0.00     0.027 A 
ATOM     24  C   UNL     1       3.015   4.358   0.990  1.00  0.00     0.027 A 
BRANCH  20  25
ATOM     25  C   UNL     1       1.117   1.299  -0.083  1.00  0.00     0.248 C 
ATOM     26  N   UNL     1       1.667   0.110  -0.454  1.00  0.00    -0.366 N 
ATOM     27  H   UNL     1       1.140  -0.533  -0.980  1.00  0.00     0.159 HD
ATOM     28  H   UNL     1       2.592  -0.105  -0.196  1.00  0.00     0.159 HD
ATOM     29  O   UNL     1      -0.030   1.610  -0.368  1.00  0.00    -0.270 OA
ENDBRANCH  20  25
ENDBRANCH  16  19
ENDBRANCH  14  15
ENDBRANCH   9  14
ENDBRANCH   6   8
ENDBRANCH   5   6
ENDBRANCH   4   5
ENDBRANCH   3   4
ENDBRANCH   2   3
ENDBRANCH   1   2
BRANCH   1  30
ATOM     30  C   UNL     1      -1.458   2.342   7.103  1.00  0.00     0.188 C 
BRANCH  30  31
ATOM     31  O   UNL     1      -0.474   2.421   8.122  1.00  0.00    -0.376 OA
BRANCH  31  32
ATOM     32  C   UNL     1      -0.397   1.364   9.068  1.00  0.00     0.202 C 
BRANCH  32  33
ATOM     33  C   UNL     1      -1.674   0.842   9.763  1.00  0.00     0.261 C 
BRANCH  33  34
ATOM     34  O   UNL     1      -2.830   0.630   8.926  1.00  0.00    -0.460 OA
BRANCH  34  35
ATOM     35  C   UNL     1      -3.832   1.549   9.029  1.00  0.00     0.338 C 
ATOM     36  O   UNL     1      -3.894   2.476   9.806  1.00  0.00    -0.246 OA
BRANCH  35  37
ATOM     37  C   UNL     1      -4.761   1.407   7.871  1.00  0.00     0.060 A 
ATOM     38  C   UNL     1      -4.914   2.495   6.991  1.00  0.00     0.016 A 
ATOM     39  C   UNL     1      -5.470   0.229   7.644  1.00  0.00     0.016 A 
ATOM     40  C   UNL     1      -5.786   2.418   5.902  1.00  0.00     0.010 A 
ATOM     41  C   UNL     1      -6.380   0.168   6.578  1.00  0.00     0.010 A 
ATOM     42  C   UNL     1      -6.568   1.273   5.723  1.00  0.00    -0.014 A 
BRANCH  42  43
ATOM     43  C   UNL     1      -7.752   1.324   4.825  1.00  0.00     0.031 A 
ATOM     44  C   UNL     1      -9.091   1.629   5.446  1.00  0.00     0.074 A 
ATOM     45  C   UNL     1      -7.665   1.125   3.498  1.00  0.00     0.049 A 
ATOM     46  N   UNL     1     -10.280   1.647   4.901  1.00  0.00    -0.248 NA
ATOM     47  C   UNL     1      -9.081   1.955   6.882  1.00  0.00     0.031 C 
ATOM     48  C   UNL     1      -6.433   0.894   2.749  1.00  0.00     0.029 A 
ATOM     49  N   UNL     1      -8.654   1.077   2.545  1.00  0.00    -0.354 N 
ATOM     50  C   UNL     1     -11.159   1.965   5.929  1.00  0.00     0.074 A 
ATOM     51  C   UNL     1     -10.371   2.105   7.134  1.00  0.00     0.031 C 
ATOM     52  C   UNL     1      -6.741   0.712   1.452  1.00  0.00     0.029 A 
ATOM     53  C   UNL     1      -8.194   0.774   1.287  1.00  0.00     0.049 A 
ATOM     54  H   UNL     1      -9.604   1.244   2.745  1.00  0.00     0.167 HD
ATOM     55  C   UNL     1     -12.502   2.129   5.881  1.00  0.00     0.031 A 
ATOM     56  C   UNL     1      -8.868   0.545   0.142  1.00  0.00     0.031 A 
ATOM     57  C   UNL     1     -13.296   1.972   4.692  1.00  0.00     0.049 A 
ATOM     58  C   UNL     1     -10.375   0.629   0.132  1.00  0.00     0.074 A 
ATOM     59  C   UNL     1     -14.663   2.124   4.543  1.00  0.00     0.029 A 
ATOM     60  N   UNL     1     -12.794   1.615   3.451  1.00  0.00    -0.354 N 
ATOM     61  N   UNL     1     -11.196   0.942   1.105  1.00  0.00    -0.248 NA
ATOM     62  C   UNL     1     -11.047   0.330  -1.143  1.00  0.00     0.031 C 
ATOM     63  C   UNL     1     -14.997   1.793   3.226  1.00  0.00     0.029 A 
ATOM     64  C   UNL     1     -13.829   1.509   2.537  1.00  0.00     0.049 A 
ATOM     65  H   UNL     1     -11.843   1.460   3.249  1.00  0.00     0.167 HD
ATOM     66  C   UNL     1     -12.473   0.913   0.553  1.00  0.00     0.074 A 
ATOM     67  C   UNL     1     -12.317   0.563  -0.843  1.00  0.00     0.031 C 
ATOM     68  C   UNL     1     -13.666   1.160   1.149  1.00  0.00     0.031 A 
BRANCH  55  69
ATOM     69  C   UNL     1     -13.202   2.447   7.175  1.00  0.00    -0.014 A 
ATOM     70  C   UNL     1     -13.037   3.686   7.814  1.00  0.00     0.009 A 
ATOM     71  C   UNL     1     -14.049   1.491   7.757  1.00  0.00     0.009 A 
ATOM     72  C   UNL     1     -13.672   3.943   9.032  1.00  0.00     0.001 A 
ATOM     73  C   UNL     1     -14.710   1.764   8.955  1.00  0.00     0.001 A 
ATOM     74  C   UNL     1     -14.511   2.984   9.598  1.00  0.00     0.000 A 
ENDBRANCH  55  69
BRANCH  56  75
ATOM     75  C   UNL     1      -8.132   0.186  -1.102  1.00  0.00    -0.014 A 
ATOM     76  C   UNL     1      -8.104   1.063  -2.197  1.00  0.00     0.009 A 
ATOM     77  C   UNL     1      -7.479  -1.052  -1.211  1.00  0.00     0.009 A 
ATOM     78  C   UNL     1      -7.457   0.700  -3.381  1.00  0.00     0.001 A 
ATOM     79  C   UNL     1      -6.806  -1.400  -2.385  1.00  0.00     0.001 A 
ATOM     80  C   UNL     1      -6.804  -0.528  -3.472  1.00  0.00     0.000 A 
ENDBRANCH  56  75
BRANCH  68  81
ATOM     81  C   UNL     1     -14.900   1.110   0.288  1.00  0.00    -0.014 A 
ATOM     82  C   UNL     1     -15.400  -0.102  -0.215  1.00  0.00     0.009 A 
ATOM     83  C   UNL     1     -15.604   2.295   0.017  1.00  0.00     0.009 A 
ATOM     84  C   UNL     1     -16.556  -0.119  -0.999  1.00  0.00     0.001 A 
ATOM     85  C   UNL     1     -16.777   2.271  -0.738  1.00  0.00     0.001 A 
ATOM     86  C   UNL     1     -17.247   1.065  -1.254  1.00  0.00     0.000 A 
ENDBRANCH  68  81
ENDBRANCH  42  43
ENDBRANCH  35  37
ENDBRANCH  34  35
ENDBRANCH  33  34
ENDBRANCH  32  33
ENDBRANCH  31  32
ENDBRANCH  30  31
ENDBRANCH   1  30
TORSDOF 21
