REMARK SMILES NC(=O)CC[C@H](NC(=O)CC1CC1)C(=O)OCCOCCOCCOC(=O)c1ccc(-c2c3nc(c(-c4ccccc4)c4ccc([nH]4)c(-c4ccccc4)c4nc(c(-c5ccccc5)c5ccc2[nH]5)C=C4)C=C3)cc1
REMARK SMILES IDX 20 1 19 2 18 3 17 4 16 5 14 6 15 7 6 8 5 9 4 10 2 11 1 12
REMARK SMILES IDX 3 15 7 16 8 17 9 19 10 20 11 21 12 22 13 23 21 24 22 25
REMARK SMILES IDX 23 26 24 27 25 28 26 29 27 30 28 31 29 32 75 33 30 34 74 35
REMARK SMILES IDX 31 36 32 37 33 38 68 39 34 40 73 41 67 42 69 43 35 44 72 45
REMARK SMILES IDX 66 46 65 47 36 49 58 50 43 51 57 52 44 53 47 54 56 55 70 56
REMARK SMILES IDX 45 57 46 58 55 60 71 61 48 62 37 63 38 64 42 65 39 66 41 67
REMARK SMILES IDX 40 68 59 69 60 70 64 71 61 72 63 73 62 74 49 75 50 76 54 77
REMARK SMILES IDX 51 78 53 79 52 80
REMARK H PARENT 1 13 1 14 7 18 69 48 47 59
REMARK Flexibility Score: inf
ROOT
ATOM      1  C   UNL     1       2.768   5.311   0.207  1.00  0.00     0.188 C 
ENDROOT
BRANCH   1   2
ATOM      2  O   UNL     1       3.826   6.224  -0.014  1.00  0.00    -0.376 OA
BRANCH   2   3
ATOM      3  C   UNL     1       5.140   5.698  -0.000  1.00  0.00     0.202 C 
BRANCH   3   4
ATOM      4  C   UNL     1       5.545   4.676  -1.077  1.00  0.00     0.261 C 
BRANCH   4   5
ATOM      5  O   UNL     1       4.595   3.667  -1.464  1.00  0.00    -0.462 OA
BRANCH   5   6
ATOM      6  C   UNL     1       4.327   2.718  -0.538  1.00  0.00     0.328 C 
ATOM      7  O   UNL     1       4.710   2.768   0.625  1.00  0.00    -0.250 OA
BRANCH   6   8
ATOM      8  C   UNL     1       3.609   1.490  -1.119  1.00  0.00     0.192 C 
BRANCH   8   9
ATOM      9  C   UNL     1       4.621   0.372  -1.437  1.00  0.00     0.047 C 
BRANCH   9  10
ATOM     10  C   UNL     1       6.102   0.605  -1.138  1.00  0.00     0.102 C 
BRANCH  10  11
ATOM     11  C   UNL     1       6.589   0.587   0.302  1.00  0.00     0.217 C 
ATOM     12  N   UNL     1       5.699   0.362   1.301  1.00  0.00    -0.370 N 
ATOM     13  H   UNL     1       6.003   0.348   2.237  1.00  0.00     0.159 HD
ATOM     14  H   UNL     1       4.749   0.213   1.090  1.00  0.00     0.159 HD
ATOM     15  O   UNL     1       7.775   0.763   0.572  1.00  0.00    -0.275 OA
ENDBRANCH  10  11
ENDBRANCH   9  10
ENDBRANCH   8   9
BRANCH   8  16
ATOM     16  N   UNL     1       2.756   1.796  -2.281  1.00  0.00    -0.343 N 
ATOM     17  C   UNL     1       1.565   1.228  -2.653  1.00  0.00     0.220 C 
ATOM     18  H   UNL     1       3.087   2.509  -2.873  1.00  0.00     0.164 HD
ATOM     19  O   UNL     1       0.871   1.803  -3.493  1.00  0.00    -0.275 OA
BRANCH  17  20
ATOM     20  C   UNL     1       1.101  -0.076  -2.018  1.00  0.00     0.103 C 
BRANCH  20  21
ATOM     21  C   UNL     1       2.001  -1.242  -2.326  1.00  0.00    -0.002 C 
ATOM     22  C   UNL     1       2.213  -2.293  -1.262  1.00  0.00     0.004 C 
ATOM     23  C   UNL     1       1.484  -2.645  -2.522  1.00  0.00     0.004 C 
ENDBRANCH  20  21
ENDBRANCH  17  20
ENDBRANCH   8  16
ENDBRANCH   6   8
ENDBRANCH   5   6
ENDBRANCH   4   5
ENDBRANCH   3   4
ENDBRANCH   2   3
ENDBRANCH   1   2
BRANCH   1  24
ATOM     24  C   UNL     1       1.988   4.967  -1.077  1.00  0.00     0.188 C 
BRANCH  24  25
ATOM     25  O   UNL     1       2.350   5.596  -2.295  1.00  0.00    -0.376 OA
BRANCH  25  26
ATOM     26  C   UNL     1       2.511   7.011  -2.286  1.00  0.00     0.202 C 
BRANCH  26  27
ATOM     27  C   UNL     1       1.474   7.920  -1.583  1.00  0.00     0.261 C 
BRANCH  27  28
ATOM     28  O   UNL     1       0.977   7.474  -0.301  1.00  0.00    -0.460 OA
BRANCH  28  29
ATOM     29  C   UNL     1      -0.311   7.052  -0.266  1.00  0.00     0.338 C 
ATOM     30  O   UNL     1      -1.124   7.098  -1.182  1.00  0.00    -0.246 OA
BRANCH  29  31
ATOM     31  C   UNL     1      -0.583   6.299   0.984  1.00  0.00     0.060 A 
ATOM     32  C   UNL     1      -0.897   4.931   0.892  1.00  0.00     0.016 A 
ATOM     33  C   UNL     1      -0.607   6.933   2.227  1.00  0.00     0.016 A 
ATOM     34  C   UNL     1      -1.266   4.204   2.024  1.00  0.00     0.010 A 
ATOM     35  C   UNL     1      -1.021   6.212   3.358  1.00  0.00     0.010 A 
ATOM     36  C   UNL     1      -1.395   4.857   3.254  1.00  0.00    -0.014 A 
BRANCH  36  37
ATOM     37  C   UNL     1      -2.172   4.206   4.343  1.00  0.00     0.031 A 
ATOM     38  C   UNL     1      -3.634   4.556   4.471  1.00  0.00     0.074 A 
ATOM     39  C   UNL     1      -1.631   3.296   5.173  1.00  0.00     0.049 A 
ATOM     40  N   UNL     1      -4.508   4.174   5.367  1.00  0.00    -0.248 NA
ATOM     41  C   UNL     1      -4.179   5.462   3.446  1.00  0.00     0.031 C 
ATOM     42  C   UNL     1      -0.257   2.804   5.118  1.00  0.00     0.029 A 
ATOM     43  N   UNL     1      -2.187   2.627   6.237  1.00  0.00    -0.354 N 
ATOM     44  C   UNL     1      -5.698   4.805   5.022  1.00  0.00     0.074 A 
ATOM     45  C   UNL     1      -5.428   5.615   3.855  1.00  0.00     0.031 C 
ATOM     46  C   UNL     1      -0.072   1.919   6.116  1.00  0.00     0.029 A 
ATOM     47  C   UNL     1      -1.302   1.812   6.900  1.00  0.00     0.049 A 
ATOM     48  H   UNL     1      -3.131   2.723   6.500  1.00  0.00     0.167 HD
ATOM     49  C   UNL     1      -6.912   4.719   5.617  1.00  0.00     0.031 A 
ATOM     50  C   UNL     1      -1.460   1.084   8.024  1.00  0.00     0.031 A 
ATOM     51  C   UNL     1      -7.186   3.929   6.788  1.00  0.00     0.049 A 
ATOM     52  C   UNL     1      -2.794   1.084   8.730  1.00  0.00     0.074 A 
ATOM     53  C   UNL     1      -8.382   3.782   7.468  1.00  0.00     0.029 A 
ATOM     54  N   UNL     1      -6.248   3.159   7.455  1.00  0.00    -0.354 N 
ATOM     55  N   UNL     1      -3.912   1.682   8.395  1.00  0.00    -0.248 NA
ATOM     56  C   UNL     1      -2.887   0.296   9.970  1.00  0.00     0.031 C 
ATOM     57  C   UNL     1      -8.153   2.970   8.583  1.00  0.00     0.029 A 
ATOM     58  C   UNL     1      -6.833   2.551   8.554  1.00  0.00     0.049 A 
ATOM     59  H   UNL     1      -5.306   3.058   7.189  1.00  0.00     0.167 HD
ATOM     60  C   UNL     1      -4.847   1.310   9.355  1.00  0.00     0.074 A 
ATOM     61  C   UNL     1      -4.169   0.424  10.278  1.00  0.00     0.031 C 
ATOM     62  C   UNL     1      -6.152   1.665   9.461  1.00  0.00     0.031 A 
BRANCH  49  63
ATOM     63  C   UNL     1      -8.028   5.538   5.030  1.00  0.00    -0.014 A 
ATOM     64  C   UNL     1      -8.592   5.223   3.783  1.00  0.00     0.009 A 
ATOM     65  C   UNL     1      -8.541   6.629   5.750  1.00  0.00     0.009 A 
ATOM     66  C   UNL     1      -9.620   6.006   3.254  1.00  0.00     0.001 A 
ATOM     67  C   UNL     1      -9.592   7.389   5.233  1.00  0.00     0.001 A 
ATOM     68  C   UNL     1     -10.123   7.084   3.982  1.00  0.00     0.000 A 
ENDBRANCH  49  63
BRANCH  50  69
ATOM     69  C   UNL     1      -0.323   0.302   8.583  1.00  0.00    -0.014 A 
ATOM     70  C   UNL     1      -0.364  -1.101   8.618  1.00  0.00     0.009 A 
ATOM     71  C   UNL     1       0.790   0.958   9.134  1.00  0.00     0.009 A 
ATOM     72  C   UNL     1       0.667  -1.827   9.219  1.00  0.00     0.001 A 
ATOM     73  C   UNL     1       1.836   0.228   9.704  1.00  0.00     0.001 A 
ATOM     74  C   UNL     1       1.768  -1.163   9.757  1.00  0.00     0.000 A 
ENDBRANCH  50  69
BRANCH  62  75
ATOM     75  C   UNL     1      -6.953   1.046  10.576  1.00  0.00    -0.014 A 
ATOM     76  C   UNL     1      -6.735   1.385  11.921  1.00  0.00     0.009 A 
ATOM     77  C   UNL     1      -7.971   0.128  10.267  1.00  0.00     0.009 A 
ATOM     78  C   UNL     1      -7.488   0.784  12.933  1.00  0.00     0.001 A 
ATOM     79  C   UNL     1      -8.746  -0.444  11.276  1.00  0.00     0.001 A 
ATOM     80  C   UNL     1      -8.495  -0.126  12.610  1.00  0.00     0.000 A 
ENDBRANCH  62  75
ENDBRANCH  36  37
ENDBRANCH  29  31
ENDBRANCH  28  29
ENDBRANCH  27  28
ENDBRANCH  26  27
ENDBRANCH  25  26
ENDBRANCH  24  25
ENDBRANCH   1  24
TORSDOF 23
