REMARK SMILES CC(C)[C@H](CCc1ccc2c(c1)CCO2)C(=O)OCCOCCOCCOC(=O)c1ccc(-c2c3nc(c(-c4ccccc4)c4ccc([nH]4)c(-c4ccccc4)c4nc(c(-c5ccccc5)c5ccc2[nH]5)C=C4)C=C3)cc1
REMARK SMILES IDX 22 1 21 2 20 3 19 4 18 5 16 6 17 7 4 8 2 9 1 10 3 11 5 12
REMARK SMILES IDX 6 13 7 14 8 15 12 16 9 17 11 18 10 19 13 20 15 21 14 22
REMARK SMILES IDX 23 23 24 24 25 25 26 26 27 27 28 28 29 29 30 30 31 31 77 32
REMARK SMILES IDX 32 33 76 34 33 35 34 36 35 37 70 38 36 39 75 40 69 41 71 42
REMARK SMILES IDX 37 43 74 44 68 45 67 46 38 48 60 49 45 50 59 51 46 52 49 53
REMARK SMILES IDX 58 54 72 55 47 56 48 57 57 59 73 60 50 61 39 62 40 63 44 64
REMARK SMILES IDX 41 65 43 66 42 67 61 68 62 69 66 70 63 71 65 72 64 73 51 74
REMARK SMILES IDX 52 75 56 76 53 77 55 78 54 79
REMARK H PARENT 71 47 49 58
REMARK Flexibility Score: inf
ROOT
ATOM      1  C   UNL     1      -1.306   4.944  -0.315  1.00  0.00     0.188 C 
ENDROOT
BRANCH   1   2
ATOM      2  O   UNL     1      -2.051   5.789   0.551  1.00  0.00    -0.376 OA
BRANCH   2   3
ATOM      3  C   UNL     1      -1.992   5.604   1.959  1.00  0.00     0.202 C 
BRANCH   3   4
ATOM      4  C   UNL     1      -2.365   4.240   2.566  1.00  0.00     0.261 C 
BRANCH   4   5
ATOM      5  O   UNL     1      -1.565   3.102   2.171  1.00  0.00    -0.463 OA
BRANCH   5   6
ATOM      6  C   UNL     1      -2.157   2.233   1.316  1.00  0.00     0.309 C 
ATOM      7  O   UNL     1      -3.273   2.413   0.834  1.00  0.00    -0.252 OA
BRANCH   6   8
ATOM      8  C   UNL     1      -1.348   0.976   0.970  1.00  0.00     0.102 C 
BRANCH   8   9
ATOM      9  C   UNL     1      -1.988  -0.331   1.533  1.00  0.00    -0.003 C 
ATOM     10  C   UNL     1      -3.220  -0.135   2.422  1.00  0.00     0.008 C 
ATOM     11  C   UNL     1      -2.341  -1.281   0.382  1.00  0.00     0.008 C 
ENDBRANCH   8   9
BRANCH   8  12
ATOM     12  C   UNL     1       0.211   0.947   1.012  1.00  0.00     0.020 C 
BRANCH  12  13
ATOM     13  C   UNL     1       0.965   1.358   2.288  1.00  0.00     0.036 C 
BRANCH  13  14
ATOM     14  C   UNL     1       0.730   0.371   3.400  1.00  0.00    -0.047 A 
ATOM     15  C   UNL     1      -0.287   0.618   4.345  1.00  0.00     0.007 A 
ATOM     16  C   UNL     1       1.391  -0.869   3.377  1.00  0.00     0.011 A 
ATOM     17  C   UNL     1      -0.739  -0.402   5.183  1.00  0.00     0.047 A 
ATOM     18  C   UNL     1       0.919  -1.868   4.202  1.00  0.00    -0.002 A 
ATOM     19  C   UNL     1      -0.146  -1.640   5.061  1.00  0.00     0.122 A 
ATOM     20  C   UNL     1       1.362  -3.272   4.346  1.00  0.00     0.081 C 
ATOM     21  O   UNL     1      -0.556  -2.768   5.727  1.00  0.00    -0.493 OA
ATOM     22  C   UNL     1       0.094  -3.832   4.989  1.00  0.00     0.234 C 
ENDBRANCH  13  14
ENDBRANCH  12  13
ENDBRANCH   8  12
ENDBRANCH   6   8
ENDBRANCH   5   6
ENDBRANCH   4   5
ENDBRANCH   3   4
ENDBRANCH   2   3
ENDBRANCH   1   2
BRANCH   1  23
ATOM     23  C   UNL     1       0.063   4.419   0.137  1.00  0.00     0.188 C 
BRANCH  23  24
ATOM     24  O   UNL     1       0.579   5.024   1.295  1.00  0.00    -0.376 OA
BRANCH  24  25
ATOM     25  C   UNL     1       1.657   5.929   1.180  1.00  0.00     0.202 C 
BRANCH  25  26
ATOM     26  C   UNL     1       1.661   7.012   0.088  1.00  0.00     0.261 C 
BRANCH  26  27
ATOM     27  O   UNL     1       1.151   6.650  -1.204  1.00  0.00    -0.460 OA
BRANCH  27  28
ATOM     28  C   UNL     1       1.937   5.900  -2.008  1.00  0.00     0.338 C 
ATOM     29  O   UNL     1       3.054   5.478  -1.760  1.00  0.00    -0.246 OA
BRANCH  28  30
ATOM     30  C   UNL     1       1.105   5.478  -3.160  1.00  0.00     0.060 A 
ATOM     31  C   UNL     1       0.886   4.110  -3.384  1.00  0.00     0.016 A 
ATOM     32  C   UNL     1       0.508   6.430  -3.987  1.00  0.00     0.016 A 
ATOM     33  C   UNL     1       0.083   3.692  -4.449  1.00  0.00     0.010 A 
ATOM     34  C   UNL     1      -0.274   6.010  -5.066  1.00  0.00     0.010 A 
ATOM     35  C   UNL     1      -0.470   4.640  -5.319  1.00  0.00    -0.014 A 
BRANCH  35  36
ATOM     36  C   UNL     1      -1.083   4.219  -6.603  1.00  0.00     0.031 A 
ATOM     37  C   UNL     1      -0.237   4.283  -7.845  1.00  0.00     0.074 A 
ATOM     38  C   UNL     1      -2.361   3.809  -6.681  1.00  0.00     0.049 A 
ATOM     39  N   UNL     1      -0.574   4.086  -9.094  1.00  0.00    -0.248 NA
ATOM     40  C   UNL     1       1.182   4.623  -7.648  1.00  0.00     0.031 C 
ATOM     41  C   UNL     1      -3.274   3.646  -5.552  1.00  0.00     0.029 A 
ATOM     42  N   UNL     1      -3.117   3.472  -7.779  1.00  0.00    -0.354 N 
ATOM     43  C   UNL     1       0.585   4.296  -9.831  1.00  0.00     0.074 A 
ATOM     44  C   UNL     1       1.626   4.657  -8.895  1.00  0.00     0.031 C 
ATOM     45  C   UNL     1      -4.475   3.256  -6.018  1.00  0.00     0.029 A 
ATOM     46  C   UNL     1      -4.426   3.187  -7.478  1.00  0.00     0.049 A 
ATOM     47  H   UNL     1      -2.754   3.439  -8.693  1.00  0.00     0.167 HD
ATOM     48  C   UNL     1       0.767   4.199 -11.169  1.00  0.00     0.031 A 
ATOM     49  C   UNL     1      -5.472   2.932  -8.291  1.00  0.00     0.031 A 
ATOM     50  C   UNL     1      -0.272   3.859 -12.104  1.00  0.00     0.049 A 
ATOM     51  C   UNL     1      -5.267   2.925  -9.785  1.00  0.00     0.074 A 
ATOM     52  C   UNL     1      -0.182   3.725 -13.478  1.00  0.00     0.029 A 
ATOM     53  N   UNL     1      -1.591   3.611 -11.761  1.00  0.00    -0.354 N 
ATOM     54  N   UNL     1      -4.165   3.106 -10.473  1.00  0.00    -0.248 NA
ATOM     55  C   UNL     1      -6.455   2.676 -10.616  1.00  0.00     0.031 C 
ATOM     56  C   UNL     1      -1.462   3.459 -13.974  1.00  0.00     0.029 A 
ATOM     57  C   UNL     1      -2.333   3.356 -12.901  1.00  0.00     0.049 A 
ATOM     58  H   UNL     1      -1.948   3.616 -10.843  1.00  0.00     0.167 HD
ATOM     59  C   UNL     1      -4.520   2.957 -11.809  1.00  0.00     0.074 A 
ATOM     60  C   UNL     1      -5.936   2.660 -11.836  1.00  0.00     0.031 C 
ATOM     61  C   UNL     1      -3.741   3.055 -12.915  1.00  0.00     0.031 A 
BRANCH  48  62
ATOM     62  C   UNL     1       2.136   4.511 -11.704  1.00  0.00    -0.014 A 
ATOM     63  C   UNL     1       3.225   3.654 -11.477  1.00  0.00     0.009 A 
ATOM     64  C   UNL     1       2.332   5.670 -12.471  1.00  0.00     0.009 A 
ATOM     65  C   UNL     1       4.489   3.971 -11.979  1.00  0.00     0.001 A 
ATOM     66  C   UNL     1       3.590   5.968 -12.998  1.00  0.00     0.001 A 
ATOM     67  C   UNL     1       4.669   5.123 -12.743  1.00  0.00     0.000 A 
ENDBRANCH  48  62
BRANCH  49  68
ATOM     68  C   UNL     1      -6.826   2.695  -7.721  1.00  0.00    -0.014 A 
ATOM     69  C   UNL     1      -7.439   1.437  -7.828  1.00  0.00     0.009 A 
ATOM     70  C   UNL     1      -7.530   3.739  -7.098  1.00  0.00     0.009 A 
ATOM     71  C   UNL     1      -8.737   1.237  -7.351  1.00  0.00     0.001 A 
ATOM     72  C   UNL     1      -8.815   3.527  -6.593  1.00  0.00     0.001 A 
ATOM     73  C   UNL     1      -9.422   2.280  -6.730  1.00  0.00     0.000 A 
ENDBRANCH  49  68
BRANCH  61  74
ATOM     74  C   UNL     1      -4.386   2.788 -14.249  1.00  0.00    -0.014 A 
ATOM     75  C   UNL     1      -5.292   3.692 -14.822  1.00  0.00     0.009 A 
ATOM     76  C   UNL     1      -4.032   1.635 -14.969  1.00  0.00     0.009 A 
ATOM     77  C   UNL     1      -5.854   3.431 -16.075  1.00  0.00     0.001 A 
ATOM     78  C   UNL     1      -4.569   1.393 -16.233  1.00  0.00     0.001 A 
ATOM     79  C   UNL     1      -5.487   2.286 -16.782  1.00  0.00     0.000 A 
ENDBRANCH  61  74
ENDBRANCH  35  36
ENDBRANCH  28  30
ENDBRANCH  27  28
ENDBRANCH  26  27
ENDBRANCH  25  26
ENDBRANCH  24  25
ENDBRANCH  23  24
ENDBRANCH   1  23
TORSDOF 21
