REMARK SMILES O=C(Cc1cccc(-c2ccn(C(F)F)c(=O)c2)c1)OCCOCCOCCOC(=O)c1ccc(-c2c3nc(c(-c4ccccc4)c4ccc([nH]4)c(-c4ccccc4)c4nc(c(-c5ccccc5)c5ccc2[nH]5)C=C4)C=C3)cc1
REMARK SMILES IDX 24 1 23 2 22 3 21 4 20 5 2 6 1 7 3 8 4 9 5 10 19 11 6 12
REMARK SMILES IDX 8 13 7 14 9 15 10 16 18 17 11 18 16 19 12 20 17 21 13 22
REMARK SMILES IDX 14 23 15 24 25 25 26 26 27 27 28 28 29 29 30 30 31 31 32 32
REMARK SMILES IDX 33 33 79 34 34 35 78 36 35 37 36 38 37 39 72 40 38 41 77 42
REMARK SMILES IDX 71 43 73 44 39 45 76 46 70 47 69 48 40 50 62 51 47 52 61 53
REMARK SMILES IDX 48 54 51 55 60 56 74 57 49 58 50 59 59 61 75 62 52 63 41 64
REMARK SMILES IDX 42 65 46 66 43 67 45 68 44 69 63 70 64 71 68 72 65 73 67 74
REMARK SMILES IDX 66 75 53 76 54 77 58 78 55 79 57 80 56 81
REMARK H PARENT 73 49 51 60
REMARK Flexibility Score: inf
ROOT
ATOM      1  C   UNL     1       3.290   1.831  -0.976  1.00  0.00     0.188 C 
ENDROOT
BRANCH   1   2
ATOM      2  O   UNL     1       4.585   1.266  -1.081  1.00  0.00    -0.376 OA
BRANCH   2   3
ATOM      3  C   UNL     1       4.926   0.290  -0.117  1.00  0.00     0.202 C 
BRANCH   3   4
ATOM      4  C   UNL     1       4.327  -1.069  -0.461  1.00  0.00     0.261 C 
BRANCH   4   5
ATOM      5  O   UNL     1       2.882  -1.135  -0.453  1.00  0.00    -0.463 OA
BRANCH   5   6
ATOM      6  C   UNL     1       2.048  -1.097   0.605  1.00  0.00     0.310 C 
ATOM      7  O   UNL     1       0.862  -1.388   0.447  1.00  0.00    -0.252 OA
BRANCH   6   8
ATOM      8  C   UNL     1       2.520  -0.561   1.932  1.00  0.00     0.158 C 
BRANCH   8   9
ATOM      9  C   UNL     1       3.641  -1.281   2.632  1.00  0.00    -0.036 A 
ATOM     10  C   UNL     1       3.753  -2.674   2.599  1.00  0.00     0.004 A 
ATOM     11  C   UNL     1       4.546  -0.542   3.417  1.00  0.00     0.013 A 
ATOM     12  C   UNL     1       4.775  -3.311   3.299  1.00  0.00     0.001 A 
ATOM     13  C   UNL     1       5.563  -1.173   4.145  1.00  0.00    -0.018 A 
ATOM     14  C   UNL     1       5.671  -2.568   4.070  1.00  0.00     0.009 A 
BRANCH  13  15
ATOM     15  C   UNL     1       6.446  -0.379   5.030  1.00  0.00    -0.011 A 
ATOM     16  C   UNL     1       5.921   0.573   5.996  1.00  0.00     0.027 A 
ATOM     17  C   UNL     1       7.778  -0.555   4.963  1.00  0.00     0.080 A 
ATOM     18  C   UNL     1       6.738   1.228   6.829  1.00  0.00     0.095 A 
ATOM     19  C   UNL     1       8.702   0.167   5.883  1.00  0.00     0.255 A 
ATOM     20  N   UNL     1       8.104   1.026   6.790  1.00  0.00    -0.258 N 
ATOM     21  O   UNL     1       9.906  -0.049   5.789  1.00  0.00    -0.269 OA
BRANCH  20  22
ATOM     22  C   UNL     1       8.969   1.695   7.728  1.00  0.00     0.451 C 
ATOM     23  F   UNL     1       9.636   0.799   8.496  1.00  0.00    -0.185 F 
ATOM     24  F   UNL     1       9.881   2.466   7.090  1.00  0.00    -0.185 F 
ENDBRANCH  20  22
ENDBRANCH  13  15
ENDBRANCH   8   9
ENDBRANCH   6   8
ENDBRANCH   5   6
ENDBRANCH   4   5
ENDBRANCH   3   4
ENDBRANCH   2   3
ENDBRANCH   1   2
BRANCH   1  25
ATOM     25  C   UNL     1       2.523   1.819  -2.307  1.00  0.00     0.188 C 
BRANCH  25  26
ATOM     26  O   UNL     1       3.224   1.755  -3.544  1.00  0.00    -0.376 OA
BRANCH  26  27
ATOM     27  C   UNL     1       4.499   2.366  -3.679  1.00  0.00     0.202 C 
BRANCH  27  28
ATOM     28  C   UNL     1       4.562   3.892  -3.564  1.00  0.00     0.261 C 
BRANCH  28  29
ATOM     29  O   UNL     1       4.148   4.402  -2.282  1.00  0.00    -0.460 OA
BRANCH  29  30
ATOM     30  C   UNL     1       3.028   5.163  -2.301  1.00  0.00     0.338 C 
ATOM     31  O   UNL     1       2.363   5.476  -3.273  1.00  0.00    -0.246 OA
BRANCH  30  32
ATOM     32  C   UNL     1       2.592   5.496  -0.928  1.00  0.00     0.060 A 
ATOM     33  C   UNL     1       1.286   5.149  -0.564  1.00  0.00     0.016 A 
ATOM     34  C   UNL     1       3.389   6.246  -0.060  1.00  0.00     0.016 A 
ATOM     35  C   UNL     1       0.748   5.606   0.639  1.00  0.00     0.010 A 
ATOM     36  C   UNL     1       2.843   6.716   1.144  1.00  0.00     0.010 A 
ATOM     37  C   UNL     1       1.504   6.437   1.477  1.00  0.00    -0.014 A 
BRANCH  37  38
ATOM     38  C   UNL     1       0.818   7.147   2.588  1.00  0.00     0.031 A 
ATOM     39  C   UNL     1       0.317   8.551   2.361  1.00  0.00     0.074 A 
ATOM     40  C   UNL     1       0.565   6.537   3.760  1.00  0.00     0.049 A 
ATOM     41  N   UNL     1      -0.376   9.324   3.160  1.00  0.00    -0.248 NA
ATOM     42  C   UNL     1       0.635   9.160   1.060  1.00  0.00     0.031 C 
ATOM     43  C   UNL     1       0.957   5.173   4.108  1.00  0.00     0.029 A 
ATOM     44  N   UNL     1      -0.097   6.993   4.874  1.00  0.00    -0.354 N 
ATOM     45  C   UNL     1      -0.592  10.501   2.452  1.00  0.00     0.074 A 
ATOM     46  C   UNL     1       0.082  10.358   1.179  1.00  0.00     0.031 C 
ATOM     47  C   UNL     1       0.528   4.902   5.354  1.00  0.00     0.029 A 
ATOM     48  C   UNL     1      -0.156   6.077   5.894  1.00  0.00     0.049 A 
ATOM     49  H   UNL     1      -0.493   7.892   4.934  1.00  0.00     0.167 HD
ATOM     50  C   UNL     1      -1.298  11.598   2.816  1.00  0.00     0.031 A 
ATOM     51  C   UNL     1      -0.696   6.172   7.125  1.00  0.00     0.031 A 
ATOM     52  C   UNL     1      -1.951  11.770   4.086  1.00  0.00     0.049 A 
ATOM     53  C   UNL     1      -1.416   7.431   7.534  1.00  0.00     0.074 A 
ATOM     54  C   UNL     1      -2.682  12.854   4.542  1.00  0.00     0.029 A 
ATOM     55  N   UNL     1      -1.946  10.834   5.107  1.00  0.00    -0.354 N 
ATOM     56  N   UNL     1      -1.634   8.522   6.842  1.00  0.00    -0.248 NA
ATOM     57  C   UNL     1      -1.980   7.458   8.893  1.00  0.00     0.031 C 
ATOM     58  C   UNL     1      -3.082  12.592   5.857  1.00  0.00     0.029 A 
ATOM     59  C   UNL     1      -2.644  11.323   6.199  1.00  0.00     0.049 A 
ATOM     60  H   UNL     1      -1.512   9.952   5.063  1.00  0.00     0.167 HD
ATOM     61  C   UNL     1      -2.378   9.354   7.671  1.00  0.00     0.074 A 
ATOM     62  C   UNL     1      -2.593   8.633   8.908  1.00  0.00     0.031 C 
ATOM     63  C   UNL     1      -2.844  10.604   7.429  1.00  0.00     0.031 A 
BRANCH  50  64
ATOM     64  C   UNL     1      -1.385  12.719   1.818  1.00  0.00    -0.014 A 
ATOM     65  C   UNL     1      -2.190  12.605   0.673  1.00  0.00     0.009 A 
ATOM     66  C   UNL     1      -0.681  13.912   2.041  1.00  0.00     0.009 A 
ATOM     67  C   UNL     1      -2.265  13.655  -0.244  1.00  0.00     0.001 A 
ATOM     68  C   UNL     1      -0.778  14.970   1.134  1.00  0.00     0.001 A 
ATOM     69  C   UNL     1      -1.563  14.837  -0.011  1.00  0.00     0.000 A 
ENDBRANCH  50  64
BRANCH  51  70
ATOM     70  C   UNL     1      -0.569   5.043   8.084  1.00  0.00    -0.014 A 
ATOM     71  C   UNL     1      -1.687   4.279   8.450  1.00  0.00     0.009 A 
ATOM     72  C   UNL     1       0.673   4.756   8.671  1.00  0.00     0.009 A 
ATOM     73  C   UNL     1      -1.569   3.269   9.408  1.00  0.00     0.001 A 
ATOM     74  C   UNL     1       0.794   3.729   9.608  1.00  0.00     0.001 A 
ATOM     75  C   UNL     1      -0.329   2.993   9.984  1.00  0.00     0.000 A 
ENDBRANCH  51  70
BRANCH  63  76
ATOM     76  C   UNL     1      -3.650  11.261   8.515  1.00  0.00    -0.014 A 
ATOM     77  C   UNL     1      -3.045  11.720   9.696  1.00  0.00     0.009 A 
ATOM     78  C   UNL     1      -5.032  11.443   8.346  1.00  0.00     0.009 A 
ATOM     79  C   UNL     1      -3.814  12.309  10.702  1.00  0.00     0.001 A 
ATOM     80  C   UNL     1      -5.794  12.057   9.342  1.00  0.00     0.001 A 
ATOM     81  C   UNL     1      -5.187  12.479  10.523  1.00  0.00     0.000 A 
ENDBRANCH  63  76
ENDBRANCH  37  38
ENDBRANCH  30  32
ENDBRANCH  29  30
ENDBRANCH  28  29
ENDBRANCH  27  28
ENDBRANCH  26  27
ENDBRANCH  25  26
ENDBRANCH   1  25
TORSDOF 20
