REMARK SMILES Cc1cccc(CC(=O)N[C@H]2CCCCC[C@@H]2C(=O)OCCOCCOCCOC(=O)c2ccc(-c3c4nc(c(-c5ccccc5)c5ccc([nH]5)c(-c5ccccc5)c5nc(c(-c6ccccc6)c6ccc3[nH]6)C=C5)C=C4)cc2)c1
REMARK SMILES IDX 23 1 22 2 21 3 20 4 18 5 19 6 17 7 11 8 10 10 8 11 9 12 7 14
REMARK SMILES IDX 6 15 1 16 2 17 3 18 80 19 4 20 5 21 16 22 15 23 14 24 13 25
REMARK SMILES IDX 12 26 24 28 25 29 26 30 27 31 28 32 29 33 30 34 31 35 32 36
REMARK SMILES IDX 33 37 79 38 34 39 78 40 35 41 36 42 37 43 72 44 38 45 77 46
REMARK SMILES IDX 71 47 73 48 39 49 76 50 70 51 69 52 40 54 62 55 47 56 61 57
REMARK SMILES IDX 48 58 51 59 60 60 74 61 49 62 50 63 59 65 75 66 52 67 41 68
REMARK SMILES IDX 42 69 46 70 43 71 45 72 44 73 63 74 64 75 68 76 65 77 67 78
REMARK SMILES IDX 66 79 53 80 54 81 58 82 55 83 57 84 56 85
REMARK H PARENT 10 13 73 53 51 64
REMARK Flexibility Score: 90.00
ROOT
ATOM      1  O   UNL     1      -1.230   9.006  -4.465  1.00  0.00    -0.376 OA
ENDROOT
BRANCH   1   2
ATOM      2  C   UNL     1      -1.964   7.829  -4.106  1.00  0.00     0.202 C 
BRANCH   2   3
ATOM      3  C   UNL     1      -1.375   7.374  -2.724  1.00  0.00     0.261 C 
BRANCH   3   4
ATOM      4  O   UNL     1      -0.666   6.029  -2.066  1.00  0.00    -0.463 OA
BRANCH   4   5
ATOM      5  C   UNL     1      -0.744   4.607  -1.991  1.00  0.00     0.311 C 
ATOM      6  O   UNL     1      -1.564   3.878  -2.534  1.00  0.00    -0.252 OA
BRANCH   5   7
ATOM      7  C   UNL     1       0.348   3.806  -1.316  1.00  0.00     0.121 C 
BRANCH   7   8
ATOM      8  C   UNL     1       0.163   2.254  -1.709  1.00  0.00     0.096 CG0
ATOM      9  G   UNL     1       0.509   1.145  -0.708  1.00  0.00     0.000 G0
BRANCH   8  10
ATOM     10  N   UNL     1       0.457   1.884  -3.124  1.00  0.00    -0.352 N 
ATOM     11  C   UNL     1       1.515   1.609  -3.927  1.00  0.00     0.224 C 
ATOM     12  O   UNL     1       1.260   1.246  -5.083  1.00  0.00    -0.275 OA
ATOM     13  H   UNL     1      -0.382   1.818  -3.636  1.00  0.00     0.163 HD
BRANCH  11  14
ATOM     14  C   UNL     1       2.957   1.710  -3.481  1.00  0.00     0.135 C 
BRANCH  14  15
ATOM     15  C   UNL     1       3.507   3.112  -3.554  1.00  0.00    -0.038 A 
ATOM     16  C   UNL     1       3.589   6.139  -1.267  1.00  0.00     0.044 C 
ATOM     17  C   UNL     1       3.844   5.272  -2.465  1.00  0.00    -0.051 A 
ATOM     18  C   UNL     1       4.246   5.819  -3.683  1.00  0.00     0.003 A 
ATOM     19  C   UNL     1       3.555   3.904  -2.405  1.00  0.00     0.007 A 
ATOM     20  C   UNL     1       4.314   5.014  -4.822  1.00  0.00     0.001 A 
ATOM     21  C   UNL     1       3.909   3.678  -4.768  1.00  0.00     0.004 A 
ENDBRANCH  14  15
ENDBRANCH  11  14
ENDBRANCH   8  10
ENDBRANCH   7   8
BRANCH   7  22
ATOM     22  C   UNL     1       0.224   4.049   0.178  1.00  0.00     0.017 C 
BRANCH  22  23
ATOM     23  C   UNL     1       1.483   3.695   0.951  1.00  0.00     0.001 C 
BRANCH  23  24
ATOM     24  C   UNL     1       1.694   2.219   1.260  1.00  0.00     0.000 C 
BRANCH  24  25
ATOM     25  C   UNL     1       1.799   1.285   0.065  1.00  0.00     0.002 C 
BRANCH  25  26
ATOM     26  C   UNL     1       0.509   1.145  -0.708  1.00  0.00     0.026 CG0
ATOM     27  G   UNL     1       0.163   2.254  -1.709  1.00  0.00     0.000 G0
ENDBRANCH  25  26
ENDBRANCH  24  25
ENDBRANCH  23  24
ENDBRANCH  22  23
ENDBRANCH   7  22
ENDBRANCH   5   7
ENDBRANCH   4   5
ENDBRANCH   3   4
ENDBRANCH   2   3
ENDBRANCH   1   2
BRANCH   1  28
ATOM     28  C   UNL     1       0.013   8.489  -4.890  1.00  0.00     0.188 C 
BRANCH  28  29
ATOM     29  C   UNL     1       1.149   9.467  -4.953  1.00  0.00     0.188 C 
BRANCH  29  30
ATOM     30  O   UNL     1       1.120  10.417  -6.004  1.00  0.00    -0.376 OA
BRANCH  30  31
ATOM     31  C   UNL     1       0.284  10.102  -7.114  1.00  0.00     0.202 C 
BRANCH  31  32
ATOM     32  C   UNL     1       0.681   8.875  -7.995  1.00  0.00     0.261 C 
BRANCH  32  33
ATOM     33  O   UNL     1       1.325   7.793  -7.272  1.00  0.00    -0.460 OA
BRANCH  33  34
ATOM     34  C   UNL     1       1.256   6.542  -7.847  1.00  0.00     0.338 C 
ATOM     35  O   UNL     1       1.467   6.285  -8.994  1.00  0.00    -0.246 OA
BRANCH  34  36
ATOM     36  C   UNL     1       0.585   5.634  -6.855  1.00  0.00     0.060 A 
ATOM     37  C   UNL     1      -0.518   4.876  -7.176  1.00  0.00     0.016 A 
ATOM     38  C   UNL     1       0.891   5.663  -5.528  1.00  0.00     0.016 A 
ATOM     39  C   UNL     1      -1.455   4.495  -6.159  1.00  0.00     0.010 A 
ATOM     40  C   UNL     1      -0.102   5.319  -4.567  1.00  0.00     0.010 A 
ATOM     41  C   UNL     1      -1.451   4.941  -4.824  1.00  0.00    -0.014 A 
BRANCH  41  42
ATOM     42  C   UNL     1      -2.962   5.152  -3.919  1.00  0.00     0.031 A 
ATOM     43  C   UNL     1      -3.402   5.196  -2.195  1.00  0.00     0.074 A 
ATOM     44  C   UNL     1      -4.066   5.064  -4.701  1.00  0.00     0.049 A 
ATOM     45  N   UNL     1      -4.057   4.226  -1.565  1.00  0.00    -0.248 NA
ATOM     46  C   UNL     1      -2.992   6.127  -1.060  1.00  0.00     0.031 C 
ATOM     47  C   UNL     1      -5.467   5.152  -4.327  1.00  0.00     0.029 A 
ATOM     48  N   UNL     1      -4.126   4.639  -6.023  1.00  0.00    -0.354 N 
ATOM     49  C   UNL     1      -4.128   4.575  -0.186  1.00  0.00     0.074 A 
ATOM     50  C   UNL     1      -3.076   5.456   0.073  1.00  0.00     0.031 C 
ATOM     51  C   UNL     1      -6.192   4.524  -5.276  1.00  0.00     0.029 A 
ATOM     52  C   UNL     1      -5.270   3.883  -6.207  1.00  0.00     0.049 A 
ATOM     53  H   UNL     1      -3.460   4.844  -6.718  1.00  0.00     0.167 HD
ATOM     54  C   UNL     1      -5.263   4.600   0.577  1.00  0.00     0.031 A 
ATOM     55  C   UNL     1      -5.163   2.540  -6.463  1.00  0.00     0.031 A 
ATOM     56  C   UNL     1      -6.344   4.147  -0.238  1.00  0.00     0.049 A 
ATOM     57  C   UNL     1      -5.798   1.677  -5.383  1.00  0.00     0.074 A 
ATOM     58  C   UNL     1      -7.337   4.765  -0.972  1.00  0.00     0.029 A 
ATOM     59  N   UNL     1      -6.186   2.898  -0.767  1.00  0.00    -0.354 N 
ATOM     60  N   UNL     1      -6.255   2.130  -4.247  1.00  0.00    -0.248 NA
ATOM     61  C   UNL     1      -5.902   0.220  -5.468  1.00  0.00     0.031 C 
ATOM     62  C   UNL     1      -7.819   3.807  -1.914  1.00  0.00     0.029 A 
ATOM     63  C   UNL     1      -7.141   2.622  -1.697  1.00  0.00     0.049 A 
ATOM     64  H   UNL     1      -5.470   2.275  -0.508  1.00  0.00     0.167 HD
ATOM     65  C   UNL     1      -6.658   1.086  -3.457  1.00  0.00     0.074 A 
ATOM     66  C   UNL     1      -6.408  -0.092  -4.261  1.00  0.00     0.031 C 
ATOM     67  C   UNL     1      -7.120   1.267  -2.186  1.00  0.00     0.031 A 
BRANCH  54  68
ATOM     68  C   UNL     1      -5.426   5.375   1.893  1.00  0.00    -0.014 A 
ATOM     69  C   UNL     1      -6.691   5.879   2.241  1.00  0.00     0.009 A 
ATOM     70  C   UNL     1      -4.391   5.678   2.810  1.00  0.00     0.009 A 
ATOM     71  C   UNL     1      -6.890   6.724   3.347  1.00  0.00     0.001 A 
ATOM     72  C   UNL     1      -4.566   6.576   3.882  1.00  0.00     0.001 A 
ATOM     73  C   UNL     1      -5.819   7.108   4.144  1.00  0.00     0.000 A 
ENDBRANCH  54  68
BRANCH  55  74
ATOM     74  C   UNL     1      -4.005   2.099  -7.330  1.00  0.00    -0.014 A 
ATOM     75  C   UNL     1      -3.825   2.705  -8.597  1.00  0.00     0.009 A 
ATOM     76  C   UNL     1      -2.954   1.292  -6.855  1.00  0.00     0.009 A 
ATOM     77  C   UNL     1      -2.622   2.586  -9.311  1.00  0.00     0.001 A 
ATOM     78  C   UNL     1      -1.749   1.169  -7.575  1.00  0.00     0.001 A 
ATOM     79  C   UNL     1      -1.576   1.831  -8.790  1.00  0.00     0.000 A 
ENDBRANCH  55  74
BRANCH  67  80
ATOM     80  C   UNL     1      -7.484   0.182  -1.194  1.00  0.00    -0.014 A 
ATOM     81  C   UNL     1      -8.136  -0.989  -1.569  1.00  0.00     0.009 A 
ATOM     82  C   UNL     1      -7.291   0.372   0.203  1.00  0.00     0.009 A 
ATOM     83  C   UNL     1      -8.516  -1.938  -0.609  1.00  0.00     0.001 A 
ATOM     84  C   UNL     1      -7.678  -0.559   1.162  1.00  0.00     0.001 A 
ATOM     85  C   UNL     1      -8.285  -1.727   0.751  1.00  0.00     0.000 A 
ENDBRANCH  67  80
ENDBRANCH  41  42
ENDBRANCH  34  36
ENDBRANCH  33  34
ENDBRANCH  32  33
ENDBRANCH  31  32
ENDBRANCH  30  31
ENDBRANCH  29  30
ENDBRANCH  28  29
ENDBRANCH   1  28
TORSDOF 20
