REMARK SMILES O=C(OCCOCCOCCOC(=O)[C@H]1CCC(=O)N1Cc1ccco1)c1ccc(-c2c3nc(c(-c4ccccc4)c4ccc([nH]4)c(-c4ccccc4)c4nc(c(-c5ccccc5)c5ccc2[nH]5)C=C4)C=C3)cc1
REMARK SMILES IDX 7 1 6 2 5 3 4 4 3 5 2 6 1 7 27 8 28 9 74 10 29 11 73 12
REMARK SMILES IDX 30 13 31 14 32 15 67 16 33 17 72 18 66 19 68 20 34 21 71 22
REMARK SMILES IDX 65 23 64 24 35 26 57 27 42 28 56 29 43 30 46 31 55 32 69 33
REMARK SMILES IDX 44 34 45 35 54 37 70 38 47 39 36 40 37 41 41 42 38 43 40 44
REMARK SMILES IDX 39 45 58 46 59 47 63 48 60 49 62 50 61 51 48 52 49 53 53 54
REMARK SMILES IDX 50 55 52 56 51 57 8 58 9 59 10 60 11 61 12 62 13 63 14 64
REMARK SMILES IDX 15 65 16 66 20 67 17 68 18 69 19 70 21 71 22 72 23 73 26 74
REMARK SMILES IDX 24 75 25 76
REMARK H PARENT 68 25 46 36
REMARK Flexibility Score: inf
ROOT
ATOM      1  C   UNL     1      -0.157  -5.044  -3.062  1.00  0.00     0.188 C 
ENDROOT
BRANCH   1   2
ATOM      2  O   UNL     1       0.125  -3.643  -3.120  1.00  0.00    -0.376 OA
BRANCH   2   3
ATOM      3  C   UNL     1      -0.799  -2.928  -3.937  1.00  0.00     0.202 C 
BRANCH   3   4
ATOM      4  C   UNL     1      -0.479  -2.970  -5.442  1.00  0.00     0.261 C 
BRANCH   4   5
ATOM      5  O   UNL     1       0.098  -4.206  -5.910  1.00  0.00    -0.460 OA
BRANCH   5   6
ATOM      6  C   UNL     1       1.368  -4.683  -5.874  1.00  0.00     0.338 C 
ATOM      7  O   UNL     1       1.548  -5.828  -6.295  1.00  0.00    -0.246 OA
BRANCH   6   8
ATOM      8  C   UNL     1       2.571  -3.938  -5.369  1.00  0.00     0.060 A 
ATOM      9  C   UNL     1       2.555  -2.673  -4.796  1.00  0.00     0.016 A 
ATOM     10  C   UNL     1       3.826  -4.590  -5.444  1.00  0.00     0.016 A 
ATOM     11  C   UNL     1       3.720  -2.096  -4.288  1.00  0.00     0.010 A 
ATOM     12  C   UNL     1       5.004  -4.016  -4.924  1.00  0.00     0.010 A 
ATOM     13  C   UNL     1       4.949  -2.764  -4.316  1.00  0.00    -0.014 A 
BRANCH  13  14
ATOM     14  C   UNL     1       6.122  -2.006  -3.811  1.00  0.00     0.031 A 
ATOM     15  C   UNL     1       6.618  -0.890  -4.673  1.00  0.00     0.074 A 
ATOM     16  C   UNL     1       6.582  -2.143  -2.550  1.00  0.00     0.049 A 
ATOM     17  N   UNL     1       7.529   0.007  -4.412  1.00  0.00    -0.248 NA
ATOM     18  C   UNL     1       6.007  -0.769  -6.009  1.00  0.00     0.031 C 
ATOM     19  C   UNL     1       6.146  -3.161  -1.607  1.00  0.00     0.029 A 
ATOM     20  N   UNL     1       7.445  -1.370  -1.806  1.00  0.00    -0.354 N 
ATOM     21  C   UNL     1       7.650   0.749  -5.576  1.00  0.00     0.074 A 
ATOM     22  C   UNL     1       6.656   0.270  -6.507  1.00  0.00     0.031 C 
ATOM     23  C   UNL     1       6.584  -2.852  -0.376  1.00  0.00     0.029 A 
ATOM     24  C   UNL     1       7.481  -1.707  -0.467  1.00  0.00     0.049 A 
ATOM     25  H   UNL     1       7.985  -0.644  -2.192  1.00  0.00     0.167 HD
ATOM     26  C   UNL     1       8.584   1.678  -5.869  1.00  0.00     0.031 A 
ATOM     27  C   UNL     1       8.195  -1.184   0.554  1.00  0.00     0.031 A 
ATOM     28  C   UNL     1       9.614   2.082  -4.957  1.00  0.00     0.049 A 
ATOM     29  C   UNL     1       9.242  -0.160   0.194  1.00  0.00     0.074 A 
ATOM     30  C   UNL     1      10.685   2.923  -5.187  1.00  0.00     0.029 A 
ATOM     31  N   UNL     1       9.710   1.647  -3.643  1.00  0.00    -0.354 N 
ATOM     32  N   UNL     1       9.415   0.482  -0.937  1.00  0.00    -0.248 NA
ATOM     33  C   UNL     1      10.259   0.137   1.214  1.00  0.00     0.031 C 
ATOM     34  C   UNL     1      11.469   2.943  -4.031  1.00  0.00     0.029 A 
ATOM     35  C   UNL     1      10.845   2.176  -3.059  1.00  0.00     0.049 A 
ATOM     36  H   UNL     1       9.067   1.052  -3.195  1.00  0.00     0.167 HD
ATOM     37  C   UNL     1      10.588   1.206  -0.786  1.00  0.00     0.074 A 
ATOM     38  C   UNL     1      11.039   0.997   0.575  1.00  0.00     0.031 C 
ATOM     39  C   UNL     1      11.265   1.938  -1.704  1.00  0.00     0.031 A 
BRANCH  26  40
ATOM     40  C   UNL     1       8.636   2.146  -7.289  1.00  0.00    -0.014 A 
ATOM     41  C   UNL     1       7.707   3.053  -7.816  1.00  0.00     0.009 A 
ATOM     42  C   UNL     1       9.635   1.621  -8.126  1.00  0.00     0.009 A 
ATOM     43  C   UNL     1       7.768   3.409  -9.165  1.00  0.00     0.001 A 
ATOM     44  C   UNL     1       9.709   1.998  -9.464  1.00  0.00     0.001 A 
ATOM     45  C   UNL     1       8.771   2.888  -9.984  1.00  0.00     0.000 A 
ENDBRANCH  26  40
BRANCH  27  46
ATOM     46  C   UNL     1       8.107  -1.711   1.955  1.00  0.00    -0.014 A 
ATOM     47  C   UNL     1       7.876  -0.856   3.048  1.00  0.00     0.009 A 
ATOM     48  C   UNL     1       8.344  -3.070   2.227  1.00  0.00     0.009 A 
ATOM     49  C   UNL     1       7.908  -1.343   4.362  1.00  0.00     0.001 A 
ATOM     50  C   UNL     1       8.320  -3.565   3.533  1.00  0.00     0.001 A 
ATOM     51  C   UNL     1       8.119  -2.698   4.603  1.00  0.00     0.000 A 
ENDBRANCH  27  46
BRANCH  39  52
ATOM     52  C   UNL     1      12.564   2.548  -1.269  1.00  0.00    -0.014 A 
ATOM     53  C   UNL     1      13.710   1.756  -1.097  1.00  0.00     0.009 A 
ATOM     54  C   UNL     1      12.660   3.938  -1.111  1.00  0.00     0.009 A 
ATOM     55  C   UNL     1      14.926   2.346  -0.754  1.00  0.00     0.001 A 
ATOM     56  C   UNL     1      13.884   4.527  -0.798  1.00  0.00     0.001 A 
ATOM     57  C   UNL     1      15.014   3.731  -0.614  1.00  0.00     0.000 A 
ENDBRANCH  39  52
ENDBRANCH  13  14
ENDBRANCH   6   8
ENDBRANCH   5   6
ENDBRANCH   4   5
ENDBRANCH   3   4
ENDBRANCH   2   3
ENDBRANCH   1   2
BRANCH   1  58
ATOM     58  C   UNL     1      -0.979  -5.449  -1.839  1.00  0.00     0.188 C 
BRANCH  58  59
ATOM     59  O   UNL     1      -2.092  -4.575  -1.652  1.00  0.00    -0.376 OA
BRANCH  59  60
ATOM     60  C   UNL     1      -2.238  -4.096  -0.312  1.00  0.00     0.202 C 
BRANCH  60  61
ATOM     61  C   UNL     1      -1.220  -3.022   0.075  1.00  0.00     0.261 C 
BRANCH  61  62
ATOM     62  O   UNL     1       0.135  -3.480  -0.007  1.00  0.00    -0.462 OA
BRANCH  62  63
ATOM     63  C   UNL     1       0.679  -4.133   1.042  1.00  0.00     0.328 C 
ATOM     64  O   UNL     1       0.071  -4.462   2.053  1.00  0.00    -0.250 OA
BRANCH  63  65
ATOM     65  C   UNL     1       2.173  -4.400   0.812  1.00  0.00     0.196 C 
ATOM     66  C   UNL     1       2.473  -5.901   0.827  1.00  0.00     0.047 C 
ATOM     67  N   UNL     1       2.708  -3.956  -0.462  1.00  0.00    -0.321 N 
ATOM     68  C   UNL     1       2.628  -6.303  -0.629  1.00  0.00     0.103 C 
ATOM     69  C   UNL     1       2.984  -5.015  -1.312  1.00  0.00     0.223 C 
ATOM     70  O   UNL     1       3.471  -4.976  -2.422  1.00  0.00    -0.275 OA
BRANCH  67  71
ATOM     71  C   UNL     1       3.137  -2.585  -0.724  1.00  0.00     0.195 C 
BRANCH  71  72
ATOM     72  C   UNL     1       2.096  -1.532  -0.864  1.00  0.00     0.123 A 
ATOM     73  C   UNL     1       1.396  -0.739   0.025  1.00  0.00     0.047 A 
ATOM     74  O   UNL     1       1.863  -1.083  -2.134  1.00  0.00    -0.467 OA
ATOM     75  C   UNL     1       0.697   0.224  -0.748  1.00  0.00     0.042 A 
ATOM     76  C   UNL     1       1.032  -0.019  -2.057  1.00  0.00     0.195 A 
ENDBRANCH  71  72
ENDBRANCH  67  71
ENDBRANCH  63  65
ENDBRANCH  62  63
ENDBRANCH  61  62
ENDBRANCH  60  61
ENDBRANCH  59  60
ENDBRANCH  58  59
ENDBRANCH   1  58
TORSDOF 19
