REMARK SMILES O=C(OCCOCCOCCOC(=O)c1cccnc1NC[C@H](c1ccccc1)[NH+]1CCOCC1)c1ccc(-c2c3nc(c(-c4ccccc4)c4ccc([nH]4)c(-c4ccccc4)c4nc(c(-c5ccccc5)c5ccc2[nH]5)C=C4)C=C3)cc1
REMARK SMILES IDX 8 1 7 2 6 3 5 4 4 5 3 6 2 7 1 8 36 9 37 10 83 11 38 12 82 13
REMARK SMILES IDX 39 14 40 15 41 16 76 17 42 18 81 19 75 20 77 21 43 22 80 23
REMARK SMILES IDX 74 24 73 25 44 27 66 28 51 29 65 30 52 31 55 32 64 33 78 34
REMARK SMILES IDX 53 35 54 36 63 38 79 39 56 40 45 41 46 42 50 43 47 44 49 45
REMARK SMILES IDX 48 46 67 47 68 48 72 49 69 50 71 51 70 52 57 53 58 54 62 55
REMARK SMILES IDX 59 56 61 57 60 58 9 59 10 60 11 61 12 62 13 63 14 64 15 65
REMARK SMILES IDX 16 66 20 67 17 68 19 69 18 70 21 71 22 73 23 74 30 75 31 76
REMARK SMILES IDX 35 77 32 79 34 80 33 81 24 82 25 83 29 84 26 85 28 86 27 87
REMARK H PARENT 77 26 55 37 21 72 30 78
REMARK Flexibility Score: inf
ROOT
ATOM      1  C   UNL     1      -2.703   3.713  -3.087  1.00  0.00     0.188 C 
ENDROOT
BRANCH   1   2
ATOM      2  C   UNL     1      -1.282   3.836  -2.538  1.00  0.00     0.188 C 
BRANCH   2   3
ATOM      3  O   UNL     1      -1.169   4.722  -1.425  1.00  0.00    -0.376 OA
BRANCH   3   4
ATOM      4  C   UNL     1      -0.056   5.612  -1.545  1.00  0.00     0.202 C 
BRANCH   4   5
ATOM      5  C   UNL     1       1.306   4.955  -1.248  1.00  0.00     0.261 C 
BRANCH   5   6
ATOM      6  O   UNL     1       1.265   3.530  -1.410  1.00  0.00    -0.460 OA
BRANCH   6   7
ATOM      7  C   UNL     1       1.659   2.673  -0.426  1.00  0.00     0.338 C 
ATOM      8  O   UNL     1       2.457   1.784  -0.674  1.00  0.00    -0.246 OA
BRANCH   7   9
ATOM      9  C   UNL     1       0.962   2.707   0.899  1.00  0.00     0.060 A 
ATOM     10  C   UNL     1       0.066   3.695   1.303  1.00  0.00     0.016 A 
ATOM     11  C   UNL     1       1.230   1.659   1.798  1.00  0.00     0.016 A 
ATOM     12  C   UNL     1      -0.482   3.705   2.582  1.00  0.00     0.010 A 
ATOM     13  C   UNL     1       0.647   1.635   3.073  1.00  0.00     0.010 A 
ATOM     14  C   UNL     1      -0.183   2.686   3.482  1.00  0.00    -0.014 A 
BRANCH  14  15
ATOM     15  C   UNL     1      -0.646   2.818   4.879  1.00  0.00     0.031 A 
ATOM     16  C   UNL     1       0.336   3.231   5.931  1.00  0.00     0.074 A 
ATOM     17  C   UNL     1      -1.951   2.705   5.185  1.00  0.00     0.049 A 
ATOM     18  N   UNL     1       0.143   3.404   7.212  1.00  0.00    -0.248 NA
ATOM     19  C   UNL     1       1.704   3.535   5.478  1.00  0.00     0.031 C 
ATOM     20  C   UNL     1      -3.023   2.482   4.219  1.00  0.00     0.029 A 
ATOM     21  N   UNL     1      -2.599   2.772   6.392  1.00  0.00    -0.354 N 
ATOM     22  C   UNL     1       1.357   3.849   7.714  1.00  0.00     0.074 A 
ATOM     23  C   UNL     1       2.290   3.893   6.611  1.00  0.00     0.031 C 
ATOM     24  C   UNL     1      -4.190   2.392   4.876  1.00  0.00     0.029 A 
ATOM     25  C   UNL     1      -3.937   2.474   6.303  1.00  0.00     0.049 A 
ATOM     26  H   UNL     1      -2.152   3.010   7.236  1.00  0.00     0.167 HD
ATOM     27  C   UNL     1       1.657   4.200   8.985  1.00  0.00     0.031 A 
ATOM     28  C   UNL     1      -4.846   2.228   7.263  1.00  0.00     0.031 A 
ATOM     29  C   UNL     1       0.727   4.130  10.076  1.00  0.00     0.049 A 
ATOM     30  C   UNL     1      -4.429   2.396   8.691  1.00  0.00     0.074 A 
ATOM     31  C   UNL     1       0.929   4.456  11.405  1.00  0.00     0.029 A 
ATOM     32  N   UNL     1      -0.581   3.683   9.965  1.00  0.00    -0.354 N 
ATOM     33  N   UNL     1      -3.280   2.814   9.161  1.00  0.00    -0.248 NA
ATOM     34  C   UNL     1      -5.429   2.080   9.718  1.00  0.00     0.031 C 
ATOM     35  C   UNL     1      -0.237   4.139  12.110  1.00  0.00     0.029 A 
ATOM     36  C   UNL     1      -1.181   3.667  11.211  1.00  0.00     0.049 A 
ATOM     37  H   UNL     1      -1.017   3.416   9.124  1.00  0.00     0.167 HD
ATOM     38  C   UNL     1      -3.424   2.842  10.537  1.00  0.00     0.074 A 
ATOM     39  C   UNL     1      -4.775   2.401  10.826  1.00  0.00     0.031 C 
ATOM     40  C   UNL     1      -2.521   3.214  11.476  1.00  0.00     0.031 A 
BRANCH  27  41
ATOM     41  C   UNL     1       3.068   4.625   9.260  1.00  0.00    -0.014 A 
ATOM     42  C   UNL     1       3.542   5.888   8.875  1.00  0.00     0.009 A 
ATOM     43  C   UNL     1       3.934   3.742   9.922  1.00  0.00     0.009 A 
ATOM     44  C   UNL     1       4.867   6.250   9.129  1.00  0.00     0.001 A 
ATOM     45  C   UNL     1       5.252   4.113  10.191  1.00  0.00     0.001 A 
ATOM     46  C   UNL     1       5.719   5.364   9.789  1.00  0.00     0.000 A 
ENDBRANCH  27  41
BRANCH  28  47
ATOM     47  C   UNL     1      -6.185   1.688   6.908  1.00  0.00    -0.014 A 
ATOM     48  C   UNL     1      -7.353   2.441   7.079  1.00  0.00     0.009 A 
ATOM     49  C   UNL     1      -6.292   0.371   6.424  1.00  0.00     0.009 A 
ATOM     50  C   UNL     1      -8.602   1.879   6.796  1.00  0.00     0.001 A 
ATOM     51  C   UNL     1      -7.538  -0.180   6.122  1.00  0.00     0.001 A 
ATOM     52  C   UNL     1      -8.694   0.572   6.316  1.00  0.00     0.000 A 
ENDBRANCH  28  47
BRANCH  40  53
ATOM     53  C   UNL     1      -2.979   3.179  12.901  1.00  0.00    -0.014 A 
ATOM     54  C   UNL     1      -3.120   1.963  13.585  1.00  0.00     0.009 A 
ATOM     55  C   UNL     1      -3.235   4.382  13.576  1.00  0.00     0.009 A 
ATOM     56  C   UNL     1      -3.531   1.952  14.918  1.00  0.00     0.001 A 
ATOM     57  C   UNL     1      -3.619   4.369  14.916  1.00  0.00     0.001 A 
ATOM     58  C   UNL     1      -3.773   3.155  15.583  1.00  0.00     0.000 A 
ENDBRANCH  40  53
ENDBRANCH  14  15
ENDBRANCH   7   9
ENDBRANCH   6   7
ENDBRANCH   5   6
ENDBRANCH   4   5
ENDBRANCH   3   4
ENDBRANCH   2   3
ENDBRANCH   1   2
BRANCH   1  59
ATOM     59  O   UNL     1      -3.471   4.901  -3.142  1.00  0.00    -0.376 OA
BRANCH  59  60
ATOM     60  C   UNL     1      -3.934   5.400  -1.886  1.00  0.00     0.202 C 
BRANCH  60  61
ATOM     61  C   UNL     1      -4.742   4.453  -0.975  1.00  0.00     0.261 C 
BRANCH  61  62
ATOM     62  O   UNL     1      -4.000   3.445  -0.232  1.00  0.00    -0.460 OA
BRANCH  62  63
ATOM     63  C   UNL     1      -4.375   2.156  -0.475  1.00  0.00     0.341 C 
ATOM     64  O   UNL     1      -4.987   1.758  -1.456  1.00  0.00    -0.246 OA
BRANCH  63  65
ATOM     65  C   UNL     1      -4.267   1.313   0.725  1.00  0.00     0.102 A 
ATOM     66  C   UNL     1      -5.429   1.317   1.517  1.00  0.00     0.021 A 
ATOM     67  C   UNL     1      -3.261   0.365   0.974  1.00  0.00     0.140 A 
ATOM     68  C   UNL     1      -5.574   0.390   2.536  1.00  0.00     0.021 A 
ATOM     69  N   UNL     1      -3.405  -0.506   2.003  1.00  0.00    -0.239 NA
ATOM     70  C   UNL     1      -4.533  -0.487   2.748  1.00  0.00     0.113 A 
BRANCH  67  71
ATOM     71  N   UNL     1      -2.130   0.211   0.177  1.00  0.00    -0.363 N 
ATOM     72  H   UNL     1      -1.881   0.915  -0.466  1.00  0.00     0.162 HD
BRANCH  71  73
ATOM     73  C   UNL     1      -1.301  -1.009   0.296  1.00  0.00     0.184 C 
BRANCH  73  74
ATOM     74  C   UNL     1      -1.235  -2.034  -0.945  1.00  0.00     0.234 C 
BRANCH  74  75
ATOM     75  N   UNL     1      -2.160  -2.017  -2.131  1.00  0.00    -0.323 N 
ATOM     76  C   UNL     1      -1.631  -2.462  -3.446  1.00  0.00     0.291 C 
ATOM     77  C   UNL     1      -2.859  -0.765  -2.402  1.00  0.00     0.291 C 
ATOM     78  H   UNL     1      -2.796  -2.726  -1.765  1.00  0.00     0.348 HD
ATOM     79  C   UNL     1      -0.810  -1.406  -4.228  1.00  0.00     0.221 C 
ATOM     80  C   UNL     1      -1.887   0.266  -2.961  1.00  0.00     0.221 C 
ATOM     81  O   UNL     1      -1.438  -0.118  -4.264  1.00  0.00    -0.370 OA
ENDBRANCH  74  75
BRANCH  74  82
ATOM     82  C   UNL     1       0.226  -2.406  -1.282  1.00  0.00     0.011 A 
ATOM     83  C   UNL     1       1.220  -1.437  -1.484  1.00  0.00     0.010 A 
ATOM     84  C   UNL     1       0.562  -3.756  -1.519  1.00  0.00     0.010 A 
ATOM     85  C   UNL     1       2.476  -1.795  -1.985  1.00  0.00     0.001 A 
ATOM     86  C   UNL     1       1.808  -4.109  -2.040  1.00  0.00     0.001 A 
ATOM     87  C   UNL     1       2.760  -3.125  -2.287  1.00  0.00     0.000 A 
ENDBRANCH  74  82
ENDBRANCH  73  74
ENDBRANCH  71  73
ENDBRANCH  67  71
ENDBRANCH  63  65
ENDBRANCH  62  63
ENDBRANCH  61  62
ENDBRANCH  60  61
ENDBRANCH  59  60
ENDBRANCH   1  59
TORSDOF 22
