REMARK SMILES C=CCOc1ccccc1/C=C/c1cc(C(=O)OCCOCCOCCOC(=O)c2ccc(-c3c4nc(c(-c5ccccc5)c5ccc([nH]5)c(-c5ccccc5)c5nc(c(-c6ccccc6)c6ccc3[nH]6)C=C5)C=C4)cc2)ncn1
REMARK SMILES IDX 21 1 20 2 19 3 18 4 16 5 17 6 15 7 13 8 14 9 80 10 79 11
REMARK SMILES IDX 78 12 12 13 11 14 10 15 5 16 6 17 7 18 9 19 8 20 4 21 3 22
REMARK SMILES IDX 2 23 1 24 22 25 23 26 24 27 25 28 26 29 27 30 28 31 29 32
REMARK SMILES IDX 30 33 31 34 77 35 32 36 76 37 33 38 34 39 35 40 70 41 36 42
REMARK SMILES IDX 75 43 69 44 71 45 37 46 74 47 68 48 67 49 38 51 60 52 45 53
REMARK SMILES IDX 59 54 46 55 49 56 58 57 72 58 47 59 48 60 57 62 73 63 50 64
REMARK SMILES IDX 39 65 40 66 44 67 41 68 43 69 42 70 61 71 62 72 66 73 63 74
REMARK SMILES IDX 65 75 64 76 51 77 52 78 56 79 53 80 55 81 54 82
REMARK H PARENT 71 50 49 61
REMARK Flexibility Score: inf
ROOT
ATOM      1  O   UNL     1       5.704   3.152  -4.878  1.00  0.00    -0.376 OA
ENDROOT
BRANCH   1   2
ATOM      2  C   UNL     1       4.390   3.644  -5.119  1.00  0.00     0.202 C 
BRANCH   2   3
ATOM      3  C   UNL     1       3.157   2.815  -4.722  1.00  0.00     0.261 C 
BRANCH   3   4
ATOM      4  O   UNL     1       3.175   2.344  -3.366  1.00  0.00    -0.459 OA
BRANCH   4   5
ATOM      5  C   UNL     1       3.216   0.994  -3.205  1.00  0.00     0.357 C 
ATOM      6  O   UNL     1       3.086   0.157  -4.083  1.00  0.00    -0.244 OA
BRANCH   5   7
ATOM      7  C   UNL     1       3.592   0.676  -1.797  1.00  0.00     0.152 A 
ATOM      8  C   UNL     1       3.328   0.913   0.511  1.00  0.00     0.067 A 
ATOM      9  C   UNL     1       3.026   1.373  -0.754  1.00  0.00     0.064 A 
ATOM     10  N   UNL     1       4.227  -0.070   0.721  1.00  0.00    -0.237 NA
ATOM     11  C   UNL     1       4.770  -0.634  -0.367  1.00  0.00     0.223 A 
ATOM     12  N   UNL     1       4.482  -0.327  -1.633  1.00  0.00    -0.229 NA
BRANCH   8  13
ATOM     13  C   UNL     1       2.501   1.241   1.687  1.00  0.00     0.029 C 
ATOM     14  C   UNL     1       1.474   2.104   1.645  1.00  0.00     0.014 C 
BRANCH  14  15
ATOM     15  C   UNL     1       0.334   2.092   2.570  1.00  0.00     0.017 A 
ATOM     16  C   UNL     1      -0.965   2.201   2.031  1.00  0.00     0.126 A 
ATOM     17  C   UNL     1      -2.085   2.256   2.860  1.00  0.00     0.047 A 
ATOM     18  C   UNL     1      -1.923   2.155   4.240  1.00  0.00     0.004 A 
ATOM     19  C   UNL     1       0.481   1.980   3.955  1.00  0.00     0.012 A 
ATOM     20  C   UNL     1      -0.645   2.007   4.785  1.00  0.00     0.001 A 
BRANCH  16  21
ATOM     21  O   UNL     1      -1.143   2.326   0.671  1.00  0.00    -0.489 OA
BRANCH  21  22
ATOM     22  C   UNL     1      -1.515   1.079   0.063  1.00  0.00     0.257 C 
BRANCH  22  23
ATOM     23  C   UNL     1      -0.380   0.572  -0.780  1.00  0.00     0.006 C 
ATOM     24  C   UNL     1       0.209  -0.622  -0.620  1.00  0.00     0.007 C 
ENDBRANCH  22  23
ENDBRANCH  21  22
ENDBRANCH  16  21
ENDBRANCH  14  15
ENDBRANCH   8  13
ENDBRANCH   5   7
ENDBRANCH   4   5
ENDBRANCH   3   4
ENDBRANCH   2   3
ENDBRANCH   1   2
BRANCH   1  25
ATOM     25  C   UNL     1       6.038   2.601  -3.611  1.00  0.00     0.188 C 
BRANCH  25  26
ATOM     26  C   UNL     1       5.728   3.395  -2.324  1.00  0.00     0.188 C 
BRANCH  26  27
ATOM     27  O   UNL     1       4.965   4.559  -2.515  1.00  0.00    -0.376 OA
BRANCH  27  28
ATOM     28  C   UNL     1       5.623   5.810  -2.625  1.00  0.00     0.202 C 
BRANCH  28  29
ATOM     29  C   UNL     1       7.095   6.009  -3.055  1.00  0.00     0.261 C 
BRANCH  29  30
ATOM     30  O   UNL     1       7.954   4.866  -3.125  1.00  0.00    -0.460 OA
BRANCH  30  31
ATOM     31  C   UNL     1       8.723   4.614  -2.043  1.00  0.00     0.338 C 
ATOM     32  O   UNL     1       8.741   5.233  -0.985  1.00  0.00    -0.246 OA
BRANCH  31  33
ATOM     33  C   UNL     1       9.427   3.337  -2.257  1.00  0.00     0.060 A 
ATOM     34  C   UNL     1       9.078   2.226  -1.475  1.00  0.00     0.016 A 
ATOM     35  C   UNL     1      10.438   3.239  -3.215  1.00  0.00     0.016 A 
ATOM     36  C   UNL     1       9.755   1.017  -1.636  1.00  0.00     0.010 A 
ATOM     37  C   UNL     1      11.130   2.033  -3.358  1.00  0.00     0.010 A 
ATOM     38  C   UNL     1      10.811   0.925  -2.551  1.00  0.00    -0.014 A 
BRANCH  38  39
ATOM     39  C   UNL     1      11.694  -0.266  -2.550  1.00  0.00     0.031 A 
ATOM     40  C   UNL     1      13.007  -0.188  -1.821  1.00  0.00     0.074 A 
ATOM     41  C   UNL     1      11.346  -1.396  -3.188  1.00  0.00     0.049 A 
ATOM     42  N   UNL     1      13.967  -1.073  -1.740  1.00  0.00    -0.248 NA
ATOM     43  C   UNL     1      13.273   1.062  -1.091  1.00  0.00     0.031 C 
ATOM     44  C   UNL     1      10.088  -1.616  -3.898  1.00  0.00     0.029 A 
ATOM     45  N   UNL     1      12.039  -2.570  -3.353  1.00  0.00    -0.354 N 
ATOM     46  C   UNL     1      14.958  -0.480  -0.967  1.00  0.00     0.074 A 
ATOM     47  C   UNL     1      14.493   0.846  -0.625  1.00  0.00     0.031 C 
ATOM     48  C   UNL     1      10.105  -2.847  -4.439  1.00  0.00     0.029 A 
ATOM     49  C   UNL     1      11.388  -3.484  -4.145  1.00  0.00     0.049 A 
ATOM     50  H   UNL     1      12.917  -2.741  -2.942  1.00  0.00     0.167 HD
ATOM     51  C   UNL     1      16.150  -0.993  -0.579  1.00  0.00     0.031 A 
ATOM     52  C   UNL     1      11.794  -4.684  -4.605  1.00  0.00     0.031 A 
ATOM     53  C   UNL     1      16.621  -2.305  -0.935  1.00  0.00     0.049 A 
ATOM     54  C   UNL     1      13.153  -5.207  -4.220  1.00  0.00     0.074 A 
ATOM     55  C   UNL     1      17.800  -2.927  -0.565  1.00  0.00     0.029 A 
ATOM     56  N   UNL     1      15.943  -3.190  -1.759  1.00  0.00    -0.354 N 
ATOM     57  N   UNL     1      14.066  -4.657  -3.457  1.00  0.00    -0.248 NA
ATOM     58  C   UNL     1      13.533  -6.523  -4.755  1.00  0.00     0.031 C 
ATOM     59  C   UNL     1      17.868  -4.160  -1.221  1.00  0.00     0.029 A 
ATOM     60  C   UNL     1      16.697  -4.338  -1.940  1.00  0.00     0.049 A 
ATOM     61  H   UNL     1      15.057  -3.027  -2.156  1.00  0.00     0.167 HD
ATOM     62  C   UNL     1      15.114  -5.569  -3.397  1.00  0.00     0.074 A 
ATOM     63  C   UNL     1      14.717  -6.713  -4.190  1.00  0.00     0.031 C 
ATOM     64  C   UNL     1      16.296  -5.469  -2.739  1.00  0.00     0.031 A 
BRANCH  51  65
ATOM     65  C   UNL     1      17.050  -0.102   0.233  1.00  0.00    -0.014 A 
ATOM     66  C   UNL     1      16.736   0.259   1.553  1.00  0.00     0.009 A 
ATOM     67  C   UNL     1      18.242   0.376  -0.335  1.00  0.00     0.009 A 
ATOM     68  C   UNL     1      17.574   1.115   2.271  1.00  0.00     0.001 A 
ATOM     69  C   UNL     1      19.095   1.205   0.396  1.00  0.00     0.001 A 
ATOM     70  C   UNL     1      18.754   1.584   1.693  1.00  0.00     0.000 A 
ENDBRANCH  51  65
BRANCH  52  71
ATOM     71  C   UNL     1      10.908  -5.466  -5.507  1.00  0.00    -0.014 A 
ATOM     72  C   UNL     1      10.308  -6.657  -5.071  1.00  0.00     0.009 A 
ATOM     73  C   UNL     1      10.659  -5.022  -6.816  1.00  0.00     0.009 A 
ATOM     74  C   UNL     1       9.491  -7.394  -5.932  1.00  0.00     0.001 A 
ATOM     75  C   UNL     1       9.818  -5.745  -7.664  1.00  0.00     0.001 A 
ATOM     76  C   UNL     1       9.241  -6.934  -7.225  1.00  0.00     0.000 A 
ENDBRANCH  52  71
BRANCH  64  77
ATOM     77  C   UNL     1      17.235  -6.643  -2.814  1.00  0.00    -0.014 A 
ATOM     78  C   UNL     1      17.921  -6.960  -3.996  1.00  0.00     0.009 A 
ATOM     79  C   UNL     1      17.473  -7.414  -1.664  1.00  0.00     0.009 A 
ATOM     80  C   UNL     1      18.800  -8.046  -4.033  1.00  0.00     0.001 A 
ATOM     81  C   UNL     1      18.376  -8.477  -1.695  1.00  0.00     0.001 A 
ATOM     82  C   UNL     1      19.031  -8.799  -2.882  1.00  0.00     0.000 A 
ENDBRANCH  64  77
ENDBRANCH  38  39
ENDBRANCH  31  33
ENDBRANCH  30  31
ENDBRANCH  29  30
ENDBRANCH  28  29
ENDBRANCH  27  28
ENDBRANCH  26  27
ENDBRANCH  25  26
ENDBRANCH   1  25
TORSDOF 22
