REMARK SMILES O=C(CCN1C(=O)/C(=C/c2cc(Br)cc(Br)c2O)SC1=S)OCCOCCOCCOC(=O)c1ccc(-c2c3nc(c(-c4ccccc4)c4ccc([nH]4)c(-c4ccccc4)c4nc(c(-c5ccccc5)c5ccc2[nH]5)C=C4)C=C3)cc1
REMARK SMILES IDX 26 1 25 2 24 3 23 4 22 5 2 6 1 7 3 8 4 9 5 10 6 11 20 12
REMARK SMILES IDX 7 13 8 14 19 15 21 16 9 17 10 18 11 19 17 20 12 21 15 22
REMARK SMILES IDX 13 23 14 24 16 25 18 26 27 28 28 29 29 30 30 31 31 32 32 33
REMARK SMILES IDX 33 34 34 35 35 36 81 37 36 38 80 39 37 40 38 41 39 42 74 43
REMARK SMILES IDX 40 44 79 45 73 46 75 47 41 48 78 49 72 50 71 51 42 53 64 54
REMARK SMILES IDX 49 55 63 56 50 57 53 58 62 59 76 60 51 61 52 62 61 64 77 65
REMARK SMILES IDX 54 66 43 67 44 68 48 69 45 70 47 71 46 72 65 73 66 74 70 75
REMARK SMILES IDX 67 76 69 77 68 78 55 79 56 80 60 81 57 82 59 83 58 84
REMARK H PARENT 18 27 75 52 53 63
REMARK Flexibility Score: inf
ROOT
ATOM      1  C   UNL     1       2.202   1.404  -1.420  1.00  0.00     0.188 C 
ENDROOT
BRANCH   1   2
ATOM      2  O   UNL     1       3.515   1.571  -0.910  1.00  0.00    -0.376 OA
BRANCH   2   3
ATOM      3  C   UNL     1       4.414   0.475  -1.008  1.00  0.00     0.202 C 
BRANCH   3   4
ATOM      4  C   UNL     1       3.855  -0.928  -0.778  1.00  0.00     0.261 C 
BRANCH   4   5
ATOM      5  O   UNL     1       2.825  -1.146   0.217  1.00  0.00    -0.463 OA
BRANCH   5   6
ATOM      6  C   UNL     1       2.552  -0.595   1.410  1.00  0.00     0.307 C 
ATOM      7  O   UNL     1       1.501  -0.885   1.980  1.00  0.00    -0.252 OA
BRANCH   6   8
ATOM      8  C   UNL     1       3.532   0.316   2.078  1.00  0.00     0.144 C 
BRANCH   8   9
ATOM      9  C   UNL     1       4.478  -0.427   3.014  1.00  0.00     0.139 C 
BRANCH   9  10
ATOM     10  N   UNL     1       5.443  -1.273   2.305  1.00  0.00    -0.292 N 
ATOM     11  C   UNL     1       6.494  -0.667   1.638  1.00  0.00     0.266 C 
ATOM     12  C   UNL     1       5.388  -2.652   2.235  1.00  0.00     0.148 C 
ATOM     13  O   UNL     1       6.785   0.520   1.666  1.00  0.00    -0.268 OA
ATOM     14  C   UNL     1       7.186  -1.659   0.779  1.00  0.00     0.081 C 
ATOM     15  S   UNL     1       6.700  -3.245   1.220  1.00  0.00    -0.054 SA
ATOM     16  S   UNL     1       4.285  -3.684   2.935  1.00  0.00    -0.052 S 
ATOM     17  C   UNL     1       7.943  -1.284  -0.263  1.00  0.00     0.033 C 
BRANCH  17  18
ATOM     18  C   UNL     1       8.534  -2.210  -1.241  1.00  0.00     0.020 A 
ATOM     19  C   UNL     1       7.688  -2.870  -2.148  1.00  0.00     0.027 A 
ATOM     20  C   UNL     1       9.912  -2.470  -1.281  1.00  0.00     0.137 A 
ATOM     21  C   UNL     1       8.209  -3.803  -3.045  1.00  0.00     0.019 A 
ATOM     22  C   UNL     1      10.422  -3.412  -2.185  1.00  0.00     0.061 A 
ATOM     23  Br  UNL     1       7.048  -4.703  -4.235  1.00  0.00    -0.051 Br
ATOM     24  C   UNL     1       9.571  -4.085  -3.064  1.00  0.00     0.035 A 
ATOM     25  Br  UNL     1      12.275  -3.821  -2.249  1.00  0.00    -0.047 Br
BRANCH  20  26
ATOM     26  O   UNL     1      10.787  -1.825  -0.446  1.00  0.00    -0.506 OA
ATOM     27  H   UNL     1      10.469  -1.192   0.167  1.00  0.00     0.293 HD
ENDBRANCH  20  26
ENDBRANCH  17  18
ENDBRANCH   9  10
ENDBRANCH   8   9
ENDBRANCH   6   8
ENDBRANCH   5   6
ENDBRANCH   4   5
ENDBRANCH   3   4
ENDBRANCH   2   3
ENDBRANCH   1   2
BRANCH   1  28
ATOM     28  C   UNL     1       2.042   1.097  -2.913  1.00  0.00     0.188 C 
BRANCH  28  29
ATOM     29  O   UNL     1       3.232   0.640  -3.547  1.00  0.00    -0.376 OA
BRANCH  29  30
ATOM     30  C   UNL     1       3.697   1.506  -4.586  1.00  0.00     0.202 C 
BRANCH  30  31
ATOM     31  C   UNL     1       4.579   2.661  -4.087  1.00  0.00     0.261 C 
BRANCH  31  32
ATOM     32  O   UNL     1       3.969   3.543  -3.128  1.00  0.00    -0.460 OA
BRANCH  32  33
ATOM     33  C   UNL     1       2.940   4.299  -3.566  1.00  0.00     0.338 C 
ATOM     34  O   UNL     1       2.439   4.285  -4.675  1.00  0.00    -0.246 OA
BRANCH  33  35
ATOM     35  C   UNL     1       2.409   5.082  -2.432  1.00  0.00     0.060 A 
ATOM     36  C   UNL     1       1.066   4.919  -2.075  1.00  0.00     0.016 A 
ATOM     37  C   UNL     1       3.209   6.014  -1.765  1.00  0.00     0.016 A 
ATOM     38  C   UNL     1       0.516   5.698  -1.056  1.00  0.00     0.010 A 
ATOM     39  C   UNL     1       2.650   6.812  -0.759  1.00  0.00     0.010 A 
ATOM     40  C   UNL     1       1.293   6.676  -0.418  1.00  0.00    -0.014 A 
BRANCH  40  41
ATOM     41  C   UNL     1       0.628   7.654   0.479  1.00  0.00     0.031 A 
ATOM     42  C   UNL     1       0.132   8.950  -0.103  1.00  0.00     0.074 A 
ATOM     43  C   UNL     1       0.412   7.380   1.778  1.00  0.00     0.049 A 
ATOM     44  N   UNL     1      -0.550   9.910   0.469  1.00  0.00    -0.248 NA
ATOM     45  C   UNL     1       0.440   9.191  -1.522  1.00  0.00     0.031 C 
ATOM     46  C   UNL     1       0.819   6.158   2.468  1.00  0.00     0.029 A 
ATOM     47  N   UNL     1      -0.217   8.123   2.748  1.00  0.00    -0.354 N 
ATOM     48  C   UNL     1      -0.774  10.855  -0.524  1.00  0.00     0.074 A 
ATOM     49  C   UNL     1      -0.117  10.377  -1.721  1.00  0.00     0.031 C 
ATOM     50  C   UNL     1       0.432   6.236   3.754  1.00  0.00     0.029 A 
ATOM     51  C   UNL     1      -0.239   7.516   3.979  1.00  0.00     0.049 A 
ATOM     52  H   UNL     1      -0.614   9.007   2.576  1.00  0.00     0.167 HD
ATOM     53  C   UNL     1      -1.475  12.012  -0.455  1.00  0.00     0.031 A 
ATOM     54  C   UNL     1      -0.742   7.944   5.154  1.00  0.00     0.031 A 
ATOM     55  C   UNL     1      -2.098  12.519   0.738  1.00  0.00     0.049 A 
ATOM     56  C   UNL     1      -1.452   9.272   5.223  1.00  0.00     0.074 A 
ATOM     57  C   UNL     1      -2.822  13.688   0.903  1.00  0.00     0.029 A 
ATOM     58  N   UNL     1      -2.060  11.895   1.974  1.00  0.00    -0.354 N 
ATOM     59  N   UNL     1      -1.694  10.134   4.265  1.00  0.00    -0.248 NA
ATOM     60  C   UNL     1      -1.973   9.675   6.538  1.00  0.00     0.031 C 
ATOM     61  C   UNL     1      -3.181  13.794   2.252  1.00  0.00     0.029 A 
ATOM     62  C   UNL     1      -2.728  12.663   2.912  1.00  0.00     0.049 A 
ATOM     63  H   UNL     1      -1.623  11.032   2.158  1.00  0.00     0.167 HD
ATOM     64  C   UNL     1      -2.415  11.166   4.856  1.00  0.00     0.074 A 
ATOM     65  C   UNL     1      -2.591  10.811   6.249  1.00  0.00     0.031 C 
ATOM     66  C   UNL     1      -2.889  12.306   4.297  1.00  0.00     0.031 A 
BRANCH  53  67
ATOM     67  C   UNL     1      -1.591  12.819  -1.716  1.00  0.00    -0.014 A 
ATOM     68  C   UNL     1      -2.420  12.397  -2.768  1.00  0.00     0.009 A 
ATOM     69  C   UNL     1      -0.893  14.029  -1.842  1.00  0.00     0.009 A 
ATOM     70  C   UNL     1      -2.527  13.160  -3.932  1.00  0.00     0.001 A 
ATOM     71  C   UNL     1      -1.021  14.801  -2.998  1.00  0.00     0.001 A 
ATOM     72  C   UNL     1      -1.831  14.363  -4.044  1.00  0.00     0.000 A 
ENDBRANCH  53  67
BRANCH  54  73
ATOM     73  C   UNL     1      -0.585   7.120   6.382  1.00  0.00    -0.014 A 
ATOM     74  C   UNL     1      -1.694   6.513   6.990  1.00  0.00     0.009 A 
ATOM     75  C   UNL     1       0.677   6.983   6.981  1.00  0.00     0.009 A 
ATOM     76  C   UNL     1      -1.547   5.814   8.191  1.00  0.00     0.001 A 
ATOM     77  C   UNL     1       0.825   6.260   8.166  1.00  0.00     0.001 A 
ATOM     78  C   UNL     1      -0.288   5.686   8.777  1.00  0.00     0.000 A 
ENDBRANCH  54  73
BRANCH  66  79
ATOM     79  C   UNL     1      -3.661  13.240   5.188  1.00  0.00    -0.014 A 
ATOM     80  C   UNL     1      -3.022  13.989   6.189  1.00  0.00     0.009 A 
ATOM     81  C   UNL     1      -5.046  13.387   5.010  1.00  0.00     0.009 A 
ATOM     82  C   UNL     1      -3.762  14.832   7.021  1.00  0.00     0.001 A 
ATOM     83  C   UNL     1      -5.778  14.253   5.824  1.00  0.00     0.001 A 
ATOM     84  C   UNL     1      -5.137  14.965   6.837  1.00  0.00     0.000 A 
ENDBRANCH  66  79
ENDBRANCH  40  41
ENDBRANCH  33  35
ENDBRANCH  32  33
ENDBRANCH  31  32
ENDBRANCH  30  31
ENDBRANCH  29  30
ENDBRANCH  28  29
ENDBRANCH   1  28
TORSDOF 21
