REMARK SMILES CCOc1cc2c(cc1OCC)[C@@H](C(=O)OCCOCCOCCOC(=O)c1ccc(-c3c4nc(c(-c5ccccc5)c5ccc([nH]5)c(-c5ccccc5)c5nc(c(-c6ccccc6)c6ccc3[nH]6)C=C5)C=C4)cc1)[C@H](c1ccc(F)cc1Cl)N(C)C2=O
REMARK SMILES IDX 20 1 19 2 18 3 17 4 16 5 14 6 15 7 13 8 4 9 5 10 9 11 6 12
REMARK SMILES IDX 8 13 7 14 87 15 85 16 88 17 76 18 86 19 3 20 2 21 1 22 10 23
REMARK SMILES IDX 11 24 12 25 77 26 78 27 83 28 79 29 82 30 84 31 80 32 81 33
REMARK SMILES IDX 21 34 22 35 23 36 24 37 25 38 26 39 27 40 28 41 29 42 75 43
REMARK SMILES IDX 30 44 74 45 31 46 32 47 33 48 68 49 34 50 73 51 67 52 69 53
REMARK SMILES IDX 35 54 72 55 66 56 65 57 36 59 58 60 43 61 57 62 44 63 47 64
REMARK SMILES IDX 56 65 70 66 45 67 46 68 55 70 71 71 48 72 37 73 38 74 42 75
REMARK SMILES IDX 39 76 41 77 40 78 59 79 60 80 64 81 61 82 63 83 62 84 49 85
REMARK SMILES IDX 50 86 54 87 51 88 53 89 52 90
REMARK H PARENT 69 58 47 69
REMARK Flexibility Score: inf
ROOT
ATOM      1  C   UNL     1       9.627   3.262   2.362  1.00  0.00     0.188 C 
ENDROOT
BRANCH   1   2
ATOM      2  O   UNL     1       9.577   2.536   3.578  1.00  0.00    -0.376 OA
BRANCH   2   3
ATOM      3  C   UNL     1       8.992   1.235   3.547  1.00  0.00     0.202 C 
BRANCH   3   4
ATOM      4  C   UNL     1       7.550   1.106   3.025  1.00  0.00     0.261 C 
BRANCH   4   5
ATOM      5  O   UNL     1       7.323   1.563   1.669  1.00  0.00    -0.463 OA
BRANCH   5   6
ATOM      6  C   UNL     1       6.660   2.738   1.559  1.00  0.00     0.316 C 
ATOM      7  O   UNL     1       6.368   3.445   2.524  1.00  0.00    -0.251 OA
BRANCH   6   8
ATOM      8  C   UNL     1       6.196   3.135   0.154  1.00  0.00     0.157 C 
ATOM      9  C   UNL     1       2.025   2.238   0.330  1.00  0.00     0.161 A 
ATOM     10  C   UNL     1       2.937   1.317  -0.211  1.00  0.00     0.064 A 
ATOM     11  C   UNL     1       2.467   3.498   0.766  1.00  0.00     0.161 A 
ATOM     12  C   UNL     1       4.288   1.603  -0.247  1.00  0.00     0.048 A 
ATOM     13  C   UNL     1       3.821   3.804   0.653  1.00  0.00     0.056 A 
ATOM     14  C   UNL     1       4.721   2.865   0.154  1.00  0.00    -0.015 A 
ATOM     15  C   UNL     1       5.277   0.571  -0.691  1.00  0.00     0.254 C 
ATOM     16  N   UNL     1       6.511   1.057  -1.119  1.00  0.00    -0.333 N 
ATOM     17  O   UNL     1       4.981  -0.618  -0.661  1.00  0.00    -0.269 OA
ATOM     18  C   UNL     1       6.771   2.493  -1.147  1.00  0.00     0.135 C 
ATOM     19  C   UNL     1       7.527   0.135  -1.596  1.00  0.00     0.147 C 
BRANCH   9  20
ATOM     20  O   UNL     1       0.697   1.904   0.338  1.00  0.00    -0.490 OA
BRANCH  20  21
ATOM     21  C   UNL     1       0.406   0.718   1.094  1.00  0.00     0.226 C 
ATOM     22  C   UNL     1       0.405  -0.534   0.228  1.00  0.00     0.049 C 
ENDBRANCH  20  21
ENDBRANCH   9  20
BRANCH  11  23
ATOM     23  O   UNL     1       1.785   4.535   1.331  1.00  0.00    -0.490 OA
BRANCH  23  24
ATOM     24  C   UNL     1       0.390   4.444   1.559  1.00  0.00     0.226 C 
ATOM     25  C   UNL     1      -0.368   4.830   0.305  1.00  0.00     0.049 C 
ENDBRANCH  23  24
ENDBRANCH  11  23
BRANCH  18  26
ATOM     26  C   UNL     1       6.221   3.225  -2.428  1.00  0.00    -0.005 A 
ATOM     27  C   UNL     1       6.468   4.623  -2.502  1.00  0.00     0.010 A 
ATOM     28  C   UNL     1       5.444   2.679  -3.485  1.00  0.00     0.049 A 
ATOM     29  C   UNL     1       5.907   5.430  -3.502  1.00  0.00     0.040 A 
ATOM     30  C   UNL     1       4.884   3.498  -4.481  1.00  0.00     0.060 A 
ATOM     31  Cl  UNL     1       5.083   1.010  -3.741  1.00  0.00    -0.084 Cl
ATOM     32  C   UNL     1       5.106   4.860  -4.473  1.00  0.00     0.124 A 
ATOM     33  F   UNL     1       4.552   5.628  -5.420  1.00  0.00    -0.207 F 
ENDBRANCH  18  26
ENDBRANCH   6   8
ENDBRANCH   5   6
ENDBRANCH   4   5
ENDBRANCH   3   4
ENDBRANCH   2   3
ENDBRANCH   1   2
BRANCH   1  34
ATOM     34  C   UNL     1      10.245   2.564   1.150  1.00  0.00     0.188 C 
BRANCH  34  35
ATOM     35  O   UNL     1      10.013   1.173   1.039  1.00  0.00    -0.376 OA
BRANCH  35  36
ATOM     36  C   UNL     1      10.842   0.421   0.153  1.00  0.00     0.202 C 
BRANCH  36  37
ATOM     37  C   UNL     1      12.364   0.661   0.219  1.00  0.00     0.261 C 
BRANCH  37  38
ATOM     38  O   UNL     1      12.826   2.006  -0.058  1.00  0.00    -0.460 OA
BRANCH  38  39
ATOM     39  C   UNL     1      12.297   2.671  -1.116  1.00  0.00     0.338 C 
ATOM     40  O   UNL     1      11.684   2.182  -2.042  1.00  0.00    -0.246 OA
BRANCH  39  41
ATOM     41  C   UNL     1      12.314   4.138  -0.815  1.00  0.00     0.060 A 
ATOM     42  C   UNL     1      11.226   4.909  -1.255  1.00  0.00     0.016 A 
ATOM     43  C   UNL     1      13.305   4.739  -0.031  1.00  0.00     0.016 A 
ATOM     44  C   UNL     1      11.148   6.274  -0.956  1.00  0.00     0.010 A 
ATOM     45  C   UNL     1      13.235   6.111   0.256  1.00  0.00     0.010 A 
ATOM     46  C   UNL     1      12.175   6.896  -0.234  1.00  0.00    -0.014 A 
BRANCH  46  47
ATOM     47  C   UNL     1      12.254   8.383  -0.183  1.00  0.00     0.031 A 
ATOM     48  C   UNL     1      13.174   9.077  -1.155  1.00  0.00     0.074 A 
ATOM     49  C   UNL     1      11.519   9.123   0.669  1.00  0.00     0.049 A 
ATOM     50  N   UNL     1      13.444  10.352  -1.285  1.00  0.00    -0.248 NA
ATOM     51  C   UNL     1      13.884   8.211  -2.111  1.00  0.00     0.031 C 
ATOM     52  C   UNL     1      10.546   8.605   1.628  1.00  0.00     0.029 A 
ATOM     53  N   UNL     1      11.487  10.485   0.861  1.00  0.00    -0.354 N 
ATOM     54  C   UNL     1      14.361  10.438  -2.326  1.00  0.00     0.074 A 
ATOM     55  C   UNL     1      14.624   9.087  -2.772  1.00  0.00     0.031 C 
ATOM     56  C   UNL     1      10.018   9.637   2.312  1.00  0.00     0.029 A 
ATOM     57  C   UNL     1      10.640  10.884   1.867  1.00  0.00     0.049 A 
ATOM     58  H   UNL     1      12.021  11.116   0.326  1.00  0.00     0.167 HD
ATOM     59  C   UNL     1      14.933  11.537  -2.871  1.00  0.00     0.031 A 
ATOM     60  C   UNL     1      10.411  12.109   2.388  1.00  0.00     0.031 A 
ATOM     61  C   UNL     1      14.696  12.884  -2.428  1.00  0.00     0.049 A 
ATOM     62  C   UNL     1      11.139  13.310   1.833  1.00  0.00     0.074 A 
ATOM     63  C   UNL     1      15.224  14.061  -2.932  1.00  0.00     0.029 A 
ATOM     64  N   UNL     1      13.874  13.235  -1.369  1.00  0.00    -0.354 N 
ATOM     65  N   UNL     1      11.981  13.380   0.830  1.00  0.00    -0.248 NA
ATOM     66  C   UNL     1      10.878  14.604   2.484  1.00  0.00     0.031 C 
ATOM     67  C   UNL     1      14.776  15.118  -2.134  1.00  0.00     0.029 A 
ATOM     68  C   UNL     1      13.910  14.607  -1.181  1.00  0.00     0.049 A 
ATOM     69  H   UNL     1      13.344  12.604  -0.832  1.00  0.00     0.167 HD
ATOM     70  C   UNL     1      12.324  14.723   0.713  1.00  0.00     0.074 A 
ATOM     71  C   UNL     1      11.586  15.436   1.733  1.00  0.00     0.031 C 
ATOM     72  C   UNL     1      13.175  15.313  -0.164  1.00  0.00     0.031 A 
BRANCH  59  73
ATOM     73  C   UNL     1      15.915  11.321  -3.990  1.00  0.00    -0.014 A 
ATOM     74  C   UNL     1      15.498  10.887  -5.258  1.00  0.00     0.009 A 
ATOM     75  C   UNL     1      17.277  11.586  -3.777  1.00  0.00     0.009 A 
ATOM     76  C   UNL     1      16.431  10.688  -6.278  1.00  0.00     0.001 A 
ATOM     77  C   UNL     1      18.202  11.418  -4.808  1.00  0.00     0.001 A 
ATOM     78  C   UNL     1      17.780  10.959  -6.054  1.00  0.00     0.000 A 
ENDBRANCH  59  73
BRANCH  60  79
ATOM     79  C   UNL     1       9.470  12.277   3.531  1.00  0.00    -0.014 A 
ATOM     80  C   UNL     1       8.273  12.994   3.379  1.00  0.00     0.009 A 
ATOM     81  C   UNL     1       9.792  11.763   4.798  1.00  0.00     0.009 A 
ATOM     82  C   UNL     1       7.434  13.216   4.475  1.00  0.00     0.001 A 
ATOM     83  C   UNL     1       8.935  11.957   5.884  1.00  0.00     0.001 A 
ATOM     84  C   UNL     1       7.763  12.693   5.724  1.00  0.00     0.000 A 
ENDBRANCH  60  79
BRANCH  72  85
ATOM     85  C   UNL     1      13.331  16.809  -0.091  1.00  0.00    -0.014 A 
ATOM     86  C   UNL     1      13.998  17.427   0.979  1.00  0.00     0.009 A 
ATOM     87  C   UNL     1      12.848  17.610  -1.139  1.00  0.00     0.009 A 
ATOM     88  C   UNL     1      14.146  18.816   1.014  1.00  0.00     0.001 A 
ATOM     89  C   UNL     1      13.026  18.995  -1.118  1.00  0.00     0.001 A 
ATOM     90  C   UNL     1      13.666  19.598  -0.037  1.00  0.00     0.000 A 
ENDBRANCH  72  85
ENDBRANCH  46  47
ENDBRANCH  39  41
ENDBRANCH  38  39
ENDBRANCH  37  38
ENDBRANCH  36  37
ENDBRANCH  35  36
ENDBRANCH  34  35
ENDBRANCH   1  34
TORSDOF 22
