REMARK SMILES COc1cc([C@H]2CC(=O)Nc3c(C(=O)OCCOCCOCCOC(=O)c4ccc(-c5c6nc(c(-c7ccccc7)c7ccc([nH]7)c(-c7ccccc7)c7nc(c(-c8ccccc8)c8ccc5[nH]8)C=C7)C=C6)cc4)cn(-c4cccc(Cl)c4)c32)c(OC)c(O)c1O
REMARK SMILES IDX 19 1 18 2 17 3 16 4 15 5 13 6 14 7 12 8 6 9 7 10 84 11 8 12
REMARK SMILES IDX 11 13 76 14 9 15 10 16 75 17 5 19 3 20 4 21 90 22 88 23
REMARK SMILES IDX 85 24 2 25 1 26 91 27 89 29 86 31 87 32 77 33 78 34 83 35
REMARK SMILES IDX 79 36 81 37 80 38 82 39 20 40 21 41 22 42 23 43 24 44 25 45
REMARK SMILES IDX 26 46 27 47 28 48 74 49 29 50 73 51 30 52 31 53 32 54 67 55
REMARK SMILES IDX 33 56 72 57 66 58 68 59 34 60 71 61 65 62 64 63 35 65 57 66
REMARK SMILES IDX 42 67 56 68 43 69 46 70 55 71 69 72 44 73 45 74 54 76 70 77
REMARK SMILES IDX 47 78 36 79 37 80 41 81 38 82 40 83 39 84 58 85 59 86 63 87
REMARK SMILES IDX 60 88 62 89 61 90 48 91 49 92 53 93 50 94 52 95 51 96
REMARK H PARENT 10 18 91 28 89 30 68 64 46 75
REMARK Flexibility Score: inf
ROOT
ATOM      1  C   UNL     1       7.168   0.830  -5.457  1.00  0.00     0.188 C 
ENDROOT
BRANCH   1   2
ATOM      2  O   UNL     1       6.586   2.013  -5.996  1.00  0.00    -0.376 OA
BRANCH   2   3
ATOM      3  C   UNL     1       6.385   3.147  -5.175  1.00  0.00     0.202 C 
BRANCH   3   4
ATOM      4  C   UNL     1       5.180   3.076  -4.223  1.00  0.00     0.261 C 
BRANCH   4   5
ATOM      5  O   UNL     1       4.984   1.805  -3.577  1.00  0.00    -0.460 OA
BRANCH   5   6
ATOM      6  C   UNL     1       4.154   0.932  -4.226  1.00  0.00     0.341 C 
ATOM      7  O   UNL     1       3.487   1.212  -5.212  1.00  0.00    -0.246 OA
BRANCH   6   8
ATOM      8  C   UNL     1       4.218  -0.424  -3.676  1.00  0.00     0.102 A 
ATOM      9  C   UNL     1       4.895  -3.133  -1.194  1.00  0.00     0.082 C 
ATOM     10  C   UNL     1       5.661  -2.291  -0.150  1.00  0.00     0.115 C 
ATOM     11  C   UNL     1       4.541  -2.286  -2.388  1.00  0.00     0.055 A 
ATOM     12  C   UNL     1       5.325  -0.813  -0.103  1.00  0.00     0.225 C 
ATOM     13  C   UNL     1       4.591  -0.905  -2.396  1.00  0.00     0.078 A 
ATOM     14  N   UNL     1       4.058  -2.685  -3.624  1.00  0.00    -0.317 N 
ATOM     15  O   UNL     1       5.501  -0.152   0.920  1.00  0.00    -0.275 OA
ATOM     16  N   UNL     1       4.940  -0.204  -1.267  1.00  0.00    -0.324 N 
ATOM     17  C   UNL     1       3.940  -1.562  -4.417  1.00  0.00     0.109 A 
ATOM     18  H   UNL     1       4.911   0.779  -1.296  1.00  0.00     0.170 HD
BRANCH   9  19
ATOM     19  C   UNL     1       5.655  -4.458  -1.366  1.00  0.00     0.012 A 
ATOM     20  C   UNL     1       6.090  -6.667  -0.351  1.00  0.00     0.165 A 
ATOM     21  C   UNL     1       5.447  -5.425  -0.342  1.00  0.00     0.059 A 
ATOM     22  C   UNL     1       6.913  -6.998  -1.425  1.00  0.00     0.204 A 
ATOM     23  C   UNL     1       7.142  -6.076  -2.437  1.00  0.00     0.204 A 
ATOM     24  C   UNL     1       6.559  -4.797  -2.391  1.00  0.00     0.168 A 
BRANCH  20  25
ATOM     25  O   UNL     1       5.957  -7.638   0.608  1.00  0.00    -0.493 OA
ATOM     26  C   UNL     1       5.641  -7.187   1.922  1.00  0.00     0.278 C 
ENDBRANCH  20  25
BRANCH  22  27
ATOM     27  O   UNL     1       7.492  -8.240  -1.474  1.00  0.00    -0.502 OA
ATOM     28  H   UNL     1       7.333  -8.858  -0.787  1.00  0.00     0.293 HD
ENDBRANCH  22  27
BRANCH  23  29
ATOM     29  O   UNL     1       7.935  -6.425  -3.500  1.00  0.00    -0.502 OA
ATOM     30  H   UNL     1       8.095  -5.809  -4.188  1.00  0.00     0.293 HD
ENDBRANCH  23  29
BRANCH  24  31
ATOM     31  O   UNL     1       6.811  -4.003  -3.478  1.00  0.00    -0.492 OA
ATOM     32  C   UNL     1       7.701  -2.928  -3.211  1.00  0.00     0.278 C 
ENDBRANCH  24  31
ENDBRANCH   9  19
BRANCH  14  33
ATOM     33  C   UNL     1       3.797  -4.000  -4.069  1.00  0.00     0.047 A 
ATOM     34  C   UNL     1       3.032  -4.870  -3.288  1.00  0.00     0.027 A 
ATOM     35  C   UNL     1       4.421  -4.446  -5.241  1.00  0.00     0.047 A 
ATOM     36  C   UNL     1       2.931  -6.211  -3.658  1.00  0.00     0.004 A 
ATOM     37  C   UNL     1       4.361  -5.799  -5.563  1.00  0.00     0.043 A 
ATOM     38  C   UNL     1       3.618  -6.681  -4.780  1.00  0.00     0.020 A 
ATOM     39  Cl  UNL     1       5.274  -6.394  -6.895  1.00  0.00    -0.084 Cl
ENDBRANCH  14  33
ENDBRANCH   6   8
ENDBRANCH   5   6
ENDBRANCH   4   5
ENDBRANCH   3   4
ENDBRANCH   2   3
ENDBRANCH   1   2
BRANCH   1  40
ATOM     40  C   UNL     1       7.675   0.717  -4.001  1.00  0.00     0.188 C 
BRANCH  40  41
ATOM     41  O   UNL     1       8.095   1.927  -3.387  1.00  0.00    -0.376 OA
BRANCH  41  42
ATOM     42  C   UNL     1       9.451   1.956  -2.964  1.00  0.00     0.202 C 
BRANCH  42  43
ATOM     43  C   UNL     1      10.392   2.330  -4.098  1.00  0.00     0.261 C 
BRANCH  43  44
ATOM     44  O   UNL     1      10.240   1.529  -5.266  1.00  0.00    -0.460 OA
BRANCH  44  45
ATOM     45  C   UNL     1      10.662   0.251  -5.182  1.00  0.00     0.338 C 
ATOM     46  O   UNL     1      10.848  -0.402  -4.173  1.00  0.00    -0.246 OA
BRANCH  45  47
ATOM     47  C   UNL     1      11.008  -0.195  -6.538  1.00  0.00     0.060 A 
ATOM     48  C   UNL     1      11.316  -1.544  -6.726  1.00  0.00     0.016 A 
ATOM     49  C   UNL     1      11.274   0.768  -7.525  1.00  0.00     0.016 A 
ATOM     50  C   UNL     1      12.051  -1.904  -7.839  1.00  0.00     0.010 A 
ATOM     51  C   UNL     1      12.028   0.414  -8.617  1.00  0.00     0.010 A 
ATOM     52  C   UNL     1      12.469  -0.903  -8.722  1.00  0.00    -0.014 A 
BRANCH  52  53
ATOM     53  C   UNL     1      13.437  -1.241  -9.744  1.00  0.00     0.031 A 
ATOM     54  C   UNL     1      12.897  -1.808 -10.993  1.00  0.00     0.074 A 
ATOM     55  C   UNL     1      14.732  -0.897  -9.622  1.00  0.00     0.049 A 
ATOM     56  N   UNL     1      13.183  -2.948 -11.526  1.00  0.00    -0.248 NA
ATOM     57  C   UNL     1      11.873  -1.034 -11.712  1.00  0.00     0.031 C 
ATOM     58  C   UNL     1      15.335  -0.044  -8.594  1.00  0.00     0.029 A 
ATOM     59  N   UNL     1      15.762  -1.133 -10.483  1.00  0.00    -0.354 N 
ATOM     60  C   UNL     1      12.502  -2.976 -12.735  1.00  0.00     0.074 A 
ATOM     61  C   UNL     1      11.614  -1.839 -12.741  1.00  0.00     0.031 C 
ATOM     62  C   UNL     1      16.560   0.344  -9.010  1.00  0.00     0.029 A 
ATOM     63  C   UNL     1      16.862  -0.317 -10.270  1.00  0.00     0.049 A 
ATOM     64  H   UNL     1      15.728  -1.818 -11.189  1.00  0.00     0.167 HD
ATOM     65  C   UNL     1      12.875  -3.797 -13.751  1.00  0.00     0.031 A 
ATOM     66  C   UNL     1      17.910  -0.138 -11.108  1.00  0.00     0.031 A 
ATOM     67  C   UNL     1      13.737  -4.862 -13.318  1.00  0.00     0.049 A 
ATOM     68  C   UNL     1      17.929  -1.258 -12.075  1.00  0.00     0.074 A 
ATOM     69  C   UNL     1      13.634  -5.884 -12.395  1.00  0.00     0.029 A 
ATOM     70  N   UNL     1      15.072  -4.769 -13.628  1.00  0.00    -0.354 N 
ATOM     71  N   UNL     1      18.261  -2.477 -11.765  1.00  0.00    -0.248 NA
ATOM     72  C   UNL     1      17.220  -1.112 -13.337  1.00  0.00     0.031 C 
ATOM     73  C   UNL     1      14.947  -6.043 -11.863  1.00  0.00     0.029 A 
ATOM     74  C   UNL     1      15.778  -5.125 -12.507  1.00  0.00     0.049 A 
ATOM     75  H   UNL     1      15.452  -4.497 -14.495  1.00  0.00     0.167 HD
ATOM     76  C   UNL     1      17.437  -3.277 -12.543  1.00  0.00     0.074 A 
ATOM     77  C   UNL     1      16.932  -2.393 -13.587  1.00  0.00     0.031 C 
ATOM     78  C   UNL     1      17.014  -4.497 -12.094  1.00  0.00     0.031 A 
BRANCH  65  79
ATOM     79  C   UNL     1      12.747  -3.398 -15.195  1.00  0.00    -0.014 A 
ATOM     80  C   UNL     1      12.951  -4.363 -16.193  1.00  0.00     0.009 A 
ATOM     81  C   UNL     1      12.691  -2.051 -15.607  1.00  0.00     0.009 A 
ATOM     82  C   UNL     1      13.124  -3.991 -17.532  1.00  0.00     0.001 A 
ATOM     83  C   UNL     1      12.816  -1.681 -16.946  1.00  0.00     0.001 A 
ATOM     84  C   UNL     1      13.056  -2.652 -17.907  1.00  0.00     0.000 A 
ENDBRANCH  65  79
BRANCH  66  85
ATOM     85  C   UNL     1      18.786   1.042 -11.250  1.00  0.00    -0.014 A 
ATOM     86  C   UNL     1      20.016   0.944 -11.918  1.00  0.00     0.009 A 
ATOM     87  C   UNL     1      18.314   2.330 -10.933  1.00  0.00     0.009 A 
ATOM     88  C   UNL     1      20.730   2.093 -12.280  1.00  0.00     0.001 A 
ATOM     89  C   UNL     1      19.033   3.476 -11.283  1.00  0.00     0.001 A 
ATOM     90  C   UNL     1      20.234   3.358 -11.971  1.00  0.00     0.000 A 
ENDBRANCH  66  85
BRANCH  78  91
ATOM     91  C   UNL     1      17.700  -5.072 -10.877  1.00  0.00    -0.014 A 
ATOM     92  C   UNL     1      17.749  -4.400  -9.642  1.00  0.00     0.009 A 
ATOM     93  C   UNL     1      18.210  -6.377 -10.941  1.00  0.00     0.009 A 
ATOM     94  C   UNL     1      18.343  -4.991  -8.524  1.00  0.00     0.001 A 
ATOM     95  C   UNL     1      18.780  -6.979  -9.815  1.00  0.00     0.001 A 
ATOM     96  C   UNL     1      18.857  -6.282  -8.611  1.00  0.00     0.000 A 
ENDBRANCH  78  91
ENDBRANCH  52  53
ENDBRANCH  45  47
ENDBRANCH  44  45
ENDBRANCH  43  44
ENDBRANCH  42  43
ENDBRANCH  41  42
ENDBRANCH  40  41
ENDBRANCH   1  40
TORSDOF 23
