REMARK SMILES CC[C@H](NC(=O)Cc1c(C)c2cc(Cl)c(OC)cc2oc1=O)C(=O)OCCOCCOCCOC(=O)c1ccc(-c2c3nc(c(-c4ccccc4)c4ccc([nH]4)c(-c4ccccc4)c4nc(c(-c5ccccc5)c5ccc2[nH]5)C=C4)C=C3)cc1
REMARK SMILES IDX 29 1 28 2 27 3 26 4 25 5 23 6 24 7 3 8 2 9 1 10 4 11 5 12
REMARK SMILES IDX 6 14 7 15 8 16 9 17 21 18 10 19 11 20 20 21 22 22 12 23
REMARK SMILES IDX 19 24 13 25 18 26 14 27 15 28 16 29 17 30 30 31 31 32 32 33
REMARK SMILES IDX 33 34 34 35 35 36 36 37 37 38 38 39 84 40 39 41 83 42 40 43
REMARK SMILES IDX 41 44 42 45 77 46 43 47 82 48 76 49 78 50 44 51 81 52 75 53
REMARK SMILES IDX 74 54 45 56 67 57 52 58 66 59 53 60 56 61 65 62 79 63 54 64
REMARK SMILES IDX 55 65 64 67 80 68 57 69 46 70 47 71 51 72 48 73 50 74 49 75
REMARK SMILES IDX 68 76 69 77 73 78 70 79 72 80 71 81 58 82 59 83 63 84 60 85
REMARK SMILES IDX 62 86 61 87
REMARK H PARENT 4 13 78 55 56 66
REMARK Flexibility Score: inf
ROOT
ATOM      1  C   UNL     1       0.184   0.586   5.582  1.00  0.00     0.188 C 
ENDROOT
BRANCH   1   2
ATOM      2  O   UNL     1      -0.483   1.563   6.361  1.00  0.00    -0.376 OA
BRANCH   2   3
ATOM      3  C   UNL     1      -1.675   2.137   5.852  1.00  0.00     0.202 C 
BRANCH   3   4
ATOM      4  C   UNL     1      -1.545   2.974   4.579  1.00  0.00     0.261 C 
BRANCH   4   5
ATOM      5  O   UNL     1      -1.073   2.220   3.442  1.00  0.00    -0.462 OA
BRANCH   5   6
ATOM      6  C   UNL     1       0.057   2.690   2.843  1.00  0.00     0.328 C 
ATOM      7  O   UNL     1       0.661   3.692   3.212  1.00  0.00    -0.250 OA
BRANCH   6   8
ATOM      8  C   UNL     1       0.404   1.959   1.525  1.00  0.00     0.192 C 
BRANCH   8   9
ATOM      9  C   UNL     1      -0.034   2.924   0.402  1.00  0.00     0.033 C 
ATOM     10  C   UNL     1       0.308   2.431  -0.995  1.00  0.00     0.007 C 
ENDBRANCH   8   9
BRANCH   8  11
ATOM     11  N   UNL     1      -0.102   0.599   1.252  1.00  0.00    -0.342 N 
ATOM     12  C   UNL     1       0.669  -0.536   1.121  1.00  0.00     0.225 C 
ATOM     13  H   UNL     1      -1.076   0.494   1.154  1.00  0.00     0.164 HD
ATOM     14  O   UNL     1       0.477  -1.279   0.159  1.00  0.00    -0.275 OA
BRANCH  12  15
ATOM     15  C   UNL     1       1.607  -0.940   2.260  1.00  0.00     0.143 C 
BRANCH  15  16
ATOM     16  C   UNL     1       3.099  -0.894   2.062  1.00  0.00     0.051 A 
ATOM     17  C   UNL     1       4.011  -1.897   2.136  1.00  0.00    -0.029 A 
ATOM     18  C   UNL     1       3.646   0.482   2.180  1.00  0.00     0.340 A 
ATOM     19  C   UNL     1       3.686  -3.340   2.434  1.00  0.00     0.046 C 
ATOM     20  C   UNL     1       5.450  -1.514   2.109  1.00  0.00     0.023 A 
ATOM     21  O   UNL     1       4.775   0.730   1.460  1.00  0.00    -0.422 OA
ATOM     22  O   UNL     1       3.103   1.333   2.874  1.00  0.00    -0.246 OA
ATOM     23  C   UNL     1       6.523  -2.364   2.397  1.00  0.00     0.036 A 
ATOM     24  C   UNL     1       5.761  -0.180   1.827  1.00  0.00     0.142 A 
ATOM     25  C   UNL     1       7.838  -1.863   2.457  1.00  0.00     0.083 A 
ATOM     26  C   UNL     1       7.053   0.339   1.924  1.00  0.00     0.095 A 
ATOM     27  Cl  UNL     1       9.123  -2.991   2.706  1.00  0.00    -0.080 Cl
ATOM     28  C   UNL     1       8.104  -0.495   2.284  1.00  0.00     0.141 A 
BRANCH  28  29
ATOM     29  O   UNL     1       9.392  -0.064   2.459  1.00  0.00    -0.495 OA
ATOM     30  C   UNL     1       9.593   1.341   2.587  1.00  0.00     0.278 C 
ENDBRANCH  28  29
ENDBRANCH  15  16
ENDBRANCH  12  15
ENDBRANCH   8  11
ENDBRANCH   6   8
ENDBRANCH   5   6
ENDBRANCH   4   5
ENDBRANCH   3   4
ENDBRANCH   2   3
ENDBRANCH   1   2
BRANCH   1  31
ATOM     31  C   UNL     1      -0.626  -0.443   4.764  1.00  0.00     0.188 C 
BRANCH  31  32
ATOM     32  O   UNL     1      -1.891  -0.871   5.228  1.00  0.00    -0.376 OA
BRANCH  32  33
ATOM     33  C   UNL     1      -1.948  -1.486   6.507  1.00  0.00     0.202 C 
BRANCH  33  34
ATOM     34  C   UNL     1      -1.008  -2.676   6.712  1.00  0.00     0.261 C 
BRANCH  34  35
ATOM     35  O   UNL     1       0.353  -2.248   6.947  1.00  0.00    -0.460 OA
BRANCH  35  36
ATOM     36  C   UNL     1       1.306  -2.966   6.306  1.00  0.00     0.338 C 
ATOM     37  O   UNL     1       1.139  -3.907   5.550  1.00  0.00    -0.246 OA
BRANCH  36  38
ATOM     38  C   UNL     1       2.644  -2.392   6.535  1.00  0.00     0.060 A 
ATOM     39  C   UNL     1       3.467  -2.872   7.548  1.00  0.00     0.016 A 
ATOM     40  C   UNL     1       3.160  -1.516   5.585  1.00  0.00     0.016 A 
ATOM     41  C   UNL     1       4.819  -2.487   7.583  1.00  0.00     0.010 A 
ATOM     42  C   UNL     1       4.515  -1.180   5.590  1.00  0.00     0.010 A 
ATOM     43  C   UNL     1       5.375  -1.672   6.576  1.00  0.00    -0.014 A 
BRANCH  43  44
ATOM     44  C   UNL     1       6.848  -1.418   6.485  1.00  0.00     0.031 A 
ATOM     45  C   UNL     1       7.419  -0.018   6.417  1.00  0.00     0.074 A 
ATOM     46  C   UNL     1       7.691  -2.463   6.333  1.00  0.00     0.049 A 
ATOM     47  N   UNL     1       8.675   0.358   6.353  1.00  0.00    -0.248 NA
ATOM     48  C   UNL     1       6.467   1.102   6.365  1.00  0.00     0.031 C 
ATOM     49  C   UNL     1       7.285  -3.864   6.191  1.00  0.00     0.029 A 
ATOM     50  N   UNL     1       9.062  -2.509   6.240  1.00  0.00    -0.354 N 
ATOM     51  C   UNL     1       8.659   1.743   6.233  1.00  0.00     0.074 A 
ATOM     52  C   UNL     1       7.270   2.137   6.161  1.00  0.00     0.031 C 
ATOM     53  C   UNL     1       8.379  -4.630   6.054  1.00  0.00     0.029 A 
ATOM     54  C   UNL     1       9.565  -3.779   6.075  1.00  0.00     0.049 A 
ATOM     55  H   UNL     1       9.632  -1.707   6.288  1.00  0.00     0.167 HD
ATOM     56  C   UNL     1       9.700   2.611   6.207  1.00  0.00     0.031 A 
ATOM     57  C   UNL     1      10.832  -4.222   5.946  1.00  0.00     0.031 A 
ATOM     58  C   UNL     1      11.083   2.220   6.308  1.00  0.00     0.049 A 
ATOM     59  C   UNL     1      11.976  -3.252   6.030  1.00  0.00     0.074 A 
ATOM     60  C   UNL     1      12.193   3.033   6.467  1.00  0.00     0.029 A 
ATOM     61  N   UNL     1      11.547   0.916   6.248  1.00  0.00    -0.354 N 
ATOM     62  N   UNL     1      11.942  -1.946   6.119  1.00  0.00    -0.248 NA
ATOM     63  C   UNL     1      13.335  -3.818   6.044  1.00  0.00     0.031 C 
ATOM     64  C   UNL     1      13.333   2.228   6.436  1.00  0.00     0.029 A 
ATOM     65  C   UNL     1      12.929   0.907   6.349  1.00  0.00     0.049 A 
ATOM     66  H   UNL     1      10.981   0.117   6.150  1.00  0.00     0.167 HD
ATOM     67  C   UNL     1      13.265  -1.537   6.235  1.00  0.00     0.074 A 
ATOM     68  C   UNL     1      14.079  -2.733   6.217  1.00  0.00     0.031 C 
ATOM     69  C   UNL     1      13.748  -0.278   6.355  1.00  0.00     0.031 A 
BRANCH  56  70
ATOM     70  C   UNL     1       9.407   4.089   6.101  1.00  0.00    -0.014 A 
ATOM     71  C   UNL     1       9.922   4.833   5.025  1.00  0.00     0.009 A 
ATOM     72  C   UNL     1       8.730   4.772   7.124  1.00  0.00     0.009 A 
ATOM     73  C   UNL     1       9.771   6.222   4.980  1.00  0.00     0.001 A 
ATOM     74  C   UNL     1       8.544   6.155   7.056  1.00  0.00     0.001 A 
ATOM     75  C   UNL     1       9.075   6.880   5.991  1.00  0.00     0.000 A 
ENDBRANCH  56  70
BRANCH  57  76
ATOM     76  C   UNL     1      11.080  -5.681   5.798  1.00  0.00    -0.014 A 
ATOM     77  C   UNL     1      10.799  -6.339   4.590  1.00  0.00     0.009 A 
ATOM     78  C   UNL     1      11.551  -6.432   6.886  1.00  0.00     0.009 A 
ATOM     79  C   UNL     1      10.970  -7.722   4.481  1.00  0.00     0.001 A 
ATOM     80  C   UNL     1      11.746  -7.809   6.766  1.00  0.00     0.001 A 
ATOM     81  C   UNL     1      11.447  -8.454   5.567  1.00  0.00     0.000 A 
ENDBRANCH  57  76
BRANCH  69  82
ATOM     82  C   UNL     1      15.229  -0.090   6.541  1.00  0.00    -0.014 A 
ATOM     83  C   UNL     1      15.708   0.420   7.761  1.00  0.00     0.009 A 
ATOM     84  C   UNL     1      16.136  -0.294   5.491  1.00  0.00     0.009 A 
ATOM     85  C   UNL     1      17.056   0.746   7.917  1.00  0.00     0.001 A 
ATOM     86  C   UNL     1      17.491   0.004   5.660  1.00  0.00     0.001 A 
ATOM     87  C   UNL     1      17.947   0.535   6.867  1.00  0.00     0.000 A 
ENDBRANCH  69  82
ENDBRANCH  43  44
ENDBRANCH  36  38
ENDBRANCH  35  36
ENDBRANCH  34  35
ENDBRANCH  33  34
ENDBRANCH  32  33
ENDBRANCH  31  32
ENDBRANCH   1  31
TORSDOF 22
