REMARK SMILES CCc1noc(C)c1C(=O)Nc1cc(Cl)ccc1C(=O)OCCOCCOCCOC(=O)c1ccc(-c2c3nc(c(-c4ccccc4)c4ccc([nH]4)c(-c4ccccc4)c4nc(c(-c5ccccc5)c5ccc2[nH]5)C=C4)C=C3)cc1
REMARK SMILES IDX 25 1 24 2 23 3 22 4 21 5 19 6 20 7 18 8 12 9 13 10 14 11
REMARK SMILES IDX 17 12 15 13 16 14 11 15 9 16 10 17 8 19 3 20 4 21 5 22 6 23
REMARK SMILES IDX 7 24 2 25 1 26 26 27 27 28 28 29 29 30 30 31 31 32 32 33
REMARK SMILES IDX 33 34 34 35 80 36 35 37 79 38 36 39 37 40 38 41 73 42 39 43
REMARK SMILES IDX 78 44 72 45 74 46 40 47 77 48 71 49 70 50 41 52 63 53 48 54
REMARK SMILES IDX 62 55 49 56 52 57 61 58 75 59 50 60 51 61 60 63 76 64 53 65
REMARK SMILES IDX 42 66 43 67 47 68 44 69 46 70 45 71 64 72 65 73 69 74 66 75
REMARK SMILES IDX 68 76 67 77 54 78 55 79 59 80 56 81 58 82 57 83
REMARK H PARENT 11 18 74 51 52 62
REMARK Flexibility Score: inf
ROOT
ATOM      1  C   UNL     1       7.571   2.097   4.439  1.00  0.00     0.188 C 
ENDROOT
BRANCH   1   2
ATOM      2  O   UNL     1       8.523   1.095   4.773  1.00  0.00    -0.376 OA
BRANCH   2   3
ATOM      3  C   UNL     1       8.106  -0.248   4.987  1.00  0.00     0.202 C 
BRANCH   3   4
ATOM      4  C   UNL     1       7.012  -0.541   6.027  1.00  0.00     0.261 C 
BRANCH   4   5
ATOM      5  O   UNL     1       5.829   0.279   5.930  1.00  0.00    -0.460 OA
BRANCH   5   6
ATOM      6  C   UNL     1       5.663   1.168   6.939  1.00  0.00     0.340 C 
ATOM      7  O   UNL     1       6.392   1.276   7.914  1.00  0.00    -0.246 OA
BRANCH   6   8
ATOM      8  C   UNL     1       4.530   2.117   6.715  1.00  0.00     0.083 A 
ATOM      9  C   UNL     1       3.375   1.890   5.929  1.00  0.00     0.057 A 
ATOM     10  C   UNL     1       2.305   2.787   6.050  1.00  0.00     0.047 A 
ATOM     11  C   UNL     1       2.461   3.990   6.747  1.00  0.00     0.043 A 
ATOM     12  C   UNL     1       4.686   3.358   7.364  1.00  0.00     0.019 A 
ATOM     13  Cl  UNL     1       1.166   5.120   6.805  1.00  0.00    -0.084 Cl
ATOM     14  C   UNL     1       3.670   4.308   7.348  1.00  0.00     0.021 A 
BRANCH   9  15
ATOM     15  N   UNL     1       3.324   0.808   5.031  1.00  0.00    -0.321 N 
ATOM     16  C   UNL     1       2.626   0.529   3.870  1.00  0.00     0.261 C 
ATOM     17  O   UNL     1       2.709  -0.639   3.480  1.00  0.00    -0.269 OA
ATOM     18  H   UNL     1       3.929   0.075   5.291  1.00  0.00     0.170 HD
BRANCH  16  19
ATOM     19  C   UNL     1       1.874   1.504   3.082  1.00  0.00     0.105 A 
ATOM     20  C   UNL     1       0.866   1.191   2.099  1.00  0.00     0.096 A 
ATOM     21  N   UNL     1       0.315   2.296   1.585  1.00  0.00    -0.084 NA
ATOM     22  O   UNL     1       1.049   3.338   2.077  1.00  0.00    -0.361 OA
ATOM     23  C   UNL     1       2.033   2.871   2.892  1.00  0.00     0.146 A 
ATOM     24  C   UNL     1       2.986   3.931   3.269  1.00  0.00     0.092 C 
BRANCH  20  25
ATOM     25  C   UNL     1       0.425  -0.124   1.540  1.00  0.00     0.057 C 
ATOM     26  C   UNL     1       0.991  -0.345   0.137  1.00  0.00     0.011 C 
ENDBRANCH  20  25
ENDBRANCH  16  19
ENDBRANCH   9  15
ENDBRANCH   6   8
ENDBRANCH   5   6
ENDBRANCH   4   5
ENDBRANCH   3   4
ENDBRANCH   2   3
ENDBRANCH   1   2
BRANCH   1  27
ATOM     27  C   UNL     1       6.408   1.782   3.478  1.00  0.00     0.188 C 
BRANCH  27  28
ATOM     28  O   UNL     1       6.410   0.464   2.982  1.00  0.00    -0.376 OA
BRANCH  28  29
ATOM     29  C   UNL     1       6.721   0.277   1.611  1.00  0.00     0.202 C 
BRANCH  29  30
ATOM     30  C   UNL     1       8.017   0.875   1.028  1.00  0.00     0.261 C 
BRANCH  30  31
ATOM     31  O   UNL     1       8.411   2.176   1.494  1.00  0.00    -0.460 OA
BRANCH  31  32
ATOM     32  C   UNL     1       7.819   3.245   0.929  1.00  0.00     0.338 C 
ATOM     33  O   UNL     1       6.923   3.233   0.086  1.00  0.00    -0.246 OA
BRANCH  32  34
ATOM     34  C   UNL     1       8.282   4.461   1.623  1.00  0.00     0.060 A 
ATOM     35  C   UNL     1       7.350   5.248   2.313  1.00  0.00     0.016 A 
ATOM     36  C   UNL     1       9.627   4.838   1.580  1.00  0.00     0.016 A 
ATOM     37  C   UNL     1       7.754   6.436   2.927  1.00  0.00     0.010 A 
ATOM     38  C   UNL     1      10.026   6.038   2.178  1.00  0.00     0.010 A 
ATOM     39  C   UNL     1       9.085   6.861   2.824  1.00  0.00    -0.014 A 
BRANCH  39  40
ATOM     40  C   UNL     1       9.450   8.248   3.208  1.00  0.00     0.031 A 
ATOM     41  C   UNL     1       9.512   9.295   2.126  1.00  0.00     0.074 A 
ATOM     42  C   UNL     1       9.698   8.588   4.485  1.00  0.00     0.049 A 
ATOM     43  N   UNL     1       9.846  10.558   2.209  1.00  0.00    -0.248 NA
ATOM     44  C   UNL     1       9.148   8.856   0.768  1.00  0.00     0.031 C 
ATOM     45  C   UNL     1       9.628   7.687   5.634  1.00  0.00     0.029 A 
ATOM     46  N   UNL     1      10.069   9.795   5.026  1.00  0.00    -0.354 N 
ATOM     47  C   UNL     1       9.737  11.060   0.918  1.00  0.00     0.074 A 
ATOM     48  C   UNL     1       9.336   9.963   0.066  1.00  0.00     0.031 C 
ATOM     49  C   UNL     1       9.956   8.372   6.744  1.00  0.00     0.029 A 
ATOM     50  C   UNL     1      10.292   9.748   6.381  1.00  0.00     0.049 A 
ATOM     51  H   UNL     1      10.165  10.617   4.493  1.00  0.00     0.167 HD
ATOM     52  C   UNL     1       9.944  12.324   0.478  1.00  0.00     0.031 A 
ATOM     53  C   UNL     1      10.738  10.700   7.224  1.00  0.00     0.031 A 
ATOM     54  C   UNL     1      10.361  13.416   1.315  1.00  0.00     0.049 A 
ATOM     55  C   UNL     1      11.046  12.077   6.694  1.00  0.00     0.074 A 
ATOM     56  C   UNL     1      10.599  14.732   0.960  1.00  0.00     0.029 A 
ATOM     57  N   UNL     1      10.607  13.316   2.675  1.00  0.00    -0.354 N 
ATOM     58  N   UNL     1      10.919  12.544   5.475  1.00  0.00    -0.248 NA
ATOM     59  C   UNL     1      11.552  13.063   7.662  1.00  0.00     0.031 C 
ATOM     60  C   UNL     1      11.040  15.417   2.095  1.00  0.00     0.029 A 
ATOM     61  C   UNL     1      11.015  14.543   3.170  1.00  0.00     0.049 A 
ATOM     62  H   UNL     1      10.508  12.495   3.209  1.00  0.00     0.167 HD
ATOM     63  C   UNL     1      11.293  13.882   5.540  1.00  0.00     0.074 A 
ATOM     64  C   UNL     1      11.639  14.156   6.918  1.00  0.00     0.031 C 
ATOM     65  C   UNL     1      11.344  14.804   4.546  1.00  0.00     0.031 A 
BRANCH  52  66
ATOM     66  C   UNL     1       9.751  12.586  -0.989  1.00  0.00    -0.014 A 
ATOM     67  C   UNL     1       8.469  12.606  -1.562  1.00  0.00     0.009 A 
ATOM     68  C   UNL     1      10.863  12.854  -1.801  1.00  0.00     0.009 A 
ATOM     69  C   UNL     1       8.309  12.863  -2.925  1.00  0.00     0.001 A 
ATOM     70  C   UNL     1      10.698  13.138  -3.158  1.00  0.00     0.001 A 
ATOM     71  C   UNL     1       9.422  13.134  -3.720  1.00  0.00     0.000 A 
ENDBRANCH  52  66
BRANCH  53  72
ATOM     72  C   UNL     1      10.956  10.389   8.663  1.00  0.00    -0.014 A 
ATOM     73  C   UNL     1      10.163  10.986   9.656  1.00  0.00     0.009 A 
ATOM     74  C   UNL     1      11.996   9.532   9.055  1.00  0.00     0.009 A 
ATOM     75  C   UNL     1      10.430  10.759  11.009  1.00  0.00     0.001 A 
ATOM     76  C   UNL     1      12.241   9.282  10.406  1.00  0.00     0.001 A 
ATOM     77  C   UNL     1      11.467   9.905  11.383  1.00  0.00     0.000 A 
ENDBRANCH  53  72
BRANCH  65  78
ATOM     78  C   UNL     1      11.735  16.207   4.920  1.00  0.00    -0.014 A 
ATOM     79  C   UNL     1      13.053  16.534   5.272  1.00  0.00     0.009 A 
ATOM     80  C   UNL     1      10.771  17.228   4.871  1.00  0.00     0.009 A 
ATOM     81  C   UNL     1      13.389  17.849   5.604  1.00  0.00     0.001 A 
ATOM     82  C   UNL     1      11.117  18.546   5.172  1.00  0.00     0.001 A 
ATOM     83  C   UNL     1      12.423  18.854   5.548  1.00  0.00     0.000 A 
ENDBRANCH  65  78
ENDBRANCH  39  40
ENDBRANCH  32  34
ENDBRANCH  31  32
ENDBRANCH  30  31
ENDBRANCH  29  30
ENDBRANCH  28  29
ENDBRANCH  27  28
ENDBRANCH   1  27
TORSDOF 20
