REMARK SMILES CC1(C)[C@H](C(=O)Nc2cccc3[nH]ccc23)[C@H]1C(=O)OCCOCCOCCOC(=O)c1ccc(-c2c3nc(c(-c4ccccc4)c4ccc([nH]4)c(-c4ccccc4)c4nc(c(-c5ccccc5)c5ccc2[nH]5)C=C4)C=C3)cc1
REMARK SMILES IDX 24 1 23 2 22 3 21 4 20 5 18 6 19 7 17 8 1 9 2 10 3 11 4 12
REMARK SMILES IDX 5 13 6 14 7 15 8 17 9 18 16 19 10 20 12 21 15 22 11 23 13 24
REMARK SMILES IDX 14 25 25 27 26 28 27 29 28 30 29 31 30 32 31 33 32 34 33 35
REMARK SMILES IDX 79 36 34 37 78 38 35 39 36 40 37 41 72 42 38 43 77 44 71 45
REMARK SMILES IDX 73 46 39 47 76 48 70 49 69 50 40 52 62 53 47 54 61 55 48 56
REMARK SMILES IDX 51 57 60 58 74 59 49 60 50 61 59 63 75 64 52 65 41 66 42 67
REMARK SMILES IDX 46 68 43 69 45 70 44 71 63 72 64 73 68 74 65 75 67 76 66 77
REMARK SMILES IDX 53 78 54 79 58 80 55 81 57 82 56 83
REMARK H PARENT 7 16 13 26 73 51 51 62
REMARK Flexibility Score: inf
ROOT
ATOM      1  C   UNL     1      -1.193  -1.068   3.849  1.00  0.00     0.188 C 
ENDROOT
BRANCH   1   2
ATOM      2  O   UNL     1      -2.072  -2.054   4.388  1.00  0.00    -0.376 OA
BRANCH   2   3
ATOM      3  C   UNL     1      -2.418  -3.184   3.584  1.00  0.00     0.202 C 
BRANCH   3   4
ATOM      4  C   UNL     1      -2.933  -2.915   2.163  1.00  0.00     0.261 C 
BRANCH   4   5
ATOM      5  O   UNL     1      -1.971  -2.199   1.373  1.00  0.00    -0.463 OA
BRANCH   5   6
ATOM      6  C   UNL     1      -2.460  -1.237   0.555  1.00  0.00     0.310 C 
ATOM      7  O   UNL     1      -3.635  -1.071   0.258  1.00  0.00    -0.252 OA
BRANCH   6   8
ATOM      8  C   UNL     1      -1.423  -0.249   0.164  1.00  0.00     0.118 C 
ATOM      9  C   UNL     1       0.384  -1.996  -0.676  1.00  0.00     0.013 C 
ATOM     10  C   UNL     1      -0.048  -0.568  -0.430  1.00  0.00    -0.009 C 
ATOM     11  C   UNL     1       1.110   0.297   0.002  1.00  0.00     0.013 C 
ATOM     12  C   UNL     1      -1.178  -0.037  -1.309  1.00  0.00     0.100 C 
BRANCH  12  13
ATOM     13  C   UNL     1      -1.286   1.300  -1.972  1.00  0.00     0.228 C 
ATOM     14  O   UNL     1      -1.102   1.362  -3.183  1.00  0.00    -0.274 OA
ATOM     15  N   UNL     1      -1.900   2.318  -1.280  1.00  0.00    -0.325 N 
ATOM     16  H   UNL     1      -2.865   2.440  -1.430  1.00  0.00     0.169 HD
BRANCH  15  17
ATOM     17  C   UNL     1      -1.277   3.204  -0.379  1.00  0.00     0.050 A 
ATOM     18  C   UNL     1       0.116   3.295  -0.276  1.00  0.00     0.027 A 
ATOM     19  C   UNL     1      -2.059   4.065   0.428  1.00  0.00     0.023 A 
ATOM     20  C   UNL     1       0.728   4.073   0.706  1.00  0.00     0.004 A 
ATOM     21  C   UNL     1      -1.419   4.840   1.400  1.00  0.00     0.047 A 
ATOM     22  C   UNL     1      -3.451   4.360   0.527  1.00  0.00     0.030 A 
ATOM     23  C   UNL     1      -0.033   4.834   1.590  1.00  0.00     0.027 A 
ATOM     24  N   UNL     1      -2.390   5.553   2.067  1.00  0.00    -0.361 N 
ATOM     25  C   UNL     1      -3.619   5.295   1.524  1.00  0.00     0.083 A 
ATOM     26  H   UNL     1      -2.224   6.160   2.825  1.00  0.00     0.166 HD
ENDBRANCH  15  17
ENDBRANCH  12  13
ENDBRANCH   6   8
ENDBRANCH   5   6
ENDBRANCH   4   5
ENDBRANCH   3   4
ENDBRANCH   2   3
ENDBRANCH   1   2
BRANCH   1  27
ATOM     27  C   UNL     1       0.119  -1.526   3.183  1.00  0.00     0.188 C 
BRANCH  27  28
ATOM     28  O   UNL     1       0.308  -2.924   3.207  1.00  0.00    -0.376 OA
BRANCH  28  29
ATOM     29  C   UNL     1       1.387  -3.427   3.974  1.00  0.00     0.202 C 
BRANCH  29  30
ATOM     30  C   UNL     1       1.448  -3.081   5.471  1.00  0.00     0.261 C 
BRANCH  30  31
ATOM     31  O   UNL     1       1.183  -1.714   5.830  1.00  0.00    -0.460 OA
BRANCH  31  32
ATOM     32  C   UNL     1       2.180  -0.823   5.638  1.00  0.00     0.338 C 
ATOM     33  O   UNL     1       3.285  -1.041   5.176  1.00  0.00    -0.246 OA
BRANCH  32  34
ATOM     34  C   UNL     1       1.637   0.529   5.900  1.00  0.00     0.060 A 
ATOM     35  C   UNL     1       1.595   1.455   4.850  1.00  0.00     0.016 A 
ATOM     36  C   UNL     1       1.188   0.886   7.174  1.00  0.00     0.016 A 
ATOM     37  C   UNL     1       1.137   2.753   5.080  1.00  0.00     0.010 A 
ATOM     38  C   UNL     1       0.747   2.194   7.408  1.00  0.00     0.010 A 
ATOM     39  C   UNL     1       0.751   3.143   6.370  1.00  0.00    -0.014 A 
BRANCH  39  40
ATOM     40  C   UNL     1       0.534   4.582   6.663  1.00  0.00     0.031 A 
ATOM     41  C   UNL     1       1.663   5.371   7.271  1.00  0.00     0.074 A 
ATOM     42  C   UNL     1      -0.624   5.194   6.358  1.00  0.00     0.049 A 
ATOM     43  N   UNL     1       1.704   6.634   7.613  1.00  0.00    -0.248 NA
ATOM     44  C   UNL     1       2.913   4.636   7.524  1.00  0.00     0.031 C 
ATOM     45  C   UNL     1      -1.782   4.559   5.733  1.00  0.00     0.029 A 
ATOM     46  N   UNL     1      -1.014   6.499   6.543  1.00  0.00    -0.354 N 
ATOM     47  C   UNL     1       2.978   6.842   8.127  1.00  0.00     0.074 A 
ATOM     48  C   UNL     1       3.670   5.572   8.077  1.00  0.00     0.031 C 
ATOM     49  C   UNL     1      -2.758   5.475   5.594  1.00  0.00     0.029 A 
ATOM     50  C   UNL     1      -2.301   6.752   6.139  1.00  0.00     0.049 A 
ATOM     51  H   UNL     1      -0.424   7.187   6.928  1.00  0.00     0.167 HD
ATOM     52  C   UNL     1       3.529   7.986   8.598  1.00  0.00     0.031 A 
ATOM     53  C   UNL     1      -3.032   7.882   6.217  1.00  0.00     0.031 A 
ATOM     54  C   UNL     1       2.842   9.247   8.673  1.00  0.00     0.049 A 
ATOM     55  C   UNL     1      -2.423   9.124   6.817  1.00  0.00     0.074 A 
ATOM     56  C   UNL     1       3.319  10.462   9.133  1.00  0.00     0.029 A 
ATOM     57  N   UNL     1       1.528   9.452   8.287  1.00  0.00    -0.354 N 
ATOM     58  N   UNL     1      -1.209   9.313   7.273  1.00  0.00    -0.248 NA
ATOM     59  C   UNL     1      -3.288  10.310   6.903  1.00  0.00     0.031 C 
ATOM     60  C   UNL     1       2.274  11.390   9.075  1.00  0.00     0.029 A 
ATOM     61  C   UNL     1       1.168  10.768   8.519  1.00  0.00     0.049 A 
ATOM     62  H   UNL     1       0.937   8.764   7.904  1.00  0.00     0.167 HD
ATOM     63  C   UNL     1      -1.156  10.644   7.674  1.00  0.00     0.074 A 
ATOM     64  C   UNL     1      -2.454  11.219   7.389  1.00  0.00     0.031 C 
ATOM     65  C   UNL     1      -0.125  11.330   8.226  1.00  0.00     0.031 A 
BRANCH  52  66
ATOM     66  C   UNL     1       4.941   7.911   9.109  1.00  0.00    -0.014 A 
ATOM     67  C   UNL     1       6.027   7.753   8.234  1.00  0.00     0.009 A 
ATOM     68  C   UNL     1       5.188   8.024  10.486  1.00  0.00     0.009 A 
ATOM     69  C   UNL     1       7.330   7.677   8.732  1.00  0.00     0.001 A 
ATOM     70  C   UNL     1       6.493   7.976  10.978  1.00  0.00     0.001 A 
ATOM     71  C   UNL     1       7.562   7.793  10.102  1.00  0.00     0.000 A 
ENDBRANCH  52  66
BRANCH  53  72
ATOM     72  C   UNL     1      -4.434   7.900   5.722  1.00  0.00    -0.014 A 
ATOM     73  C   UNL     1      -4.784   8.648   4.588  1.00  0.00     0.009 A 
ATOM     74  C   UNL     1      -5.437   7.192   6.404  1.00  0.00     0.009 A 
ATOM     75  C   UNL     1      -6.113   8.707   4.162  1.00  0.00     0.001 A 
ATOM     76  C   UNL     1      -6.759   7.229   5.957  1.00  0.00     0.001 A 
ATOM     77  C   UNL     1      -7.098   7.995   4.843  1.00  0.00     0.000 A 
ENDBRANCH  53  72
BRANCH  65  78
ATOM     78  C   UNL     1      -0.338  12.791   8.516  1.00  0.00    -0.014 A 
ATOM     79  C   UNL     1      -1.168  13.219   9.563  1.00  0.00     0.009 A 
ATOM     80  C   UNL     1       0.340  13.754   7.751  1.00  0.00     0.009 A 
ATOM     81  C   UNL     1      -1.342  14.582   9.815  1.00  0.00     0.001 A 
ATOM     82  C   UNL     1       0.189  15.114   8.024  1.00  0.00     0.001 A 
ATOM     83  C   UNL     1      -0.660  15.527   9.049  1.00  0.00     0.000 A 
ENDBRANCH  65  78
ENDBRANCH  39  40
ENDBRANCH  32  34
ENDBRANCH  31  32
ENDBRANCH  30  31
ENDBRANCH  29  30
ENDBRANCH  28  29
ENDBRANCH  27  28
ENDBRANCH   1  27
TORSDOF 19
