REMARK SMILES CC[C@](C)(NC(=O)N1Cc2ccccc2C1)C(=O)OCCOCCOCCOC(=O)c1ccc(-c2c3nc(c(-c4ccccc4)c4ccc([nH]4)c(-c4ccccc4)c4nc(c(-c5ccccc5)c5ccc2[nH]5)C=C4)C=C3)cc1
REMARK SMILES IDX 24 1 23 2 22 3 21 4 20 5 19 6 17 7 18 8 3 9 4 10 2 11 1 12
REMARK SMILES IDX 5 13 6 14 7 16 8 17 9 18 16 19 10 20 15 21 11 22 14 23 12 24
REMARK SMILES IDX 13 25 25 26 26 27 27 28 28 29 29 30 30 31 31 32 32 33 78 34
REMARK SMILES IDX 33 35 77 36 34 37 35 38 36 39 71 40 37 41 76 42 70 43 72 44
REMARK SMILES IDX 38 45 75 46 69 47 68 48 39 50 61 51 46 52 60 53 47 54 50 55
REMARK SMILES IDX 59 56 73 57 48 58 49 59 58 61 74 62 51 63 40 64 41 65 45 66
REMARK SMILES IDX 42 67 44 68 43 69 62 70 63 71 67 72 64 73 66 74 65 75 52 76
REMARK SMILES IDX 53 77 57 78 54 79 56 80 55 81
REMARK H PARENT 5 15 72 49 50 60
REMARK Flexibility Score: inf
ROOT
ATOM      1  C   UNL     1       2.365  -4.068  -1.731  1.00  0.00     0.188 C 
ENDROOT
BRANCH   1   2
ATOM      2  C   UNL     1       2.913  -2.738  -1.162  1.00  0.00     0.188 C 
BRANCH   2   3
ATOM      3  O   UNL     1       4.317  -2.563  -1.274  1.00  0.00    -0.376 OA
BRANCH   3   4
ATOM      4  C   UNL     1       4.988  -1.564  -0.489  1.00  0.00     0.202 C 
BRANCH   4   5
ATOM      5  C   UNL     1       4.627  -1.072   0.943  1.00  0.00     0.261 C 
BRANCH   5   6
ATOM      6  O   UNL     1       3.528  -1.697   1.581  1.00  0.00    -0.462 OA
BRANCH   6   7
ATOM      7  C   UNL     1       2.324  -1.117   1.421  1.00  0.00     0.331 C 
ATOM      8  O   UNL     1       2.164   0.048   1.071  1.00  0.00    -0.249 OA
BRANCH   7   9
ATOM      9  C   UNL     1       1.170  -2.134   1.653  1.00  0.00     0.136 C 
ATOM     10  C   UNL     1       0.196  -1.911   0.434  1.00  0.00     0.047 C 
BRANCH   9  11
ATOM     11  C   UNL     1       0.376  -1.775   2.937  1.00  0.00     0.037 C 
ATOM     12  C   UNL     1       0.160  -0.282   3.198  1.00  0.00     0.007 C 
ENDBRANCH   9  11
BRANCH   9  13
ATOM     13  N   UNL     1       1.489  -3.644   1.699  1.00  0.00    -0.322 N 
ATOM     14  C   UNL     1       2.485  -4.543   1.964  1.00  0.00     0.318 C 
ATOM     15  H   UNL     1       0.678  -4.143   1.446  1.00  0.00     0.166 HD
ATOM     16  O   UNL     1       2.125  -5.699   2.204  1.00  0.00    -0.249 OA
ATOM     17  N   UNL     1       3.812  -4.236   1.836  1.00  0.00    -0.316 N 
ATOM     18  C   UNL     1       4.591  -4.887   0.770  1.00  0.00     0.157 C 
ATOM     19  C   UNL     1       4.691  -4.235   3.010  1.00  0.00     0.157 C 
ATOM     20  C   UNL     1       6.012  -4.579   1.084  1.00  0.00    -0.023 A 
ATOM     21  C   UNL     1       6.079  -4.173   2.413  1.00  0.00    -0.023 A 
ATOM     22  C   UNL     1       7.098  -4.545   0.216  1.00  0.00     0.006 A 
ATOM     23  C   UNL     1       7.290  -3.757   2.926  1.00  0.00     0.006 A 
ATOM     24  C   UNL     1       8.307  -4.080   0.717  1.00  0.00     0.000 A 
ATOM     25  C   UNL     1       8.402  -3.700   2.066  1.00  0.00     0.000 A 
ENDBRANCH   9  13
ENDBRANCH   7   9
ENDBRANCH   6   7
ENDBRANCH   5   6
ENDBRANCH   4   5
ENDBRANCH   3   4
ENDBRANCH   2   3
ENDBRANCH   1   2
BRANCH   1  26
ATOM     26  O   UNL     1       2.767  -5.258  -1.064  1.00  0.00    -0.376 OA
BRANCH  26  27
ATOM     27  C   UNL     1       2.975  -6.438  -1.848  1.00  0.00     0.202 C 
BRANCH  27  28
ATOM     28  C   UNL     1       4.205  -6.408  -2.785  1.00  0.00     0.261 C 
BRANCH  28  29
ATOM     29  O   UNL     1       4.154  -5.397  -3.812  1.00  0.00    -0.460 OA
BRANCH  29  30
ATOM     30  C   UNL     1       3.104  -5.473  -4.664  1.00  0.00     0.338 C 
ATOM     31  O   UNL     1       2.346  -6.423  -4.813  1.00  0.00    -0.246 OA
BRANCH  30  32
ATOM     32  C   UNL     1       2.803  -4.102  -5.130  1.00  0.00     0.060 A 
ATOM     33  C   UNL     1       1.580  -3.530  -4.729  1.00  0.00     0.016 A 
ATOM     34  C   UNL     1       3.736  -3.349  -5.839  1.00  0.00     0.016 A 
ATOM     35  C   UNL     1       1.301  -2.198  -5.001  1.00  0.00     0.010 A 
ATOM     36  C   UNL     1       3.409  -2.042  -6.206  1.00  0.00     0.010 A 
ATOM     37  C   UNL     1       2.185  -1.474  -5.804  1.00  0.00    -0.014 A 
BRANCH  37  38
ATOM     38  C   UNL     1       1.697  -0.245  -6.460  1.00  0.00     0.031 A 
ATOM     39  C   UNL     1       0.967  -0.415  -7.763  1.00  0.00     0.074 A 
ATOM     40  C   UNL     1       1.888   0.972  -5.925  1.00  0.00     0.049 A 
ATOM     41  N   UNL     1       0.584   0.490  -8.622  1.00  0.00    -0.248 NA
ATOM     42  C   UNL     1       0.618  -1.796  -8.146  1.00  0.00     0.031 C 
ATOM     43  C   UNL     1       2.482   1.245  -4.618  1.00  0.00     0.029 A 
ATOM     44  N   UNL     1       1.612   2.213  -6.440  1.00  0.00    -0.354 N 
ATOM     45  C   UNL     1      -0.020  -0.214  -9.656  1.00  0.00     0.074 A 
ATOM     46  C   UNL     1       0.030  -1.616  -9.317  1.00  0.00     0.031 C 
ATOM     47  C   UNL     1       2.567   2.578  -4.452  1.00  0.00     0.029 A 
ATOM     48  C   UNL     1       2.087   3.242  -5.663  1.00  0.00     0.049 A 
ATOM     49  H   UNL     1       1.122   2.353  -7.282  1.00  0.00     0.167 HD
ATOM     50  C   UNL     1      -0.548   0.271 -10.801  1.00  0.00     0.031 A 
ATOM     51  C   UNL     1       2.179   4.558  -5.938  1.00  0.00     0.031 A 
ATOM     52  C   UNL     1      -0.574   1.666 -11.135  1.00  0.00     0.049 A 
ATOM     53  C   UNL     1       1.692   5.058  -7.277  1.00  0.00     0.074 A 
ATOM     54  C   UNL     1      -1.092   2.268 -12.266  1.00  0.00     0.029 A 
ATOM     55  N   UNL     1      -0.042   2.671 -10.345  1.00  0.00    -0.354 N 
ATOM     56  N   UNL     1       1.112   4.394  -8.249  1.00  0.00    -0.248 NA
ATOM     57  C   UNL     1       1.884   6.488  -7.561  1.00  0.00     0.031 C 
ATOM     58  C   UNL     1      -0.807   3.634 -12.194  1.00  0.00     0.029 A 
ATOM     59  C   UNL     1      -0.176   3.888 -10.986  1.00  0.00     0.049 A 
ATOM     60  H   UNL     1       0.369   2.539  -9.460  1.00  0.00     0.167 HD
ATOM     61  C   UNL     1       0.852   5.327  -9.246  1.00  0.00     0.074 A 
ATOM     62  C   UNL     1       1.313   6.607  -8.751  1.00  0.00     0.031 C 
ATOM     63  C   UNL     1       0.288   5.147 -10.466  1.00  0.00     0.031 A 
BRANCH  50  64
ATOM     64  C   UNL     1      -1.070  -0.712 -11.806  1.00  0.00    -0.014 A 
ATOM     65  C   UNL     1      -2.279  -1.396 -11.612  1.00  0.00     0.009 A 
ATOM     66  C   UNL     1      -0.361  -0.905 -13.003  1.00  0.00     0.009 A 
ATOM     67  C   UNL     1      -2.764  -2.260 -12.596  1.00  0.00     0.001 A 
ATOM     68  C   UNL     1      -0.861  -1.748 -13.995  1.00  0.00     0.001 A 
ATOM     69  C   UNL     1      -2.060  -2.427 -13.790  1.00  0.00     0.000 A 
ENDBRANCH  50  64
BRANCH  51  70
ATOM     70  C   UNL     1       2.845   5.489  -4.985  1.00  0.00    -0.014 A 
ATOM     71  C   UNL     1       2.139   6.546  -4.391  1.00  0.00     0.009 A 
ATOM     72  C   UNL     1       4.219   5.364  -4.719  1.00  0.00     0.009 A 
ATOM     73  C   UNL     1       2.801   7.478  -3.587  1.00  0.00     0.001 A 
ATOM     74  C   UNL     1       4.870   6.275  -3.885  1.00  0.00     0.001 A 
ATOM     75  C   UNL     1       4.164   7.340  -3.333  1.00  0.00     0.000 A 
ENDBRANCH  51  70
BRANCH  63  76
ATOM     76  C   UNL     1       0.112   6.360 -11.334  1.00  0.00    -0.014 A 
ATOM     77  C   UNL     1       1.210   6.979 -11.950  1.00  0.00     0.009 A 
ATOM     78  C   UNL     1      -1.180   6.846 -11.594  1.00  0.00     0.009 A 
ATOM     79  C   UNL     1       1.019   8.081 -12.786  1.00  0.00     0.001 A 
ATOM     80  C   UNL     1      -1.370   7.925 -12.457  1.00  0.00     0.001 A 
ATOM     81  C   UNL     1      -0.270   8.547 -13.044  1.00  0.00     0.000 A 
ENDBRANCH  63  76
ENDBRANCH  37  38
ENDBRANCH  30  32
ENDBRANCH  29  30
ENDBRANCH  28  29
ENDBRANCH  27  28
ENDBRANCH  26  27
ENDBRANCH   1  26
TORSDOF 19
