REMARK SMILES CCC[NH2+][C@]1(C(=O)OCCOCCOCCOC(=O)c2ccc(-c3c4nc(c(-c5ccccc5)c5ccc([nH]5)c(-c5ccccc5)c5nc(c(-c6ccccc6)c6ccc3[nH]6)C=C5)C=C4)cc2)CC[C@@H](Sc2nnc(C)n2C)C1
REMARK SMILES IDX 12 1 11 2 10 3 9 4 8 5 6 6 7 7 5 8 68 9 79 10 69 11 70 12
REMARK SMILES IDX 4 13 3 16 2 17 1 18 71 19 72 20 73 21 77 22 74 23 75 24
REMARK SMILES IDX 78 25 76 26 13 27 14 28 15 29 16 30 17 31 18 32 19 33 20 34
REMARK SMILES IDX 21 35 67 36 22 37 66 38 23 39 24 40 25 41 60 42 26 43 65 44
REMARK SMILES IDX 59 45 61 46 27 47 64 48 58 49 57 50 28 52 50 53 35 54 49 55
REMARK SMILES IDX 36 56 39 57 48 58 62 59 37 60 38 61 47 63 63 64 40 65 29 66
REMARK SMILES IDX 30 67 34 68 31 69 33 70 32 71 51 72 52 73 56 74 53 75 55 76
REMARK SMILES IDX 54 77 41 78 42 79 46 80 43 81 45 82 44 83
REMARK H PARENT 4 14 4 15 61 51 39 62
REMARK Flexibility Score: inf
ROOT
ATOM      1  C   UNL     1      -0.768  -1.718   0.598  1.00  0.00     0.188 C 
ENDROOT
BRANCH   1   2
ATOM      2  O   UNL     1      -0.193  -0.433   0.798  1.00  0.00    -0.376 OA
BRANCH   2   3
ATOM      3  C   UNL     1       0.108   0.386  -0.321  1.00  0.00     0.202 C 
BRANCH   3   4
ATOM      4  C   UNL     1       1.182  -0.107  -1.302  1.00  0.00     0.261 C 
BRANCH   4   5
ATOM      5  O   UNL     1       0.978  -1.431  -1.850  1.00  0.00    -0.459 OA
BRANCH   5   6
ATOM      6  C   UNL     1       1.868  -2.376  -1.453  1.00  0.00     0.368 C 
ATOM      7  O   UNL     1       2.799  -2.153  -0.679  1.00  0.00    -0.245 OA
BRANCH   6   8
ATOM      8  C   UNL     1       1.641  -3.808  -2.032  1.00  0.00     0.195 C 
ATOM      9  C   UNL     1       1.012  -4.719  -0.952  1.00  0.00     0.082 C 
ATOM     10  C   UNL     1       0.630  -4.038  -3.171  1.00  0.00     0.096 C 
ATOM     11  C   UNL     1       0.586  -5.995  -1.690  1.00  0.00     0.022 C 
ATOM     12  C   UNL     1       0.405  -5.562  -3.149  1.00  0.00     0.062 C 
BRANCH   8  13
ATOM     13  N   UNL     1       2.995  -4.382  -2.260  1.00  0.00    -0.332 N 
ATOM     14  H   UNL     1       3.632  -3.934  -1.602  1.00  0.00     0.347 HD
ATOM     15  H   UNL     1       2.875  -5.387  -2.136  1.00  0.00     0.347 HD
BRANCH  13  16
ATOM     16  C   UNL     1       3.572  -4.240  -3.588  1.00  0.00     0.261 C 
BRANCH  16  17
ATOM     17  C   UNL     1       5.072  -3.923  -3.569  1.00  0.00     0.058 C 
ATOM     18  C   UNL     1       5.879  -4.659  -2.508  1.00  0.00     0.010 C 
ENDBRANCH  16  17
ENDBRANCH  13  16
ENDBRANCH   8  13
BRANCH  12  19
ATOM     19  S   UNL     1      -1.060  -6.102  -4.064  1.00  0.00    -0.082 SA
BRANCH  19  20
ATOM     20  C   UNL     1      -2.393  -6.015  -2.973  1.00  0.00     0.191 A 
ATOM     21  N   UNL     1      -2.703  -6.910  -2.064  1.00  0.00    -0.123 NA
ATOM     22  N   UNL     1      -3.434  -5.137  -3.120  1.00  0.00    -0.309 N 
ATOM     23  N   UNL     1      -3.997  -6.668  -1.664  1.00  0.00    -0.135 NA
ATOM     24  C   UNL     1      -4.455  -5.634  -2.343  1.00  0.00     0.130 A 
ATOM     25  C   UNL     1      -3.434  -3.932  -3.905  1.00  0.00     0.154 C 
ATOM     26  C   UNL     1      -5.846  -5.117  -2.300  1.00  0.00     0.090 C 
ENDBRANCH  19  20
ENDBRANCH  12  19
ENDBRANCH   6   8
ENDBRANCH   5   6
ENDBRANCH   4   5
ENDBRANCH   3   4
ENDBRANCH   2   3
ENDBRANCH   1   2
BRANCH   1  27
ATOM     27  C   UNL     1      -1.608  -2.001  -0.659  1.00  0.00     0.188 C 
BRANCH  27  28
ATOM     28  O   UNL     1      -2.253  -0.866  -1.204  1.00  0.00    -0.376 OA
BRANCH  28  29
ATOM     29  C   UNL     1      -3.669  -0.904  -1.225  1.00  0.00     0.202 C 
BRANCH  29  30
ATOM     30  C   UNL     1      -4.297  -0.767   0.168  1.00  0.00     0.261 C 
BRANCH  30  31
ATOM     31  O   UNL     1      -3.959  -1.831   1.084  1.00  0.00    -0.460 OA
BRANCH  31  32
ATOM     32  C   UNL     1      -4.424  -3.054   0.735  1.00  0.00     0.338 C 
ATOM     33  O   UNL     1      -5.109  -3.300  -0.235  1.00  0.00    -0.246 OA
BRANCH  32  34
ATOM     34  C   UNL     1      -3.838  -4.087   1.614  1.00  0.00     0.060 A 
ATOM     35  C   UNL     1      -2.992  -5.058   1.065  1.00  0.00     0.016 A 
ATOM     36  C   UNL     1      -4.191  -4.143   2.960  1.00  0.00     0.016 A 
ATOM     37  C   UNL     1      -2.521  -6.108   1.854  1.00  0.00     0.010 A 
ATOM     38  C   UNL     1      -3.721  -5.198   3.750  1.00  0.00     0.010 A 
ATOM     39  C   UNL     1      -2.898  -6.197   3.199  1.00  0.00    -0.014 A 
BRANCH  39  40
ATOM     40  C   UNL     1      -2.482  -7.364   4.016  1.00  0.00     0.031 A 
ATOM     41  C   UNL     1      -3.466  -8.462   4.312  1.00  0.00     0.074 A 
ATOM     42  C   UNL     1      -1.223  -7.444   4.486  1.00  0.00     0.049 A 
ATOM     43  N   UNL     1      -3.330  -9.510   5.085  1.00  0.00    -0.248 NA
ATOM     44  C   UNL     1      -4.776  -8.367   3.650  1.00  0.00     0.031 C 
ATOM     45  C   UNL     1      -0.158  -6.477   4.220  1.00  0.00     0.029 A 
ATOM     46  N   UNL     1      -0.630  -8.386   5.289  1.00  0.00    -0.354 N 
ATOM     47  C   UNL     1      -4.537 -10.194   5.011  1.00  0.00     0.074 A 
ATOM     48  C   UNL     1      -5.402  -9.430   4.136  1.00  0.00     0.031 C 
ATOM     49  C   UNL     1       0.959  -6.875   4.851  1.00  0.00     0.029 A 
ATOM     50  C   UNL     1       0.676  -8.095   5.602  1.00  0.00     0.049 A 
ATOM     51  H   UNL     1      -1.095  -9.192   5.610  1.00  0.00     0.167 HD
ATOM     52  C   UNL     1      -4.891 -11.356   5.613  1.00  0.00     0.031 A 
ATOM     53  C   UNL     1       1.536  -8.724   6.425  1.00  0.00     0.031 A 
ATOM     54  C   UNL     1      -4.031 -12.114   6.487  1.00  0.00     0.049 A 
ATOM     55  C   UNL     1       1.087  -9.964   7.150  1.00  0.00     0.074 A 
ATOM     56  C   UNL     1      -4.302 -13.297   7.152  1.00  0.00     0.029 A 
ATOM     57  N   UNL     1      -2.731 -11.762   6.814  1.00  0.00    -0.354 N 
ATOM     58  N   UNL     1      -0.062 -10.593   7.084  1.00  0.00    -0.248 NA
ATOM     59  C   UNL     1       2.058 -10.582   8.064  1.00  0.00     0.031 C 
ATOM     60  C   UNL     1      -3.184 -13.634   7.923  1.00  0.00     0.029 A 
ATOM     61  C   UNL     1      -2.195 -12.693   7.689  1.00  0.00     0.049 A 
ATOM     62  H   UNL     1      -2.257 -10.969   6.473  1.00  0.00     0.167 HD
ATOM     63  C   UNL     1       0.058 -11.692   7.926  1.00  0.00     0.074 A 
ATOM     64  C   UNL     1       1.400 -11.658   8.470  1.00  0.00     0.031 C 
ATOM     65  C   UNL     1      -0.860 -12.643   8.227  1.00  0.00     0.031 A 
BRANCH  52  66
ATOM     66  C   UNL     1      -6.285 -11.868   5.376  1.00  0.00    -0.014 A 
ATOM     67  C   UNL     1      -6.661 -12.421   4.142  1.00  0.00     0.009 A 
ATOM     68  C   UNL     1      -7.221 -11.848   6.423  1.00  0.00     0.009 A 
ATOM     69  C   UNL     1      -7.953 -12.919   3.954  1.00  0.00     0.001 A 
ATOM     70  C   UNL     1      -8.503 -12.370   6.240  1.00  0.00     0.001 A 
ATOM     71  C   UNL     1      -8.871 -12.899   5.004  1.00  0.00     0.000 A 
ENDBRANCH  52  66
BRANCH  53  72
ATOM     72  C   UNL     1       2.901  -8.176   6.649  1.00  0.00    -0.014 A 
ATOM     73  C   UNL     1       4.038  -8.881   6.226  1.00  0.00     0.009 A 
ATOM     74  C   UNL     1       3.075  -6.960   7.330  1.00  0.00     0.009 A 
ATOM     75  C   UNL     1       5.318  -8.399   6.510  1.00  0.00     0.001 A 
ATOM     76  C   UNL     1       4.355  -6.463   7.582  1.00  0.00     0.001 A 
ATOM     77  C   UNL     1       5.475  -7.189   7.184  1.00  0.00     0.000 A 
ENDBRANCH  53  72
BRANCH  65  78
ATOM     78  C   UNL     1      -0.425 -13.738   9.161  1.00  0.00    -0.014 A 
ATOM     79  C   UNL     1      -0.204 -13.490  10.525  1.00  0.00     0.009 A 
ATOM     80  C   UNL     1      -0.238 -15.039   8.668  1.00  0.00     0.009 A 
ATOM     81  C   UNL     1       0.243 -14.512  11.366  1.00  0.00     0.001 A 
ATOM     82  C   UNL     1       0.177 -16.066   9.518  1.00  0.00     0.001 A 
ATOM     83  C   UNL     1       0.430 -15.799  10.862  1.00  0.00     0.000 A 
ENDBRANCH  65  78
ENDBRANCH  39  40
ENDBRANCH  32  34
ENDBRANCH  31  32
ENDBRANCH  30  31
ENDBRANCH  29  30
ENDBRANCH  28  29
ENDBRANCH  27  28
ENDBRANCH   1  27
TORSDOF 22
