REMARK SMILES O=C(OCCOCCOCCOC(=O)c1ccn(-c2cc(-c3ccncc3)nc(-c3ccccc3F)n2)n1)c1ccc(-c2c3nc(c(-c4ccccc4)c4ccc([nH]4)c(-c4ccccc4)c4nc(c(-c5ccccc5)c5ccc2[nH]5)C=C4)C=C3)cc1
REMARK SMILES IDX 7 1 6 2 5 3 4 4 3 5 2 6 1 7 39 8 40 9 86 10 41 11 85 12
REMARK SMILES IDX 42 13 43 14 44 15 79 16 45 17 84 18 78 19 80 20 46 21 83 22
REMARK SMILES IDX 77 23 76 24 47 26 69 27 54 28 68 29 55 30 58 31 67 32 81 33
REMARK SMILES IDX 56 34 57 35 66 37 82 38 59 39 48 40 49 41 53 42 50 43 52 44
REMARK SMILES IDX 51 45 70 46 71 47 75 48 72 49 74 50 73 51 60 52 61 53 65 54
REMARK SMILES IDX 62 55 64 56 63 57 8 58 9 59 10 60 11 61 12 62 13 63 14 64
REMARK SMILES IDX 15 65 16 66 38 67 17 68 18 69 19 70 20 71 37 72 21 73 29 74
REMARK SMILES IDX 28 75 22 76 23 77 27 78 24 79 26 80 25 81 30 82 31 83 35 84
REMARK SMILES IDX 32 85 34 86 36 87 33 88
REMARK H PARENT 80 25 58 36
REMARK Flexibility Score: inf
ROOT
ATOM      1  C   UNL     1       3.546   1.087   1.405  1.00  0.00     0.188 C 
ENDROOT
BRANCH   1   2
ATOM      2  O   UNL     1       4.806   1.273   0.770  1.00  0.00    -0.376 OA
BRANCH   2   3
ATOM      3  C   UNL     1       5.201   0.237  -0.115  1.00  0.00     0.202 C 
BRANCH   3   4
ATOM      4  C   UNL     1       4.731   0.491  -1.544  1.00  0.00     0.261 C 
BRANCH   4   5
ATOM      5  O   UNL     1       3.319   0.733  -1.705  1.00  0.00    -0.460 OA
BRANCH   5   6
ATOM      6  C   UNL     1       2.284  -0.128  -1.751  1.00  0.00     0.338 C 
ATOM      7  O   UNL     1       1.216   0.214  -2.251  1.00  0.00    -0.246 OA
BRANCH   6   8
ATOM      8  C   UNL     1       2.326  -1.426  -1.041  1.00  0.00     0.060 A 
ATOM      9  C   UNL     1       3.381  -2.332  -1.141  1.00  0.00     0.016 A 
ATOM     10  C   UNL     1       1.165  -1.791  -0.334  1.00  0.00     0.016 A 
ATOM     11  C   UNL     1       3.277  -3.591  -0.556  1.00  0.00     0.010 A 
ATOM     12  C   UNL     1       1.046  -3.059   0.228  1.00  0.00     0.010 A 
ATOM     13  C   UNL     1       2.090  -3.976   0.074  1.00  0.00    -0.014 A 
BRANCH  13  14
ATOM     14  C   UNL     1       1.924  -5.401   0.367  1.00  0.00     0.031 A 
ATOM     15  C   UNL     1       2.643  -6.015   1.518  1.00  0.00     0.074 A 
ATOM     16  C   UNL     1       1.078  -6.155  -0.365  1.00  0.00     0.049 A 
ATOM     17  N   UNL     1       3.359  -7.097   1.534  1.00  0.00    -0.248 NA
ATOM     18  C   UNL     1       2.523  -5.364   2.828  1.00  0.00     0.031 C 
ATOM     19  C   UNL     1       0.092  -5.683  -1.343  1.00  0.00     0.029 A 
ATOM     20  N   UNL     1       0.848  -7.501  -0.305  1.00  0.00    -0.354 N 
ATOM     21  C   UNL     1       3.642  -7.362   2.873  1.00  0.00     0.074 A 
ATOM     22  C   UNL     1       3.137  -6.240   3.626  1.00  0.00     0.031 C 
ATOM     23  C   UNL     1      -0.771  -6.682  -1.616  1.00  0.00     0.029 A 
ATOM     24  C   UNL     1      -0.322  -7.886  -0.937  1.00  0.00     0.049 A 
ATOM     25  H   UNL     1       1.454  -8.134   0.142  1.00  0.00     0.167 HD
ATOM     26  C   UNL     1       4.141  -8.554   3.303  1.00  0.00     0.031 A 
ATOM     27  C   UNL     1      -0.936  -9.088  -0.875  1.00  0.00     0.031 A 
ATOM     28  C   UNL     1       4.788  -9.297   2.261  1.00  0.00     0.049 A 
ATOM     29  C   UNL     1       0.035 -10.104  -0.430  1.00  0.00     0.074 A 
ATOM     30  C   UNL     1       5.883  -9.098   1.447  1.00  0.00     0.029 A 
ATOM     31  N   UNL     1       4.144 -10.401   1.766  1.00  0.00    -0.354 N 
ATOM     32  N   UNL     1       1.024 -10.540  -1.155  1.00  0.00    -0.248 NA
ATOM     33  C   UNL     1       0.085 -10.472   0.977  1.00  0.00     0.031 C 
ATOM     34  C   UNL     1       5.611  -9.834   0.258  1.00  0.00     0.029 A 
ATOM     35  C   UNL     1       4.355 -10.422   0.412  1.00  0.00     0.049 A 
ATOM     36  H   UNL     1       3.625 -11.056   2.286  1.00  0.00     0.167 HD
ATOM     37  C   UNL     1       2.008 -10.880  -0.243  1.00  0.00     0.074 A 
ATOM     38  C   UNL     1       1.317 -10.982   1.035  1.00  0.00     0.031 C 
ATOM     39  C   UNL     1       3.332 -10.756  -0.555  1.00  0.00     0.031 A 
BRANCH  26  40
ATOM     40  C   UNL     1       3.789  -9.196   4.624  1.00  0.00    -0.014 A 
ATOM     41  C   UNL     1       4.459 -10.368   5.026  1.00  0.00     0.009 A 
ATOM     42  C   UNL     1       2.633  -8.853   5.348  1.00  0.00     0.009 A 
ATOM     43  C   UNL     1       3.969 -11.175   6.062  1.00  0.00     0.001 A 
ATOM     44  C   UNL     1       2.162  -9.635   6.409  1.00  0.00     0.001 A 
ATOM     45  C   UNL     1       2.818 -10.809   6.752  1.00  0.00     0.000 A 
ENDBRANCH  26  40
BRANCH  27  46
ATOM     46  C   UNL     1      -2.377  -9.363  -1.024  1.00  0.00    -0.014 A 
ATOM     47  C   UNL     1      -2.844 -10.630  -1.398  1.00  0.00     0.009 A 
ATOM     48  C   UNL     1      -3.323  -8.412  -0.594  1.00  0.00     0.009 A 
ATOM     49  C   UNL     1      -4.210 -10.933  -1.339  1.00  0.00     0.001 A 
ATOM     50  C   UNL     1      -4.686  -8.710  -0.546  1.00  0.00     0.001 A 
ATOM     51  C   UNL     1      -5.129  -9.975  -0.911  1.00  0.00     0.000 A 
ENDBRANCH  27  46
BRANCH  39  52
ATOM     52  C   UNL     1       3.701 -10.584  -2.007  1.00  0.00    -0.014 A 
ATOM     53  C   UNL     1       3.270  -9.479  -2.760  1.00  0.00     0.009 A 
ATOM     54  C   UNL     1       4.623 -11.468  -2.586  1.00  0.00     0.009 A 
ATOM     55  C   UNL     1       3.717  -9.285  -4.069  1.00  0.00     0.001 A 
ATOM     56  C   UNL     1       5.088 -11.262  -3.888  1.00  0.00     0.001 A 
ATOM     57  C   UNL     1       4.630 -10.175  -4.631  1.00  0.00     0.000 A 
ENDBRANCH  39  52
ENDBRANCH  13  14
ENDBRANCH   6   8
ENDBRANCH   5   6
ENDBRANCH   4   5
ENDBRANCH   3   4
ENDBRANCH   2   3
ENDBRANCH   1   2
BRANCH   1  58
ATOM     58  C   UNL     1       2.479   2.142   1.045  1.00  0.00     0.188 C 
BRANCH  58  59
ATOM     59  O   UNL     1       2.747   3.542   1.014  1.00  0.00    -0.376 OA
BRANCH  59  60
ATOM     60  C   UNL     1       4.074   4.019   1.119  1.00  0.00     0.202 C 
BRANCH  60  61
ATOM     61  C   UNL     1       4.497   4.274   2.567  1.00  0.00     0.261 C 
BRANCH  61  62
ATOM     62  O   UNL     1       4.175   3.195   3.460  1.00  0.00    -0.458 OA
BRANCH  62  63
ATOM     63  C   UNL     1       2.960   3.301   4.081  1.00  0.00     0.358 C 
ATOM     64  O   UNL     1       2.202   4.256   3.985  1.00  0.00    -0.244 OA
BRANCH  63  65
ATOM     65  C   UNL     1       2.687   2.182   4.992  1.00  0.00     0.170 A 
ATOM     66  C   UNL     1       3.059   2.160   6.358  1.00  0.00     0.058 A 
ATOM     67  N   UNL     1       1.935   1.100   4.671  1.00  0.00    -0.159 NA
ATOM     68  C   UNL     1       2.311   1.154   6.907  1.00  0.00     0.118 A 
ATOM     69  N   UNL     1       1.580   0.592   5.885  1.00  0.00    -0.222 N 
BRANCH  69  70
ATOM     70  C   UNL     1       0.477  -0.288   6.074  1.00  0.00     0.158 A 
ATOM     71  C   UNL     1       0.258  -1.343   5.208  1.00  0.00     0.078 A 
ATOM     72  N   UNL     1      -0.300  -0.039   7.154  1.00  0.00    -0.209 NA
ATOM     73  C   UNL     1      -0.792  -2.178   5.552  1.00  0.00     0.077 A 
ATOM     74  C   UNL     1      -1.359  -0.837   7.324  1.00  0.00     0.165 A 
ATOM     75  N   UNL     1      -1.635  -1.905   6.569  1.00  0.00    -0.228 NA
BRANCH  73  76
ATOM     76  C   UNL     1      -1.037  -3.492   4.947  1.00  0.00     0.003 A 
ATOM     77  C   UNL     1      -0.116  -4.534   5.106  1.00  0.00     0.030 A 
ATOM     78  C   UNL     1      -2.263  -3.796   4.344  1.00  0.00     0.030 A 
ATOM     79  C   UNL     1      -0.451  -5.800   4.653  1.00  0.00     0.111 A 
ATOM     80  C   UNL     1      -2.501  -5.093   3.914  1.00  0.00     0.111 A 
ATOM     81  N   UNL     1      -1.615  -6.100   4.045  1.00  0.00    -0.265 NA
ENDBRANCH  73  76
BRANCH  74  82
ATOM     82  C   UNL     1      -2.339  -0.452   8.323  1.00  0.00     0.055 A 
ATOM     83  C   UNL     1      -3.167   0.668   8.123  1.00  0.00     0.015 A 
ATOM     84  C   UNL     1      -2.501  -1.191   9.496  1.00  0.00     0.134 A 
ATOM     85  C   UNL     1      -4.131   1.023   9.071  1.00  0.00     0.001 A 
ATOM     86  C   UNL     1      -3.455  -0.838  10.449  1.00  0.00     0.040 A 
ATOM     87  F   UNL     1      -1.722  -2.257   9.737  1.00  0.00    -0.206 F 
ATOM     88  C   UNL     1      -4.274   0.269  10.234  1.00  0.00     0.003 A 
ENDBRANCH  74  82
ENDBRANCH  69  70
ENDBRANCH  63  65
ENDBRANCH  62  63
ENDBRANCH  61  62
ENDBRANCH  60  61
ENDBRANCH  59  60
ENDBRANCH  58  59
ENDBRANCH   1  58
TORSDOF 20
