REMARK SMILES CC(=O)O[C@@H]1CC[C@@]23C(=O)O[C@]4(CC[C@]2(O)C1)[C@H]3CC[C@]1(C)[C@H](C(=O)OCCOCCOCCOC(=O)c2ccc(-c3c5nc(c(-c6ccccc6)c6ccc([nH]6)c(-c6ccccc6)c6nc(c(-c7ccccc7)c7ccc3[nH]7)C=C6)C=C5)cc2)CC[C@@H]14
REMARK SMILES IDX 30 1 29 2 28 3 27 4 26 5 24 6 25 7 23 8 5 9 6 10 17 11 7 12
REMARK SMILES IDX 15 13 8 14 14 15 9 16 18 17 13 18 10 19 11 20 12 21 19 22
REMARK SMILES IDX 88 23 20 24 21 25 87 26 22 27 86 28 4 29 2 30 1 31 3 32
REMARK SMILES IDX 16 33 31 35 32 36 33 37 34 38 35 39 36 40 37 41 38 42 39 43
REMARK SMILES IDX 85 44 40 45 84 46 41 47 42 48 43 49 78 50 44 51 83 52 77 53
REMARK SMILES IDX 79 54 45 55 82 56 76 57 75 58 46 60 68 61 53 62 67 63 54 64
REMARK SMILES IDX 57 65 66 66 80 67 55 68 56 69 65 71 81 72 58 73 47 74 48 75
REMARK SMILES IDX 52 76 49 77 51 78 50 79 69 80 70 81 74 82 71 83 73 84 72 85
REMARK SMILES IDX 59 86 60 87 64 88 61 89 63 90 62 91
REMARK H PARENT 16 34 79 59 57 70
REMARK Flexibility Score: inf
ROOT
ATOM      1  C   UNL     1      -1.609 -12.751   4.558  1.00  0.00     0.188 C 
ENDROOT
BRANCH   1   2
ATOM      2  O   UNL     1      -2.691 -12.213   5.310  1.00  0.00    -0.376 OA
BRANCH   2   3
ATOM      3  C   UNL     1      -3.764 -11.578   4.630  1.00  0.00     0.202 C 
BRANCH   3   4
ATOM      4  C   UNL     1      -3.487 -10.148   4.152  1.00  0.00     0.261 C 
BRANCH   4   5
ATOM      5  O   UNL     1      -2.311 -10.030   3.323  1.00  0.00    -0.463 OA
BRANCH   5   6
ATOM      6  C   UNL     1      -1.212  -9.539   3.935  1.00  0.00     0.309 C 
ATOM      7  O   UNL     1      -1.209  -9.140   5.098  1.00  0.00    -0.252 OA
BRANCH   6   8
ATOM      8  C   UNL     1       0.095  -9.594   3.130  1.00  0.00     0.105 C 
ATOM      9  C   UNL     1       0.212  -3.567  -2.187  1.00  0.00     0.179 C 
ATOM     10  C   UNL     1       0.032  -3.834  -0.712  1.00  0.00     0.047 C 
ATOM     11  C   UNL     1       0.348  -4.788  -3.110  1.00  0.00     0.081 C 
ATOM     12  C   UNL     1       0.614  -5.175  -0.339  1.00  0.00     0.026 C 
ATOM     13  C   UNL     1       0.475  -6.220  -2.517  1.00  0.00     0.085 C 
ATOM     14  C   UNL     1      -0.134  -6.497  -1.195  1.00  0.00     0.103 C 
ATOM     15  C   UNL     1       1.988  -6.681  -2.209  1.00  0.00     0.041 C 
ATOM     16  C   UNL     1      -1.036  -6.648  -0.071  1.00  0.00     0.316 C 
ATOM     17  C   UNL     1       0.200  -8.182  -1.030  1.00  0.00     0.054 C 
ATOM     18  C   UNL     1       2.276  -7.293  -0.680  1.00  0.00     0.052 C 
ATOM     19  O   UNL     1      -2.171  -6.293   0.131  1.00  0.00    -0.251 OA
ATOM     20  O   UNL     1      -0.091  -7.162   0.845  1.00  0.00    -0.458 OA
ATOM     21  C   UNL     1       1.009  -7.886   0.140  1.00  0.00     0.120 C 
ATOM     22  C   UNL     1      -0.831  -9.305  -0.759  1.00  0.00     0.009 C 
ATOM     23  C   UNL     1       1.447  -8.916   1.144  1.00  0.00     0.040 C 
ATOM     24  C   UNL     1      -0.995  -9.758   0.711  1.00  0.00     0.008 C 
ATOM     25  C   UNL     1       0.297  -9.883   1.581  1.00  0.00    -0.013 C 
ATOM     26  C   UNL     1       1.928  -8.208   2.423  1.00  0.00     0.009 C 
ATOM     27  C   UNL     1       0.934 -11.280   1.362  1.00  0.00     0.013 C 
ATOM     28  C   UNL     1       0.742  -8.222   3.356  1.00  0.00     0.016 C 
BRANCH   9  29
ATOM     29  O   UNL     1       1.131  -2.466  -2.466  1.00  0.00    -0.462 OA
BRANCH  29  30
ATOM     30  C   UNL     1       2.410  -2.289  -2.070  1.00  0.00     0.302 C 
ATOM     31  C   UNL     1       3.340  -3.446  -2.200  1.00  0.00     0.139 C 
ATOM     32  O   UNL     1       2.822  -1.189  -1.714  1.00  0.00    -0.253 OA
ENDBRANCH  29  30
ENDBRANCH   9  29
BRANCH  13  33
ATOM     33  O   UNL     1      -0.057  -7.106  -3.510  1.00  0.00    -0.389 OA
ATOM     34  H   UNL     1      -0.002  -8.020  -3.189  1.00  0.00     0.211 HD
ENDBRANCH  13  33
ENDBRANCH   6   8
ENDBRANCH   5   6
ENDBRANCH   4   5
ENDBRANCH   3   4
ENDBRANCH   2   3
ENDBRANCH   1   2
BRANCH   1  35
ATOM     35  C   UNL     1      -1.711 -12.885   3.038  1.00  0.00     0.188 C 
BRANCH  35  36
ATOM     36  O   UNL     1      -2.898 -13.531   2.608  1.00  0.00    -0.376 OA
BRANCH  36  37
ATOM     37  C   UNL     1      -2.683 -14.464   1.556  1.00  0.00     0.202 C 
BRANCH  37  38
ATOM     38  C   UNL     1      -2.412 -15.838   2.174  1.00  0.00     0.261 C 
BRANCH  38  39
ATOM     39  O   UNL     1      -1.240 -15.886   3.017  1.00  0.00    -0.460 OA
BRANCH  39  40
ATOM     40  C   UNL     1      -0.046 -15.698   2.409  1.00  0.00     0.338 C 
ATOM     41  O   UNL     1       0.149 -15.523   1.218  1.00  0.00    -0.246 OA
BRANCH  40  42
ATOM     42  C   UNL     1       0.998 -15.532   3.446  1.00  0.00     0.060 A 
ATOM     43  C   UNL     1       1.876 -14.445   3.352  1.00  0.00     0.016 A 
ATOM     44  C   UNL     1       1.137 -16.455   4.483  1.00  0.00     0.016 A 
ATOM     45  C   UNL     1       2.919 -14.295   4.271  1.00  0.00     0.010 A 
ATOM     46  C   UNL     1       2.193 -16.317   5.391  1.00  0.00     0.010 A 
ATOM     47  C   UNL     1       3.109 -15.256   5.272  1.00  0.00    -0.014 A 
BRANCH  47  48
ATOM     48  C   UNL     1       4.360 -15.270   6.073  1.00  0.00     0.031 A 
ATOM     49  C   UNL     1       5.447 -16.239   5.689  1.00  0.00     0.074 A 
ATOM     50  C   UNL     1       4.547 -14.436   7.113  1.00  0.00     0.049 A 
ATOM     51  N   UNL     1       6.569 -16.518   6.303  1.00  0.00    -0.248 NA
ATOM     52  C   UNL     1       5.239 -16.994   4.442  1.00  0.00     0.031 C 
ATOM     53  C   UNL     1       3.617 -13.398   7.552  1.00  0.00     0.029 A 
ATOM     54  N   UNL     1       5.596 -14.344   7.997  1.00  0.00    -0.354 N 
ATOM     55  C   UNL     1       7.194 -17.484   5.523  1.00  0.00     0.074 A 
ATOM     56  C   UNL     1       6.317 -17.763   4.407  1.00  0.00     0.031 C 
ATOM     57  C   UNL     1       4.130 -12.782   8.633  1.00  0.00     0.029 A 
ATOM     58  C   UNL     1       5.401 -13.412   8.988  1.00  0.00     0.049 A 
ATOM     59  H   UNL     1       6.409 -14.895   7.928  1.00  0.00     0.167 HD
ATOM     60  C   UNL     1       8.394 -18.082   5.712  1.00  0.00     0.031 A 
ATOM     61  C   UNL     1       6.146 -13.125  10.074  1.00  0.00     0.031 A 
ATOM     62  C   UNL     1       9.266 -17.822   6.825  1.00  0.00     0.049 A 
ATOM     63  C   UNL     1       7.423 -13.890  10.323  1.00  0.00     0.074 A 
ATOM     64  C   UNL     1      10.489 -18.403   7.116  1.00  0.00     0.029 A 
ATOM     65  N   UNL     1       9.009 -16.903   7.828  1.00  0.00    -0.354 N 
ATOM     66  N   UNL     1       7.996 -14.812   9.589  1.00  0.00    -0.248 NA
ATOM     67  C   UNL     1       8.157 -13.568  11.558  1.00  0.00     0.031 C 
ATOM     68  C   UNL     1      10.952 -17.864   8.320  1.00  0.00     0.029 A 
ATOM     69  C   UNL     1      10.045 -16.908   8.746  1.00  0.00     0.049 A 
ATOM     70  H   UNL     1       8.210 -16.331   7.880  1.00  0.00     0.167 HD
ATOM     71  C   UNL     1       9.171 -15.151  10.252  1.00  0.00     0.074 A 
ATOM     72  C   UNL     1       9.238 -14.325  11.438  1.00  0.00     0.031 C 
ATOM     73  C   UNL     1      10.110 -16.066   9.911  1.00  0.00     0.031 A 
BRANCH  60  74
ATOM     74  C   UNL     1       8.828 -19.100   4.696  1.00  0.00    -0.014 A 
ATOM     75  C   UNL     1       9.256 -18.709   3.418  1.00  0.00     0.009 A 
ATOM     76  C   UNL     1       8.855 -20.461   5.037  1.00  0.00     0.009 A 
ATOM     77  C   UNL     1       9.682 -19.665   2.493  1.00  0.00     0.001 A 
ATOM     78  C   UNL     1       9.306 -21.411   4.120  1.00  0.00     0.001 A 
ATOM     79  C   UNL     1       9.713 -21.013   2.847  1.00  0.00     0.000 A 
ENDBRANCH  60  74
BRANCH  61  80
ATOM     80  C   UNL     1       5.697 -12.099  11.056  1.00  0.00    -0.014 A 
ATOM     81  C   UNL     1       6.436 -10.921  11.251  1.00  0.00     0.009 A 
ATOM     82  C   UNL     1       4.570 -12.330  11.860  1.00  0.00     0.009 A 
ATOM     83  C   UNL     1       6.079 -10.019  12.257  1.00  0.00     0.001 A 
ATOM     84  C   UNL     1       4.196 -11.410  12.841  1.00  0.00     0.001 A 
ATOM     85  C   UNL     1       4.960 -10.263  13.050  1.00  0.00     0.000 A 
ENDBRANCH  61  80
BRANCH  73  86
ATOM     86  C   UNL     1      11.321 -16.181  10.795  1.00  0.00    -0.014 A 
ATOM     87  C   UNL     1      11.247 -16.761  12.070  1.00  0.00     0.009 A 
ATOM     88  C   UNL     1      12.566 -15.734  10.323  1.00  0.00     0.009 A 
ATOM     89  C   UNL     1      12.389 -16.859  12.868  1.00  0.00     0.001 A 
ATOM     90  C   UNL     1      13.711 -15.861  11.110  1.00  0.00     0.001 A 
ATOM     91  C   UNL     1      13.620 -16.414  12.386  1.00  0.00     0.000 A 
ENDBRANCH  73  86
ENDBRANCH  47  48
ENDBRANCH  40  42
ENDBRANCH  39  40
ENDBRANCH  38  39
ENDBRANCH  37  38
ENDBRANCH  36  37
ENDBRANCH  35  36
ENDBRANCH   1  35
TORSDOF 20
