REMARK SMILES CCn1c(N2CCC(C(=O)OCCOCCOCCOC(=O)c3ccc(-c4c5nc(c(-c6ccccc6)c6ccc([nH]6)c(-c6ccccc6)c6nc(c(-c7ccccc7)c7ccc4[nH]7)C=C6)C=C5)cc3)CC2)nc2cc(C)ccc21
REMARK SMILES IDX 15 1 14 2 13 3 12 4 11 5 9 6 10 7 8 8 5 9 6 10 72 11 7 12
REMARK SMILES IDX 71 13 4 14 3 15 80 16 73 17 74 18 79 19 75 20 78 21 76 22
REMARK SMILES IDX 77 23 2 24 1 25 16 26 17 27 18 28 19 29 20 30 21 31 22 32
REMARK SMILES IDX 23 33 24 34 70 35 25 36 69 37 26 38 27 39 28 40 63 41 29 42
REMARK SMILES IDX 68 43 62 44 64 45 30 46 67 47 61 48 60 49 31 51 53 52 38 53
REMARK SMILES IDX 52 54 39 55 42 56 51 57 65 58 40 59 41 60 50 62 66 63 43 64
REMARK SMILES IDX 32 65 33 66 37 67 34 68 36 69 35 70 54 71 55 72 59 73 56 74
REMARK SMILES IDX 58 75 57 76 44 77 45 78 49 79 46 80 48 81 47 82
REMARK H PARENT 64 50 42 61
REMARK Flexibility Score: inf
ROOT
ATOM      1  C   UNL     1      -0.808  10.238   2.928  1.00  0.00     0.188 C 
ENDROOT
BRANCH   1   2
ATOM      2  O   UNL     1       0.212  11.210   3.071  1.00  0.00    -0.376 OA
BRANCH   2   3
ATOM      3  C   UNL     1       1.375  11.105   2.260  1.00  0.00     0.202 C 
BRANCH   3   4
ATOM      4  C   UNL     1       2.178   9.807   2.377  1.00  0.00     0.261 C 
BRANCH   4   5
ATOM      5  O   UNL     1       1.594   8.716   1.620  1.00  0.00    -0.463 OA
BRANCH   5   6
ATOM      6  C   UNL     1       1.535   7.541   2.282  1.00  0.00     0.309 C 
ATOM      7  O   UNL     1       2.043   7.378   3.391  1.00  0.00    -0.252 OA
BRANCH   6   8
ATOM      8  C   UNL     1       0.749   6.406   1.625  1.00  0.00     0.103 C 
ATOM      9  N   UNL     1       0.113   3.976   0.191  1.00  0.00    -0.342 N 
ATOM     10  C   UNL     1      -0.784   5.129   0.091  1.00  0.00     0.120 C 
ATOM     11  C   UNL     1       0.927   3.922   1.398  1.00  0.00     0.120 C 
ATOM     12  C   UNL     1      -0.049   6.471   0.319  1.00  0.00     0.037 C 
ATOM     13  C   UNL     1       1.706   5.216   1.553  1.00  0.00     0.037 C 
BRANCH   9  14
ATOM     14  C   UNL     1       0.664   3.505  -0.950  1.00  0.00     0.206 A 
ATOM     15  N   UNL     1       1.016   2.173  -1.117  1.00  0.00    -0.310 N 
ATOM     16  C   UNL     1       1.725   2.091  -2.296  1.00  0.00     0.070 A 
ATOM     17  N   UNL     1       0.945   4.217  -2.010  1.00  0.00    -0.213 NA
ATOM     18  C   UNL     1       1.635   3.377  -2.830  1.00  0.00     0.091 A 
ATOM     19  C   UNL     1       2.417   1.074  -2.962  1.00  0.00     0.029 A 
ATOM     20  C   UNL     1       2.226   3.671  -4.064  1.00  0.00     0.034 A 
ATOM     21  C   UNL     1       2.999   1.382  -4.197  1.00  0.00     0.006 A 
ATOM     22  C   UNL     1       2.904   2.659  -4.756  1.00  0.00    -0.049 A 
ATOM     23  C   UNL     1       3.536   2.974  -6.077  1.00  0.00     0.044 C 
BRANCH  15  24
ATOM     24  C   UNL     1       0.586   1.112  -0.223  1.00  0.00     0.122 C 
ATOM     25  C   UNL     1       0.815  -0.332  -0.636  1.00  0.00     0.028 C 
ENDBRANCH  15  24
ENDBRANCH   9  14
ENDBRANCH   6   8
ENDBRANCH   5   6
ENDBRANCH   4   5
ENDBRANCH   3   4
ENDBRANCH   2   3
ENDBRANCH   1   2
BRANCH   1  26
ATOM     26  C   UNL     1      -1.134   9.700   1.530  1.00  0.00     0.188 C 
BRANCH  26  27
ATOM     27  O   UNL     1      -1.040  10.510   0.378  1.00  0.00    -0.376 OA
BRANCH  27  28
ATOM     28  C   UNL     1      -1.709  11.759   0.410  1.00  0.00     0.202 C 
BRANCH  28  29
ATOM     29  C   UNL     1      -3.232  11.735   0.632  1.00  0.00     0.261 C 
BRANCH  29  30
ATOM     30  O   UNL     1      -3.601  11.014   1.825  1.00  0.00    -0.460 OA
BRANCH  30  31
ATOM     31  C   UNL     1      -4.568  10.060   1.669  1.00  0.00     0.338 C 
ATOM     32  O   UNL     1      -5.371   9.976   0.773  1.00  0.00    -0.246 OA
BRANCH  31  33
ATOM     33  C   UNL     1      -4.223   8.934   2.587  1.00  0.00     0.060 A 
ATOM     34  C   UNL     1      -3.879   9.129   3.929  1.00  0.00     0.016 A 
ATOM     35  C   UNL     1      -4.004   7.688   1.984  1.00  0.00     0.016 A 
ATOM     36  C   UNL     1      -3.270   8.091   4.652  1.00  0.00     0.010 A 
ATOM     37  C   UNL     1      -3.364   6.672   2.697  1.00  0.00     0.010 A 
ATOM     38  C   UNL     1      -2.979   6.867   4.033  1.00  0.00    -0.014 A 
BRANCH  38  39
ATOM     39  C   UNL     1      -2.645   5.666   4.819  1.00  0.00     0.031 A 
ATOM     40  C   UNL     1      -3.753   5.176   5.652  1.00  0.00     0.074 A 
ATOM     41  C   UNL     1      -1.504   4.950   4.899  1.00  0.00     0.049 A 
ATOM     42  N   UNL     1      -3.684   5.124   6.941  1.00  0.00    -0.248 NA
ATOM     43  C   UNL     1      -5.061   4.860   5.085  1.00  0.00     0.031 C 
ATOM     44  C   UNL     1      -0.156   5.383   4.595  1.00  0.00     0.029 A 
ATOM     45  N   UNL     1      -1.321   3.637   5.290  1.00  0.00    -0.354 N 
ATOM     46  C   UNL     1      -4.882   4.597   7.361  1.00  0.00     0.074 A 
ATOM     47  C   UNL     1      -5.738   4.565   6.196  1.00  0.00     0.031 C 
ATOM     48  C   UNL     1       0.694   4.335   4.661  1.00  0.00     0.029 A 
ATOM     49  C   UNL     1      -0.059   3.134   4.994  1.00  0.00     0.049 A 
ATOM     50  H   UNL     1      -2.019   3.107   5.738  1.00  0.00     0.167 HD
ATOM     51  C   UNL     1      -4.996   4.041   8.593  1.00  0.00     0.031 A 
ATOM     52  C   UNL     1       0.552   1.975   5.353  1.00  0.00     0.031 A 
ATOM     53  C   UNL     1      -3.955   4.471   9.498  1.00  0.00     0.049 A 
ATOM     54  C   UNL     1       0.151   1.756   6.763  1.00  0.00     0.074 A 
ATOM     55  C   UNL     1      -3.525   5.701   9.962  1.00  0.00     0.029 A 
ATOM     56  N   UNL     1      -2.958   3.584   9.824  1.00  0.00    -0.354 N 
ATOM     57  N   UNL     1       0.660   2.418   7.757  1.00  0.00    -0.248 NA
ATOM     58  C   UNL     1      -1.072   1.020   7.061  1.00  0.00     0.031 C 
ATOM     59  C   UNL     1      -2.120   5.573  10.159  1.00  0.00     0.029 A 
ATOM     60  C   UNL     1      -1.766   4.267   9.829  1.00  0.00     0.049 A 
ATOM     61  H   UNL     1      -3.076   2.626  10.019  1.00  0.00     0.167 HD
ATOM     62  C   UNL     1      -0.406   2.589   8.622  1.00  0.00     0.074 A 
ATOM     63  C   UNL     1      -1.392   1.595   8.220  1.00  0.00     0.031 C 
ATOM     64  C   UNL     1      -0.505   3.712   9.389  1.00  0.00     0.031 A 
BRANCH  51  65
ATOM     65  C   UNL     1      -5.877   2.853   8.841  1.00  0.00    -0.014 A 
ATOM     66  C   UNL     1      -6.360   2.031   7.802  1.00  0.00     0.009 A 
ATOM     67  C   UNL     1      -6.055   2.389  10.152  1.00  0.00     0.009 A 
ATOM     68  C   UNL     1      -7.013   0.825   8.051  1.00  0.00     0.001 A 
ATOM     69  C   UNL     1      -6.666   1.156  10.405  1.00  0.00     0.001 A 
ATOM     70  C   UNL     1      -7.149   0.378   9.356  1.00  0.00     0.000 A 
ENDBRANCH  51  65
BRANCH  52  71
ATOM     71  C   UNL     1       0.546   0.776   4.466  1.00  0.00    -0.014 A 
ATOM     72  C   UNL     1      -0.374   0.616   3.418  1.00  0.00     0.009 A 
ATOM     73  C   UNL     1       1.403  -0.298   4.764  1.00  0.00     0.009 A 
ATOM     74  C   UNL     1      -0.469  -0.598   2.729  1.00  0.00     0.001 A 
ATOM     75  C   UNL     1       1.323  -1.504   4.057  1.00  0.00     0.001 A 
ATOM     76  C   UNL     1       0.379  -1.657   3.046  1.00  0.00     0.000 A 
ENDBRANCH  52  71
BRANCH  64  77
ATOM     77  C   UNL     1       0.718   4.596   9.499  1.00  0.00    -0.014 A 
ATOM     78  C   UNL     1       1.187   4.952  10.770  1.00  0.00     0.009 A 
ATOM     79  C   UNL     1       1.328   5.190   8.380  1.00  0.00     0.009 A 
ATOM     80  C   UNL     1       2.228   5.874  10.917  1.00  0.00     0.001 A 
ATOM     81  C   UNL     1       2.387   6.091   8.522  1.00  0.00     0.001 A 
ATOM     82  C   UNL     1       2.830   6.441   9.794  1.00  0.00     0.000 A 
ENDBRANCH  64  77
ENDBRANCH  38  39
ENDBRANCH  31  33
ENDBRANCH  30  31
ENDBRANCH  29  30
ENDBRANCH  28  29
ENDBRANCH  27  28
ENDBRANCH  26  27
ENDBRANCH   1  26
TORSDOF 19
