REMARK SMILES C=CCN(CC(=O)OCCOCCOCCOC(=O)c1ccc(-c2c3nc(c(-c4ccccc4)c4ccc([nH]4)c(-c4ccccc4)c4nc(c(-c5ccccc5)c5ccc2[nH]5)C=C4)C=C3)cc1)c1ccc([N+](=O)[O-])cc1Br
REMARK SMILES IDX 12 1 11 2 10 3 9 4 8 5 6 6 7 7 5 8 4 9 3 10 2 11 1 12 68 13
REMARK SMILES IDX 69 14 76 15 70 16 75 17 77 18 71 19 72 20 73 21 74 22 13 23
REMARK SMILES IDX 14 24 15 25 16 26 17 27 18 28 19 29 20 30 21 31 67 32 22 33
REMARK SMILES IDX 66 34 23 35 24 36 25 37 60 38 26 39 65 40 59 41 61 42 27 43
REMARK SMILES IDX 64 44 58 45 57 46 28 48 50 49 35 50 49 51 36 52 39 53 48 54
REMARK SMILES IDX 62 55 37 56 38 57 47 59 63 60 40 61 29 62 30 63 34 64 31 65
REMARK SMILES IDX 33 66 32 67 51 68 52 69 56 70 53 71 55 72 54 73 41 74 42 75
REMARK SMILES IDX 46 76 43 77 45 78 44 79
REMARK H PARENT 61 47 39 58
REMARK Flexibility Score: inf
ROOT
ATOM      1  C   UNL     1      -4.790   0.639  -4.641  1.00  0.00     0.188 C 
ENDROOT
BRANCH   1   2
ATOM      2  O   UNL     1      -6.073   0.089  -4.352  1.00  0.00    -0.376 OA
BRANCH   2   3
ATOM      3  C   UNL     1      -6.408  -0.188  -2.995  1.00  0.00     0.202 C 
BRANCH   3   4
ATOM      4  C   UNL     1      -5.649  -1.361  -2.371  1.00  0.00     0.261 C 
BRANCH   4   5
ATOM      5  O   UNL     1      -4.247  -1.059  -2.235  1.00  0.00    -0.462 OA
BRANCH   5   6
ATOM      6  C   UNL     1      -3.378  -2.075  -2.481  1.00  0.00     0.325 C 
ATOM      7  O   UNL     1      -3.715  -3.243  -2.648  1.00  0.00    -0.250 OA
BRANCH   6   8
ATOM      8  C   UNL     1      -1.936  -1.591  -2.679  1.00  0.00     0.239 C 
BRANCH   8   9
ATOM      9  N   UNL     1      -1.486  -0.514  -1.771  1.00  0.00    -0.356 N 
BRANCH   9  10
ATOM     10  C   UNL     1      -1.393  -0.809  -0.336  1.00  0.00     0.144 C 
BRANCH  10  11
ATOM     11  C   UNL     1       0.022  -1.171   0.024  1.00  0.00    -0.014 C 
ATOM     12  C   UNL     1       0.855  -0.387   0.724  1.00  0.00     0.006 C 
ENDBRANCH  10  11
ENDBRANCH   9  10
BRANCH   9  13
ATOM     13  C   UNL     1      -0.725   0.557  -2.251  1.00  0.00     0.052 A 
ATOM     14  C   UNL     1      -1.129   1.862  -1.886  1.00  0.00     0.034 A 
ATOM     15  C   UNL     1       0.442   0.444  -3.045  1.00  0.00     0.048 A 
ATOM     16  C   UNL     1      -0.457   3.006  -2.332  1.00  0.00     0.088 A 
ATOM     17  C   UNL     1       1.146   1.580  -3.471  1.00  0.00     0.103 A 
ATOM     18  Br  UNL     1       1.221  -1.221  -3.543  1.00  0.00    -0.048 Br
ATOM     19  C   UNL     1       0.677   2.844  -3.120  1.00  0.00     0.270 A 
BRANCH  19  20
ATOM     20  N   UNL     1       1.386   4.007  -3.618  1.00  0.00     0.062 N 
ATOM     21  O   UNL     1       0.785   4.741  -4.410  1.00  0.00    -0.258 OA
ATOM     22  O   UNL     1       2.559   4.146  -3.250  1.00  0.00    -0.258 OA
ENDBRANCH  19  20
ENDBRANCH   9  13
ENDBRANCH   8   9
ENDBRANCH   6   8
ENDBRANCH   5   6
ENDBRANCH   4   5
ENDBRANCH   3   4
ENDBRANCH   2   3
ENDBRANCH   1   2
BRANCH   1  23
ATOM     23  C   UNL     1      -4.137   1.571  -3.616  1.00  0.00     0.188 C 
BRANCH  23  24
ATOM     24  O   UNL     1      -5.066   2.482  -3.047  1.00  0.00    -0.376 OA
BRANCH  24  25
ATOM     25  C   UNL     1      -4.558   3.801  -2.882  1.00  0.00     0.202 C 
BRANCH  25  26
ATOM     26  C   UNL     1      -4.881   4.615  -4.136  1.00  0.00     0.261 C 
BRANCH  26  27
ATOM     27  O   UNL     1      -4.154   4.163  -5.295  1.00  0.00    -0.460 OA
BRANCH  27  28
ATOM     28  C   UNL     1      -2.824   4.414  -5.266  1.00  0.00     0.338 C 
ATOM     29  O   UNL     1      -2.213   4.998  -4.392  1.00  0.00    -0.246 OA
BRANCH  28  30
ATOM     30  C   UNL     1      -2.203   3.690  -6.390  1.00  0.00     0.060 A 
ATOM     31  C   UNL     1      -1.446   2.542  -6.128  1.00  0.00     0.016 A 
ATOM     32  C   UNL     1      -2.363   4.151  -7.695  1.00  0.00     0.016 A 
ATOM     33  C   UNL     1      -0.828   1.853  -7.171  1.00  0.00     0.010 A 
ATOM     34  C   UNL     1      -1.742   3.462  -8.739  1.00  0.00     0.010 A 
ATOM     35  C   UNL     1      -0.962   2.318  -8.482  1.00  0.00    -0.014 A 
BRANCH  35  36
ATOM     36  C   UNL     1      -0.227   1.684  -9.601  1.00  0.00     0.031 A 
ATOM     37  C   UNL     1       0.981   2.374 -10.159  1.00  0.00     0.074 A 
ATOM     38  C   UNL     1      -0.659   0.534 -10.148  1.00  0.00     0.049 A 
ATOM     39  N   UNL     1       1.627   2.140 -11.272  1.00  0.00    -0.248 NA
ATOM     40  C   UNL     1       1.532   3.478  -9.356  1.00  0.00     0.031 C 
ATOM     41  C   UNL     1      -1.766  -0.282  -9.652  1.00  0.00     0.029 A 
ATOM     42  N   UNL     1      -0.225  -0.129 -11.269  1.00  0.00    -0.354 N 
ATOM     43  C   UNL     1       2.639   3.089 -11.322  1.00  0.00     0.074 A 
ATOM     44  C   UNL     1       2.525   3.898 -10.127  1.00  0.00     0.031 C 
ATOM     45  C   UNL     1      -1.943  -1.324 -10.483  1.00  0.00     0.029 A 
ATOM     46  C   UNL     1      -1.005  -1.210 -11.598  1.00  0.00     0.049 A 
ATOM     47  H   UNL     1       0.566   0.145 -11.787  1.00  0.00     0.167 HD
ATOM     48  C   UNL     1       3.570   3.277 -12.286  1.00  0.00     0.031 A 
ATOM     49  C   UNL     1      -1.002  -1.983 -12.701  1.00  0.00     0.031 A 
ATOM     50  C   UNL     1       3.676   2.479 -13.478  1.00  0.00     0.049 A 
ATOM     51  C   UNL     1      -0.031  -1.686 -13.813  1.00  0.00     0.074 A 
ATOM     52  C   UNL     1       4.585   2.595 -14.516  1.00  0.00     0.029 A 
ATOM     53  N   UNL     1       2.841   1.419 -13.792  1.00  0.00    -0.354 N 
ATOM     54  N   UNL     1       0.901  -0.766 -13.873  1.00  0.00    -0.248 NA
ATOM     55  C   UNL     1      -0.127  -2.525 -15.017  1.00  0.00     0.031 C 
ATOM     56  C   UNL     1       4.268   1.633 -15.481  1.00  0.00     0.029 A 
ATOM     57  C   UNL     1       3.196   0.888 -15.019  1.00  0.00     0.049 A 
ATOM     58  H   UNL     1       2.105   1.093 -13.226  1.00  0.00     0.167 HD
ATOM     59  C   UNL     1       1.515  -0.929 -15.110  1.00  0.00     0.074 A 
ATOM     60  C   UNL     1       0.858  -2.042 -15.762  1.00  0.00     0.031 C 
ATOM     61  C   UNL     1       2.533  -0.221 -15.655  1.00  0.00     0.031 A 
BRANCH  48  62
ATOM     62  C   UNL     1       4.514   4.431 -12.114  1.00  0.00    -0.014 A 
ATOM     63  C   UNL     1       5.562   4.386 -11.182  1.00  0.00     0.009 A 
ATOM     64  C   UNL     1       4.363   5.572 -12.918  1.00  0.00     0.009 A 
ATOM     65  C   UNL     1       6.423   5.476 -11.040  1.00  0.00     0.001 A 
ATOM     66  C   UNL     1       5.240   6.649 -12.789  1.00  0.00     0.001 A 
ATOM     67  C   UNL     1       6.264   6.604 -11.845  1.00  0.00     0.000 A 
ENDBRANCH  48  62
BRANCH  49  68
ATOM     68  C   UNL     1      -1.996  -3.077 -12.848  1.00  0.00    -0.014 A 
ATOM     69  C   UNL     1      -1.592  -4.419 -12.804  1.00  0.00     0.009 A 
ATOM     70  C   UNL     1      -3.353  -2.782 -13.060  1.00  0.00     0.009 A 
ATOM     71  C   UNL     1      -2.524  -5.444 -12.990  1.00  0.00     0.001 A 
ATOM     72  C   UNL     1      -4.285  -3.808 -13.219  1.00  0.00     0.001 A 
ATOM     73  C   UNL     1      -3.869  -5.138 -13.192  1.00  0.00     0.000 A 
ENDBRANCH  49  68
BRANCH  61  74
ATOM     74  C   UNL     1       3.026  -0.649 -17.007  1.00  0.00    -0.014 A 
ATOM     75  C   UNL     1       2.296  -0.366 -18.172  1.00  0.00     0.009 A 
ATOM     76  C   UNL     1       4.263  -1.303 -17.120  1.00  0.00     0.009 A 
ATOM     77  C   UNL     1       2.787  -0.750 -19.422  1.00  0.00     0.001 A 
ATOM     78  C   UNL     1       4.762  -1.664 -18.372  1.00  0.00     0.001 A 
ATOM     79  C   UNL     1       4.020  -1.394 -19.521  1.00  0.00     0.000 A 
ENDBRANCH  61  74
ENDBRANCH  35  36
ENDBRANCH  28  30
ENDBRANCH  27  28
ENDBRANCH  26  27
ENDBRANCH  25  26
ENDBRANCH  24  25
ENDBRANCH  23  24
ENDBRANCH   1  23
TORSDOF 22
