REMARK SMILES COCCS(=O)(=O)Cc1c(C(=O)OCCOCCOCCOC(=O)c2ccc(-c3c4nc(c(-c5ccccc5)c5ccc([nH]5)c(-c5ccccc5)c5nc(c(-c6ccccc6)c6ccc3[nH]6)C=C5)C=C4)cc2)oc2ccccc12
REMARK SMILES IDX 16 1 15 2 14 3 13 4 11 5 12 6 10 7 9 8 79 9 73 10 74 11
REMARK SMILES IDX 78 12 75 13 77 14 76 15 8 16 5 17 6 18 7 19 4 20 3 21 2 22
REMARK SMILES IDX 1 23 17 24 18 25 19 26 20 27 21 28 22 29 23 30 24 31 25 32
REMARK SMILES IDX 26 33 72 34 27 35 71 36 28 37 29 38 30 39 65 40 31 41 70 42
REMARK SMILES IDX 64 43 66 44 32 45 69 46 63 47 62 48 33 50 55 51 40 52 54 53
REMARK SMILES IDX 41 54 44 55 53 56 67 57 42 58 43 59 52 61 68 62 45 63 34 64
REMARK SMILES IDX 35 65 39 66 36 67 38 68 37 69 56 70 57 71 61 72 58 73 60 74
REMARK SMILES IDX 59 75 46 76 47 77 51 78 48 79 50 80 49 81
REMARK H PARENT 66 49 44 60
REMARK Flexibility Score: inf
ROOT
ATOM      1  O   UNL     1      -0.746  -4.238   0.086  1.00  0.00    -0.376 OA
ENDROOT
BRANCH   1   2
ATOM      2  C   UNL     1      -1.151  -4.540   1.399  1.00  0.00     0.202 C 
BRANCH   2   3
ATOM      3  C   UNL     1      -1.981  -3.600   2.299  1.00  0.00     0.261 C 
BRANCH   3   4
ATOM      4  O   UNL     1      -2.125  -2.207   1.976  1.00  0.00    -0.457 OA
BRANCH   4   5
ATOM      5  C   UNL     1      -1.352  -1.285   2.624  1.00  0.00     0.374 C 
ATOM      6  O   UNL     1      -0.325  -1.562   3.241  1.00  0.00    -0.242 OA
BRANCH   5   7
ATOM      7  C   UNL     1      -1.878   0.063   2.429  1.00  0.00     0.217 A 
ATOM      8  C   UNL     1      -1.309   1.350   2.509  1.00  0.00     0.028 A 
ATOM      9  C   UNL     1      -2.384   2.267   2.276  1.00  0.00     0.025 A 
ATOM     10  O   UNL     1      -3.187   0.178   2.034  1.00  0.00    -0.449 OA
ATOM     11  C   UNL     1      -3.479   1.495   1.918  1.00  0.00     0.135 A 
ATOM     12  C   UNL     1      -2.526   3.669   2.247  1.00  0.00     0.012 A 
ATOM     13  C   UNL     1      -4.695   2.013   1.482  1.00  0.00     0.048 A 
ATOM     14  C   UNL     1      -3.722   4.222   1.775  1.00  0.00     0.001 A 
ATOM     15  C   UNL     1      -4.786   3.406   1.395  1.00  0.00     0.004 A 
BRANCH   8  16
ATOM     16  C   UNL     1       0.141   1.690   2.722  1.00  0.00     0.177 C 
BRANCH  16  17
ATOM     17  S   UNL     1       0.918   3.025   1.730  1.00  0.00     0.156 S 
ATOM     18  O   UNL     1       2.265   2.579   1.415  1.00  0.00    -0.228 OA
ATOM     19  O   UNL     1       0.762   4.250   2.499  1.00  0.00    -0.228 OA
BRANCH  17  20
ATOM     20  C   UNL     1       0.069   3.324   0.162  1.00  0.00     0.165 C 
BRANCH  20  21
ATOM     21  C   UNL     1       0.665   2.651  -1.060  1.00  0.00     0.176 C 
BRANCH  21  22
ATOM     22  O   UNL     1       0.137   1.347  -1.300  1.00  0.00    -0.384 OA
ATOM     23  C   UNL     1       0.373   0.465  -0.229  1.00  0.00     0.194 C 
ENDBRANCH  21  22
ENDBRANCH  20  21
ENDBRANCH  17  20
ENDBRANCH  16  17
ENDBRANCH   8  16
ENDBRANCH   5   7
ENDBRANCH   4   5
ENDBRANCH   3   4
ENDBRANCH   2   3
ENDBRANCH   1   2
BRANCH   1  24
ATOM     24  C   UNL     1      -0.461  -2.912  -0.271  1.00  0.00     0.188 C 
BRANCH  24  25
ATOM     25  C   UNL     1      -1.625  -2.227  -1.024  1.00  0.00     0.188 C 
BRANCH  25  26
ATOM     26  O   UNL     1      -2.655  -3.041  -1.567  1.00  0.00    -0.376 OA
BRANCH  26  27
ATOM     27  C   UNL     1      -2.266  -4.188  -2.316  1.00  0.00     0.202 C 
BRANCH  27  28
ATOM     28  C   UNL     1      -1.340  -3.990  -3.530  1.00  0.00     0.261 C 
BRANCH  28  29
ATOM     29  O   UNL     1      -0.119  -3.270  -3.257  1.00  0.00    -0.460 OA
BRANCH  29  30
ATOM     30  C   UNL     1       0.497  -2.724  -4.347  1.00  0.00     0.338 C 
ATOM     31  O   UNL     1       0.137  -2.833  -5.507  1.00  0.00    -0.246 OA
BRANCH  30  32
ATOM     32  C   UNL     1       1.686  -1.918  -3.945  1.00  0.00     0.060 A 
ATOM     33  C   UNL     1       1.566  -1.030  -2.892  1.00  0.00     0.016 A 
ATOM     34  C   UNL     1       2.874  -1.897  -4.673  1.00  0.00     0.016 A 
ATOM     35  C   UNL     1       2.601  -0.162  -2.529  1.00  0.00     0.010 A 
ATOM     36  C   UNL     1       3.925  -1.014  -4.311  1.00  0.00     0.010 A 
ATOM     37  C   UNL     1       3.796  -0.117  -3.232  1.00  0.00    -0.014 A 
BRANCH  37  38
ATOM     38  C   UNL     1       4.742   1.019  -2.960  1.00  0.00     0.031 A 
ATOM     39  C   UNL     1       4.970   2.039  -4.048  1.00  0.00     0.074 A 
ATOM     40  C   UNL     1       5.262   1.303  -1.742  1.00  0.00     0.049 A 
ATOM     41  N   UNL     1       5.891   2.963  -4.149  1.00  0.00    -0.248 NA
ATOM     42  C   UNL     1       4.008   2.024  -5.162  1.00  0.00     0.031 C 
ATOM     43  C   UNL     1       4.967   0.602  -0.492  1.00  0.00     0.029 A 
ATOM     44  N   UNL     1       6.133   2.302  -1.352  1.00  0.00    -0.354 N 
ATOM     45  C   UNL     1       5.676   3.575  -5.378  1.00  0.00     0.074 A 
ATOM     46  C   UNL     1       4.516   2.944  -5.969  1.00  0.00     0.031 C 
ATOM     47  C   UNL     1       5.613   1.208   0.520  1.00  0.00     0.029 A 
ATOM     48  C   UNL     1       6.467   2.264  -0.015  1.00  0.00     0.049 A 
ATOM     49  H   UNL     1       6.485   2.980  -1.974  1.00  0.00     0.167 HD
ATOM     50  C   UNL     1       6.394   4.557  -5.971  1.00  0.00     0.031 A 
ATOM     51  C   UNL     1       7.398   2.946   0.688  1.00  0.00     0.031 A 
ATOM     52  C   UNL     1       7.509   5.233  -5.362  1.00  0.00     0.049 A 
ATOM     53  C   UNL     1       8.296   3.927  -0.029  1.00  0.00     0.074 A 
ATOM     54  C   UNL     1       8.351   6.182  -5.918  1.00  0.00     0.029 A 
ATOM     55  N   UNL     1       7.917   5.056  -4.051  1.00  0.00    -0.354 N 
ATOM     56  N   UNL     1       8.231   4.363  -1.263  1.00  0.00    -0.248 NA
ATOM     57  C   UNL     1       9.425   4.482   0.739  1.00  0.00     0.031 C 
ATOM     58  C   UNL     1       9.303   6.539  -4.958  1.00  0.00     0.029 A 
ATOM     59  C   UNL     1       9.009   5.865  -3.785  1.00  0.00     0.049 A 
ATOM     60  H   UNL     1       7.493   4.447  -3.405  1.00  0.00     0.167 HD
ATOM     61  C   UNL     1       9.292   5.251  -1.411  1.00  0.00     0.074 A 
ATOM     62  C   UNL     1       9.970   5.316  -0.135  1.00  0.00     0.031 C 
ATOM     63  C   UNL     1       9.676   5.940  -2.513  1.00  0.00     0.031 A 
BRANCH  50  64
ATOM     64  C   UNL     1       6.066   4.883  -7.399  1.00  0.00    -0.014 A 
ATOM     65  C   UNL     1       4.922   5.607  -7.763  1.00  0.00     0.009 A 
ATOM     66  C   UNL     1       6.959   4.470  -8.403  1.00  0.00     0.009 A 
ATOM     67  C   UNL     1       4.665   5.883  -9.108  1.00  0.00     0.001 A 
ATOM     68  C   UNL     1       6.717   4.776  -9.741  1.00  0.00     0.001 A 
ATOM     69  C   UNL     1       5.565   5.475 -10.094  1.00  0.00     0.000 A 
ENDBRANCH  50  64
BRANCH  51  70
ATOM     70  C   UNL     1       7.654   2.640   2.130  1.00  0.00    -0.014 A 
ATOM     71  C   UNL     1       7.546   3.632   3.120  1.00  0.00     0.009 A 
ATOM     72  C   UNL     1       8.111   1.367   2.511  1.00  0.00     0.009 A 
ATOM     73  C   UNL     1       7.922   3.365   4.441  1.00  0.00     0.001 A 
ATOM     74  C   UNL     1       8.444   1.089   3.839  1.00  0.00     0.001 A 
ATOM     75  C   UNL     1       8.365   2.093   4.801  1.00  0.00     0.000 A 
ENDBRANCH  51  70
BRANCH  63  76
ATOM     76  C   UNL     1      10.853   6.868  -2.384  1.00  0.00    -0.014 A 
ATOM     77  C   UNL     1      12.161   6.380  -2.240  1.00  0.00     0.009 A 
ATOM     78  C   UNL     1      10.653   8.256  -2.459  1.00  0.00     0.009 A 
ATOM     79  C   UNL     1      13.239   7.263  -2.139  1.00  0.00     0.001 A 
ATOM     80  C   UNL     1      11.735   9.136  -2.391  1.00  0.00     0.001 A 
ATOM     81  C   UNL     1      13.026   8.639  -2.221  1.00  0.00     0.000 A 
ENDBRANCH  63  76
ENDBRANCH  37  38
ENDBRANCH  30  32
ENDBRANCH  29  30
ENDBRANCH  28  29
ENDBRANCH  27  28
ENDBRANCH  26  27
ENDBRANCH  25  26
ENDBRANCH  24  25
ENDBRANCH   1  24
TORSDOF 22
