REMARK SMILES O=C(Cc1ccc(-c2ccc(Cl)cc2)cc1)OCCOCCOCCOC(=O)c1ccc(-c2c3nc(c(-c4ccccc4)c4ccc([nH]4)c(-c4ccccc4)c4nc(c(-c5ccccc5)c5ccc2[nH]5)C=C4)C=C3)cc1
REMARK SMILES IDX 21 1 20 2 19 3 18 4 17 5 2 6 1 7 3 8 4 9 5 10 16 11 6 12
REMARK SMILES IDX 15 13 7 14 8 15 9 16 14 17 10 18 13 19 11 20 12 21 22 22
REMARK SMILES IDX 23 23 24 24 25 25 26 26 27 27 28 28 29 29 30 30 76 31 31 32
REMARK SMILES IDX 75 33 32 34 33 35 34 36 69 37 35 38 74 39 68 40 70 41 36 42
REMARK SMILES IDX 73 43 67 44 66 45 37 47 59 48 44 49 58 50 45 51 48 52 57 53
REMARK SMILES IDX 71 54 46 55 47 56 56 58 72 59 49 60 38 61 39 62 43 63 40 64
REMARK SMILES IDX 42 65 41 66 60 67 61 68 65 69 62 70 64 71 63 72 50 73 51 74
REMARK SMILES IDX 55 75 52 76 54 77 53 78
REMARK H PARENT 70 46 48 57
REMARK Flexibility Score: inf
ROOT
ATOM      1  C   UNL     1       2.472  -1.918  -0.555  1.00  0.00     0.188 C 
ENDROOT
BRANCH   1   2
ATOM      2  O   UNL     1       3.840  -1.695  -0.832  1.00  0.00    -0.376 OA
BRANCH   2   3
ATOM      3  C   UNL     1       4.659  -1.028   0.120  1.00  0.00     0.202 C 
BRANCH   3   4
ATOM      4  C   UNL     1       4.083  -0.356   1.372  1.00  0.00     0.261 C 
BRANCH   4   5
ATOM      5  O   UNL     1       2.881   0.455   1.324  1.00  0.00    -0.463 OA
BRANCH   5   6
ATOM      6  C   UNL     1       2.282   1.176   0.360  1.00  0.00     0.310 C 
ATOM      7  O   UNL     1       1.112   1.529   0.518  1.00  0.00    -0.252 OA
BRANCH   6   8
ATOM      8  C   UNL     1       3.044   1.590  -0.870  1.00  0.00     0.158 C 
BRANCH   8   9
ATOM      9  C   UNL     1       3.946   2.757  -0.591  1.00  0.00    -0.037 A 
ATOM     10  C   UNL     1       5.261   2.548  -0.182  1.00  0.00     0.005 A 
ATOM     11  C   UNL     1       3.442   4.060  -0.606  1.00  0.00     0.005 A 
ATOM     12  C   UNL     1       6.021   3.595   0.316  1.00  0.00     0.009 A 
ATOM     13  C   UNL     1       4.222   5.120  -0.136  1.00  0.00     0.009 A 
ATOM     14  C   UNL     1       5.507   4.895   0.383  1.00  0.00    -0.018 A 
BRANCH  14  15
ATOM     15  C   UNL     1       6.277   5.941   1.072  1.00  0.00    -0.018 A 
ATOM     16  C   UNL     1       7.675   6.022   0.935  1.00  0.00     0.010 A 
ATOM     17  C   UNL     1       5.651   6.813   1.979  1.00  0.00     0.010 A 
ATOM     18  C   UNL     1       8.425   6.915   1.702  1.00  0.00     0.021 A 
ATOM     19  C   UNL     1       6.396   7.717   2.739  1.00  0.00     0.021 A 
ATOM     20  C   UNL     1       7.781   7.756   2.604  1.00  0.00     0.041 A 
ATOM     21  Cl  UNL     1       8.705   8.837   3.570  1.00  0.00    -0.084 Cl
ENDBRANCH  14  15
ENDBRANCH   8   9
ENDBRANCH   6   8
ENDBRANCH   5   6
ENDBRANCH   4   5
ENDBRANCH   3   4
ENDBRANCH   2   3
ENDBRANCH   1   2
BRANCH   1  22
ATOM     22  C   UNL     1       2.049  -3.382  -0.438  1.00  0.00     0.188 C 
BRANCH  22  23
ATOM     23  O   UNL     1       2.923  -4.247   0.268  1.00  0.00    -0.376 OA
BRANCH  23  24
ATOM     24  C   UNL     1       4.189  -4.539  -0.326  1.00  0.00     0.202 C 
BRANCH  24  25
ATOM     25  C   UNL     1       4.230  -4.982  -1.797  1.00  0.00     0.261 C 
BRANCH  25  26
ATOM     26  O   UNL     1       3.900  -3.932  -2.734  1.00  0.00    -0.460 OA
BRANCH  26  27
ATOM     27  C   UNL     1       2.883  -4.195  -3.580  1.00  0.00     0.338 C 
ATOM     28  O   UNL     1       2.197  -5.221  -3.625  1.00  0.00    -0.246 OA
BRANCH  27  29
ATOM     29  C   UNL     1       2.587  -3.038  -4.434  1.00  0.00     0.060 A 
ATOM     30  C   UNL     1       1.393  -2.328  -4.243  1.00  0.00     0.016 A 
ATOM     31  C   UNL     1       3.406  -2.760  -5.529  1.00  0.00     0.016 A 
ATOM     32  C   UNL     1       1.008  -1.344  -5.159  1.00  0.00     0.010 A 
ATOM     33  C   UNL     1       3.009  -1.788  -6.453  1.00  0.00     0.010 A 
ATOM     34  C   UNL     1       1.798  -1.091  -6.289  1.00  0.00    -0.014 A 
BRANCH  34  35
ATOM     35  C   UNL     1       1.325  -0.191  -7.371  1.00  0.00     0.031 A 
ATOM     36  C   UNL     1       0.673  -0.784  -8.591  1.00  0.00     0.074 A 
ATOM     37  C   UNL     1       1.525   1.137  -7.300  1.00  0.00     0.049 A 
ATOM     38  N   UNL     1       0.332  -0.202  -9.713  1.00  0.00    -0.248 NA
ATOM     39  C   UNL     1       0.368  -2.223  -8.540  1.00  0.00     0.031 C 
ATOM     40  C   UNL     1       2.104   1.847  -6.161  1.00  0.00     0.029 A 
ATOM     41  N   UNL     1       1.290   2.122  -8.229  1.00  0.00    -0.354 N 
ATOM     42  C   UNL     1      -0.205  -1.204 -10.510  1.00  0.00     0.074 A 
ATOM     43  C   UNL     1      -0.144  -2.432  -9.746  1.00  0.00     0.031 C 
ATOM     44  C   UNL     1       2.212   3.151  -6.472  1.00  0.00     0.029 A 
ATOM     45  C   UNL     1       1.752   3.357  -7.845  1.00  0.00     0.049 A 
ATOM     46  H   UNL     1       0.835   1.958  -9.086  1.00  0.00     0.167 HD
ATOM     47  C   UNL     1      -0.696  -1.113 -11.769  1.00  0.00     0.031 A 
ATOM     48  C   UNL     1       1.840   4.511  -8.536  1.00  0.00     0.031 A 
ATOM     49  C   UNL     1      -0.756   0.103 -12.535  1.00  0.00     0.049 A 
ATOM     50  C   UNL     1       1.371   4.563  -9.968  1.00  0.00     0.074 A 
ATOM     51  C   UNL     1      -1.284   0.296 -13.801  1.00  0.00     0.029 A 
ATOM     52  N   UNL     1      -0.257   1.324 -12.118  1.00  0.00    -0.354 N 
ATOM     53  N   UNL     1       0.821   3.621 -10.694  1.00  0.00    -0.248 NA
ATOM     54  C   UNL     1       1.544   5.841 -10.678  1.00  0.00     0.031 C 
ATOM     55  C   UNL     1      -1.046   1.621 -14.176  1.00  0.00     0.029 A 
ATOM     56  C   UNL     1      -0.420   2.265 -13.121  1.00  0.00     0.049 A 
ATOM     57  H   UNL     1       0.153   1.498 -11.240  1.00  0.00     0.167 HD
ATOM     58  C   UNL     1       0.565   4.197 -11.933  1.00  0.00     0.074 A 
ATOM     59  C   UNL     1       1.002   5.574 -11.857  1.00  0.00     0.031 C 
ATOM     60  C   UNL     1       0.017   3.633 -13.037  1.00  0.00     0.031 A 
BRANCH  47  61
ATOM     61  C   UNL     1      -1.173  -2.375 -12.428  1.00  0.00    -0.014 A 
ATOM     62  C   UNL     1      -2.396  -2.966 -12.077  1.00  0.00     0.009 A 
ATOM     63  C   UNL     1      -0.418  -2.935 -13.471  1.00  0.00     0.009 A 
ATOM     64  C   UNL     1      -2.843  -4.107 -12.748  1.00  0.00     0.001 A 
ATOM     65  C   UNL     1      -0.879  -4.061 -14.154  1.00  0.00     0.001 A 
ATOM     66  C   UNL     1      -2.088  -4.649 -13.789  1.00  0.00     0.000 A 
ENDBRANCH  47  61
BRANCH  48  67
ATOM     67  C   UNL     1       2.463   5.710  -7.916  1.00  0.00    -0.014 A 
ATOM     68  C   UNL     1       1.698   6.849  -7.625  1.00  0.00     0.009 A 
ATOM     69  C   UNL     1       3.844   5.738  -7.662  1.00  0.00     0.009 A 
ATOM     70  C   UNL     1       2.308   8.001  -7.122  1.00  0.00     0.001 A 
ATOM     71  C   UNL     1       4.446   6.880  -7.131  1.00  0.00     0.001 A 
ATOM     72  C   UNL     1       3.679   8.015  -6.873  1.00  0.00     0.000 A 
ENDBRANCH  48  67
BRANCH  60  73
ATOM     73  C   UNL     1      -0.166   4.504 -14.247  1.00  0.00    -0.014 A 
ATOM     74  C   UNL     1       0.928   4.880 -15.043  1.00  0.00     0.009 A 
ATOM     75  C   UNL     1      -1.456   4.903 -14.632  1.00  0.00     0.009 A 
ATOM     76  C   UNL     1       0.734   5.657 -16.187  1.00  0.00     0.001 A 
ATOM     77  C   UNL     1      -1.649   5.657 -15.790  1.00  0.00     0.001 A 
ATOM     78  C   UNL     1      -0.553   6.038 -16.564  1.00  0.00     0.000 A 
ENDBRANCH  60  73
ENDBRANCH  34  35
ENDBRANCH  27  29
ENDBRANCH  26  27
ENDBRANCH  25  26
ENDBRANCH  24  25
ENDBRANCH  23  24
ENDBRANCH  22  23
ENDBRANCH   1  22
TORSDOF 19
