REMARK SMILES CC[C@@](O)(C(=O)OCCOCCOCCOC(=O)c1ccc(-c2c3nc(c(-c4ccccc4)c4ccc([nH]4)c(-c4ccccc4)c4nc(c(-c5ccccc5)c5ccc2[nH]5)C=C4)C=C3)cc1)[C@@H](C)c1ccc(OC(C)C)cc1
REMARK SMILES IDX 11 1 10 2 9 3 8 4 7 5 5 6 6 7 3 8 2 9 1 10 4 11 67 13 68 14
REMARK SMILES IDX 69 15 70 16 78 17 71 18 77 19 72 20 73 21 74 22 75 23 76 24
REMARK SMILES IDX 12 25 13 26 14 27 15 28 16 29 17 30 18 31 19 32 20 33 66 34
REMARK SMILES IDX 21 35 65 36 22 37 23 38 24 39 59 40 25 41 64 42 58 43 60 44
REMARK SMILES IDX 26 45 63 46 57 47 56 48 27 50 49 51 34 52 48 53 35 54 38 55
REMARK SMILES IDX 47 56 61 57 36 58 37 59 46 61 62 62 39 63 28 64 29 65 33 66
REMARK SMILES IDX 30 67 32 68 31 69 50 70 51 71 55 72 52 73 54 74 53 75 40 76
REMARK SMILES IDX 41 77 45 78 42 79 44 80 43 81
REMARK H PARENT 4 12 60 49 38 60
REMARK Flexibility Score: inf
ROOT
ATOM      1  C   UNL     1       0.992   1.125  -5.551  1.00  0.00     0.188 C 
ENDROOT
BRANCH   1   2
ATOM      2  O   UNL     1       0.129   0.790  -6.623  1.00  0.00    -0.376 OA
BRANCH   2   3
ATOM      3  C   UNL     1      -1.050   0.043  -6.335  1.00  0.00     0.202 C 
BRANCH   3   4
ATOM      4  C   UNL     1      -0.977  -1.205  -5.433  1.00  0.00     0.261 C 
BRANCH   4   5
ATOM      5  O   UNL     1      -0.517  -0.980  -4.080  1.00  0.00    -0.461 OA
BRANCH   5   6
ATOM      6  C   UNL     1       0.497  -1.780  -3.639  1.00  0.00     0.338 C 
ATOM      7  O   UNL     1       1.046  -2.615  -4.355  1.00  0.00    -0.249 OA
BRANCH   6   8
ATOM      8  C   UNL     1       0.927  -1.546  -2.149  1.00  0.00     0.168 C 
BRANCH   8   9
ATOM      9  C   UNL     1       0.243  -0.354  -1.414  1.00  0.00     0.044 C 
ATOM     10  C   UNL     1       0.102  -0.416   0.110  1.00  0.00     0.007 C 
ENDBRANCH   8   9
BRANCH   8  11
ATOM     11  O   UNL     1       0.453  -2.762  -1.518  1.00  0.00    -0.378 OA
ATOM     12  H   UNL     1      -0.517  -2.769  -1.517  1.00  0.00     0.212 HD
ENDBRANCH   8  11
BRANCH   8  13
ATOM     13  C   UNL     1       2.513  -1.529  -2.152  1.00  0.00     0.059 C 
ATOM     14  C   UNL     1       3.146  -0.456  -3.058  1.00  0.00     0.016 C 
BRANCH  13  15
ATOM     15  C   UNL     1       3.123  -1.480  -0.760  1.00  0.00    -0.041 A 
ATOM     16  C   UNL     1       3.266  -2.667  -0.032  1.00  0.00     0.008 A 
ATOM     17  C   UNL     1       3.518  -0.279  -0.160  1.00  0.00     0.008 A 
ATOM     18  C   UNL     1       3.701  -2.635   1.292  1.00  0.00     0.047 A 
ATOM     19  C   UNL     1       3.961  -0.256   1.163  1.00  0.00     0.047 A 
ATOM     20  C   UNL     1       4.025  -1.426   1.909  1.00  0.00     0.119 A 
BRANCH  20  21
ATOM     21  O   UNL     1       4.369  -1.545   3.220  1.00  0.00    -0.491 OA
BRANCH  21  22
ATOM     22  C   UNL     1       4.646  -0.416   4.054  1.00  0.00     0.167 C 
ATOM     23  C   UNL     1       5.946   0.294   3.686  1.00  0.00     0.052 C 
ATOM     24  C   UNL     1       3.444   0.500   4.279  1.00  0.00     0.052 C 
ENDBRANCH  21  22
ENDBRANCH  20  21
ENDBRANCH  13  15
ENDBRANCH   8  13
ENDBRANCH   6   8
ENDBRANCH   5   6
ENDBRANCH   4   5
ENDBRANCH   3   4
ENDBRANCH   2   3
ENDBRANCH   1   2
BRANCH   1  25
ATOM     25  C   UNL     1       0.381   1.732  -4.285  1.00  0.00     0.188 C 
BRANCH  25  26
ATOM     26  O   UNL     1      -0.994   2.000  -4.319  1.00  0.00    -0.376 OA
BRANCH  26  27
ATOM     27  C   UNL     1      -1.465   3.276  -4.704  1.00  0.00     0.202 C 
BRANCH  27  28
ATOM     28  C   UNL     1      -0.640   4.314  -5.489  1.00  0.00     0.261 C 
BRANCH  28  29
ATOM     29  O   UNL     1       0.790   4.218  -5.456  1.00  0.00    -0.460 OA
BRANCH  29  30
ATOM     30  C   UNL     1       1.427   4.795  -4.412  1.00  0.00     0.338 C 
ATOM     31  O   UNL     1       0.917   5.388  -3.474  1.00  0.00    -0.246 OA
BRANCH  30  32
ATOM     32  C   UNL     1       2.850   4.387  -4.467  1.00  0.00     0.060 A 
ATOM     33  C   UNL     1       3.380   3.642  -3.403  1.00  0.00     0.016 A 
ATOM     34  C   UNL     1       3.655   4.721  -5.558  1.00  0.00     0.016 A 
ATOM     35  C   UNL     1       4.720   3.244  -3.419  1.00  0.00     0.010 A 
ATOM     36  C   UNL     1       5.004   4.348  -5.559  1.00  0.00     0.010 A 
ATOM     37  C   UNL     1       5.551   3.629  -4.479  1.00  0.00    -0.014 A 
BRANCH  37  38
ATOM     38  C   UNL     1       7.022   3.454  -4.373  1.00  0.00     0.031 A 
ATOM     39  C   UNL     1       7.847   4.613  -3.884  1.00  0.00     0.074 A 
ATOM     40  C   UNL     1       7.628   2.295  -4.691  1.00  0.00     0.049 A 
ATOM     41  N   UNL     1       9.147   4.727  -3.784  1.00  0.00    -0.248 NA
ATOM     42  C   UNL     1       7.100   5.803  -3.446  1.00  0.00     0.031 C 
ATOM     43  C   UNL     1       6.953   1.069  -5.110  1.00  0.00     0.029 A 
ATOM     44  N   UNL     1       8.964   1.972  -4.715  1.00  0.00    -0.354 N 
ATOM     45  C   UNL     1       9.374   6.002  -3.281  1.00  0.00     0.074 A 
ATOM     46  C   UNL     1       8.081   6.631  -3.119  1.00  0.00     0.031 C 
ATOM     47  C   UNL     1       7.882   0.130  -5.369  1.00  0.00     0.029 A 
ATOM     48  C   UNL     1       9.215   0.702  -5.173  1.00  0.00     0.049 A 
ATOM     49  H   UNL     1       9.673   2.593  -4.431  1.00  0.00     0.167 HD
ATOM     50  C   UNL     1      10.551   6.600  -2.979  1.00  0.00     0.031 A 
ATOM     51  C   UNL     1      10.384   0.083  -5.436  1.00  0.00     0.031 A 
ATOM     52  C   UNL     1      11.843   5.996  -3.166  1.00  0.00     0.049 A 
ATOM     53  C   UNL     1      11.685   0.811  -5.203  1.00  0.00     0.074 A 
ATOM     54  C   UNL     1      13.091   6.530  -2.897  1.00  0.00     0.029 A 
ATOM     55  N   UNL     1      12.054   4.728  -3.683  1.00  0.00    -0.354 N 
ATOM     56  N   UNL     1      11.890   2.012  -4.719  1.00  0.00    -0.248 NA
ATOM     57  C   UNL     1      12.920   0.090  -5.552  1.00  0.00     0.031 C 
ATOM     58  C   UNL     1      14.059   5.611  -3.312  1.00  0.00     0.029 A 
ATOM     59  C   UNL     1      13.413   4.474  -3.770  1.00  0.00     0.049 A 
ATOM     60  H   UNL     1      11.344   4.100  -3.950  1.00  0.00     0.167 HD
ATOM     61  C   UNL     1      13.271   2.175  -4.674  1.00  0.00     0.074 A 
ATOM     62  C   UNL     1      13.855   0.947  -5.166  1.00  0.00     0.031 C 
ATOM     63  C   UNL     1      13.990   3.247  -4.258  1.00  0.00     0.031 A 
BRANCH  50  64
ATOM     64  C   UNL     1      10.491   8.010  -2.459  1.00  0.00    -0.014 A 
ATOM     65  C   UNL     1       9.995   8.297  -1.178  1.00  0.00     0.009 A 
ATOM     66  C   UNL     1      10.958   9.064  -3.260  1.00  0.00     0.009 A 
ATOM     67  C   UNL     1       9.933   9.617  -0.725  1.00  0.00     0.001 A 
ATOM     68  C   UNL     1      10.924  10.378  -2.792  1.00  0.00     0.001 A 
ATOM     69  C   UNL     1      10.401  10.655  -1.530  1.00  0.00     0.000 A 
ENDBRANCH  50  64
BRANCH  51  70
ATOM     70  C   UNL     1      10.393  -1.297  -5.996  1.00  0.00    -0.014 A 
ATOM     71  C   UNL     1      10.903  -2.372  -5.252  1.00  0.00     0.009 A 
ATOM     72  C   UNL     1       9.932  -1.536  -7.301  1.00  0.00     0.009 A 
ATOM     73  C   UNL     1      10.980  -3.650  -5.814  1.00  0.00     0.001 A 
ATOM     74  C   UNL     1       9.979  -2.820  -7.848  1.00  0.00     0.001 A 
ATOM     75  C   UNL     1      10.514  -3.873  -7.108  1.00  0.00     0.000 A 
ENDBRANCH  51  70
BRANCH  63  76
ATOM     76  C   UNL     1      15.491   3.130  -4.266  1.00  0.00    -0.014 A 
ATOM     77  C   UNL     1      16.222   3.103  -5.463  1.00  0.00     0.009 A 
ATOM     78  C   UNL     1      16.189   3.097  -3.047  1.00  0.00     0.009 A 
ATOM     79  C   UNL     1      17.617   3.011  -5.439  1.00  0.00     0.001 A 
ATOM     80  C   UNL     1      17.584   3.039  -3.026  1.00  0.00     0.001 A 
ATOM     81  C   UNL     1      18.296   2.986  -4.222  1.00  0.00     0.000 A 
ENDBRANCH  63  76
ENDBRANCH  37  38
ENDBRANCH  30  32
ENDBRANCH  29  30
ENDBRANCH  28  29
ENDBRANCH  27  28
ENDBRANCH  26  27
ENDBRANCH  25  26
ENDBRANCH   1  25
TORSDOF 23
