REMARK SMILES CCC[NH+]1CCN(c2cc(C(=O)OCCOCCOCCOC(=O)c3ccc(-c4c5nc(c(-c6ccccc6)c6ccc([nH]6)c(-c6ccccc6)c6nc(c(-c7ccccc7)c7ccc4[nH]7)C=C6)C=C5)cc3)c3cc(NC(=O)c4ccc(F)cc4)ccc3n2)CC1
REMARK SMILES IDX 17 1 16 2 15 3 14 4 13 5 11 6 12 7 10 8 8 9 9 10 89 11 88 12
REMARK SMILES IDX 73 13 87 14 74 15 86 16 75 17 7 18 4 19 5 20 91 21 6 23
REMARK SMILES IDX 90 24 3 25 2 26 1 27 76 28 77 29 78 31 79 32 80 33 85 34
REMARK SMILES IDX 81 35 84 36 82 37 83 38 18 39 19 40 20 41 21 42 22 43 23 44
REMARK SMILES IDX 24 45 25 46 26 47 72 48 27 49 71 50 28 51 29 52 30 53 65 54
REMARK SMILES IDX 31 55 70 56 64 57 66 58 32 59 69 60 63 61 62 62 33 64 55 65
REMARK SMILES IDX 40 66 54 67 41 68 44 69 53 70 67 71 42 72 43 73 52 75 68 76
REMARK SMILES IDX 45 77 34 78 35 79 39 80 36 81 38 82 37 83 56 84 57 85 61 86
REMARK SMILES IDX 58 87 60 88 59 89 46 90 47 91 51 92 48 93 50 94 49 95
REMARK H PARENT 4 22 76 30 66 63 44 74
REMARK Flexibility Score: inf
ROOT
ATOM      1  C   UNL     1       7.801   0.594   4.885  1.00  0.00     0.188 C 
ENDROOT
BRANCH   1   2
ATOM      2  O   UNL     1       9.100   1.145   4.682  1.00  0.00    -0.376 OA
BRANCH   2   3
ATOM      3  C   UNL     1       9.231   2.566   4.761  1.00  0.00     0.202 C 
BRANCH   3   4
ATOM      4  C   UNL     1       8.256   3.346   3.881  1.00  0.00     0.261 C 
BRANCH   4   5
ATOM      5  O   UNL     1       6.928   3.289   4.444  1.00  0.00    -0.460 OA
BRANCH   5   6
ATOM      6  C   UNL     1       5.931   3.280   3.533  1.00  0.00     0.339 C 
ATOM      7  O   UNL     1       6.048   3.515   2.341  1.00  0.00    -0.246 OA
BRANCH   6   8
ATOM      8  C   UNL     1       4.680   2.726   4.100  1.00  0.00     0.073 A 
ATOM      9  C   UNL     1       2.878   1.213   3.689  1.00  0.00     0.130 A 
ATOM     10  C   UNL     1       4.143   1.654   3.377  1.00  0.00     0.063 A 
ATOM     11  N   UNL     1       2.137   1.841   4.614  1.00  0.00    -0.231 NA
ATOM     12  C   UNL     1       2.666   2.818   5.350  1.00  0.00     0.074 A 
ATOM     13  C   UNL     1       3.984   3.274   5.205  1.00  0.00     0.017 A 
ATOM     14  C   UNL     1       1.845   3.388   6.301  1.00  0.00     0.031 A 
ATOM     15  C   UNL     1       4.481   4.205   6.167  1.00  0.00     0.037 A 
ATOM     16  C   UNL     1       2.323   4.344   7.192  1.00  0.00     0.028 A 
ATOM     17  C   UNL     1       3.665   4.724   7.176  1.00  0.00     0.042 A 
BRANCH   9  18
ATOM     18  N   UNL     1       2.269   0.185   3.031  1.00  0.00    -0.345 N 
ATOM     19  N   UNL     1       0.640  -1.895   1.789  1.00  0.00    -0.332 N 
ATOM     20  C   UNL     1       1.669  -2.204   2.820  1.00  0.00     0.284 C 
ATOM     21  C   UNL     1       0.135  -0.532   2.045  1.00  0.00     0.284 C 
ATOM     22  H   UNL     1      -0.165  -2.518   1.847  1.00  0.00     0.348 HD
ATOM     23  C   UNL     1       2.818  -1.161   2.953  1.00  0.00     0.179 C 
ATOM     24  C   UNL     1       1.216   0.561   2.097  1.00  0.00     0.179 C 
BRANCH  19  25
ATOM     25  C   UNL     1       1.177  -2.135   0.441  1.00  0.00     0.262 C 
BRANCH  25  26
ATOM     26  C   UNL     1       0.326  -1.676  -0.756  1.00  0.00     0.058 C 
ATOM     27  C   UNL     1       0.650  -0.267  -1.241  1.00  0.00     0.010 C 
ENDBRANCH  25  26
ENDBRANCH  19  25
ENDBRANCH   9  18
BRANCH  17  28
ATOM     28  N   UNL     1       4.053   5.566   8.234  1.00  0.00    -0.322 N 
ATOM     29  C   UNL     1       5.241   6.053   8.711  1.00  0.00     0.255 C 
ATOM     30  H   UNL     1       3.283   5.881   8.760  1.00  0.00     0.170 HD
ATOM     31  O   UNL     1       5.255   6.643   9.792  1.00  0.00    -0.269 OA
BRANCH  29  32
ATOM     32  C   UNL     1       6.517   5.889   8.010  1.00  0.00     0.040 A 
ATOM     33  C   UNL     1       7.544   5.186   8.652  1.00  0.00     0.017 A 
ATOM     34  C   UNL     1       6.733   6.509   6.775  1.00  0.00     0.017 A 
ATOM     35  C   UNL     1       8.779   5.051   8.022  1.00  0.00     0.040 A 
ATOM     36  C   UNL     1       7.966   6.354   6.143  1.00  0.00     0.040 A 
ATOM     37  C   UNL     1       8.974   5.627   6.771  1.00  0.00     0.123 A 
ATOM     38  F   UNL     1      10.147   5.462   6.147  1.00  0.00    -0.207 F 
ENDBRANCH  29  32
ENDBRANCH  17  28
ENDBRANCH   6   8
ENDBRANCH   5   6
ENDBRANCH   4   5
ENDBRANCH   3   4
ENDBRANCH   2   3
ENDBRANCH   1   2
BRANCH   1  39
ATOM     39  C   UNL     1       7.090   0.910   6.217  1.00  0.00     0.188 C 
BRANCH  39  40
ATOM     40  O   UNL     1       7.929   1.607   7.120  1.00  0.00    -0.376 OA
BRANCH  40  41
ATOM     41  C   UNL     1       8.265   0.944   8.325  1.00  0.00     0.202 C 
BRANCH  41  42
ATOM     42  C   UNL     1       9.103  -0.341   8.230  1.00  0.00     0.261 C 
BRANCH  42  43
ATOM     43  O   UNL     1       8.791  -1.235   7.154  1.00  0.00    -0.460 OA
BRANCH  43  44
ATOM     44  C   UNL     1       7.753  -2.093   7.321  1.00  0.00     0.338 C 
ATOM     45  O   UNL     1       7.006  -2.171   8.262  1.00  0.00    -0.246 OA
BRANCH  44  46
ATOM     46  C   UNL     1       7.584  -2.801   6.025  1.00  0.00     0.060 A 
ATOM     47  C   UNL     1       6.351  -2.727   5.362  1.00  0.00     0.016 A 
ATOM     48  C   UNL     1       8.665  -3.464   5.438  1.00  0.00     0.016 A 
ATOM     49  C   UNL     1       6.199  -3.325   4.107  1.00  0.00     0.010 A 
ATOM     50  C   UNL     1       8.506  -4.078   4.196  1.00  0.00     0.010 A 
ATOM     51  C   UNL     1       7.267  -4.028   3.534  1.00  0.00    -0.014 A 
BRANCH  51  52
ATOM     52  C   UNL     1       7.056  -4.892   2.349  1.00  0.00     0.031 A 
ATOM     53  C   UNL     1       6.734  -6.339   2.584  1.00  0.00     0.074 A 
ATOM     54  C   UNL     1       7.205  -4.426   1.097  1.00  0.00     0.049 A 
ATOM     55  N   UNL     1       6.621  -7.318   1.725  1.00  0.00    -0.248 NA
ATOM     56  C   UNL     1       6.523  -6.734   3.987  1.00  0.00     0.031 C 
ATOM     57  C   UNL     1       7.497  -3.041   0.735  1.00  0.00     0.029 A 
ATOM     58  N   UNL     1       7.160  -5.090  -0.104  1.00  0.00    -0.354 N 
ATOM     59  C   UNL     1       6.338  -8.446   2.483  1.00  0.00     0.074 A 
ATOM     60  C   UNL     1       6.319  -8.036   3.870  1.00  0.00     0.031 C 
ATOM     61  C   UNL     1       7.636  -2.963  -0.601  1.00  0.00     0.029 A 
ATOM     62  C   UNL     1       7.478  -4.298  -1.179  1.00  0.00     0.049 A 
ATOM     63  H   UNL     1       6.922  -6.042  -0.186  1.00  0.00     0.167 HD
ATOM     64  C   UNL     1       6.119  -9.715   2.066  1.00  0.00     0.031 A 
ATOM     65  C   UNL     1       7.658  -4.622  -2.475  1.00  0.00     0.031 A 
ATOM     66  C   UNL     1       6.184 -10.134   0.694  1.00  0.00     0.049 A 
ATOM     67  C   UNL     1       7.483  -6.052  -2.915  1.00  0.00     0.074 A 
ATOM     68  C   UNL     1       5.967 -11.393   0.163  1.00  0.00     0.029 A 
ATOM     69  N   UNL     1       6.512  -9.302  -0.366  1.00  0.00    -0.354 N 
ATOM     70  N   UNL     1       7.174  -7.105  -2.197  1.00  0.00    -0.248 NA
ATOM     71  C   UNL     1       7.676  -6.336  -4.345  1.00  0.00     0.031 C 
ATOM     72  C   UNL     1       6.219 -11.334  -1.212  1.00  0.00     0.029 A 
ATOM     73  C   UNL     1       6.531 -10.025  -1.546  1.00  0.00     0.049 A 
ATOM     74  H   UNL     1       6.702  -8.338  -0.290  1.00  0.00     0.167 HD
ATOM     75  C   UNL     1       7.112  -8.170  -3.088  1.00  0.00     0.074 A 
ATOM     76  C   UNL     1       7.405  -7.633  -4.402  1.00  0.00     0.031 C 
ATOM     77  C   UNL     1       6.831  -9.475  -2.843  1.00  0.00     0.031 A 
BRANCH  64  78
ATOM     78  C   UNL     1       5.848 -10.739   3.132  1.00  0.00    -0.014 A 
ATOM     79  C   UNL     1       4.649 -10.730   3.865  1.00  0.00     0.009 A 
ATOM     80  C   UNL     1       6.819 -11.707   3.429  1.00  0.00     0.009 A 
ATOM     81  C   UNL     1       4.452 -11.638   4.907  1.00  0.00     0.001 A 
ATOM     82  C   UNL     1       6.606 -12.633   4.451  1.00  0.00     0.001 A 
ATOM     83  C   UNL     1       5.430 -12.589   5.198  1.00  0.00     0.000 A 
ENDBRANCH  64  78
BRANCH  65  84
ATOM     84  C   UNL     1       8.058  -3.572  -3.449  1.00  0.00    -0.014 A 
ATOM     85  C   UNL     1       7.150  -3.100  -4.409  1.00  0.00     0.009 A 
ATOM     86  C   UNL     1       9.352  -3.029  -3.415  1.00  0.00     0.009 A 
ATOM     87  C   UNL     1       7.535  -2.115  -5.322  1.00  0.00     0.001 A 
ATOM     88  C   UNL     1       9.726  -2.027  -4.313  1.00  0.00     0.001 A 
ATOM     89  C   UNL     1       8.819  -1.574  -5.269  1.00  0.00     0.000 A 
ENDBRANCH  65  84
BRANCH  77  90
ATOM     90  C   UNL     1       6.792 -10.409  -4.021  1.00  0.00    -0.014 A 
ATOM     91  C   UNL     1       7.967 -10.824  -4.666  1.00  0.00     0.009 A 
ATOM     92  C   UNL     1       5.560 -10.928  -4.451  1.00  0.00     0.009 A 
ATOM     93  C   UNL     1       7.905 -11.719  -5.737  1.00  0.00     0.001 A 
ATOM     94  C   UNL     1       5.504 -11.843  -5.503  1.00  0.00     0.001 A 
ATOM     95  C   UNL     1       6.676 -12.232  -6.150  1.00  0.00     0.000 A 
ENDBRANCH  77  90
ENDBRANCH  51  52
ENDBRANCH  44  46
ENDBRANCH  43  44
ENDBRANCH  42  43
ENDBRANCH  41  42
ENDBRANCH  40  41
ENDBRANCH  39  40
ENDBRANCH   1  39
TORSDOF 22
