REMARK SMILES O=C(OCCOCCOCCOC(=O)c1sccc1S(=O)(=O)N1CCO[C@@H]2CCCC[C@@H]21)c1ccc(-c2c3nc(c(-c4ccccc4)c4ccc([nH]4)c(-c4ccccc4)c4nc(c(-c5ccccc5)c5ccc2[nH]5)C=C4)C=C3)cc1
REMARK SMILES IDX 7 1 6 2 5 3 4 4 3 5 2 6 1 7 33 8 34 9 80 10 35 11 79 12
REMARK SMILES IDX 36 13 37 14 38 15 73 16 39 17 78 18 72 19 74 20 40 21 77 22
REMARK SMILES IDX 71 23 70 24 41 26 63 27 48 28 62 29 49 30 52 31 61 32 75 33
REMARK SMILES IDX 50 34 51 35 60 37 76 38 53 39 42 40 43 41 47 42 44 43 46 44
REMARK SMILES IDX 45 45 64 46 65 47 69 48 66 49 68 50 67 51 54 52 55 53 59 54
REMARK SMILES IDX 56 55 58 56 57 57 8 58 9 59 10 60 11 61 12 62 13 63 14 64
REMARK SMILES IDX 15 65 16 66 19 67 17 68 18 69 20 70 21 71 22 72 23 73 24 74
REMARK SMILES IDX 32 75 25 76 27 77 31 78 26 79 28 80 30 81 29 82
REMARK H PARENT 74 25 52 36
REMARK Flexibility Score: inf
ROOT
ATOM      1  C   UNL     1       1.772  -1.067  -0.435  1.00  0.00     0.188 C 
ENDROOT
BRANCH   1   2
ATOM      2  O   UNL     1       3.188  -0.886  -0.547  1.00  0.00    -0.376 OA
BRANCH   2   3
ATOM      3  C   UNL     1       3.914  -1.399   0.579  1.00  0.00     0.202 C 
BRANCH   3   4
ATOM      4  C   UNL     1       4.019  -0.422   1.761  1.00  0.00     0.261 C 
BRANCH   4   5
ATOM      5  O   UNL     1       2.764   0.200   2.085  1.00  0.00    -0.460 OA
BRANCH   5   6
ATOM      6  C   UNL     1       2.164   1.274   1.517  1.00  0.00     0.338 C 
ATOM      7  O   UNL     1       1.002   1.519   1.843  1.00  0.00    -0.246 OA
BRANCH   6   8
ATOM      8  C   UNL     1       2.820   2.210   0.545  1.00  0.00     0.060 A 
ATOM      9  C   UNL     1       3.994   1.973  -0.175  1.00  0.00     0.016 A 
ATOM     10  C   UNL     1       2.172   3.444   0.339  1.00  0.00     0.016 A 
ATOM     11  C   UNL     1       4.569   2.957  -0.974  1.00  0.00     0.010 A 
ATOM     12  C   UNL     1       2.724   4.428  -0.485  1.00  0.00     0.010 A 
ATOM     13  C   UNL     1       3.956   4.198  -1.101  1.00  0.00    -0.014 A 
BRANCH  13  14
ATOM     14  C   UNL     1       4.736   5.310  -1.669  1.00  0.00     0.031 A 
ATOM     15  C   UNL     1       5.434   6.222  -0.708  1.00  0.00     0.074 A 
ATOM     16  C   UNL     1       4.906   5.439  -2.994  1.00  0.00     0.049 A 
ATOM     17  N   UNL     1       6.101   7.319  -0.940  1.00  0.00    -0.248 NA
ATOM     18  C   UNL     1       5.390   5.825   0.711  1.00  0.00     0.031 C 
ATOM     19  C   UNL     1       4.423   4.498  -4.001  1.00  0.00     0.029 A 
ATOM     20  N   UNL     1       5.542   6.412  -3.716  1.00  0.00    -0.354 N 
ATOM     21  C   UNL     1       6.535   7.755   0.303  1.00  0.00     0.074 A 
ATOM     22  C   UNL     1       6.056   6.812   1.287  1.00  0.00     0.031 C 
ATOM     23  C   UNL     1       4.758   4.955  -5.219  1.00  0.00     0.029 A 
ATOM     24  C   UNL     1       5.420   6.246  -5.073  1.00  0.00     0.049 A 
ATOM     25  H   UNL     1       6.037   7.156  -3.303  1.00  0.00     0.167 HD
ATOM     26  C   UNL     1       7.256   8.860   0.596  1.00  0.00     0.031 A 
ATOM     27  C   UNL     1       5.764   7.077  -6.074  1.00  0.00     0.031 A 
ATOM     28  C   UNL     1       7.680   9.807  -0.396  1.00  0.00     0.049 A 
ATOM     29  C   UNL     1       6.423   8.382  -5.720  1.00  0.00     0.074 A 
ATOM     30  C   UNL     1       8.345  11.006  -0.223  1.00  0.00     0.029 A 
ATOM     31  N   UNL     1       7.460   9.657  -1.759  1.00  0.00    -0.354 N 
ATOM     32  N   UNL     1       6.772   8.835  -4.538  1.00  0.00    -0.248 NA
ATOM     33  C   UNL     1       6.736   9.290  -6.830  1.00  0.00     0.031 C 
ATOM     34  C   UNL     1       8.475  11.608  -1.479  1.00  0.00     0.029 A 
ATOM     35  C   UNL     1       7.954  10.753  -2.439  1.00  0.00     0.049 A 
ATOM     36  H   UNL     1       7.017   8.884  -2.178  1.00  0.00     0.167 HD
ATOM     37  C   UNL     1       7.376  10.064  -4.763  1.00  0.00     0.074 A 
ATOM     38  C   UNL     1       7.348  10.283  -6.197  1.00  0.00     0.031 C 
ATOM     39  C   UNL     1       7.913  10.931  -3.870  1.00  0.00     0.031 A 
BRANCH  26  40
ATOM     40  C   UNL     1       7.515   9.126   2.051  1.00  0.00    -0.014 A 
ATOM     41  C   UNL     1       8.394   8.330   2.803  1.00  0.00     0.009 A 
ATOM     42  C   UNL     1       6.802  10.148   2.697  1.00  0.00     0.009 A 
ATOM     43  C   UNL     1       8.512   8.518   4.183  1.00  0.00     0.001 A 
ATOM     44  C   UNL     1       6.945  10.353   4.070  1.00  0.00     0.001 A 
ATOM     45  C   UNL     1       7.787   9.529   4.814  1.00  0.00     0.000 A 
ENDBRANCH  26  40
BRANCH  27  46
ATOM     46  C   UNL     1       5.434   6.729  -7.482  1.00  0.00    -0.014 A 
ATOM     47  C   UNL     1       6.443   6.452  -8.415  1.00  0.00     0.009 A 
ATOM     48  C   UNL     1       4.094   6.677  -7.903  1.00  0.00     0.009 A 
ATOM     49  C   UNL     1       6.119   6.151  -9.741  1.00  0.00     0.001 A 
ATOM     50  C   UNL     1       3.771   6.348  -9.221  1.00  0.00     0.001 A 
ATOM     51  C   UNL     1       4.785   6.093 -10.142  1.00  0.00     0.000 A 
ENDBRANCH  27  46
BRANCH  39  52
ATOM     52  C   UNL     1       8.563  12.167  -4.421  1.00  0.00    -0.014 A 
ATOM     53  C   UNL     1       7.804  13.232  -4.928  1.00  0.00     0.009 A 
ATOM     54  C   UNL     1       9.961  12.291  -4.357  1.00  0.00     0.009 A 
ATOM     55  C   UNL     1       8.437  14.389  -5.384  1.00  0.00     0.001 A 
ATOM     56  C   UNL     1      10.587  13.461  -4.785  1.00  0.00     0.001 A 
ATOM     57  C   UNL     1       9.825  14.506  -5.304  1.00  0.00     0.000 A 
ENDBRANCH  39  52
ENDBRANCH  13  14
ENDBRANCH   6   8
ENDBRANCH   5   6
ENDBRANCH   4   5
ENDBRANCH   3   4
ENDBRANCH   2   3
ENDBRANCH   1   2
BRANCH   1  58
ATOM     58  C   UNL     1       1.171  -2.106  -1.379  1.00  0.00     0.188 C 
BRANCH  58  59
ATOM     59  O   UNL     1       1.859  -3.348  -1.443  1.00  0.00    -0.376 OA
BRANCH  59  60
ATOM     60  C   UNL     1       3.083  -3.353  -2.178  1.00  0.00     0.202 C 
BRANCH  60  61
ATOM     61  C   UNL     1       2.988  -2.890  -3.632  1.00  0.00     0.261 C 
BRANCH  61  62
ATOM     62  O   UNL     1       2.838  -1.461  -3.769  1.00  0.00    -0.459 OA
BRANCH  62  63
ATOM     63  C   UNL     1       1.985  -1.066  -4.761  1.00  0.00     0.349 C 
ATOM     64  O   UNL     1       1.340  -1.825  -5.471  1.00  0.00    -0.245 OA
BRANCH  63  65
ATOM     65  C   UNL     1       1.958   0.368  -4.891  1.00  0.00     0.132 A 
ATOM     66  S   UNL     1       0.949   1.292  -3.863  1.00  0.00    -0.136 S 
ATOM     67  C   UNL     1       2.549   1.157  -5.857  1.00  0.00     0.108 A 
ATOM     68  C   UNL     1       1.196   2.713  -4.788  1.00  0.00     0.067 A 
ATOM     69  C   UNL     1       2.069   2.501  -5.833  1.00  0.00     0.034 A 
BRANCH  67  70
ATOM     70  S   UNL     1       3.705   0.579  -7.013  1.00  0.00     0.245 S 
ATOM     71  O   UNL     1       2.873   0.058  -8.066  1.00  0.00    -0.207 OA
ATOM     72  O   UNL     1       4.583   1.716  -7.214  1.00  0.00    -0.207 OA
BRANCH  70  73
ATOM     73  N   UNL     1       4.594  -0.680  -6.291  1.00  0.00    -0.190 NA
ATOM     74  C   UNL     1       4.411  -2.007  -6.937  1.00  0.00     0.131 C 
ATOM     75  C   UNL     1       5.919  -0.359  -5.659  1.00  0.00     0.102 C 
ATOM     76  C   UNL     1       5.367  -3.095  -6.466  1.00  0.00     0.177 C 
ATOM     77  C   UNL     1       6.760  -1.613  -5.304  1.00  0.00     0.136 C 
ATOM     78  C   UNL     1       5.780   0.644  -4.492  1.00  0.00     0.023 C 
ATOM     79  O   UNL     1       5.967  -2.801  -5.210  1.00  0.00    -0.375 OA
ATOM     80  C   UNL     1       7.538  -1.483  -3.996  1.00  0.00     0.034 C 
ATOM     81  C   UNL     1       5.819   0.111  -3.062  1.00  0.00     0.002 C 
ATOM     82  C   UNL     1       6.616  -1.160  -2.835  1.00  0.00     0.003 C 
ENDBRANCH  70  73
ENDBRANCH  67  70
ENDBRANCH  63  65
ENDBRANCH  62  63
ENDBRANCH  61  62
ENDBRANCH  60  61
ENDBRANCH  59  60
ENDBRANCH  58  59
ENDBRANCH   1  58
TORSDOF 19
