REMARK SMILES CC[C@](C)(Nc1cccc(Br)c1)C(=O)OCCOCCOCCOC(=O)c1ccc(-c2c3nc(c(-c4ccccc4)c4ccc([nH]4)c(-c4ccccc4)c4nc(c(-c5ccccc5)c5ccc2[nH]5)C=C4)C=C3)cc1
REMARK SMILES IDX 19 1 18 2 17 3 16 4 15 5 13 6 14 7 3 8 4 9 2 10 1 11 5 12
REMARK SMILES IDX 6 14 7 15 12 16 8 17 10 18 9 19 11 20 20 21 21 22 22 23
REMARK SMILES IDX 23 24 24 25 25 26 26 27 27 28 28 29 74 30 29 31 73 32 30 33
REMARK SMILES IDX 31 34 32 35 67 36 33 37 72 38 66 39 68 40 34 41 71 42 65 43
REMARK SMILES IDX 64 44 35 46 57 47 42 48 56 49 43 50 46 51 55 52 69 53 44 54
REMARK SMILES IDX 45 55 54 57 70 58 47 59 36 60 37 61 41 62 38 63 40 64 39 65
REMARK SMILES IDX 58 66 59 67 63 68 60 69 62 70 61 71 48 72 49 73 53 74 50 75
REMARK SMILES IDX 52 76 51 77
REMARK H PARENT 5 13 68 45 46 56
REMARK Flexibility Score: inf
ROOT
ATOM      1  C   UNL     1       4.705  -2.159  -1.315  1.00  0.00     0.188 C 
ENDROOT
BRANCH   1   2
ATOM      2  O   UNL     1       5.719  -2.248  -0.322  1.00  0.00    -0.376 OA
BRANCH   2   3
ATOM      3  C   UNL     1       5.523  -3.093   0.807  1.00  0.00     0.202 C 
BRANCH   3   4
ATOM      4  C   UNL     1       4.503  -2.622   1.843  1.00  0.00     0.261 C 
BRANCH   4   5
ATOM      5  O   UNL     1       3.151  -3.001   1.518  1.00  0.00    -0.462 OA
BRANCH   5   6
ATOM      6  C   UNL     1       2.321  -2.019   1.095  1.00  0.00     0.331 C 
ATOM      7  O   UNL     1       2.701  -0.858   0.947  1.00  0.00    -0.249 OA
BRANCH   6   8
ATOM      8  C   UNL     1       0.832  -2.431   0.938  1.00  0.00     0.132 C 
ATOM      9  C   UNL     1       0.221  -1.377  -0.035  1.00  0.00     0.047 C 
BRANCH   8  10
ATOM     10  C   UNL     1       0.129  -2.364   2.312  1.00  0.00     0.037 C 
ATOM     11  C   UNL     1       0.367  -1.079   3.101  1.00  0.00     0.007 C 
ENDBRANCH   8  10
BRANCH   8  12
ATOM     12  N   UNL     1       0.463  -3.719   0.291  1.00  0.00    -0.370 N 
ATOM     13  H   UNL     1      -0.456  -3.697  -0.064  1.00  0.00     0.161 HD
BRANCH  12  14
ATOM     14  C   UNL     1       1.065  -4.928   0.059  1.00  0.00     0.036 A 
ATOM     15  C   UNL     1       2.010  -5.537   0.881  1.00  0.00     0.026 A 
ATOM     16  C   UNL     1       0.741  -5.591  -1.141  1.00  0.00     0.041 A 
ATOM     17  C   UNL     1       2.655  -6.724   0.501  1.00  0.00     0.003 A 
ATOM     18  C   UNL     1       1.363  -6.784  -1.514  1.00  0.00     0.020 A 
ATOM     19  C   UNL     1       2.340  -7.345  -0.705  1.00  0.00     0.016 A 
ATOM     20  Br  UNL     1       0.861  -7.648  -3.119  1.00  0.00    -0.051 Br
ENDBRANCH  12  14
ENDBRANCH   8  12
ENDBRANCH   6   8
ENDBRANCH   5   6
ENDBRANCH   4   5
ENDBRANCH   3   4
ENDBRANCH   2   3
ENDBRANCH   1   2
BRANCH   1  21
ATOM     21  C   UNL     1       3.874  -3.405  -1.628  1.00  0.00     0.188 C 
BRANCH  21  22
ATOM     22  O   UNL     1       4.539  -4.659  -1.576  1.00  0.00    -0.376 OA
BRANCH  22  23
ATOM     23  C   UNL     1       5.644  -4.837  -2.451  1.00  0.00     0.202 C 
BRANCH  23  24
ATOM     24  C   UNL     1       5.209  -5.314  -3.834  1.00  0.00     0.261 C 
BRANCH  24  25
ATOM     25  O   UNL     1       4.665  -4.203  -4.567  1.00  0.00    -0.460 OA
BRANCH  25  26
ATOM     26  C   UNL     1       3.366  -4.308  -4.931  1.00  0.00     0.338 C 
ATOM     27  O   UNL     1       2.639  -5.282  -4.854  1.00  0.00    -0.246 OA
BRANCH  26  28
ATOM     28  C   UNL     1       2.885  -2.958  -5.274  1.00  0.00     0.060 A 
ATOM     29  C   UNL     1       1.701  -2.500  -4.678  1.00  0.00     0.016 A 
ATOM     30  C   UNL     1       3.609  -2.143  -6.145  1.00  0.00     0.016 A 
ATOM     31  C   UNL     1       1.232  -1.217  -4.960  1.00  0.00     0.010 A 
ATOM     32  C   UNL     1       3.132  -0.869  -6.437  1.00  0.00     0.010 A 
ATOM     33  C   UNL     1       1.936  -0.406  -5.859  1.00  0.00    -0.014 A 
BRANCH  33  34
ATOM     34  C   UNL     1       1.388   0.889  -6.314  1.00  0.00     0.031 A 
ATOM     35  C   UNL     1       0.695   0.943  -7.644  1.00  0.00     0.074 A 
ATOM     36  C   UNL     1       1.583   2.006  -5.592  1.00  0.00     0.049 A 
ATOM     37  N   UNL     1       0.322   1.983  -8.340  1.00  0.00    -0.248 NA
ATOM     38  C   UNL     1       0.396  -0.352  -8.280  1.00  0.00     0.031 C 
ATOM     39  C   UNL     1       2.208   2.067  -4.271  1.00  0.00     0.029 A 
ATOM     40  N   UNL     1       1.305   3.315  -5.895  1.00  0.00    -0.354 N 
ATOM     41  C   UNL     1      -0.232   1.472  -9.506  1.00  0.00     0.074 A 
ATOM     42  C   UNL     1      -0.142   0.031  -9.428  1.00  0.00     0.031 C 
ATOM     43  C   UNL     1       2.299   3.353  -3.893  1.00  0.00     0.029 A 
ATOM     44  C   UNL     1       1.784   4.204  -4.963  1.00  0.00     0.049 A 
ATOM     45  H   UNL     1       0.810   3.591  -6.700  1.00  0.00     0.167 HD
ATOM     46  C   UNL     1      -0.759   2.149 -10.552  1.00  0.00     0.031 A 
ATOM     47  C   UNL     1       1.846   5.549  -4.999  1.00  0.00     0.031 A 
ATOM     48  C   UNL     1      -0.836   3.582 -10.625  1.00  0.00     0.049 A 
ATOM     49  C   UNL     1       1.326   6.275  -6.213  1.00  0.00     0.074 A 
ATOM     50  C   UNL     1      -1.387   4.365 -11.624  1.00  0.00     0.029 A 
ATOM     51  N   UNL     1      -0.335   4.446  -9.665  1.00  0.00    -0.354 N 
ATOM     52  N   UNL     1       0.767   5.787  -7.294  1.00  0.00    -0.248 NA
ATOM     53  C   UNL     1       1.454   7.740  -6.214  1.00  0.00     0.031 C 
ATOM     54  C   UNL     1      -1.165   5.706 -11.296  1.00  0.00     0.029 A 
ATOM     55  C   UNL     1      -0.527   5.756 -10.067  1.00  0.00     0.049 A 
ATOM     56  H   UNL     1       0.094   4.170  -8.823  1.00  0.00     0.167 HD
ATOM     57  C   UNL     1       0.461   6.882  -8.092  1.00  0.00     0.074 A 
ATOM     58  C   UNL     1       0.875   8.062  -7.362  1.00  0.00     0.031 C 
ATOM     59  C   UNL     1      -0.107   6.913  -9.322  1.00  0.00     0.031 A 
BRANCH  46  60
ATOM     60  C   UNL     1      -1.257   1.352 -11.723  1.00  0.00    -0.014 A 
ATOM     61  C   UNL     1      -2.455   0.626 -11.655  1.00  0.00     0.009 A 
ATOM     62  C   UNL     1      -0.544   1.382 -12.932  1.00  0.00     0.009 A 
ATOM     63  C   UNL     1      -2.920  -0.070 -12.773  1.00  0.00     0.001 A 
ATOM     64  C   UNL     1      -1.024   0.705 -14.053  1.00  0.00     0.001 A 
ATOM     65  C   UNL     1      -2.209  -0.024 -13.972  1.00  0.00     0.000 A 
ENDBRANCH  46  60
BRANCH  47  66
ATOM     66  C   UNL     1       2.483   6.306  -3.888  1.00  0.00    -0.014 A 
ATOM     67  C   UNL     1       1.720   7.150  -3.067  1.00  0.00     0.009 A 
ATOM     68  C   UNL     1       3.868   6.225  -3.675  1.00  0.00     0.009 A 
ATOM     69  C   UNL     1       2.337   7.923  -2.079  1.00  0.00     0.001 A 
ATOM     70  C   UNL     1       4.477   6.974  -2.666  1.00  0.00     0.001 A 
ATOM     71  C   UNL     1       3.713   7.832  -1.878  1.00  0.00     0.000 A 
ENDBRANCH  47  66
BRANCH  59  72
ATOM     72  C   UNL     1      -0.336   8.262  -9.942  1.00  0.00    -0.014 A 
ATOM     73  C   UNL     1       0.731   9.014 -10.455  1.00  0.00     0.009 A 
ATOM     74  C   UNL     1      -1.643   8.761 -10.061  1.00  0.00     0.009 A 
ATOM     75  C   UNL     1       0.496  10.254 -11.053  1.00  0.00     0.001 A 
ATOM     76  C   UNL     1      -1.878   9.986 -10.685  1.00  0.00     0.001 A 
ATOM     77  C   UNL     1      -0.808  10.735 -11.172  1.00  0.00     0.000 A 
ENDBRANCH  59  72
ENDBRANCH  33  34
ENDBRANCH  26  28
ENDBRANCH  25  26
ENDBRANCH  24  25
ENDBRANCH  23  24
ENDBRANCH  22  23
ENDBRANCH  21  22
ENDBRANCH   1  21
TORSDOF 20
