REMARK SMILES Cc1ccc([C@@H]2[C@H](C(=O)OCCOCCOCCOC(=O)c3ccc(-c4c5nc(c(-c6ccccc6)c6ccc([nH]6)c(-c6ccccc6)c6nc(c(-c7ccccc7)c7ccc4[nH]7)C=C6)C=C5)cc3)c3ccccc3C(=O)N2c2ccccc2)cc1
REMARK SMILES IDX 15 1 14 2 13 3 12 4 11 5 10 6 8 7 9 8 7 9 6 10 78 11 70 12
REMARK SMILES IDX 76 13 71 14 75 15 77 16 72 17 74 18 73 19 5 20 1 21 2 22
REMARK SMILES IDX 3 23 86 24 4 25 85 26 79 27 80 28 84 29 81 30 83 31 82 32
REMARK SMILES IDX 16 33 17 34 18 35 19 36 20 37 21 38 22 39 23 40 69 41 24 42
REMARK SMILES IDX 68 43 25 44 26 45 27 46 62 47 28 48 67 49 61 50 63 51 29 52
REMARK SMILES IDX 66 53 60 54 59 55 30 57 52 58 37 59 51 60 38 61 41 62 50 63
REMARK SMILES IDX 64 64 39 65 40 66 49 68 65 69 42 70 31 71 32 72 36 73 33 74
REMARK SMILES IDX 35 75 34 76 53 77 54 78 58 79 55 80 57 81 56 82 43 83 44 84
REMARK SMILES IDX 48 85 45 86 47 87 46 88
REMARK H PARENT 63 56 41 67
REMARK Flexibility Score: inf
ROOT
ATOM      1  C   UNL     1      -6.774  -6.476   1.739  1.00  0.00     0.188 C 
ENDROOT
BRANCH   1   2
ATOM      2  C   UNL     1      -5.597  -6.206   0.806  1.00  0.00     0.188 C 
BRANCH   2   3
ATOM      3  O   UNL     1      -4.460  -6.987   1.126  1.00  0.00    -0.376 OA
BRANCH   3   4
ATOM      4  C   UNL     1      -3.323  -6.197   1.505  1.00  0.00     0.202 C 
BRANCH   4   5
ATOM      5  C   UNL     1      -3.664  -4.909   2.306  1.00  0.00     0.261 C 
BRANCH   5   6
ATOM      6  O   UNL     1      -3.410  -3.347   1.901  1.00  0.00    -0.463 OA
BRANCH   6   7
ATOM      7  C   UNL     1      -2.473  -2.305   2.129  1.00  0.00     0.316 C 
ATOM      8  O   UNL     1      -1.290  -2.476   1.815  1.00  0.00    -0.251 OA
BRANCH   7   9
ATOM      9  C   UNL     1      -2.833  -0.807   2.506  1.00  0.00     0.157 C 
ATOM     10  C   UNL     1      -2.906   0.078   1.239  1.00  0.00     0.140 C 
ATOM     11  N   UNL     1      -4.172  -0.207   0.540  1.00  0.00    -0.300 N 
ATOM     12  C   UNL     1      -4.029  -0.328   3.368  1.00  0.00    -0.019 A 
ATOM     13  C   UNL     1      -5.299   0.312   1.243  1.00  0.00     0.259 C 
ATOM     14  C   UNL     1      -3.974  -0.310   4.780  1.00  0.00     0.005 A 
ATOM     15  C   UNL     1      -5.209   0.143   2.745  1.00  0.00     0.044 A 
ATOM     16  O   UNL     1      -6.279   0.789   0.743  1.00  0.00    -0.269 OA
ATOM     17  C   UNL     1      -5.121  -0.024   5.535  1.00  0.00     0.000 A 
ATOM     18  C   UNL     1      -6.344   0.448   3.511  1.00  0.00     0.014 A 
ATOM     19  C   UNL     1      -6.311   0.327   4.900  1.00  0.00     0.001 A 
BRANCH  10  20
ATOM     20  C   UNL     1      -1.566   0.496   0.622  1.00  0.00    -0.024 A 
ATOM     21  C   UNL     1       2.689   0.995  -0.016  1.00  0.00     0.044 C 
ATOM     22  C   UNL     1       1.194   0.964   0.085  1.00  0.00    -0.051 A 
ATOM     23  C   UNL     1       0.441   0.086  -0.692  1.00  0.00     0.004 A 
ATOM     24  C   UNL     1       0.529   1.739   1.028  1.00  0.00     0.004 A 
ATOM     25  C   UNL     1      -0.930  -0.105  -0.457  1.00  0.00     0.006 A 
ATOM     26  C   UNL     1      -0.822   1.497   1.300  1.00  0.00     0.006 A 
ENDBRANCH  10  20
BRANCH  11  27
ATOM     27  C   UNL     1      -4.438  -1.388  -0.253  1.00  0.00     0.045 A 
ATOM     28  C   UNL     1      -5.750  -1.790  -0.569  1.00  0.00     0.026 A 
ATOM     29  C   UNL     1      -3.447  -2.307  -0.556  1.00  0.00     0.026 A 
ATOM     30  C   UNL     1      -6.041  -3.038  -1.141  1.00  0.00     0.002 A 
ATOM     31  C   UNL     1      -3.751  -3.588  -1.010  1.00  0.00     0.002 A 
ATOM     32  C   UNL     1      -5.026  -3.940  -1.381  1.00  0.00     0.000 A 
ENDBRANCH  11  27
ENDBRANCH   7   9
ENDBRANCH   6   7
ENDBRANCH   5   6
ENDBRANCH   4   5
ENDBRANCH   3   4
ENDBRANCH   2   3
ENDBRANCH   1   2
BRANCH   1  33
ATOM     33  O   UNL     1      -6.396  -6.576   3.116  1.00  0.00    -0.376 OA
BRANCH  33  34
ATOM     34  C   UNL     1      -7.371  -7.278   3.902  1.00  0.00     0.202 C 
BRANCH  34  35
ATOM     35  C   UNL     1      -8.629  -6.446   4.172  1.00  0.00     0.261 C 
BRANCH  35  36
ATOM     36  O   UNL     1      -8.316  -5.533   5.239  1.00  0.00    -0.460 OA
BRANCH  36  37
ATOM     37  C   UNL     1      -7.975  -4.311   4.784  1.00  0.00     0.338 C 
ATOM     38  O   UNL     1      -8.657  -3.625   4.037  1.00  0.00    -0.246 OA
BRANCH  37  39
ATOM     39  C   UNL     1      -6.538  -4.062   5.077  1.00  0.00     0.060 A 
ATOM     40  C   UNL     1      -5.928  -3.197   4.222  1.00  0.00     0.016 A 
ATOM     41  C   UNL     1      -5.714  -4.750   5.981  1.00  0.00     0.016 A 
ATOM     42  C   UNL     1      -4.532  -3.115   4.244  1.00  0.00     0.010 A 
ATOM     43  C   UNL     1      -4.281  -4.665   5.918  1.00  0.00     0.010 A 
ATOM     44  C   UNL     1      -3.617  -3.874   4.973  1.00  0.00    -0.014 A 
BRANCH  44  45
ATOM     45  C   UNL     1      -2.044  -3.962   4.757  1.00  0.00     0.031 A 
ATOM     46  C   UNL     1      -1.275  -3.292   5.845  1.00  0.00     0.074 A 
ATOM     47  C   UNL     1      -1.186  -4.578   3.812  1.00  0.00     0.049 A 
ATOM     48  N   UNL     1      -0.004  -3.035   5.816  1.00  0.00    -0.248 NA
ATOM     49  C   UNL     1      -1.927  -2.738   7.043  1.00  0.00     0.031 C 
ATOM     50  C   UNL     1      -0.029  -5.408   4.176  1.00  0.00     0.029 A 
ATOM     51  N   UNL     1      -1.164  -4.807   2.393  1.00  0.00    -0.354 N 
ATOM     52  C   UNL     1       0.325  -2.923   7.145  1.00  0.00     0.074 A 
ATOM     53  C   UNL     1      -0.859  -2.386   7.759  1.00  0.00     0.031 C 
ATOM     54  C   UNL     1       0.592  -5.895   3.080  1.00  0.00     0.029 A 
ATOM     55  C   UNL     1       0.003  -5.353   1.865  1.00  0.00     0.049 A 
ATOM     56  H   UNL     1      -1.935  -4.588   1.822  1.00  0.00     0.167 HD
ATOM     57  C   UNL     1       1.334  -3.708   7.627  1.00  0.00     0.031 A 
ATOM     58  C   UNL     1       0.612  -5.029   0.666  1.00  0.00     0.031 A 
ATOM     59  C   UNL     1       2.219  -4.244   6.572  1.00  0.00     0.049 A 
ATOM     60  C   UNL     1       1.964  -4.398   0.973  1.00  0.00     0.074 A 
ATOM     61  C   UNL     1       2.709  -5.501   6.243  1.00  0.00     0.029 A 
ATOM     62  N   UNL     1       2.576  -3.434   5.495  1.00  0.00    -0.354 N 
ATOM     63  N   UNL     1       2.502  -4.484   2.151  1.00  0.00    -0.248 NA
ATOM     64  C   UNL     1       2.750  -3.520   0.097  1.00  0.00     0.031 C 
ATOM     65  C   UNL     1       3.445  -5.405   5.027  1.00  0.00     0.029 A 
ATOM     66  C   UNL     1       3.414  -4.089   4.616  1.00  0.00     0.049 A 
ATOM     67  H   UNL     1       2.267  -2.507   5.376  1.00  0.00     0.167 HD
ATOM     68  C   UNL     1       3.495  -3.566   2.286  1.00  0.00     0.074 A 
ATOM     69  C   UNL     1       3.653  -3.011   0.957  1.00  0.00     0.031 C 
ATOM     70  C   UNL     1       4.024  -3.337   3.521  1.00  0.00     0.031 A 
BRANCH  57  71
ATOM     71  C   UNL     1       1.333  -4.238   9.062  1.00  0.00    -0.014 A 
ATOM     72  C   UNL     1       2.309  -5.168   9.459  1.00  0.00     0.009 A 
ATOM     73  C   UNL     1       0.356  -3.955  10.041  1.00  0.00     0.009 A 
ATOM     74  C   UNL     1       2.281  -5.805  10.710  1.00  0.00     0.001 A 
ATOM     75  C   UNL     1       0.335  -4.561  11.305  1.00  0.00     0.001 A 
ATOM     76  C   UNL     1       1.293  -5.500  11.636  1.00  0.00     0.000 A 
ENDBRANCH  57  71
BRANCH  58  77
ATOM     77  C   UNL     1      -0.103  -4.789  -0.656  1.00  0.00    -0.014 A 
ATOM     78  C   UNL     1      -0.772  -5.850  -1.308  1.00  0.00     0.009 A 
ATOM     79  C   UNL     1      -0.130  -3.559  -1.339  1.00  0.00     0.009 A 
ATOM     80  C   UNL     1      -1.484  -5.671  -2.520  1.00  0.00     0.001 A 
ATOM     81  C   UNL     1      -0.826  -3.373  -2.559  1.00  0.00     0.001 A 
ATOM     82  C   UNL     1      -1.525  -4.425  -3.140  1.00  0.00     0.000 A 
ENDBRANCH  58  77
BRANCH  70  83
ATOM     83  C   UNL     1       5.148  -2.400   3.862  1.00  0.00    -0.014 A 
ATOM     84  C   UNL     1       6.096  -1.935   2.949  1.00  0.00     0.009 A 
ATOM     85  C   UNL     1       5.357  -2.059   5.220  1.00  0.00     0.009 A 
ATOM     86  C   UNL     1       7.170  -1.137   3.368  1.00  0.00     0.001 A 
ATOM     87  C   UNL     1       6.428  -1.280   5.645  1.00  0.00     0.001 A 
ATOM     88  C   UNL     1       7.335  -0.811   4.713  1.00  0.00     0.000 A 
ENDBRANCH  70  83
ENDBRANCH  44  45
ENDBRANCH  37  39
ENDBRANCH  36  37
ENDBRANCH  35  36
ENDBRANCH  34  35
ENDBRANCH  33  34
ENDBRANCH   1  33
TORSDOF 19
