REMARK SMILES Cc1ccccc1-c1c(Cl)ccc2c1C=C(C(=O)OCCOCCOCCOC(=O)c1ccc(-c3c4nc(c(-c5ccccc5)c5ccc([nH]5)c(-c5ccccc5)c5nc(c(-c6ccccc6)c6ccc3[nH]6)C=C5)C=C4)cc1)[C@@H](C(F)(F)F)O2
REMARK SMILES IDX 24 1 23 2 22 3 21 4 20 5 19 6 17 7 18 8 16 9 8 10 9 11 14 12
REMARK SMILES IDX 10 13 11 14 13 15 15 16 12 17 84 18 79 19 7 20 1 21 2 22
REMARK SMILES IDX 3 23 4 24 6 25 5 26 80 27 81 28 82 29 83 30 25 31 26 32
REMARK SMILES IDX 27 33 28 34 29 35 30 36 31 37 32 38 78 39 33 40 77 41 34 42
REMARK SMILES IDX 35 43 36 44 71 45 37 46 76 47 70 48 72 49 38 50 75 51 69 52
REMARK SMILES IDX 68 53 39 55 61 56 46 57 60 58 47 59 50 60 59 61 73 62 48 63
REMARK SMILES IDX 49 64 58 66 74 67 51 68 40 69 41 70 45 71 42 72 44 73 43 74
REMARK SMILES IDX 62 75 63 76 67 77 64 78 66 79 65 80 52 81 53 82 57 83 54 84
REMARK SMILES IDX 56 85 55 86
REMARK H PARENT 72 54 50 65
REMARK Flexibility Score: inf
ROOT
ATOM      1  C   UNL     1      10.099   0.699  -3.610  1.00  0.00     0.188 C 
ENDROOT
BRANCH   1   2
ATOM      2  C   UNL     1       9.427   1.088  -2.309  1.00  0.00     0.188 C 
BRANCH   2   3
ATOM      3  O   UNL     1       8.546   0.248  -1.557  1.00  0.00    -0.376 OA
BRANCH   3   4
ATOM      4  C   UNL     1       7.804  -0.916  -1.931  1.00  0.00     0.202 C 
BRANCH   4   5
ATOM      5  C   UNL     1       6.150  -1.259  -2.343  1.00  0.00     0.261 C 
BRANCH   5   6
ATOM      6  O   UNL     1       4.704  -0.322  -2.642  1.00  0.00    -0.460 OA
BRANCH   6   7
ATOM      7  C   UNL     1       3.916   0.734  -2.119  1.00  0.00     0.338 C 
ATOM      8  O   UNL     1       4.031   1.250  -1.012  1.00  0.00    -0.246 OA
BRANCH   7   9
ATOM      9  C   UNL     1       2.767   1.312  -2.919  1.00  0.00     0.087 C 
ATOM     10  C   UNL     1       0.352   2.298  -0.184  1.00  0.00     0.012 A 
ATOM     11  C   UNL     1       0.231   3.367   0.743  1.00  0.00     0.049 A 
ATOM     12  C   UNL     1       1.323   2.398  -1.222  1.00  0.00     0.027 A 
ATOM     13  Cl  UNL     1      -0.843   3.296   2.105  1.00  0.00    -0.084 Cl
ATOM     14  C   UNL     1       1.009   4.519   0.624  1.00  0.00     0.025 A 
ATOM     15  C   UNL     1       2.094   3.571  -1.316  1.00  0.00     0.128 A 
ATOM     16  C   UNL     1       1.640   1.262  -2.159  1.00  0.00     0.028 C 
ATOM     17  C   UNL     1       1.936   4.623  -0.407  1.00  0.00     0.049 A 
ATOM     18  O   UNL     1       3.083   3.736  -2.251  1.00  0.00    -0.475 OA
ATOM     19  C   UNL     1       3.101   2.768  -3.334  1.00  0.00     0.316 C 
BRANCH  10  20
ATOM     20  C   UNL     1      -0.489   1.092  -0.050  1.00  0.00    -0.013 A 
ATOM     21  C   UNL     1       1.463  -0.331   0.773  1.00  0.00     0.045 C 
ATOM     22  C   UNL     1       0.035  -0.154   0.347  1.00  0.00    -0.043 A 
ATOM     23  C   UNL     1      -0.799  -1.284   0.368  1.00  0.00     0.004 A 
ATOM     24  C   UNL     1      -2.152  -1.178   0.056  1.00  0.00     0.000 A 
ATOM     25  C   UNL     1      -1.864   1.181  -0.339  1.00  0.00     0.009 A 
ATOM     26  C   UNL     1      -2.690   0.060  -0.277  1.00  0.00     0.001 A 
ENDBRANCH  10  20
BRANCH  19  27
ATOM     27  C   UNL     1       2.187   3.277  -4.466  1.00  0.00     0.430 C 
ATOM     28  F   UNL     1       2.523   4.534  -4.847  1.00  0.00    -0.167 F 
ATOM     29  F   UNL     1       2.297   2.492  -5.566  1.00  0.00    -0.167 F 
ATOM     30  F   UNL     1       0.877   3.303  -4.125  1.00  0.00    -0.167 F 
ENDBRANCH  19  27
ENDBRANCH   7   9
ENDBRANCH   6   7
ENDBRANCH   5   6
ENDBRANCH   4   5
ENDBRANCH   3   4
ENDBRANCH   2   3
ENDBRANCH   1   2
BRANCH   1  31
ATOM     31  O   UNL     1       9.300  -0.220  -4.321  1.00  0.00    -0.376 OA
BRANCH  31  32
ATOM     32  C   UNL     1       9.913  -0.695  -5.510  1.00  0.00     0.202 C 
BRANCH  32  33
ATOM     33  C   UNL     1       9.887   0.334  -6.655  1.00  0.00     0.261 C 
BRANCH  33  34
ATOM     34  O   UNL     1       8.562   0.893  -6.793  1.00  0.00    -0.460 OA
BRANCH  34  35
ATOM     35  C   UNL     1       8.418   2.226  -6.503  1.00  0.00     0.338 C 
ATOM     36  O   UNL     1       9.154   3.116  -6.898  1.00  0.00    -0.246 OA
BRANCH  35  37
ATOM     37  C   UNL     1       7.408   2.384  -5.408  1.00  0.00     0.060 A 
ATOM     38  C   UNL     1       7.390   3.407  -4.465  1.00  0.00     0.016 A 
ATOM     39  C   UNL     1       6.670   1.304  -5.082  1.00  0.00     0.016 A 
ATOM     40  C   UNL     1       6.875   3.204  -3.112  1.00  0.00     0.010 A 
ATOM     41  C   UNL     1       6.390   1.112  -3.716  1.00  0.00     0.010 A 
ATOM     42  C   UNL     1       6.512   1.953  -2.576  1.00  0.00    -0.014 A 
BRANCH  42  43
ATOM     43  C   UNL     1       6.545   1.606  -0.869  1.00  0.00     0.031 A 
ATOM     44  C   UNL     1       5.932   0.364   0.157  1.00  0.00     0.074 A 
ATOM     45  C   UNL     1       7.365   2.419  -0.127  1.00  0.00     0.049 A 
ATOM     46  N   UNL     1       6.135   0.302   1.460  1.00  0.00    -0.248 NA
ATOM     47  C   UNL     1       5.090  -0.856  -0.099  1.00  0.00     0.031 C 
ATOM     48  C   UNL     1       7.728   2.395   1.301  1.00  0.00     0.029 A 
ATOM     49  N   UNL     1       8.023   3.578  -0.553  1.00  0.00    -0.354 N 
ATOM     50  C   UNL     1       5.449  -0.776   1.993  1.00  0.00     0.074 A 
ATOM     51  C   UNL     1       5.236  -1.679   0.932  1.00  0.00     0.031 C 
ATOM     52  C   UNL     1       8.168   3.603   1.679  1.00  0.00     0.029 A 
ATOM     53  C   UNL     1       8.087   4.463   0.526  1.00  0.00     0.049 A 
ATOM     54  H   UNL     1       8.378   3.742  -1.456  1.00  0.00     0.167 HD
ATOM     55  C   UNL     1       4.712  -0.755   3.136  1.00  0.00     0.031 A 
ATOM     56  C   UNL     1       7.433   5.649   0.458  1.00  0.00     0.031 A 
ATOM     57  C   UNL     1       4.801   0.522   3.788  1.00  0.00     0.049 A 
ATOM     58  C   UNL     1       6.279   5.661   1.424  1.00  0.00     0.074 A 
ATOM     59  C   UNL     1       5.703   1.014   4.707  1.00  0.00     0.029 A 
ATOM     60  N   UNL     1       4.136   1.618   3.232  1.00  0.00    -0.354 N 
ATOM     61  N   UNL     1       5.655   4.596   1.857  1.00  0.00    -0.248 NA
ATOM     62  C   UNL     1       5.790   6.894   2.024  1.00  0.00     0.031 C 
ATOM     63  C   UNL     1       5.616   2.426   4.672  1.00  0.00     0.029 A 
ATOM     64  C   UNL     1       4.615   2.790   3.784  1.00  0.00     0.049 A 
ATOM     65  H   UNL     1       3.430   1.563   2.548  1.00  0.00     0.167 HD
ATOM     66  C   UNL     1       4.740   4.973   2.802  1.00  0.00     0.074 A 
ATOM     67  C   UNL     1       4.849   6.421   2.857  1.00  0.00     0.031 C 
ATOM     68  C   UNL     1       4.004   4.091   3.540  1.00  0.00     0.031 A 
BRANCH  55  69
ATOM     69  C   UNL     1       3.931  -1.966   3.617  1.00  0.00    -0.014 A 
ATOM     70  C   UNL     1       4.104  -2.426   4.927  1.00  0.00     0.009 A 
ATOM     71  C   UNL     1       3.095  -2.754   2.791  1.00  0.00     0.009 A 
ATOM     72  C   UNL     1       3.558  -3.652   5.353  1.00  0.00     0.001 A 
ATOM     73  C   UNL     1       2.576  -3.993   3.196  1.00  0.00     0.001 A 
ATOM     74  C   UNL     1       2.823  -4.451   4.479  1.00  0.00     0.000 A 
ENDBRANCH  55  69
BRANCH  56  75
ATOM     75  C   UNL     1       7.500   6.300  -0.885  1.00  0.00    -0.014 A 
ATOM     76  C   UNL     1       8.787   6.462  -1.460  1.00  0.00     0.009 A 
ATOM     77  C   UNL     1       6.386   6.479  -1.712  1.00  0.00     0.009 A 
ATOM     78  C   UNL     1       8.957   6.680  -2.829  1.00  0.00     0.001 A 
ATOM     79  C   UNL     1       6.559   6.728  -3.085  1.00  0.00     0.001 A 
ATOM     80  C   UNL     1       7.839   6.808  -3.644  1.00  0.00     0.000 A 
ENDBRANCH  56  75
BRANCH  68  81
ATOM     81  C   UNL     1       2.770   4.460   4.333  1.00  0.00    -0.014 A 
ATOM     82  C   UNL     1       2.075   5.668   4.192  1.00  0.00     0.009 A 
ATOM     83  C   UNL     1       2.202   3.511   5.210  1.00  0.00     0.009 A 
ATOM     84  C   UNL     1       0.943   5.960   4.963  1.00  0.00     0.001 A 
ATOM     85  C   UNL     1       1.046   3.776   5.947  1.00  0.00     0.001 A 
ATOM     86  C   UNL     1       0.431   5.014   5.842  1.00  0.00     0.000 A 
ENDBRANCH  68  81
ENDBRANCH  42  43
ENDBRANCH  35  37
ENDBRANCH  34  35
ENDBRANCH  33  34
ENDBRANCH  32  33
ENDBRANCH  31  32
ENDBRANCH   1  31
TORSDOF 19
