REMARK SMILES COc1ccc(-n2ccnc2C[N@@H+]2Cc3[nH]cnc3C[C@@H]2C(=O)OCCOCCOCCOC(=O)c2ccc(-c3c4nc(c(-c5ccccc5)c5ccc([nH]5)c(-c5ccccc5)c5nc(c(-c6ccccc6)c6ccc3[nH]6)C=C5)C=C4)cc2)cc1
REMARK SMILES IDX 28 1 27 2 26 3 25 4 24 5 22 6 23 7 21 8 13 9 14 10 15 12
REMARK SMILES IDX 20 13 16 14 19 15 17 16 18 18 12 19 11 20 7 21 8 22 9 23
REMARK SMILES IDX 10 24 6 25 3 26 4 27 85 28 5 29 84 30 2 31 1 32 29 33 30 34
REMARK SMILES IDX 31 35 32 36 33 37 34 38 35 39 36 40 37 41 83 42 38 43 82 44
REMARK SMILES IDX 39 45 40 46 41 47 76 48 42 49 81 50 75 51 77 52 43 53 80 54
REMARK SMILES IDX 74 55 73 56 44 58 66 59 51 60 65 61 52 62 55 63 64 64 78 65
REMARK SMILES IDX 53 66 54 67 63 69 79 70 56 71 45 72 46 73 50 74 47 75 49 76
REMARK SMILES IDX 48 77 67 78 68 79 72 80 69 81 71 82 70 83 57 84 58 85 62 86
REMARK SMILES IDX 59 87 61 88 60 89
REMARK H PARENT 13 11 16 17 77 57 55 68
REMARK Flexibility Score: inf
ROOT
ATOM      1  C   UNL     1      -1.829  -8.253   5.247  1.00  0.00     0.188 C 
ENDROOT
BRANCH   1   2
ATOM      2  O   UNL     1      -3.177  -8.432   5.625  1.00  0.00    -0.376 OA
BRANCH   2   3
ATOM      3  C   UNL     1      -4.177  -8.525   4.622  1.00  0.00     0.202 C 
BRANCH   3   4
ATOM      4  C   UNL     1      -4.016  -7.992   3.186  1.00  0.00     0.261 C 
BRANCH   4   5
ATOM      5  O   UNL     1      -2.736  -8.196   2.572  1.00  0.00    -0.459 OA
BRANCH   5   6
ATOM      6  C   UNL     1      -2.086  -7.071   2.146  1.00  0.00     0.365 C 
ATOM      7  O   UNL     1      -2.544  -5.936   2.224  1.00  0.00    -0.245 OA
BRANCH   6   8
ATOM      8  C   UNL     1      -0.686  -7.396   1.605  1.00  0.00     0.301 C 
ATOM      9  N   UNL     1       0.436  -7.030   2.588  1.00  0.00    -0.312 N 
ATOM     10  C   UNL     1       1.737  -6.963   1.876  1.00  0.00     0.320 C 
ATOM     11  H   UNL     1       0.451  -7.775   3.284  1.00  0.00     0.349 HD
ATOM     12  C   UNL     1       1.593  -5.981   0.783  1.00  0.00     0.093 A 
ATOM     13  C   UNL     1      -0.626  -6.871   0.130  1.00  0.00     0.136 C 
ATOM     14  N   UNL     1       2.295  -4.840   0.539  1.00  0.00    -0.344 N 
ATOM     15  C   UNL     1       0.487  -5.913  -0.024  1.00  0.00     0.074 A 
ATOM     16  C   UNL     1       1.574  -4.133  -0.392  1.00  0.00     0.197 A 
ATOM     17  H   UNL     1       3.150  -4.574   0.949  1.00  0.00     0.167 HD
ATOM     18  N   UNL     1       0.487  -4.774  -0.771  1.00  0.00    -0.241 NA
BRANCH   9  19
ATOM     19  C   UNL     1       0.199  -5.771   3.342  1.00  0.00     0.340 C 
BRANCH  19  20
ATOM     20  C   UNL     1       1.277  -5.474   4.369  1.00  0.00     0.168 A 
ATOM     21  N   UNL     1       1.922  -4.246   4.465  1.00  0.00    -0.299 N 
ATOM     22  C   UNL     1       3.034  -4.450   5.250  1.00  0.00     0.113 A 
ATOM     23  C   UNL     1       2.932  -5.738   5.715  1.00  0.00     0.132 A 
ATOM     24  N   UNL     1       1.840  -6.361   5.178  1.00  0.00    -0.236 NA
BRANCH  21  25
ATOM     25  C   UNL     1       1.580  -3.045   3.801  1.00  0.00     0.047 A 
ATOM     26  C   UNL     1       0.864  -0.865   2.227  1.00  0.00     0.119 A 
ATOM     27  C   UNL     1      -0.117  -1.563   2.928  1.00  0.00     0.048 A 
ATOM     28  C   UNL     1       2.211  -1.201   2.379  1.00  0.00     0.048 A 
ATOM     29  C   UNL     1       0.237  -2.660   3.710  1.00  0.00     0.030 A 
ATOM     30  C   UNL     1       2.577  -2.284   3.182  1.00  0.00     0.030 A 
BRANCH  26  31
ATOM     31  O   UNL     1       0.439   0.186   1.462  1.00  0.00    -0.497 OA
ATOM     32  C   UNL     1       0.923   0.127   0.121  1.00  0.00     0.278 C 
ENDBRANCH  26  31
ENDBRANCH  21  25
ENDBRANCH  19  20
ENDBRANCH   9  19
ENDBRANCH   6   8
ENDBRANCH   5   6
ENDBRANCH   4   5
ENDBRANCH   3   4
ENDBRANCH   2   3
ENDBRANCH   1   2
BRANCH   1  33
ATOM     33  C   UNL     1      -1.057  -9.418   4.597  1.00  0.00     0.188 C 
BRANCH  33  34
ATOM     34  O   UNL     1      -1.700 -10.597   4.154  1.00  0.00    -0.376 OA
BRANCH  34  35
ATOM     35  C   UNL     1      -2.459 -11.431   5.008  1.00  0.00     0.202 C 
BRANCH  35  36
ATOM     36  C   UNL     1      -2.134 -11.678   6.475  1.00  0.00     0.261 C 
BRANCH  36  37
ATOM     37  O   UNL     1      -1.609 -10.560   7.159  1.00  0.00    -0.460 OA
BRANCH  37  38
ATOM     38  C   UNL     1      -0.268 -10.589   7.248  1.00  0.00     0.338 C 
ATOM     39  O   UNL     1       0.502 -11.395   6.732  1.00  0.00    -0.246 OA
BRANCH  38  40
ATOM     40  C   UNL     1       0.176  -9.524   8.136  1.00  0.00     0.060 A 
ATOM     41  C   UNL     1       1.521  -9.156   8.040  1.00  0.00     0.016 A 
ATOM     42  C   UNL     1      -0.618  -9.239   9.252  1.00  0.00     0.016 A 
ATOM     43  C   UNL     1       2.158  -8.763   9.190  1.00  0.00     0.010 A 
ATOM     44  C   UNL     1       0.021  -8.860  10.402  1.00  0.00     0.010 A 
ATOM     45  C   UNL     1       1.414  -8.748  10.370  1.00  0.00    -0.014 A 
BRANCH  45  46
ATOM     46  C   UNL     1       2.139  -8.700  11.619  1.00  0.00     0.031 A 
ATOM     47  C   UNL     1       2.582  -7.351  12.020  1.00  0.00     0.074 A 
ATOM     48  C   UNL     1       2.225  -9.813  12.375  1.00  0.00     0.049 A 
ATOM     49  N   UNL     1       3.757  -6.976  12.398  1.00  0.00    -0.248 NA
ATOM     50  C   UNL     1       1.605  -6.254  11.889  1.00  0.00     0.031 C 
ATOM     51  C   UNL     1       1.548 -11.097  12.145  1.00  0.00     0.029 A 
ATOM     52  N   UNL     1       2.782  -9.977  13.605  1.00  0.00    -0.354 N 
ATOM     53  C   UNL     1       3.627  -5.632  12.726  1.00  0.00     0.074 A 
ATOM     54  C   UNL     1       2.337  -5.205  12.254  1.00  0.00     0.031 C 
ATOM     55  C   UNL     1       1.494 -11.777  13.309  1.00  0.00     0.029 A 
ATOM     56  C   UNL     1       2.211 -11.021  14.323  1.00  0.00     0.049 A 
ATOM     57  H   UNL     1       3.513  -9.416  13.951  1.00  0.00     0.167 HD
ATOM     58  C   UNL     1       4.472  -5.027  13.601  1.00  0.00     0.031 A 
ATOM     59  C   UNL     1       2.202 -11.163  15.672  1.00  0.00     0.031 A 
ATOM     60  C   UNL     1       5.721  -5.727  13.725  1.00  0.00     0.049 A 
ATOM     61  C   UNL     1       3.235 -10.255  16.231  1.00  0.00     0.074 A 
ATOM     62  C   UNL     1       6.695  -6.115  12.825  1.00  0.00     0.029 A 
ATOM     63  N   UNL     1       5.938  -6.469  14.861  1.00  0.00    -0.354 N 
ATOM     64  N   UNL     1       4.517 -10.427  16.076  1.00  0.00    -0.248 NA
ATOM     65  C   UNL     1       2.829  -8.900  16.582  1.00  0.00     0.031 C 
ATOM     66  C   UNL     1       7.126  -7.394  13.279  1.00  0.00     0.029 A 
ATOM     67  C   UNL     1       6.434  -7.682  14.456  1.00  0.00     0.049 A 
ATOM     68  H   UNL     1       5.771  -6.184  15.788  1.00  0.00     0.167 HD
ATOM     69  C   UNL     1       5.026  -9.150  15.876  1.00  0.00     0.074 A 
ATOM     70  C   UNL     1       3.959  -8.245  16.299  1.00  0.00     0.031 C 
ATOM     71  C   UNL     1       6.140  -8.936  15.114  1.00  0.00     0.031 A 
BRANCH  58  72
ATOM     72  C   UNL     1       3.973  -4.051  14.631  1.00  0.00    -0.014 A 
ATOM     73  C   UNL     1       4.903  -3.389  15.446  1.00  0.00     0.009 A 
ATOM     74  C   UNL     1       2.618  -3.975  15.017  1.00  0.00     0.009 A 
ATOM     75  C   UNL     1       4.500  -2.739  16.619  1.00  0.00     0.001 A 
ATOM     76  C   UNL     1       2.208  -3.288  16.159  1.00  0.00     0.001 A 
ATOM     77  C   UNL     1       3.155  -2.693  16.977  1.00  0.00     0.000 A 
ENDBRANCH  58  72
BRANCH  59  78
ATOM     78  C   UNL     1       1.131 -11.770  16.498  1.00  0.00    -0.014 A 
ATOM     79  C   UNL     1       1.359 -12.110  17.839  1.00  0.00     0.009 A 
ATOM     80  C   UNL     1      -0.199 -11.822  16.034  1.00  0.00     0.009 A 
ATOM     81  C   UNL     1       0.296 -12.473  18.681  1.00  0.00     0.001 A 
ATOM     82  C   UNL     1      -1.257 -12.198  16.868  1.00  0.00     0.001 A 
ATOM     83  C   UNL     1      -1.010 -12.513  18.197  1.00  0.00     0.000 A 
ENDBRANCH  59  78
BRANCH  71  84
ATOM     84  C   UNL     1       6.961 -10.126  14.678  1.00  0.00    -0.014 A 
ATOM     85  C   UNL     1       6.425 -11.197  13.942  1.00  0.00     0.009 A 
ATOM     86  C   UNL     1       8.352 -10.080  14.862  1.00  0.00     0.009 A 
ATOM     87  C   UNL     1       7.251 -12.206  13.438  1.00  0.00     0.001 A 
ATOM     88  C   UNL     1       9.180 -11.075  14.337  1.00  0.00     0.001 A 
ATOM     89  C   UNL     1       8.629 -12.141  13.631  1.00  0.00     0.000 A 
ENDBRANCH  71  84
ENDBRANCH  45  46
ENDBRANCH  38  40
ENDBRANCH  37  38
ENDBRANCH  36  37
ENDBRANCH  35  36
ENDBRANCH  34  35
ENDBRANCH  33  34
ENDBRANCH   1  33
TORSDOF 21
