REMARK SMILES O=C(COc1ccccc1/C=C1/SC(=O)N(c2ccc(F)cc2)C1=O)OCCOCCOCCOC(=O)c1ccc(-c2c3nc(c(-c4ccccc4)c4ccc([nH]4)c(-c4ccccc4)c4nc(c(-c5ccccc5)c5ccc2[nH]5)C=C4)C=C3)cc1
REMARK SMILES IDX 30 1 29 2 28 3 27 4 26 5 2 6 1 7 3 8 4 9 5 10 6 11 10 12
REMARK SMILES IDX 7 13 9 14 8 15 11 16 12 17 13 18 24 19 14 20 16 21 25 22
REMARK SMILES IDX 15 23 17 24 18 25 23 26 19 27 22 28 20 29 21 30 31 31 32 32
REMARK SMILES IDX 33 33 34 34 35 35 36 36 37 37 38 38 39 39 85 40 40 41 84 42
REMARK SMILES IDX 41 43 42 44 43 45 78 46 44 47 83 48 77 49 79 50 45 51 82 52
REMARK SMILES IDX 76 53 75 54 46 56 68 57 53 58 67 59 54 60 57 61 66 62 80 63
REMARK SMILES IDX 55 64 56 65 65 67 81 68 58 69 47 70 48 71 52 72 49 73 51 74
REMARK SMILES IDX 50 75 69 76 70 77 74 78 71 79 73 80 72 81 59 82 60 83 64 84
REMARK SMILES IDX 61 85 63 86 62 87
REMARK H PARENT 79 55 57 66
REMARK Flexibility Score: inf
ROOT
ATOM      1  C   UNL     1       3.721  -0.632  -2.599  1.00  0.00     0.188 C 
ENDROOT
BRANCH   1   2
ATOM      2  O   UNL     1       5.116  -0.556  -2.343  1.00  0.00    -0.376 OA
BRANCH   2   3
ATOM      3  C   UNL     1       5.534  -0.576  -0.985  1.00  0.00     0.202 C 
BRANCH   3   4
ATOM      4  C   UNL     1       4.879   0.499  -0.135  1.00  0.00     0.261 C 
BRANCH   4   5
ATOM      5  O   UNL     1       3.512   0.100   0.137  1.00  0.00    -0.461 OA
BRANCH   5   6
ATOM      6  C   UNL     1       2.457   0.941  -0.040  1.00  0.00     0.344 C 
ATOM      7  O   UNL     1       1.329   0.503  -0.255  1.00  0.00    -0.248 OA
BRANCH   6   8
ATOM      8  C   UNL     1       2.729   2.414   0.064  1.00  0.00     0.351 C 
BRANCH   8   9
ATOM      9  O   UNL     1       3.710   2.633   1.069  1.00  0.00    -0.481 OA
BRANCH   9  10
ATOM     10  C   UNL     1       3.194   3.134   2.226  1.00  0.00     0.127 A 
ATOM     11  C   UNL     1       3.612   4.441   2.495  1.00  0.00     0.047 A 
ATOM     12  C   UNL     1       2.363   2.433   3.120  1.00  0.00     0.018 A 
ATOM     13  C   UNL     1       3.166   5.095   3.634  1.00  0.00     0.004 A 
ATOM     14  C   UNL     1       1.921   3.116   4.261  1.00  0.00     0.012 A 
ATOM     15  C   UNL     1       2.316   4.434   4.514  1.00  0.00     0.001 A 
BRANCH  12  16
ATOM     16  C   UNL     1       1.837   1.065   2.949  1.00  0.00     0.033 C 
ATOM     17  C   UNL     1       2.480  -0.114   3.007  1.00  0.00     0.084 C 
ATOM     18  S   UNL     1       1.684  -1.611   2.689  1.00  0.00    -0.022 SA
ATOM     19  C   UNL     1       3.937  -0.359   3.204  1.00  0.00     0.272 C 
ATOM     20  C   UNL     1       3.200  -2.478   2.496  1.00  0.00     0.298 C 
ATOM     21  N   UNL     1       4.265  -1.653   2.802  1.00  0.00    -0.236 N 
ATOM     22  O   UNL     1       4.693   0.517   3.604  1.00  0.00    -0.268 OA
ATOM     23  O   UNL     1       3.209  -3.664   2.203  1.00  0.00    -0.260 OA
BRANCH  21  24
ATOM     24  C   UNL     1       5.626  -2.083   2.662  1.00  0.00     0.053 A 
ATOM     25  C   UNL     1       6.650  -1.534   3.451  1.00  0.00     0.030 A 
ATOM     26  C   UNL     1       5.994  -3.010   1.668  1.00  0.00     0.030 A 
ATOM     27  C   UNL     1       7.993  -1.854   3.225  1.00  0.00     0.041 A 
ATOM     28  C   UNL     1       7.340  -3.309   1.421  1.00  0.00     0.041 A 
ATOM     29  C   UNL     1       8.327  -2.721   2.197  1.00  0.00     0.123 A 
ATOM     30  F   UNL     1       9.615  -2.987   1.946  1.00  0.00    -0.207 F 
ENDBRANCH  21  24
ENDBRANCH  12  16
ENDBRANCH   9  10
ENDBRANCH   8   9
ENDBRANCH   6   8
ENDBRANCH   5   6
ENDBRANCH   4   5
ENDBRANCH   3   4
ENDBRANCH   2   3
ENDBRANCH   1   2
BRANCH   1  31
ATOM     31  C   UNL     1       2.906  -1.840  -2.080  1.00  0.00     0.188 C 
BRANCH  31  32
ATOM     32  O   UNL     1       3.593  -2.996  -1.630  1.00  0.00    -0.376 OA
BRANCH  32  33
ATOM     33  C   UNL     1       4.569  -3.579  -2.482  1.00  0.00     0.202 C 
BRANCH  33  34
ATOM     34  C   UNL     1       4.135  -3.938  -3.909  1.00  0.00     0.261 C 
BRANCH  34  35
ATOM     35  O   UNL     1       3.864  -2.766  -4.699  1.00  0.00    -0.460 OA
BRANCH  35  36
ATOM     36  C   UNL     1       2.639  -2.717  -5.303  1.00  0.00     0.338 C 
ATOM     37  O   UNL     1       1.822  -3.603  -5.364  1.00  0.00    -0.246 OA
BRANCH  36  38
ATOM     38  C   UNL     1       2.346  -1.309  -5.679  1.00  0.00     0.060 A 
ATOM     39  C   UNL     1       1.156  -0.737  -5.202  1.00  0.00     0.016 A 
ATOM     40  C   UNL     1       3.245  -0.535  -6.416  1.00  0.00     0.016 A 
ATOM     41  C   UNL     1       0.850   0.601  -5.481  1.00  0.00     0.010 A 
ATOM     42  C   UNL     1       2.927   0.797  -6.715  1.00  0.00     0.010 A 
ATOM     43  C   UNL     1       1.718   1.364  -6.272  1.00  0.00    -0.014 A 
BRANCH  43  44
ATOM     44  C   UNL     1       1.280   2.673  -6.825  1.00  0.00     0.031 A 
ATOM     45  C   UNL     1       0.590   2.675  -8.163  1.00  0.00     0.074 A 
ATOM     46  C   UNL     1       1.510   3.839  -6.192  1.00  0.00     0.049 A 
ATOM     47  N   UNL     1       0.227   3.686  -8.909  1.00  0.00    -0.248 NA
ATOM     48  C   UNL     1       0.274   1.356  -8.738  1.00  0.00     0.031 C 
ATOM     49  C   UNL     1       2.119   3.989  -4.873  1.00  0.00     0.029 A 
ATOM     50  N   UNL     1       1.272   5.131  -6.601  1.00  0.00    -0.354 N 
ATOM     51  C   UNL     1      -0.346   3.126 -10.044  1.00  0.00     0.074 A 
ATOM     52  C   UNL     1      -0.277   1.690  -9.895  1.00  0.00     0.031 C 
ATOM     53  C   UNL     1       2.234   5.302  -4.593  1.00  0.00     0.029 A 
ATOM     54  C   UNL     1       1.743   6.083  -5.729  1.00  0.00     0.049 A 
ATOM     55  H   UNL     1       0.806   5.352  -7.440  1.00  0.00     0.167 HD
ATOM     56  C   UNL     1      -0.876   3.749 -11.122  1.00  0.00     0.031 A 
ATOM     57  C   UNL     1       1.808   7.425  -5.852  1.00  0.00     0.031 A 
ATOM     58  C   UNL     1      -0.936   5.173 -11.293  1.00  0.00     0.049 A 
ATOM     59  C   UNL     1       1.303   8.089  -7.112  1.00  0.00     0.074 A 
ATOM     60  C   UNL     1      -1.484   5.890 -12.342  1.00  0.00     0.029 A 
ATOM     61  N   UNL     1      -0.415   6.096 -10.403  1.00  0.00    -0.354 N 
ATOM     62  N   UNL     1       0.723   7.551  -8.156  1.00  0.00    -0.248 NA
ATOM     63  C   UNL     1       1.474   9.548  -7.209  1.00  0.00     0.031 C 
ATOM     64  C   UNL     1      -1.238   7.247 -12.117  1.00  0.00     0.029 A 
ATOM     65  C   UNL     1      -0.588   7.375 -10.901  1.00  0.00     0.049 A 
ATOM     66  H   UNL     1       0.014   5.875  -9.545  1.00  0.00     0.167 HD
ATOM     67  C   UNL     1       0.442   8.605  -9.021  1.00  0.00     0.074 A 
ATOM     68  C   UNL     1       0.896   9.815  -8.372  1.00  0.00     0.031 C 
ATOM     69  C   UNL     1      -0.135   8.572 -10.246  1.00  0.00     0.031 A 
BRANCH  56  70
ATOM     70  C   UNL     1      -1.397   2.887 -12.233  1.00  0.00    -0.014 A 
ATOM     71  C   UNL     1      -2.619   2.208 -12.117  1.00  0.00     0.009 A 
ATOM     72  C   UNL     1      -0.678   2.802 -13.436  1.00  0.00     0.009 A 
ATOM     73  C   UNL     1      -3.103   1.446 -13.181  1.00  0.00     0.001 A 
ATOM     74  C   UNL     1      -1.176   2.057 -14.505  1.00  0.00     0.001 A 
ATOM     75  C   UNL     1      -2.385   1.376 -14.375  1.00  0.00     0.000 A 
ENDBRANCH  56  70
BRANCH  57  76
ATOM     76  C   UNL     1       2.442   8.255  -4.791  1.00  0.00    -0.014 A 
ATOM     77  C   UNL     1       1.684   9.170  -4.044  1.00  0.00     0.009 A 
ATOM     78  C   UNL     1       3.829   8.196  -4.580  1.00  0.00     0.009 A 
ATOM     79  C   UNL     1       2.306  10.033  -3.136  1.00  0.00     0.001 A 
ATOM     80  C   UNL     1       4.444   9.037  -3.650  1.00  0.00     0.001 A 
ATOM     81  C   UNL     1       3.684   9.964  -2.939  1.00  0.00     0.000 A 
ENDBRANCH  57  76
BRANCH  69  82
ATOM     82  C   UNL     1      -0.333   9.879 -10.962  1.00  0.00    -0.014 A 
ATOM     83  C   UNL     1       0.748  10.560 -11.540  1.00  0.00     0.009 A 
ATOM     84  C   UNL     1      -1.628  10.400 -11.118  1.00  0.00     0.009 A 
ATOM     85  C   UNL     1       0.539  11.751 -12.241  1.00  0.00     0.001 A 
ATOM     86  C   UNL     1      -1.837  11.575 -11.842  1.00  0.00     0.001 A 
ATOM     87  C   UNL     1      -0.752  12.253 -12.397  1.00  0.00     0.000 A 
ENDBRANCH  69  82
ENDBRANCH  43  44
ENDBRANCH  36  38
ENDBRANCH  35  36
ENDBRANCH  34  35
ENDBRANCH  33  34
ENDBRANCH  32  33
ENDBRANCH  31  32
ENDBRANCH   1  31
TORSDOF 21
