REMARK SMILES O=C(OCCOCCOCCOC(=O)c1ccccc1C(=O)Nc1ccc(N2C(=O)[C@H]3[C@@H]4CC[C@@H](C4)[C@@H]3C2=O)cc1)c1ccc(-c2c3nc(c(-c4ccccc4)c4ccc([nH]4)c(-c4ccccc4)c4nc(c(-c5ccccc5)c5ccc2[nH]5)C=C4)C=C3)cc1
REMARK SMILES IDX 8 1 7 2 6 3 5 4 4 5 3 6 2 7 1 8 42 9 43 10 89 11 44 12 88 13
REMARK SMILES IDX 45 14 46 15 47 16 82 17 48 18 87 19 81 20 83 21 49 22 86 23
REMARK SMILES IDX 80 24 79 25 50 27 72 28 57 29 71 30 58 31 61 32 70 33 84 34
REMARK SMILES IDX 59 35 60 36 69 38 85 39 62 40 51 41 52 42 56 43 53 44 55 45
REMARK SMILES IDX 54 46 73 47 74 48 78 49 75 50 77 51 76 52 63 53 64 54 68 55
REMARK SMILES IDX 65 56 67 57 66 58 9 59 10 60 11 61 12 62 13 63 14 64 15 65
REMARK SMILES IDX 16 66 20 67 17 68 19 69 18 70 21 71 22 72 23 73 24 75 25 76
REMARK SMILES IDX 41 77 26 78 40 79 27 80 28 81 29 82 38 83 30 84 31 85 37 86
REMARK SMILES IDX 39 87 32 88 35 89 33 90 36 91 34 92
REMARK H PARENT 83 26 61 37 23 74
REMARK Flexibility Score: inf
ROOT
ATOM      1  C   UNL     1       3.808  -2.369   0.186  1.00  0.00     0.188 C 
ENDROOT
BRANCH   1   2
ATOM      2  C   UNL     1       3.525  -0.938   0.573  1.00  0.00     0.188 C 
BRANCH   2   3
ATOM      3  O   UNL     1       4.603  -0.102   0.189  1.00  0.00    -0.376 OA
BRANCH   3   4
ATOM      4  C   UNL     1       5.314   0.484   1.265  1.00  0.00     0.202 C 
BRANCH   4   5
ATOM      5  C   UNL     1       4.438   1.452   2.071  1.00  0.00     0.261 C 
BRANCH   5   6
ATOM      6  O   UNL     1       3.872   2.426   1.174  1.00  0.00    -0.460 OA
BRANCH   6   7
ATOM      7  C   UNL     1       2.625   2.169   0.687  1.00  0.00     0.338 C 
ATOM      8  O   UNL     1       1.724   1.536   1.202  1.00  0.00    -0.246 OA
BRANCH   7   9
ATOM      9  C   UNL     1       2.673   2.644  -0.706  1.00  0.00     0.060 A 
ATOM     10  C   UNL     1       3.445   1.888  -1.584  1.00  0.00     0.016 A 
ATOM     11  C   UNL     1       2.258   3.922  -1.055  1.00  0.00     0.016 A 
ATOM     12  C   UNL     1       4.050   2.470  -2.666  1.00  0.00     0.010 A 
ATOM     13  C   UNL     1       2.756   4.474  -2.236  1.00  0.00     0.010 A 
ATOM     14  C   UNL     1       3.728   3.778  -2.985  1.00  0.00    -0.014 A 
BRANCH  14  15
ATOM     15  C   UNL     1       4.588   4.475  -3.952  1.00  0.00     0.031 A 
ATOM     16  C   UNL     1       5.421   5.603  -3.439  1.00  0.00     0.074 A 
ATOM     17  C   UNL     1       4.721   4.029  -5.211  1.00  0.00     0.049 A 
ATOM     18  N   UNL     1       5.989   6.572  -4.094  1.00  0.00    -0.248 NA
ATOM     19  C   UNL     1       5.636   5.643  -1.980  1.00  0.00     0.031 C 
ATOM     20  C   UNL     1       4.166   2.780  -5.731  1.00  0.00     0.029 A 
ATOM     21  N   UNL     1       5.363   4.578  -6.285  1.00  0.00    -0.354 N 
ATOM     22  C   UNL     1       6.554   7.388  -3.123  1.00  0.00     0.074 A 
ATOM     23  C   UNL     1       6.288   6.786  -1.837  1.00  0.00     0.031 C 
ATOM     24  C   UNL     1       4.458   2.670  -7.032  1.00  0.00     0.029 A 
ATOM     25  C   UNL     1       5.106   3.900  -7.451  1.00  0.00     0.049 A 
ATOM     26  H   UNL     1       5.945   5.370  -6.228  1.00  0.00     0.167 HD
ATOM     27  C   UNL     1       7.198   8.560  -3.317  1.00  0.00     0.031 A 
ATOM     28  C   UNL     1       5.270   4.293  -8.725  1.00  0.00     0.031 A 
ATOM     29  C   UNL     1       7.422   9.094  -4.632  1.00  0.00     0.049 A 
ATOM     30  C   UNL     1       5.849   5.658  -8.941  1.00  0.00     0.074 A 
ATOM     31  C   UNL     1       7.971  10.302  -5.010  1.00  0.00     0.029 A 
ATOM     32  N   UNL     1       7.098   8.411  -5.802  1.00  0.00    -0.354 N 
ATOM     33  N   UNL     1       6.240   6.530  -8.040  1.00  0.00    -0.248 NA
ATOM     34  C   UNL     1       5.997   6.104 -10.327  1.00  0.00     0.031 C 
ATOM     35  C   UNL     1       7.934  10.367  -6.409  1.00  0.00     0.029 A 
ATOM     36  C   UNL     1       7.416   9.176  -6.904  1.00  0.00     0.049 A 
ATOM     37  H   UNL     1       6.699   7.512  -5.837  1.00  0.00     0.167 HD
ATOM     38  C   UNL     1       6.711   7.623  -8.746  1.00  0.00     0.074 A 
ATOM     39  C   UNL     1       6.548   7.299 -10.155  1.00  0.00     0.031 C 
ATOM     40  C   UNL     1       7.237   8.785  -8.283  1.00  0.00     0.031 A 
BRANCH  27  41
ATOM     41  C   UNL     1       7.540   9.351  -2.085  1.00  0.00    -0.014 A 
ATOM     42  C   UNL     1       8.526   8.935  -1.177  1.00  0.00     0.009 A 
ATOM     43  C   UNL     1       6.766  10.480  -1.771  1.00  0.00     0.009 A 
ATOM     44  C   UNL     1       8.685   9.594   0.047  1.00  0.00     0.001 A 
ATOM     45  C   UNL     1       6.946  11.154  -0.561  1.00  0.00     0.001 A 
ATOM     46  C   UNL     1       7.891  10.699   0.356  1.00  0.00     0.000 A 
ENDBRANCH  27  41
BRANCH  28  47
ATOM     47  C   UNL     1       4.761   3.432  -9.823  1.00  0.00    -0.014 A 
ATOM     48  C   UNL     1       5.638   2.750 -10.674  1.00  0.00     0.009 A 
ATOM     49  C   UNL     1       3.377   3.209  -9.961  1.00  0.00     0.009 A 
ATOM     50  C   UNL     1       5.143   1.865 -11.638  1.00  0.00     0.001 A 
ATOM     51  C   UNL     1       2.886   2.304 -10.905  1.00  0.00     0.001 A 
ATOM     52  C   UNL     1       3.771   1.635 -11.746  1.00  0.00     0.000 A 
ENDBRANCH  28  47
BRANCH  40  53
ATOM     53  C   UNL     1       7.729   9.748  -9.315  1.00  0.00    -0.014 A 
ATOM     54  C   UNL     1       6.843  10.566 -10.028  1.00  0.00     0.009 A 
ATOM     55  C   UNL     1       9.112   9.890  -9.505  1.00  0.00     0.009 A 
ATOM     56  C   UNL     1       7.338  11.508 -10.928  1.00  0.00     0.001 A 
ATOM     57  C   UNL     1       9.603  10.849 -10.386  1.00  0.00     0.001 A 
ATOM     58  C   UNL     1       8.716  11.654 -11.099  1.00  0.00     0.000 A 
ENDBRANCH  40  53
ENDBRANCH  14  15
ENDBRANCH   7   9
ENDBRANCH   6   7
ENDBRANCH   5   6
ENDBRANCH   4   5
ENDBRANCH   3   4
ENDBRANCH   2   3
ENDBRANCH   1   2
BRANCH   1  59
ATOM     59  O   UNL     1       5.199  -2.611   0.115  1.00  0.00    -0.376 OA
BRANCH  59  60
ATOM     60  C   UNL     1       5.697  -2.858  -1.198  1.00  0.00     0.202 C 
BRANCH  60  61
ATOM     61  C   UNL     1       5.582  -1.745  -2.259  1.00  0.00     0.261 C 
BRANCH  61  62
ATOM     62  O   UNL     1       4.605  -1.893  -3.328  1.00  0.00    -0.460 OA
BRANCH  62  63
ATOM     63  C   UNL     1       3.330  -1.478  -3.184  1.00  0.00     0.339 C 
ATOM     64  O   UNL     1       2.742  -1.228  -2.146  1.00  0.00    -0.246 OA
BRANCH  63  65
ATOM     65  C   UNL     1       2.676  -1.144  -4.465  1.00  0.00     0.072 A 
ATOM     66  C   UNL     1       1.827  -0.009  -4.418  1.00  0.00     0.016 A 
ATOM     67  C   UNL     1       2.892  -1.787  -5.683  1.00  0.00     0.054 A 
ATOM     68  C   UNL     1       1.294   0.556  -5.575  1.00  0.00     0.001 A 
ATOM     69  C   UNL     1       2.372  -1.178  -6.851  1.00  0.00     0.015 A 
ATOM     70  C   UNL     1       1.595  -0.014  -6.801  1.00  0.00     0.001 A 
BRANCH  67  71
ATOM     71  C   UNL     1       3.759  -2.969  -5.903  1.00  0.00     0.256 C 
ATOM     72  O   UNL     1       4.478  -2.945  -6.908  1.00  0.00    -0.269 OA
ATOM     73  N   UNL     1       3.897  -4.052  -5.066  1.00  0.00    -0.322 N 
ATOM     74  H   UNL     1       4.664  -4.615  -5.317  1.00  0.00     0.170 HD
BRANCH  73  75
ATOM     75  C   UNL     1       3.221  -4.558  -3.943  1.00  0.00     0.041 A 
ATOM     76  C   UNL     1       3.982  -5.340  -3.065  1.00  0.00     0.028 A 
ATOM     77  C   UNL     1       1.891  -4.320  -3.621  1.00  0.00     0.028 A 
ATOM     78  C   UNL     1       3.493  -5.699  -1.797  1.00  0.00     0.029 A 
ATOM     79  C   UNL     1       1.375  -4.752  -2.378  1.00  0.00     0.029 A 
ATOM     80  C   UNL     1       2.194  -5.367  -1.411  1.00  0.00     0.052 A 
BRANCH  80  81
ATOM     81  N   UNL     1       1.776  -5.409  -0.045  1.00  0.00    -0.250 N 
ATOM     82  C   UNL     1       0.433  -5.418   0.368  1.00  0.00     0.237 C 
ATOM     83  C   UNL     1       2.629  -5.132   1.029  1.00  0.00     0.237 C 
ATOM     84  O   UNL     1      -0.537  -5.910  -0.150  1.00  0.00    -0.274 OA
ATOM     85  C   UNL     1       0.440  -4.457   1.512  1.00  0.00     0.095 C 
ATOM     86  C   UNL     1       1.739  -4.792   2.199  1.00  0.00     0.095 C 
ATOM     87  O   UNL     1       3.842  -5.248   1.106  1.00  0.00    -0.274 OA
ATOM     88  C   UNL     1      -0.456  -4.088   2.707  1.00  0.00     0.002 C 
ATOM     89  C   UNL     1       1.697  -3.716   3.309  1.00  0.00     0.002 C 
ATOM     90  C   UNL     1      -0.424  -2.549   2.721  1.00  0.00     0.005 C 
ATOM     91  C   UNL     1       0.428  -4.290   3.978  1.00  0.00     0.009 C 
ATOM     92  C   UNL     1       1.101  -2.302   2.938  1.00  0.00     0.005 C 
ENDBRANCH  80  81
ENDBRANCH  73  75
ENDBRANCH  67  71
ENDBRANCH  63  65
ENDBRANCH  62  63
ENDBRANCH  61  62
ENDBRANCH  60  61
ENDBRANCH  59  60
ENDBRANCH   1  59
TORSDOF 20
