REMARK SMILES CN1C(=O)[C@@H]2CC=CC[C@]2(C(=O)OCCOCCOCCOC(=O)c2ccc(-c3c4nc(c(-c5ccccc5)c5ccc([nH]5)c(-c5ccccc5)c5nc(c(-c6ccccc6)c6ccc3[nH]6)C=C5)C=C4)cc2)[C@H]1c1ccccc1
REMARK SMILES IDX 18 1 17 2 16 3 15 4 14 5 13 6 11 7 12 8 10 9 1 10 2 11 3 12
REMARK SMILES IDX 73 13 4 14 5 15 6 16 9 17 7 18 8 19 74 20 75 21 79 22 76 23
REMARK SMILES IDX 78 24 77 25 19 26 20 27 21 28 22 29 23 30 24 31 25 32 26 33
REMARK SMILES IDX 72 34 27 35 71 36 28 37 29 38 30 39 65 40 31 41 70 42 64 43
REMARK SMILES IDX 66 44 32 45 69 46 63 47 62 48 33 50 55 51 40 52 54 53 41 54
REMARK SMILES IDX 44 55 53 56 67 57 42 58 43 59 52 61 68 62 45 63 34 64 35 65
REMARK SMILES IDX 39 66 36 67 38 68 37 69 56 70 57 71 61 72 58 73 60 74 59 75
REMARK SMILES IDX 46 76 47 77 51 78 48 79 50 80 49 81
REMARK H PARENT 66 49 44 60
REMARK Flexibility Score: inf
ROOT
ATOM      1  C   UNL     1       2.835   5.547  -0.173  1.00  0.00     0.188 C 
ENDROOT
BRANCH   1   2
ATOM      2  C   UNL     1       2.361   6.986   0.160  1.00  0.00     0.188 C 
BRANCH   2   3
ATOM      3  O   UNL     1       1.353   7.099   1.174  1.00  0.00    -0.376 OA
BRANCH   3   4
ATOM      4  C   UNL     1       1.743   6.663   2.472  1.00  0.00     0.202 C 
BRANCH   4   5
ATOM      5  C   UNL     1       0.805   5.557   2.987  1.00  0.00     0.261 C 
BRANCH   5   6
ATOM      6  O   UNL     1       0.507   4.655   1.911  1.00  0.00    -0.463 OA
BRANCH   6   7
ATOM      7  C   UNL     1      -0.776   4.298   1.521  1.00  0.00     0.315 C 
ATOM      8  O   UNL     1      -1.808   4.598   2.093  1.00  0.00    -0.251 OA
BRANCH   7   9
ATOM      9  C   UNL     1      -0.621   3.625   0.119  1.00  0.00     0.108 C 
ATOM     10  C   UNL     1       1.116   0.241  -0.445  1.00  0.00     0.147 C 
ATOM     11  N   UNL     1       0.278   1.430  -0.461  1.00  0.00    -0.337 N 
ATOM     12  C   UNL     1      -0.980   1.449  -1.005  1.00  0.00     0.227 C 
ATOM     13  C   UNL     1       0.449   2.493   0.487  1.00  0.00     0.133 C 
ATOM     14  O   UNL     1      -1.484   0.525  -1.628  1.00  0.00    -0.275 OA
ATOM     15  C   UNL     1      -1.659   2.794  -0.717  1.00  0.00     0.102 C 
ATOM     16  C   UNL     1      -2.066   3.268  -2.158  1.00  0.00     0.041 C 
ATOM     17  C   UNL     1      -0.483   5.004  -0.588  1.00  0.00     0.049 C 
ATOM     18  C   UNL     1      -1.324   4.406  -2.774  1.00  0.00    -0.030 C 
ATOM     19  C   UNL     1      -0.539   5.186  -2.045  1.00  0.00    -0.030 C 
BRANCH  13  20
ATOM     20  C   UNL     1       0.197   1.888   1.915  1.00  0.00    -0.024 A 
ATOM     21  C   UNL     1      -1.099   1.485   2.306  1.00  0.00     0.006 A 
ATOM     22  C   UNL     1       1.187   1.984   2.905  1.00  0.00     0.006 A 
ATOM     23  C   UNL     1      -1.445   1.406   3.654  1.00  0.00     0.000 A 
ATOM     24  C   UNL     1       0.840   1.871   4.257  1.00  0.00     0.000 A 
ATOM     25  C   UNL     1      -0.484   1.635   4.630  1.00  0.00     0.000 A 
ENDBRANCH  13  20
ENDBRANCH   7   9
ENDBRANCH   6   7
ENDBRANCH   5   6
ENDBRANCH   4   5
ENDBRANCH   3   4
ENDBRANCH   2   3
ENDBRANCH   1   2
BRANCH   1  26
ATOM     26  O   UNL     1       3.983   5.035   0.486  1.00  0.00    -0.376 OA
BRANCH  26  27
ATOM     27  C   UNL     1       5.095   5.900   0.632  1.00  0.00     0.202 C 
BRANCH  27  28
ATOM     28  C   UNL     1       5.706   6.551  -0.624  1.00  0.00     0.261 C 
BRANCH  28  29
ATOM     29  O   UNL     1       4.758   7.176  -1.515  1.00  0.00    -0.460 OA
BRANCH  29  30
ATOM     30  C   UNL     1       4.582   6.566  -2.715  1.00  0.00     0.338 C 
ATOM     31  O   UNL     1       5.172   5.568  -3.120  1.00  0.00    -0.246 OA
BRANCH  30  32
ATOM     32  C   UNL     1       3.415   7.141  -3.426  1.00  0.00     0.060 A 
ATOM     33  C   UNL     1       2.450   6.263  -3.941  1.00  0.00     0.016 A 
ATOM     34  C   UNL     1       3.269   8.517  -3.616  1.00  0.00     0.016 A 
ATOM     35  C   UNL     1       1.351   6.754  -4.656  1.00  0.00     0.010 A 
ATOM     36  C   UNL     1       2.171   9.006  -4.343  1.00  0.00     0.010 A 
ATOM     37  C   UNL     1       1.210   8.129  -4.879  1.00  0.00    -0.014 A 
BRANCH  37  38
ATOM     38  C   UNL     1       0.157   8.636  -5.800  1.00  0.00     0.031 A 
ATOM     39  C   UNL     1       0.501   8.835  -7.251  1.00  0.00     0.074 A 
ATOM     40  C   UNL     1      -1.091   8.914  -5.377  1.00  0.00     0.049 A 
ATOM     41  N   UNL     1      -0.228   9.329  -8.219  1.00  0.00    -0.248 NA
ATOM     42  C   UNL     1       1.852   8.421  -7.662  1.00  0.00     0.031 C 
ATOM     43  C   UNL     1      -1.594   8.716  -4.021  1.00  0.00     0.029 A 
ATOM     44  N   UNL     1      -2.166   9.436  -6.061  1.00  0.00    -0.354 N 
ATOM     45  C   UNL     1       0.576   9.293  -9.351  1.00  0.00     0.074 A 
ATOM     46  C   UNL     1       1.854   8.749  -8.945  1.00  0.00     0.031 C 
ATOM     47  C   UNL     1      -2.878   9.117  -3.969  1.00  0.00     0.029 A 
ATOM     48  C   UNL     1      -3.274   9.644  -5.274  1.00  0.00     0.049 A 
ATOM     49  H   UNL     1      -2.143   9.640  -7.023  1.00  0.00     0.167 HD
ATOM     50  C   UNL     1       0.283   9.680 -10.616  1.00  0.00     0.031 A 
ATOM     51  C   UNL     1      -4.459  10.222  -5.562  1.00  0.00     0.031 A 
ATOM     52  C   UNL     1      -0.971  10.251 -11.028  1.00  0.00     0.049 A 
ATOM     53  C   UNL     1      -4.718  10.756  -6.950  1.00  0.00     0.074 A 
ATOM     54  C   UNL     1      -1.351  10.668 -12.293  1.00  0.00     0.029 A 
ATOM     55  N   UNL     1      -2.041  10.503 -10.186  1.00  0.00    -0.354 N 
ATOM     56  N   UNL     1      -3.959  10.696  -8.017  1.00  0.00    -0.248 NA
ATOM     57  C   UNL     1      -6.002  11.444  -7.170  1.00  0.00     0.031 C 
ATOM     58  C   UNL     1      -2.626  11.237 -12.202  1.00  0.00     0.029 A 
ATOM     59  C   UNL     1      -3.067  11.108 -10.895  1.00  0.00     0.049 A 
ATOM     60  H   UNL     1      -2.070  10.284  -9.227  1.00  0.00     0.167 HD
ATOM     61  C   UNL     1      -4.681  11.311  -9.035  1.00  0.00     0.074 A 
ATOM     62  C   UNL     1      -5.946  11.722  -8.465  1.00  0.00     0.031 C 
ATOM     63  C   UNL     1      -4.325  11.516 -10.327  1.00  0.00     0.031 A 
BRANCH  50  64
ATOM     64  C   UNL     1       1.370   9.544 -11.645  1.00  0.00    -0.014 A 
ATOM     65  C   UNL     1       1.775   8.287 -12.120  1.00  0.00     0.009 A 
ATOM     66  C   UNL     1       1.976  10.697 -12.169  1.00  0.00     0.009 A 
ATOM     67  C   UNL     1       2.789   8.187 -13.075  1.00  0.00     0.001 A 
ATOM     68  C   UNL     1       2.968  10.595 -13.145  1.00  0.00     0.001 A 
ATOM     69  C   UNL     1       3.381   9.340 -13.589  1.00  0.00     0.000 A 
ENDBRANCH  50  64
BRANCH  51  70
ATOM     70  C   UNL     1      -5.495  10.384  -4.504  1.00  0.00    -0.014 A 
ATOM     71  C   UNL     1      -6.722   9.706  -4.588  1.00  0.00     0.009 A 
ATOM     72  C   UNL     1      -5.284  11.265  -3.431  1.00  0.00     0.009 A 
ATOM     73  C   UNL     1      -7.723   9.928  -3.638  1.00  0.00     0.001 A 
ATOM     74  C   UNL     1      -6.273  11.460  -2.464  1.00  0.00     0.001 A 
ATOM     75  C   UNL     1      -7.496  10.801  -2.575  1.00  0.00     0.000 A 
ENDBRANCH  51  70
BRANCH  63  76
ATOM     76  C   UNL     1      -5.323  12.187 -11.234  1.00  0.00    -0.014 A 
ATOM     77  C   UNL     1      -5.622  13.553 -11.112  1.00  0.00     0.009 A 
ATOM     78  C   UNL     1      -5.927  11.452 -12.267  1.00  0.00     0.009 A 
ATOM     79  C   UNL     1      -6.524  14.161 -11.989  1.00  0.00     0.001 A 
ATOM     80  C   UNL     1      -6.804  12.069 -13.161  1.00  0.00     0.001 A 
ATOM     81  C   UNL     1      -7.108  13.421 -13.016  1.00  0.00     0.000 A 
ENDBRANCH  63  76
ENDBRANCH  37  38
ENDBRANCH  30  32
ENDBRANCH  29  30
ENDBRANCH  28  29
ENDBRANCH  27  28
ENDBRANCH  26  27
ENDBRANCH   1  26
TORSDOF 18
