REMARK SMILES CC(C)[C@@H](NC(=O)[C@H]1CCCO1)C(=O)OCCOCCOCCOC(=O)c1ccc(-c2c3nc(c(-c4ccccc4)c4ccc([nH]4)c(-c4ccccc4)c4nc(c(-c5ccccc5)c5ccc2[nH]5)C=C4)C=C3)cc1
REMARK SMILES IDX 19 1 18 2 17 3 16 4 15 5 13 6 14 7 4 8 2 9 1 10 3 11 5 12
REMARK SMILES IDX 6 13 7 15 8 16 9 17 12 18 10 19 11 20 20 21 21 22 22 23
REMARK SMILES IDX 23 24 24 25 25 26 26 27 27 28 28 29 74 30 29 31 73 32 30 33
REMARK SMILES IDX 31 34 32 35 67 36 33 37 72 38 66 39 68 40 34 41 71 42 65 43
REMARK SMILES IDX 64 44 35 46 57 47 42 48 56 49 43 50 46 51 55 52 69 53 44 54
REMARK SMILES IDX 45 55 54 57 70 58 47 59 36 60 37 61 41 62 38 63 40 64 39 65
REMARK SMILES IDX 58 66 59 67 63 68 60 69 62 70 61 71 48 72 49 73 53 74 50 75
REMARK SMILES IDX 52 76 51 77
REMARK H PARENT 5 14 68 45 46 56
REMARK Flexibility Score: inf
ROOT
ATOM      1  C   UNL     1      -5.471   4.268   2.847  1.00  0.00     0.188 C 
ENDROOT
BRANCH   1   2
ATOM      2  O   UNL     1      -5.518   3.644   1.581  1.00  0.00    -0.376 OA
BRANCH   2   3
ATOM      3  C   UNL     1      -4.728   2.473   1.465  1.00  0.00     0.202 C 
BRANCH   3   4
ATOM      4  C   UNL     1      -5.212   1.181   2.164  1.00  0.00     0.261 C 
BRANCH   4   5
ATOM      5  O   UNL     1      -5.005   0.809   3.566  1.00  0.00    -0.462 OA
BRANCH   5   6
ATOM      6  C   UNL     1      -4.239   1.403   4.508  1.00  0.00     0.328 C 
ATOM      7  O   UNL     1      -3.652   2.471   4.377  1.00  0.00    -0.250 OA
BRANCH   6   8
ATOM      8  C   UNL     1      -4.159   0.590   5.813  1.00  0.00     0.194 C 
BRANCH   8   9
ATOM      9  C   UNL     1      -5.551   0.293   6.490  1.00  0.00     0.017 C 
ATOM     10  C   UNL     1      -5.386  -0.130   7.962  1.00  0.00     0.010 C 
ATOM     11  C   UNL     1      -6.567   1.437   6.482  1.00  0.00     0.010 C 
ENDBRANCH   8   9
BRANCH   8  12
ATOM     12  N   UNL     1      -3.443  -0.691   5.625  1.00  0.00    -0.340 N 
ATOM     13  C   UNL     1      -2.154  -0.974   5.303  1.00  0.00     0.249 C 
ATOM     14  H   UNL     1      -4.007  -1.488   5.757  1.00  0.00     0.164 HD
ATOM     15  O   UNL     1      -1.677  -1.964   5.875  1.00  0.00    -0.272 OA
BRANCH  13  16
ATOM     16  C   UNL     1      -1.310  -0.240   4.238  1.00  0.00     0.207 C 
ATOM     17  C   UNL     1      -1.919  -0.138   2.843  1.00  0.00     0.044 C 
ATOM     18  O   UNL     1      -0.799   1.049   4.569  1.00  0.00    -0.368 OA
ATOM     19  C   UNL     1      -1.590   1.271   2.406  1.00  0.00     0.032 C 
ATOM     20  C   UNL     1      -0.479   1.692   3.326  1.00  0.00     0.161 C 
ENDBRANCH  13  16
ENDBRANCH   8  12
ENDBRANCH   6   8
ENDBRANCH   5   6
ENDBRANCH   4   5
ENDBRANCH   3   4
ENDBRANCH   2   3
ENDBRANCH   1   2
BRANCH   1  21
ATOM     21  C   UNL     1      -6.417   3.620   3.846  1.00  0.00     0.188 C 
BRANCH  21  22
ATOM     22  O   UNL     1      -7.522   2.844   3.416  1.00  0.00    -0.376 OA
BRANCH  22  23
ATOM     23  C   UNL     1      -8.269   3.288   2.297  1.00  0.00     0.202 C 
BRANCH  23  24
ATOM     24  C   UNL     1      -8.916   4.681   2.340  1.00  0.00     0.261 C 
BRANCH  24  25
ATOM     25  O   UNL     1      -8.215   5.683   3.094  1.00  0.00    -0.460 OA
BRANCH  25  26
ATOM     26  C   UNL     1      -8.594   5.816   4.397  1.00  0.00     0.338 C 
ATOM     27  O   UNL     1      -9.500   5.242   4.960  1.00  0.00    -0.246 OA
BRANCH  26  28
ATOM     28  C   UNL     1      -7.540   6.597   5.104  1.00  0.00     0.060 A 
ATOM     29  C   UNL     1      -6.921   6.024   6.232  1.00  0.00     0.016 A 
ATOM     30  C   UNL     1      -7.107   7.829   4.620  1.00  0.00     0.016 A 
ATOM     31  C   UNL     1      -5.862   6.671   6.868  1.00  0.00     0.010 A 
ATOM     32  C   UNL     1      -6.089   8.508   5.295  1.00  0.00     0.010 A 
ATOM     33  C   UNL     1      -5.479   7.942   6.432  1.00  0.00    -0.014 A 
BRANCH  33  34
ATOM     34  C   UNL     1      -4.649   8.805   7.304  1.00  0.00     0.031 A 
ATOM     35  C   UNL     1      -5.374   9.749   8.222  1.00  0.00     0.074 A 
ATOM     36  C   UNL     1      -3.305   8.781   7.279  1.00  0.00     0.049 A 
ATOM     37  N   UNL     1      -4.905  10.729   8.948  1.00  0.00    -0.248 NA
ATOM     38  C   UNL     1      -6.833   9.566   8.320  1.00  0.00     0.031 C 
ATOM     39  C   UNL     1      -2.481   7.856   6.504  1.00  0.00     0.029 A 
ATOM     40  N   UNL     1      -2.397   9.589   7.919  1.00  0.00    -0.354 N 
ATOM     41  C   UNL     1      -6.013  11.295   9.566  1.00  0.00     0.074 A 
ATOM     42  C   UNL     1      -7.176  10.561   9.121  1.00  0.00     0.031 C 
ATOM     43  C   UNL     1      -1.186   8.169   6.692  1.00  0.00     0.029 A 
ATOM     44  C   UNL     1      -1.095   9.345   7.556  1.00  0.00     0.049 A 
ATOM     45  H   UNL     1      -2.656  10.277   8.575  1.00  0.00     0.167 HD
ATOM     46  C   UNL     1      -6.059  12.341  10.421  1.00  0.00     0.031 A 
ATOM     47  C   UNL     1       0.031  10.025   7.854  1.00  0.00     0.031 A 
ATOM     48  C   UNL     1      -4.904  13.078  10.849  1.00  0.00     0.049 A 
ATOM     49  C   UNL     1      -0.057  11.258   8.721  1.00  0.00     0.074 A 
ATOM     50  C   UNL     1      -4.841  14.150  11.721  1.00  0.00     0.029 A 
ATOM     51  N   UNL     1      -3.609  12.825  10.426  1.00  0.00    -0.354 N 
ATOM     52  N   UNL     1      -1.105  11.788   9.306  1.00  0.00    -0.248 NA
ATOM     53  C   UNL     1       1.196  11.989   8.964  1.00  0.00     0.031 C 
ATOM     54  C   UNL     1      -3.515  14.589  11.773  1.00  0.00     0.029 A 
ATOM     55  C   UNL     1      -2.743  13.746  10.989  1.00  0.00     0.049 A 
ATOM     56  H   UNL     1      -3.344  12.099   9.817  1.00  0.00     0.167 HD
ATOM     57  C   UNL     1      -0.634  12.894  10.005  1.00  0.00     0.074 A 
ATOM     58  C   UNL     1       0.796  12.951   9.785  1.00  0.00     0.031 C 
ATOM     59  C   UNL     1      -1.322  13.785  10.760  1.00  0.00     0.031 A 
BRANCH  46  60
ATOM     60  C   UNL     1      -7.413  12.782  10.902  1.00  0.00    -0.014 A 
ATOM     61  C   UNL     1      -8.165  12.005  11.796  1.00  0.00     0.009 A 
ATOM     62  C   UNL     1      -7.932  14.011  10.465  1.00  0.00     0.009 A 
ATOM     63  C   UNL     1      -9.424  12.436  12.218  1.00  0.00     0.001 A 
ATOM     64  C   UNL     1      -9.176  14.454  10.913  1.00  0.00     0.001 A 
ATOM     65  C   UNL     1      -9.925  13.663  11.782  1.00  0.00     0.000 A 
ENDBRANCH  46  60
BRANCH  47  66
ATOM     66  C   UNL     1       1.339   9.601   7.284  1.00  0.00    -0.014 A 
ATOM     67  C   UNL     1       2.362   9.120   8.115  1.00  0.00     0.009 A 
ATOM     68  C   UNL     1       1.585   9.710   5.905  1.00  0.00     0.009 A 
ATOM     69  C   UNL     1       3.610   8.784   7.582  1.00  0.00     0.001 A 
ATOM     70  C   UNL     1       2.822   9.342   5.371  1.00  0.00     0.001 A 
ATOM     71  C   UNL     1       3.837   8.890   6.211  1.00  0.00     0.000 A 
ENDBRANCH  47  66
BRANCH  59  72
ATOM     72  C   UNL     1      -0.541  14.879  11.436  1.00  0.00    -0.014 A 
ATOM     73  C   UNL     1      -0.004  15.950  10.707  1.00  0.00     0.009 A 
ATOM     74  C   UNL     1      -0.407  14.872  12.835  1.00  0.00     0.009 A 
ATOM     75  C   UNL     1       0.674  16.980  11.364  1.00  0.00     0.001 A 
ATOM     76  C   UNL     1       0.243  15.918  13.490  1.00  0.00     0.001 A 
ATOM     77  C   UNL     1       0.790  16.967  12.754  1.00  0.00     0.000 A 
ENDBRANCH  59  72
ENDBRANCH  33  34
ENDBRANCH  26  28
ENDBRANCH  25  26
ENDBRANCH  24  25
ENDBRANCH  23  24
ENDBRANCH  22  23
ENDBRANCH  21  22
ENDBRANCH   1  21
TORSDOF 20
