REMARK SMILES CC[C@H]1CCCCN1S(=O)(=O)c1ccc2oc(C(=O)OCCOCCOCCOC(=O)c3ccc(-c4c5nc(c(-c6ccccc6)c6ccc([nH]6)c(-c6ccccc6)c6nc(c(-c7ccccc7)c7ccc4[nH]7)C=C6)C=C5)cc3)c(C)c2c1
REMARK SMILES IDX 24 1 23 2 22 3 21 4 20 5 18 6 19 7 17 8 12 9 13 10 83 11
REMARK SMILES IDX 14 12 82 13 15 14 80 15 16 16 81 17 9 18 10 19 11 20 8 21
REMARK SMILES IDX 3 22 4 23 5 24 7 25 6 26 2 27 1 28 25 29 26 30 27 31 28 32
REMARK SMILES IDX 29 33 30 34 31 35 32 36 33 37 79 38 34 39 78 40 35 41 36 42
REMARK SMILES IDX 37 43 72 44 38 45 77 46 71 47 73 48 39 49 76 50 70 51 69 52
REMARK SMILES IDX 40 54 62 55 47 56 61 57 48 58 51 59 60 60 74 61 49 62 50 63
REMARK SMILES IDX 59 65 75 66 52 67 41 68 42 69 46 70 43 71 45 72 44 73 63 74
REMARK SMILES IDX 64 75 68 76 65 77 67 78 66 79 53 80 54 81 58 82 55 83 57 84
REMARK SMILES IDX 56 85
REMARK H PARENT 73 53 51 64
REMARK Flexibility Score: inf
ROOT
ATOM      1  C   UNL     1      12.188  -2.225  -2.750  1.00  0.00     0.188 C 
ENDROOT
BRANCH   1   2
ATOM      2  O   UNL     1      13.160  -3.200  -2.387  1.00  0.00    -0.376 OA
BRANCH   2   3
ATOM      3  C   UNL     1      12.875  -4.584  -2.536  1.00  0.00     0.202 C 
BRANCH   3   4
ATOM      4  C   UNL     1      11.764  -5.166  -1.661  1.00  0.00     0.261 C 
BRANCH   4   5
ATOM      5  O   UNL     1      10.495  -4.537  -1.891  1.00  0.00    -0.457 OA
BRANCH   5   6
ATOM      6  C   UNL     1       9.968  -3.858  -0.832  1.00  0.00     0.374 C 
ATOM      7  O   UNL     1      10.444  -3.856   0.297  1.00  0.00    -0.242 OA
BRANCH   6   8
ATOM      8  C   UNL     1       8.834  -3.063  -1.254  1.00  0.00     0.215 A 
ATOM      9  C   UNL     1       5.111  -0.567  -2.121  1.00  0.00     0.083 A 
ATOM     10  C   UNL     1       5.612   0.133  -1.019  1.00  0.00     0.025 A 
ATOM     11  C   UNL     1       5.854  -1.583  -2.747  1.00  0.00     0.034 A 
ATOM     12  C   UNL     1       6.833  -0.236  -0.444  1.00  0.00     0.049 A 
ATOM     13  C   UNL     1       7.018  -2.038  -2.109  1.00  0.00     0.025 A 
ATOM     14  C   UNL     1       7.461  -1.355  -0.988  1.00  0.00     0.135 A 
ATOM     15  C   UNL     1       7.913  -3.139  -2.298  1.00  0.00     0.010 A 
ATOM     16  O   UNL     1       8.566  -1.955  -0.489  1.00  0.00    -0.449 OA
ATOM     17  C   UNL     1       7.777  -4.175  -3.358  1.00  0.00     0.049 C 
BRANCH   9  18
ATOM     18  S   UNL     1       3.493  -0.195  -2.767  1.00  0.00     0.243 S 
ATOM     19  O   UNL     1       3.563  -0.368  -4.203  1.00  0.00    -0.207 OA
ATOM     20  O   UNL     1       3.065   1.059  -2.183  1.00  0.00    -0.207 OA
BRANCH  18  21
ATOM     21  N   UNL     1       2.490  -1.448  -2.121  1.00  0.00    -0.195 NA
ATOM     22  C   UNL     1       1.005  -1.160  -2.218  1.00  0.00     0.073 C 
ATOM     23  C   UNL     1       0.244  -2.222  -1.403  1.00  0.00     0.020 C 
ATOM     24  C   UNL     1       0.549  -3.636  -1.877  1.00  0.00     0.003 C 
ATOM     25  C   UNL     1       2.846  -2.837  -2.540  1.00  0.00     0.103 C 
ATOM     26  C   UNL     1       2.043  -3.885  -1.780  1.00  0.00     0.017 C 
BRANCH  22  27
ATOM     27  C   UNL     1       0.534  -1.032  -3.683  1.00  0.00     0.017 C 
ATOM     28  C   UNL     1      -0.971  -0.877  -3.850  1.00  0.00     0.005 C 
ENDBRANCH  22  27
ENDBRANCH  18  21
ENDBRANCH   9  18
ENDBRANCH   6   8
ENDBRANCH   5   6
ENDBRANCH   4   5
ENDBRANCH   3   4
ENDBRANCH   2   3
ENDBRANCH   1   2
BRANCH   1  29
ATOM     29  C   UNL     1      11.306  -2.426  -3.998  1.00  0.00     0.188 C 
BRANCH  29  30
ATOM     30  O   UNL     1      11.786  -3.389  -4.924  1.00  0.00    -0.376 OA
BRANCH  30  31
ATOM     31  C   UNL     1      12.224  -2.877  -6.176  1.00  0.00     0.202 C 
BRANCH  31  32
ATOM     32  C   UNL     1      13.617  -2.243  -6.109  1.00  0.00     0.261 C 
BRANCH  32  33
ATOM     33  O   UNL     1      13.695  -1.070  -5.281  1.00  0.00    -0.460 OA
BRANCH  33  34
ATOM     34  C   UNL     1      12.980   0.003  -5.687  1.00  0.00     0.338 C 
ATOM     35  O   UNL     1      12.296   0.096  -6.689  1.00  0.00    -0.246 OA
BRANCH  34  36
ATOM     36  C   UNL     1      13.023   1.016  -4.615  1.00  0.00     0.060 A 
ATOM     37  C   UNL     1      11.815   1.517  -4.117  1.00  0.00     0.016 A 
ATOM     38  C   UNL     1      14.244   1.482  -4.120  1.00  0.00     0.016 A 
ATOM     39  C   UNL     1      11.827   2.517  -3.143  1.00  0.00     0.010 A 
ATOM     40  C   UNL     1      14.254   2.493  -3.155  1.00  0.00     0.010 A 
ATOM     41  C   UNL     1      13.047   3.038  -2.686  1.00  0.00    -0.014 A 
BRANCH  41  42
ATOM     42  C   UNL     1      13.055   4.268  -1.857  1.00  0.00     0.031 A 
ATOM     43  C   UNL     1      13.208   5.598  -2.544  1.00  0.00     0.074 A 
ATOM     44  C   UNL     1      12.908   4.215  -0.521  1.00  0.00     0.049 A 
ATOM     45  N   UNL     1      13.208   6.802  -2.030  1.00  0.00    -0.248 NA
ATOM     46  C   UNL     1      13.380   5.567  -4.006  1.00  0.00     0.031 C 
ATOM     47  C   UNL     1      12.728   2.999   0.268  1.00  0.00     0.029 A 
ATOM     48  N   UNL     1      12.886   5.227   0.407  1.00  0.00    -0.354 N 
ATOM     49  C   UNL     1      13.377   7.668  -3.102  1.00  0.00     0.074 A 
ATOM     50  C   UNL     1      13.505   6.854  -4.292  1.00  0.00     0.031 C 
ATOM     51  C   UNL     1      12.613   3.336   1.566  1.00  0.00     0.029 A 
ATOM     52  C   UNL     1      12.730   4.787   1.698  1.00  0.00     0.049 A 
ATOM     53  H   UNL     1      12.973   6.178   0.169  1.00  0.00     0.167 HD
ATOM     54  C   UNL     1      13.414   9.021  -3.103  1.00  0.00     0.031 A 
ATOM     55  C   UNL     1      12.694   5.479   2.854  1.00  0.00     0.031 A 
ATOM     56  C   UNL     1      13.300   9.840  -1.928  1.00  0.00     0.049 A 
ATOM     57  C   UNL     1      12.812   6.981   2.832  1.00  0.00     0.074 A 
ATOM     58  C   UNL     1      13.295  11.221  -1.839  1.00  0.00     0.029 A 
ATOM     59  N   UNL     1      13.185   9.353  -0.637  1.00  0.00    -0.354 N 
ATOM     60  N   UNL     1      12.907   7.789   1.804  1.00  0.00    -0.248 NA
ATOM     61  C   UNL     1      12.807   7.665   4.135  1.00  0.00     0.031 C 
ATOM     62  C   UNL     1      13.225  11.570  -0.486  1.00  0.00     0.029 A 
ATOM     63  C   UNL     1      13.139  10.406   0.259  1.00  0.00     0.049 A 
ATOM     64  H   UNL     1      13.141   8.400  -0.394  1.00  0.00     0.167 HD
ATOM     65  C   UNL     1      12.940   9.074   2.334  1.00  0.00     0.074 A 
ATOM     66  C   UNL     1      12.846   8.940   3.772  1.00  0.00     0.031 C 
ATOM     67  C   UNL     1      13.036  10.260   1.687  1.00  0.00     0.031 A 
BRANCH  54  68
ATOM     68  C   UNL     1      13.609   9.704  -4.424  1.00  0.00    -0.014 A 
ATOM     69  C   UNL     1      12.563   9.790  -5.356  1.00  0.00     0.009 A 
ATOM     70  C   UNL     1      14.841  10.305  -4.721  1.00  0.00     0.009 A 
ATOM     71  C   UNL     1      12.757  10.446  -6.573  1.00  0.00     0.001 A 
ATOM     72  C   UNL     1      15.024  10.979  -5.929  1.00  0.00     0.001 A 
ATOM     73  C   UNL     1      13.985  11.044  -6.856  1.00  0.00     0.000 A 
ENDBRANCH  54  68
BRANCH  55  74
ATOM     74  C   UNL     1      12.548   4.768   4.152  1.00  0.00    -0.014 A 
ATOM     75  C   UNL     1      11.367   4.885   4.901  1.00  0.00     0.009 A 
ATOM     76  C   UNL     1      13.612   4.017   4.674  1.00  0.00     0.009 A 
ATOM     77  C   UNL     1      11.267   4.289   6.161  1.00  0.00     0.001 A 
ATOM     78  C   UNL     1      13.499   3.402   5.923  1.00  0.00     0.001 A 
ATOM     79  C   UNL     1      12.332   3.548   6.670  1.00  0.00     0.000 A 
ENDBRANCH  55  74
BRANCH  67  80
ATOM     80  C   UNL     1      13.004  11.510   2.519  1.00  0.00    -0.014 A 
ATOM     81  C   UNL     1      14.110  11.901   3.289  1.00  0.00     0.009 A 
ATOM     82  C   UNL     1      11.866  12.332   2.493  1.00  0.00     0.009 A 
ATOM     83  C   UNL     1      14.066  13.079   4.038  1.00  0.00     0.001 A 
ATOM     84  C   UNL     1      11.835  13.521   3.224  1.00  0.00     0.001 A 
ATOM     85  C   UNL     1      12.932  13.890   4.001  1.00  0.00     0.000 A 
ENDBRANCH  67  80
ENDBRANCH  41  42
ENDBRANCH  34  36
ENDBRANCH  33  34
ENDBRANCH  32  33
ENDBRANCH  31  32
ENDBRANCH  30  31
ENDBRANCH  29  30
ENDBRANCH   1  29
TORSDOF 20
