REMARK SMILES Cc1nc(-c2ccc(S(=O)(=O)N3CC[NH2+][C@H](C(=O)OCCOCCOCCOC(=O)c4ccc(-c5c6nc(c(-c7ccccc7)c7ccc([nH]7)c(-c7ccccc7)c7nc(c(-c8ccccc8)c8ccc5[nH]8)C=C7)C=C6)cc4)C3)s2)cs1
REMARK SMILES IDX 23 1 22 2 21 3 20 4 19 5 17 6 18 7 16 8 12 9 13 10 79 11
REMARK SMILES IDX 14 12 15 13 9 16 10 17 11 18 8 19 5 20 6 21 80 22 7 23 4 24
REMARK SMILES IDX 1 25 2 26 3 27 82 28 81 29 24 30 25 31 26 32 27 33 28 34
REMARK SMILES IDX 29 35 30 36 31 37 32 38 78 39 33 40 77 41 34 42 35 43 36 44
REMARK SMILES IDX 71 45 37 46 76 47 70 48 72 49 38 50 75 51 69 52 68 53 39 55
REMARK SMILES IDX 61 56 46 57 60 58 47 59 50 60 59 61 73 62 48 63 49 64 58 66
REMARK SMILES IDX 74 67 51 68 40 69 41 70 45 71 42 72 44 73 43 74 62 75 63 76
REMARK SMILES IDX 67 77 64 78 66 79 65 80 52 81 53 82 57 83 54 84 56 85 55 86
REMARK H PARENT 15 14 15 15 72 54 50 65
REMARK Flexibility Score: inf
ROOT
ATOM      1  C   UNL     1       4.606  -5.968  -5.751  1.00  0.00     0.188 C 
ENDROOT
BRANCH   1   2
ATOM      2  O   UNL     1       5.248  -4.922  -6.470  1.00  0.00    -0.376 OA
BRANCH   2   3
ATOM      3  C   UNL     1       6.527  -4.480  -6.043  1.00  0.00     0.202 C 
BRANCH   3   4
ATOM      4  C   UNL     1       6.564  -3.684  -4.738  1.00  0.00     0.261 C 
BRANCH   4   5
ATOM      5  O   UNL     1       6.193  -4.479  -3.594  1.00  0.00    -0.459 OA
BRANCH   5   6
ATOM      6  C   UNL     1       5.007  -4.147  -3.021  1.00  0.00     0.366 C 
ATOM      7  O   UNL     1       4.276  -3.243  -3.411  1.00  0.00    -0.245 OA
BRANCH   6   8
ATOM      8  C   UNL     1       4.628  -5.045  -1.850  1.00  0.00     0.308 C 
ATOM      9  N   UNL     1       5.181  -5.871   0.372  1.00  0.00    -0.185 NA
ATOM     10  C   UNL     1       4.417  -7.128   0.162  1.00  0.00     0.164 C 
ATOM     11  C   UNL     1       5.775  -5.350  -0.890  1.00  0.00     0.180 C 
ATOM     12  C   UNL     1       3.472  -7.076  -1.062  1.00  0.00     0.278 C 
ATOM     13  N   UNL     1       3.899  -6.292  -2.246  1.00  0.00    -0.332 N 
ATOM     14  H   UNL     1       3.074  -6.035  -2.788  1.00  0.00     0.347 HD
ATOM     15  H   UNL     1       4.533  -6.869  -2.799  1.00  0.00     0.347 HD
BRANCH   9  16
ATOM     16  S   UNL     1       4.694  -4.743   1.550  1.00  0.00     0.253 S 
ATOM     17  O   UNL     1       5.787  -3.804   1.683  1.00  0.00    -0.206 OA
ATOM     18  O   UNL     1       4.183  -5.484   2.684  1.00  0.00    -0.206 OA
BRANCH  16  19
ATOM     19  C   UNL     1       3.287  -3.765   1.002  1.00  0.00     0.135 A 
ATOM     20  C   UNL     1       1.774  -1.829   0.662  1.00  0.00     0.055 A 
ATOM     21  C   UNL     1       1.317  -2.962   0.033  1.00  0.00     0.023 A 
ATOM     22  S   UNL     1       3.270  -2.093   1.435  1.00  0.00    -0.121 S 
ATOM     23  C   UNL     1       2.143  -4.079   0.292  1.00  0.00     0.034 A 
BRANCH  20  24
ATOM     24  C   UNL     1       0.951  -0.581   0.644  1.00  0.00     0.091 A 
ATOM     25  C   UNL     1      -2.399   0.704   0.011  1.00  0.00     0.079 C 
ATOM     26  C   UNL     1      -0.961   0.494   0.327  1.00  0.00     0.090 A 
ATOM     27  N   UNL     1      -0.354  -0.659   0.184  1.00  0.00    -0.241 NA
ATOM     28  S   UNL     1       0.026   1.768   0.921  1.00  0.00    -0.127 S 
ATOM     29  C   UNL     1       1.342   0.667   1.076  1.00  0.00     0.096 A 
ENDBRANCH  20  24
ENDBRANCH  16  19
ENDBRANCH   9  16
ENDBRANCH   6   8
ENDBRANCH   5   6
ENDBRANCH   4   5
ENDBRANCH   3   4
ENDBRANCH   2   3
ENDBRANCH   1   2
BRANCH   1  30
ATOM     30  C   UNL     1       5.465  -7.082  -5.120  1.00  0.00     0.188 C 
BRANCH  30  31
ATOM     31  O   UNL     1       6.543  -7.641  -5.852  1.00  0.00    -0.376 OA
BRANCH  31  32
ATOM     32  C   UNL     1       6.348  -7.911  -7.231  1.00  0.00     0.202 C 
BRANCH  32  33
ATOM     33  C   UNL     1       5.401  -9.070  -7.540  1.00  0.00     0.261 C 
BRANCH  33  34
ATOM     34  O   UNL     1       4.024  -8.709  -7.327  1.00  0.00    -0.460 OA
BRANCH  34  35
ATOM     35  C   UNL     1       3.389  -9.343  -6.312  1.00  0.00     0.338 C 
ATOM     36  O   UNL     1       3.849 -10.190  -5.566  1.00  0.00    -0.246 OA
BRANCH  35  37
ATOM     37  C   UNL     1       2.051  -8.749  -6.117  1.00  0.00     0.060 A 
ATOM     38  C   UNL     1       1.639  -8.445  -4.812  1.00  0.00     0.016 A 
ATOM     39  C   UNL     1       1.183  -8.560  -7.194  1.00  0.00     0.016 A 
ATOM     40  C   UNL     1       0.339  -7.997  -4.573  1.00  0.00     0.010 A 
ATOM     41  C   UNL     1      -0.122  -8.126  -6.952  1.00  0.00     0.010 A 
ATOM     42  C   UNL     1      -0.560  -7.878  -5.639  1.00  0.00    -0.014 A 
BRANCH  42  43
ATOM     43  C   UNL     1      -2.006  -7.665  -5.398  1.00  0.00     0.031 A 
ATOM     44  C   UNL     1      -2.913  -8.864  -5.370  1.00  0.00     0.074 A 
ATOM     45  C   UNL     1      -2.518  -6.430  -5.258  1.00  0.00     0.049 A 
ATOM     46  N   UNL     1      -4.220  -8.916  -5.361  1.00  0.00    -0.248 NA
ATOM     47  C   UNL     1      -2.254 -10.181  -5.353  1.00  0.00     0.031 C 
ATOM     48  C   UNL     1      -1.745  -5.192  -5.198  1.00  0.00     0.029 A 
ATOM     49  N   UNL     1      -3.825  -6.021  -5.166  1.00  0.00    -0.354 N 
ATOM     50  C   UNL     1      -4.540 -10.268  -5.359  1.00  0.00     0.074 A 
ATOM     51  C   UNL     1      -3.293 -11.002  -5.372  1.00  0.00     0.031 C 
ATOM     52  C   UNL     1      -2.597  -4.155  -5.108  1.00  0.00     0.029 A 
ATOM     53  C   UNL     1      -3.970  -4.656  -5.152  1.00  0.00     0.049 A 
ATOM     54  H   UNL     1      -4.585  -6.646  -5.116  1.00  0.00     0.167 HD
ATOM     55  C   UNL     1      -5.763 -10.847  -5.356  1.00  0.00     0.031 A 
ATOM     56  C   UNL     1      -5.083  -3.899  -5.214  1.00  0.00     0.031 A 
ATOM     57  C   UNL     1      -7.003 -10.121  -5.365  1.00  0.00     0.049 A 
ATOM     58  C   UNL     1      -6.431  -4.564  -5.318  1.00  0.00     0.074 A 
ATOM     59  C   UNL     1      -8.294 -10.620  -5.369  1.00  0.00     0.029 A 
ATOM     60  N   UNL     1      -7.104  -8.740  -5.380  1.00  0.00    -0.354 N 
ATOM     61  N   UNL     1      -6.726  -5.841  -5.322  1.00  0.00    -0.248 NA
ATOM     62  C   UNL     1      -7.601  -3.678  -5.436  1.00  0.00     0.031 C 
ATOM     63  C   UNL     1      -9.178  -9.537  -5.433  1.00  0.00     0.029 A 
ATOM     64  C   UNL     1      -8.436  -8.367  -5.417  1.00  0.00     0.049 A 
ATOM     65  H   UNL     1      -6.342  -8.117  -5.366  1.00  0.00     0.167 HD
ATOM     66  C   UNL     1      -8.111  -5.912  -5.411  1.00  0.00     0.074 A 
ATOM     67  C   UNL     1      -8.600  -4.550  -5.457  1.00  0.00     0.031 C 
ATOM     68  C   UNL     1      -8.907  -7.008  -5.447  1.00  0.00     0.031 A 
BRANCH  55  69
ATOM     69  C   UNL     1      -5.814 -12.346  -5.394  1.00  0.00    -0.014 A 
ATOM     70  C   UNL     1      -5.505 -13.113  -4.260  1.00  0.00     0.009 A 
ATOM     71  C   UNL     1      -6.200 -12.998  -6.575  1.00  0.00     0.009 A 
ATOM     72  C   UNL     1      -5.554 -14.507  -4.319  1.00  0.00     0.001 A 
ATOM     73  C   UNL     1      -6.271 -14.390  -6.623  1.00  0.00     0.001 A 
ATOM     74  C   UNL     1      -5.941 -15.144  -5.498  1.00  0.00     0.000 A 
ENDBRANCH  55  69
BRANCH  56  75
ATOM     75  C   UNL     1      -4.976  -2.417  -5.230  1.00  0.00    -0.014 A 
ATOM     76  C   UNL     1      -5.400  -1.660  -4.128  1.00  0.00     0.009 A 
ATOM     77  C   UNL     1      -4.472  -1.752  -6.359  1.00  0.00     0.009 A 
ATOM     78  C   UNL     1      -5.343  -0.264  -4.166  1.00  0.00     0.001 A 
ATOM     79  C   UNL     1      -4.392  -0.358  -6.383  1.00  0.00     0.001 A 
ATOM     80  C   UNL     1      -4.835   0.385  -5.290  1.00  0.00     0.000 A 
ENDBRANCH  56  75
BRANCH  68  81
ATOM     81  C   UNL     1     -10.392  -6.791  -5.487  1.00  0.00    -0.014 A 
ATOM     82  C   UNL     1     -11.041  -6.408  -6.670  1.00  0.00     0.009 A 
ATOM     83  C   UNL     1     -11.159  -7.053  -4.341  1.00  0.00     0.009 A 
ATOM     84  C   UNL     1     -12.431  -6.278  -6.699  1.00  0.00     0.001 A 
ATOM     85  C   UNL     1     -12.550  -6.944  -4.379  1.00  0.00     0.001 A 
ATOM     86  C   UNL     1     -13.184  -6.552  -5.557  1.00  0.00     0.000 A 
ENDBRANCH  68  81
ENDBRANCH  42  43
ENDBRANCH  35  37
ENDBRANCH  34  35
ENDBRANCH  33  34
ENDBRANCH  32  33
ENDBRANCH  31  32
ENDBRANCH  30  31
ENDBRANCH   1  30
TORSDOF 20
