REMARK SMILES C[C@@H](C(=O)OCCOCCOCCOC(=O)c1ccc(-c2c3nc(c(-c4ccccc4)c4ccc([nH]4)c(-c4ccccc4)c4nc(c(-c5ccccc5)c5ccc2[nH]5)C=C4)C=C3)cc1)c1ccc(C[C@H]2CCCC2=O)c(-c2ccc(OC(F)(F)F)cc2)c1
REMARK SMILES IDX 9 1 8 2 7 3 6 4 5 5 3 6 4 7 2 8 1 9 65 10 66 11 88 12 67 13
REMARK SMILES IDX 76 14 68 15 77 16 78 17 87 18 79 19 86 20 80 21 81 22 82 23
REMARK SMILES IDX 83 24 84 25 85 26 69 27 70 28 71 29 74 30 72 31 73 32 75 33
REMARK SMILES IDX 10 34 11 35 12 36 13 37 14 38 15 39 16 40 17 41 18 42 64 43
REMARK SMILES IDX 19 44 63 45 20 46 21 47 22 48 57 49 23 50 62 51 56 52 58 53
REMARK SMILES IDX 24 54 61 55 55 56 54 57 25 59 47 60 32 61 46 62 33 63 36 64
REMARK SMILES IDX 45 65 59 66 34 67 35 68 44 70 60 71 37 72 26 73 27 74 31 75
REMARK SMILES IDX 28 76 30 77 29 78 48 79 49 80 53 81 50 82 52 83 51 84 38 85
REMARK SMILES IDX 39 86 43 87 40 88 42 89 41 90
REMARK H PARENT 58 58 36 69
REMARK Flexibility Score: inf
ROOT
ATOM      1  C   UNL     1       0.247   1.008  -3.624  1.00  0.00     0.188 C 
ENDROOT
BRANCH   1   2
ATOM      2  O   UNL     1       0.966   1.816  -4.548  1.00  0.00    -0.376 OA
BRANCH   2   3
ATOM      3  C   UNL     1       2.239   2.324  -4.153  1.00  0.00     0.202 C 
BRANCH   3   4
ATOM      4  C   UNL     1       2.377   2.980  -2.765  1.00  0.00     0.261 C 
BRANCH   4   5
ATOM      5  O   UNL     1       1.899   2.168  -1.667  1.00  0.00    -0.463 OA
BRANCH   5   6
ATOM      6  C   UNL     1       1.161   2.802  -0.717  1.00  0.00     0.313 C 
ATOM      7  O   UNL     1       1.004   4.020  -0.690  1.00  0.00    -0.252 OA
BRANCH   6   8
ATOM      8  C   UNL     1       0.483   1.855   0.305  1.00  0.00     0.126 C 
ATOM      9  C   UNL     1       1.320   0.623   0.670  1.00  0.00     0.025 C 
BRANCH   8  10
ATOM     10  C   UNL     1      -1.030   1.646   0.076  1.00  0.00    -0.033 A 
ATOM     11  C   UNL     1      -1.802   2.773  -0.219  1.00  0.00     0.005 A 
ATOM     12  C   UNL     1      -1.734   0.426   0.257  1.00  0.00     0.013 A 
ATOM     13  C   UNL     1      -3.189   2.708  -0.289  1.00  0.00     0.004 A 
ATOM     14  C   UNL     1      -3.169   0.322   0.213  1.00  0.00    -0.015 A 
ATOM     15  C   UNL     1      -3.896   1.520  -0.022  1.00  0.00    -0.039 A 
BRANCH  14  16
ATOM     16  C   UNL     1      -3.835  -1.011   0.417  1.00  0.00    -0.018 A 
ATOM     17  C   UNL     1      -4.927  -1.427  -0.368  1.00  0.00     0.012 A 
ATOM     18  C   UNL     1      -3.400  -1.936   1.380  1.00  0.00     0.012 A 
ATOM     19  C   UNL     1      -5.553  -2.668  -0.211  1.00  0.00     0.047 A 
ATOM     20  C   UNL     1      -4.021  -3.194   1.544  1.00  0.00     0.047 A 
ATOM     21  C   UNL     1      -5.103  -3.564   0.748  1.00  0.00     0.129 A 
BRANCH  21  22
ATOM     22  O   UNL     1      -5.803  -4.733   0.780  1.00  0.00    -0.406 OA
BRANCH  22  23
ATOM     23  C   UNL     1      -5.443  -5.704   1.742  1.00  0.00     0.573 C 
ATOM     24  F   UNL     1      -4.173  -6.124   1.555  1.00  0.00    -0.132 F 
ATOM     25  F   UNL     1      -5.580  -5.224   2.996  1.00  0.00    -0.132 F 
ATOM     26  F   UNL     1      -6.261  -6.771   1.607  1.00  0.00    -0.132 F 
ENDBRANCH  22  23
ENDBRANCH  21  22
ENDBRANCH  14  16
BRANCH  15  27
ATOM     27  C   UNL     1      -5.407   1.683   0.079  1.00  0.00     0.047 C 
BRANCH  27  28
ATOM     28  C   UNL     1      -5.959   2.232   1.399  1.00  0.00     0.060 C 
ATOM     29  C   UNL     1      -5.521   1.518   2.678  1.00  0.00     0.012 C 
ATOM     30  C   UNL     1      -5.514   3.650   1.659  1.00  0.00     0.136 C 
ATOM     31  C   UNL     1      -4.344   2.314   3.227  1.00  0.00     0.009 C 
ATOM     32  C   UNL     1      -4.626   3.767   2.868  1.00  0.00     0.076 C 
ATOM     33  O   UNL     1      -5.845   4.605   0.965  1.00  0.00    -0.299 OA
ENDBRANCH  27  28
ENDBRANCH  15  27
ENDBRANCH   8  10
ENDBRANCH   6   8
ENDBRANCH   5   6
ENDBRANCH   4   5
ENDBRANCH   3   4
ENDBRANCH   2   3
ENDBRANCH   1   2
BRANCH   1  34
ATOM     34  C   UNL     1       0.991  -0.141  -2.919  1.00  0.00     0.188 C 
BRANCH  34  35
ATOM     35  O   UNL     1       2.371  -0.198  -3.183  1.00  0.00    -0.376 OA
BRANCH  35  36
ATOM     36  C   UNL     1       2.882  -1.302  -3.906  1.00  0.00     0.202 C 
BRANCH  36  37
ATOM     37  C   UNL     1       2.163  -1.876  -5.147  1.00  0.00     0.261 C 
BRANCH  37  38
ATOM     38  O   UNL     1       0.729  -1.813  -5.181  1.00  0.00    -0.460 OA
BRANCH  38  39
ATOM     39  C   UNL     1       0.046  -2.827  -4.607  1.00  0.00     0.338 C 
ATOM     40  O   UNL     1       0.513  -3.806  -4.035  1.00  0.00    -0.246 OA
BRANCH  39  41
ATOM     41  C   UNL     1      -1.379  -2.446  -4.574  1.00  0.00     0.060 A 
ATOM     42  C   UNL     1      -1.908  -1.966  -3.376  1.00  0.00     0.016 A 
ATOM     43  C   UNL     1      -2.191  -2.537  -5.706  1.00  0.00     0.016 A 
ATOM     44  C   UNL     1      -3.231  -1.548  -3.322  1.00  0.00     0.010 A 
ATOM     45  C   UNL     1      -3.549  -2.187  -5.617  1.00  0.00     0.010 A 
ATOM     46  C   UNL     1      -4.089  -1.712  -4.410  1.00  0.00    -0.014 A 
BRANCH  46  47
ATOM     47  C   UNL     1      -5.561  -1.596  -4.198  1.00  0.00     0.031 A 
ATOM     48  C   UNL     1      -6.377  -2.862  -4.110  1.00  0.00     0.074 A 
ATOM     49  C   UNL     1      -6.172  -0.418  -3.965  1.00  0.00     0.049 A 
ATOM     50  N   UNL     1      -7.675  -3.014  -4.028  1.00  0.00    -0.248 NA
ATOM     51  C   UNL     1      -5.622  -4.125  -4.095  1.00  0.00     0.031 C 
ATOM     52  C   UNL     1      -5.511   0.880  -3.859  1.00  0.00     0.029 A 
ATOM     53  N   UNL     1      -7.503  -0.135  -3.753  1.00  0.00    -0.354 N 
ATOM     54  C   UNL     1      -7.893  -4.387  -4.007  1.00  0.00     0.074 A 
ATOM     55  C   UNL     1      -6.595  -5.022  -4.073  1.00  0.00     0.031 C 
ATOM     56  C   UNL     1      -6.438   1.821  -3.608  1.00  0.00     0.029 A 
ATOM     57  C   UNL     1      -7.764   1.205  -3.595  1.00  0.00     0.049 A 
ATOM     58  H   UNL     1      -8.202  -0.827  -3.718  1.00  0.00     0.167 HD
ATOM     59  C   UNL     1      -9.066  -5.063  -3.950  1.00  0.00     0.031 A 
ATOM     60  C   UNL     1      -8.935   1.867  -3.495  1.00  0.00     0.031 A 
ATOM     61  C   UNL     1     -10.363  -4.444  -3.875  1.00  0.00     0.049 A 
ATOM     62  C   UNL     1     -10.236   1.104  -3.554  1.00  0.00     0.074 A 
ATOM     63  C   UNL     1     -11.606  -5.053  -3.843  1.00  0.00     0.029 A 
ATOM     64  N   UNL     1     -10.586  -3.079  -3.816  1.00  0.00    -0.354 N 
ATOM     65  N   UNL     1     -10.436  -0.190  -3.609  1.00  0.00    -0.248 NA
ATOM     66  C   UNL     1     -11.474   1.901  -3.550  1.00  0.00     0.031 C 
ATOM     67  C   UNL     1     -12.584  -4.054  -3.826  1.00  0.00     0.029 A 
ATOM     68  C   UNL     1     -11.947  -2.825  -3.773  1.00  0.00     0.049 A 
ATOM     69  H   UNL     1      -9.882  -2.391  -3.805  1.00  0.00     0.167 HD
ATOM     70  C   UNL     1     -11.817  -0.361  -3.624  1.00  0.00     0.074 A 
ATOM     71  C   UNL     1     -12.406   0.958  -3.549  1.00  0.00     0.031 C 
ATOM     72  C   UNL     1     -12.532  -1.512  -3.696  1.00  0.00     0.031 A 
BRANCH  59  73
ATOM     73  C   UNL     1      -9.003  -6.562  -4.045  1.00  0.00    -0.014 A 
ATOM     74  C   UNL     1      -8.522  -7.352  -2.989  1.00  0.00     0.009 A 
ATOM     75  C   UNL     1      -9.463  -7.194  -5.212  1.00  0.00     0.009 A 
ATOM     76  C   UNL     1      -8.473  -8.742  -3.116  1.00  0.00     0.001 A 
ATOM     77  C   UNL     1      -9.443  -8.585  -5.322  1.00  0.00     0.001 A 
ATOM     78  C   UNL     1      -8.938  -9.357  -4.279  1.00  0.00     0.000 A 
ENDBRANCH  59  73
BRANCH  60  79
ATOM     79  C   UNL     1      -8.952   3.354  -3.401  1.00  0.00    -0.014 A 
ATOM     80  C   UNL     1      -9.438   3.999  -2.253  1.00  0.00     0.009 A 
ATOM     81  C   UNL     1      -8.524   4.137  -4.485  1.00  0.00     0.009 A 
ATOM     82  C   UNL     1      -9.515   5.394  -2.204  1.00  0.00     0.001 A 
ATOM     83  C   UNL     1      -8.569   5.531  -4.420  1.00  0.00     0.001 A 
ATOM     84  C   UNL     1      -9.075   6.158  -3.284  1.00  0.00     0.000 A 
ENDBRANCH  60  79
BRANCH  72  85
ATOM     85  C   UNL     1     -14.034  -1.408  -3.655  1.00  0.00    -0.014 A 
ATOM     86  C   UNL     1     -14.765  -0.886  -4.733  1.00  0.00     0.009 A 
ATOM     87  C   UNL     1     -14.732  -1.886  -2.533  1.00  0.00     0.009 A 
ATOM     88  C   UNL     1     -16.159  -0.814  -4.675  1.00  0.00     0.001 A 
ATOM     89  C   UNL     1     -16.127  -1.843  -2.491  1.00  0.00     0.001 A 
ATOM     90  C   UNL     1     -16.839  -1.297  -3.557  1.00  0.00     0.000 A 
ENDBRANCH  72  85
ENDBRANCH  46  47
ENDBRANCH  39  41
ENDBRANCH  38  39
ENDBRANCH  37  38
ENDBRANCH  36  37
ENDBRANCH  35  36
ENDBRANCH  34  35
ENDBRANCH   1  34
TORSDOF 23
