REMARK SMILES CS(=O)(=O)N1CCC[C@@H]1C(=O)N1CCC[C@@H]1C(=O)OCCOCCOCCOC(=O)c1ccc(-c2c3nc(c(-c4ccccc4)c4ccc([nH]4)c(-c4ccccc4)c4nc(c(-c5ccccc5)c5ccc2[nH]5)C=C4)C=C3)cc1
REMARK SMILES IDX 23 1 22 2 21 3 20 4 19 5 17 6 18 7 16 8 12 9 13 10 14 11
REMARK SMILES IDX 15 12 10 13 11 14 9 15 5 16 6 17 7 18 8 19 2 20 1 21 3 22
REMARK SMILES IDX 4 23 24 24 25 25 26 26 27 27 28 28 29 29 30 30 31 31 32 32
REMARK SMILES IDX 78 33 33 34 77 35 34 36 35 37 36 38 71 39 37 40 76 41 70 42
REMARK SMILES IDX 72 43 38 44 75 45 69 46 68 47 39 49 61 50 46 51 60 52 47 53
REMARK SMILES IDX 50 54 59 55 73 56 48 57 49 58 58 60 74 61 51 62 40 63 41 64
REMARK SMILES IDX 45 65 42 66 44 67 43 68 62 69 63 70 67 71 64 72 66 73 65 74
REMARK SMILES IDX 52 75 53 76 57 77 54 78 56 79 55 80
REMARK H PARENT 72 48 50 59
REMARK Flexibility Score: inf
ROOT
ATOM      1  C   UNL     1       0.274   4.003  -3.313  1.00  0.00     0.188 C 
ENDROOT
BRANCH   1   2
ATOM      2  O   UNL     1       1.655   3.791  -3.551  1.00  0.00    -0.376 OA
BRANCH   2   3
ATOM      3  C   UNL     1       2.344   2.962  -2.622  1.00  0.00     0.202 C 
BRANCH   3   4
ATOM      4  C   UNL     1       2.010   3.057  -1.124  1.00  0.00     0.261 C 
BRANCH   4   5
ATOM      5  O   UNL     1       0.651   2.720  -0.725  1.00  0.00    -0.462 OA
BRANCH   5   6
ATOM      6  C   UNL     1      -0.022   3.637   0.030  1.00  0.00     0.328 C 
ATOM      7  O   UNL     1       0.407   4.770   0.243  1.00  0.00    -0.250 OA
BRANCH   6   8
ATOM      8  C   UNL     1      -1.388   3.162   0.623  1.00  0.00     0.195 C 
ATOM      9  N   UNL     1      -1.365   2.473   1.915  1.00  0.00    -0.327 N 
ATOM     10  C   UNL     1      -2.661   1.859   2.113  1.00  0.00     0.120 C 
ATOM     11  C   UNL     1      -3.014   1.306   0.753  1.00  0.00     0.024 C 
ATOM     12  C   UNL     1      -2.273   2.222  -0.227  1.00  0.00     0.039 C 
BRANCH   9  13
ATOM     13  C   UNL     1      -0.534   2.873   2.933  1.00  0.00     0.241 C 
ATOM     14  O   UNL     1      -0.280   4.067   3.102  1.00  0.00    -0.273 OA
BRANCH  13  15
ATOM     15  C   UNL     1       0.118   1.795   3.831  1.00  0.00     0.162 C 
ATOM     16  N   UNL     1       0.937   0.639   3.268  1.00  0.00    -0.190 NA
ATOM     17  C   UNL     1       0.508  -0.599   3.921  1.00  0.00     0.103 C 
ATOM     18  C   UNL     1      -0.908  -0.325   4.361  1.00  0.00     0.019 C 
ATOM     19  C   UNL     1      -0.859   1.129   4.803  1.00  0.00     0.032 C 
BRANCH  16  20
ATOM     20  S   UNL     1       1.256   0.662   1.641  1.00  0.00     0.211 S 
ATOM     21  C   UNL     1       2.311  -0.706   1.241  1.00  0.00     0.176 C 
ATOM     22  O   UNL     1       2.029   1.871   1.454  1.00  0.00    -0.212 OA
ATOM     23  O   UNL     1       0.025   0.388   0.942  1.00  0.00    -0.212 OA
ENDBRANCH  16  20
ENDBRANCH  13  15
ENDBRANCH   9  13
ENDBRANCH   6   8
ENDBRANCH   5   6
ENDBRANCH   4   5
ENDBRANCH   3   4
ENDBRANCH   2   3
ENDBRANCH   1   2
BRANCH   1  24
ATOM     24  C   UNL     1      -0.616   2.758  -3.185  1.00  0.00     0.188 C 
BRANCH  24  25
ATOM     25  O   UNL     1       0.073   1.530  -3.126  1.00  0.00    -0.376 OA
BRANCH  25  26
ATOM     26  C   UNL     1       0.099   0.719  -4.289  1.00  0.00     0.202 C 
BRANCH  26  27
ATOM     27  C   UNL     1       0.244   1.323  -5.703  1.00  0.00     0.261 C 
BRANCH  27  28
ATOM     28  O   UNL     1      -0.329   2.619  -5.945  1.00  0.00    -0.460 OA
BRANCH  28  29
ATOM     29  C   UNL     1      -1.667   2.707  -6.142  1.00  0.00     0.338 C 
ATOM     30  O   UNL     1      -2.460   1.785  -6.199  1.00  0.00    -0.246 OA
BRANCH  29  31
ATOM     31  C   UNL     1      -2.038   4.139  -5.967  1.00  0.00     0.060 A 
ATOM     32  C   UNL     1      -2.954   4.486  -4.957  1.00  0.00     0.016 A 
ATOM     33  C   UNL     1      -1.403   5.140  -6.704  1.00  0.00     0.016 A 
ATOM     34  C   UNL     1      -3.242   5.827  -4.691  1.00  0.00     0.010 A 
ATOM     35  C   UNL     1      -1.723   6.481  -6.465  1.00  0.00     0.010 A 
ATOM     36  C   UNL     1      -2.663   6.830  -5.477  1.00  0.00    -0.014 A 
BRANCH  36  37
ATOM     37  C   UNL     1      -3.219   8.206  -5.448  1.00  0.00     0.031 A 
ATOM     38  C   UNL     1      -4.262   8.553  -6.476  1.00  0.00     0.074 A 
ATOM     39  C   UNL     1      -2.829   9.127  -4.548  1.00  0.00     0.049 A 
ATOM     40  N   UNL     1      -4.842   9.699  -6.723  1.00  0.00    -0.248 NA
ATOM     41  C   UNL     1      -4.707   7.452  -7.349  1.00  0.00     0.031 C 
ATOM     42  C   UNL     1      -1.876   8.910  -3.462  1.00  0.00     0.029 A 
ATOM     43  N   UNL     1      -3.190  10.447  -4.421  1.00  0.00    -0.354 N 
ATOM     44  C   UNL     1      -5.704   9.460  -7.787  1.00  0.00     0.074 A 
ATOM     45  C   UNL     1      -5.557   8.070  -8.153  1.00  0.00     0.031 C 
ATOM     46  C   UNL     1      -1.713  10.064  -2.789  1.00  0.00     0.029 A 
ATOM     47  C   UNL     1      -2.518  11.109  -3.421  1.00  0.00     0.049 A 
ATOM     48  H   UNL     1      -3.866  10.878  -4.992  1.00  0.00     0.167 HD
ATOM     49  C   UNL     1      -6.544  10.320  -8.406  1.00  0.00     0.031 A 
ATOM     50  C   UNL     1      -2.531  12.414  -3.079  1.00  0.00     0.031 A 
ATOM     51  C   UNL     1      -6.681  11.707  -8.056  1.00  0.00     0.049 A 
ATOM     52  C   UNL     1      -3.408  13.374  -3.846  1.00  0.00     0.074 A 
ATOM     53  C   UNL     1      -7.516  12.657  -8.617  1.00  0.00     0.029 A 
ATOM     54  N   UNL     1      -5.955  12.345  -7.062  1.00  0.00    -0.354 N 
ATOM     55  N   UNL     1      -4.238  13.134  -4.833  1.00  0.00    -0.248 NA
ATOM     56  C   UNL     1      -3.352  14.789  -3.445  1.00  0.00     0.031 C 
ATOM     57  C   UNL     1      -7.247  13.886  -8.008  1.00  0.00     0.029 A 
ATOM     58  C   UNL     1      -6.301  13.684  -7.016  1.00  0.00     0.049 A 
ATOM     59  H   UNL     1      -5.294  11.910  -6.477  1.00  0.00     0.167 HD
ATOM     60  C   UNL     1      -4.826  14.356  -5.144  1.00  0.00     0.074 A 
ATOM     61  C   UNL     1      -4.271  15.332  -4.231  1.00  0.00     0.031 C 
ATOM     62  C   UNL     1      -5.745  14.644  -6.098  1.00  0.00     0.031 A 
BRANCH  49  63
ATOM     63  C   UNL     1      -7.350   9.794  -9.559  1.00  0.00    -0.014 A 
ATOM     64  C   UNL     1      -8.408   8.893  -9.364  1.00  0.00     0.009 A 
ATOM     65  C   UNL     1      -7.068  10.241 -10.860  1.00  0.00     0.009 A 
ATOM     66  C   UNL     1      -9.150   8.430 -10.453  1.00  0.00     0.001 A 
ATOM     67  C   UNL     1      -7.832   9.801 -11.942  1.00  0.00     0.001 A 
ATOM     68  C   UNL     1      -8.867   8.890 -11.739  1.00  0.00     0.000 A 
ENDBRANCH  49  63
BRANCH  50  69
ATOM     69  C   UNL     1      -1.658  12.917  -1.982  1.00  0.00    -0.014 A 
ATOM     70  C   UNL     1      -2.212  13.438  -0.801  1.00  0.00     0.009 A 
ATOM     71  C   UNL     1      -0.262  12.930  -2.133  1.00  0.00     0.009 A 
ATOM     72  C   UNL     1      -1.390  13.991   0.186  1.00  0.00     0.001 A 
ATOM     73  C   UNL     1       0.559  13.451  -1.130  1.00  0.00     0.001 A 
ATOM     74  C   UNL     1      -0.006  13.993   0.022  1.00  0.00     0.000 A 
ENDBRANCH  50  69
BRANCH  62  75
ATOM     75  C   UNL     1      -6.252  16.060  -6.174  1.00  0.00    -0.014 A 
ATOM     76  C   UNL     1      -5.441  17.109  -6.631  1.00  0.00     0.009 A 
ATOM     77  C   UNL     1      -7.586  16.335  -5.829  1.00  0.00     0.009 A 
ATOM     78  C   UNL     1      -5.943  18.411  -6.704  1.00  0.00     0.001 A 
ATOM     79  C   UNL     1      -8.095  17.630  -5.936  1.00  0.00     0.001 A 
ATOM     80  C   UNL     1      -7.271  18.668  -6.363  1.00  0.00     0.000 A 
ENDBRANCH  62  75
ENDBRANCH  36  37
ENDBRANCH  29  31
ENDBRANCH  28  29
ENDBRANCH  27  28
ENDBRANCH  26  27
ENDBRANCH  25  26
ENDBRANCH  24  25
ENDBRANCH   1  24
TORSDOF 20
