REMARK SMILES O=C(OCCOCCOCCOC(=O)c1ccc(-c2c3nc(c(-c4ccccc4)c4ccc([nH]4)c(-c4ccccc4)c4nc(c(-c5ccccc5)c5ccc2[nH]5)C=C4)C=C3)cc1)c1ccc(NC(=O)[C@@H]2CC=CC[C@H]2C(=O)Nc2cccc([N+](=O)[O-])c2)cc1
REMARK SMILES IDX 6 1 5 2 4 3 3 4 2 5 1 6 63 7 64 8 89 9 65 10 88 11 66 12
REMARK SMILES IDX 67 13 68 14 69 16 70 17 71 18 75 19 72 20 74 21 73 22 76 23
REMARK SMILES IDX 77 24 78 25 79 27 80 28 87 29 81 30 83 31 82 32 84 33 85 34
REMARK SMILES IDX 86 35 7 36 8 37 9 38 10 39 11 40 12 41 13 42 14 43 15 44
REMARK SMILES IDX 16 45 62 46 17 47 61 48 18 49 19 50 20 51 55 52 21 53 60 54
REMARK SMILES IDX 54 55 56 56 22 57 59 58 53 59 52 60 23 62 45 63 30 64 44 65
REMARK SMILES IDX 31 66 34 67 43 68 57 69 32 70 33 71 42 73 58 74 35 75 24 76
REMARK SMILES IDX 25 77 29 78 26 79 28 80 27 81 46 82 47 83 51 84 48 85 50 86
REMARK SMILES IDX 49 87 36 88 37 89 41 90 38 91 40 92 39 93
REMARK H PARENT 67 15 78 26 56 61 34 72
REMARK Flexibility Score: inf
ROOT
ATOM      1  O   UNL     1       7.843  -9.386   1.575  1.00  0.00    -0.376 OA
ENDROOT
BRANCH   1   2
ATOM      2  C   UNL     1       8.430 -10.072   0.467  1.00  0.00     0.202 C 
BRANCH   2   3
ATOM      3  C   UNL     1       9.875  -9.659   0.077  1.00  0.00     0.261 C 
BRANCH   3   4
ATOM      4  O   UNL     1      10.813  -9.630   1.199  1.00  0.00    -0.460 OA
BRANCH   4   5
ATOM      5  C   UNL     1      11.648  -8.602   1.573  1.00  0.00     0.338 C 
ATOM      6  O   UNL     1      12.733  -8.834   2.092  1.00  0.00    -0.246 OA
BRANCH   5   7
ATOM      7  C   UNL     1      11.208  -7.184   1.427  1.00  0.00     0.060 A 
ATOM      8  C   UNL     1       9.892  -6.955   1.190  1.00  0.00     0.018 A 
ATOM      9  C   UNL     1      12.023  -6.046   1.489  1.00  0.00     0.018 A 
ATOM     10  C   UNL     1       9.478  -5.751   0.681  1.00  0.00     0.027 A 
ATOM     11  C   UNL     1      11.474  -4.739   1.263  1.00  0.00     0.027 A 
ATOM     12  C   UNL     1      10.142  -4.561   0.846  1.00  0.00     0.041 A 
BRANCH  12  13
ATOM     13  N   UNL     1       9.594  -3.243   0.688  1.00  0.00    -0.326 N 
ATOM     14  C   UNL     1       8.412  -2.557   0.445  1.00  0.00     0.228 C 
ATOM     15  H   UNL     1      10.322  -2.588   0.790  1.00  0.00     0.169 HD
ATOM     16  O   UNL     1       8.510  -1.327   0.623  1.00  0.00    -0.274 OA
BRANCH  14  17
ATOM     17  C   UNL     1       6.974  -3.058  -0.011  1.00  0.00     0.095 C 
ATOM     18  C   UNL     1       5.906  -2.791   1.067  1.00  0.00     0.041 C 
ATOM     19  C   UNL     1       6.990  -4.480  -0.505  1.00  0.00     0.095 C 
ATOM     20  C   UNL     1       4.790  -3.795   1.196  1.00  0.00    -0.030 C 
ATOM     21  C   UNL     1       5.996  -5.560  -0.037  1.00  0.00     0.041 C 
ATOM     22  C   UNL     1       4.826  -5.036   0.702  1.00  0.00    -0.030 C 
BRANCH  19  23
ATOM     23  C   UNL     1       7.832  -4.566  -1.825  1.00  0.00     0.228 C 
ATOM     24  O   UNL     1       8.727  -3.753  -2.070  1.00  0.00    -0.274 OA
ATOM     25  N   UNL     1       7.739  -5.622  -2.679  1.00  0.00    -0.326 N 
ATOM     26  H   UNL     1       8.584  -5.958  -3.056  1.00  0.00     0.169 HD
BRANCH  25  27
ATOM     27  C   UNL     1       6.579  -6.277  -3.075  1.00  0.00     0.048 A 
ATOM     28  C   UNL     1       6.654  -7.626  -3.416  1.00  0.00     0.026 A 
ATOM     29  C   UNL     1       5.357  -5.606  -3.053  1.00  0.00     0.111 A 
ATOM     30  C   UNL     1       5.474  -8.351  -3.582  1.00  0.00     0.009 A 
ATOM     31  C   UNL     1       4.182  -6.344  -3.177  1.00  0.00     0.271 A 
ATOM     32  C   UNL     1       4.234  -7.721  -3.430  1.00  0.00     0.086 A 
BRANCH  31  33
ATOM     33  N   UNL     1       2.904  -5.680  -2.908  1.00  0.00     0.062 N 
ATOM     34  O   UNL     1       1.881  -6.377  -2.927  1.00  0.00    -0.258 OA
ATOM     35  O   UNL     1       2.928  -4.469  -2.647  1.00  0.00    -0.258 OA
ENDBRANCH  31  33
ENDBRANCH  25  27
ENDBRANCH  19  23
ENDBRANCH  14  17
ENDBRANCH  12  13
ENDBRANCH   5   7
ENDBRANCH   4   5
ENDBRANCH   3   4
ENDBRANCH   2   3
ENDBRANCH   1   2
BRANCH   1  36
ATOM     36  C   UNL     1       8.216  -9.934   2.847  1.00  0.00     0.188 C 
BRANCH  36  37
ATOM     37  C   UNL     1       7.266  -9.452   3.947  1.00  0.00     0.188 C 
BRANCH  37  38
ATOM     38  O   UNL     1       5.957 -10.007   3.825  1.00  0.00    -0.376 OA
BRANCH  38  39
ATOM     39  C   UNL     1       5.042  -9.242   3.036  1.00  0.00     0.202 C 
BRANCH  39  40
ATOM     40  C   UNL     1       4.341  -8.129   3.825  1.00  0.00     0.261 C 
BRANCH  40  41
ATOM     41  O   UNL     1       5.126  -6.918   3.856  1.00  0.00    -0.460 OA
BRANCH  41  42
ATOM     42  C   UNL     1       5.753  -6.658   5.027  1.00  0.00     0.338 C 
ATOM     43  O   UNL     1       5.759  -7.340   6.035  1.00  0.00    -0.246 OA
BRANCH  42  44
ATOM     44  C   UNL     1       6.548  -5.423   4.905  1.00  0.00     0.060 A 
ATOM     45  C   UNL     1       7.910  -5.461   5.227  1.00  0.00     0.016 A 
ATOM     46  C   UNL     1       5.919  -4.210   4.631  1.00  0.00     0.016 A 
ATOM     47  C   UNL     1       8.638  -4.273   5.337  1.00  0.00     0.010 A 
ATOM     48  C   UNL     1       6.649  -3.024   4.739  1.00  0.00     0.010 A 
ATOM     49  C   UNL     1       7.999  -3.043   5.137  1.00  0.00    -0.014 A 
BRANCH  49  50
ATOM     50  C   UNL     1       8.643  -1.758   5.517  1.00  0.00     0.031 A 
ATOM     51  C   UNL     1       8.152  -1.046   6.745  1.00  0.00     0.074 A 
ATOM     52  C   UNL     1       9.605  -1.190   4.771  1.00  0.00     0.049 A 
ATOM     53  N   UNL     1       8.412   0.165   7.163  1.00  0.00    -0.248 NA
ATOM     54  C   UNL     1       7.243  -1.808   7.616  1.00  0.00     0.031 C 
ATOM     55  C   UNL     1      10.237  -1.801   3.611  1.00  0.00     0.029 A 
ATOM     56  N   UNL     1      10.186   0.052   4.856  1.00  0.00    -0.354 N 
ATOM     57  C   UNL     1       7.684   0.319   8.334  1.00  0.00     0.074 A 
ATOM     58  C   UNL     1       6.946  -0.909   8.541  1.00  0.00     0.031 C 
ATOM     59  C   UNL     1      11.063  -0.909   3.040  1.00  0.00     0.029 A 
ATOM     60  C   UNL     1      10.996   0.344   3.786  1.00  0.00     0.049 A 
ATOM     61  H   UNL     1      10.036   0.670   5.607  1.00  0.00     0.167 HD
ATOM     62  C   UNL     1       7.639   1.384   9.167  1.00  0.00     0.031 A 
ATOM     63  C   UNL     1      11.586   1.499   3.420  1.00  0.00     0.031 A 
ATOM     64  C   UNL     1       8.366   2.606   8.957  1.00  0.00     0.049 A 
ATOM     65  C   UNL     1      11.439   2.712   4.295  1.00  0.00     0.074 A 
ATOM     66  C   UNL     1       8.408   3.732   9.761  1.00  0.00     0.029 A 
ATOM     67  N   UNL     1       9.169   2.867   7.858  1.00  0.00    -0.354 N 
ATOM     68  N   UNL     1      10.770   2.844   5.415  1.00  0.00    -0.248 NA
ATOM     69  C   UNL     1      12.149   3.928   3.873  1.00  0.00     0.031 C 
ATOM     70  C   UNL     1       9.192   4.696   9.119  1.00  0.00     0.029 A 
ATOM     71  C   UNL     1       9.689   4.147   7.948  1.00  0.00     0.049 A 
ATOM     72  H   UNL     1       9.343   2.236   7.123  1.00  0.00     0.167 HD
ATOM     73  C   UNL     1      11.016   4.138   5.854  1.00  0.00     0.074 A 
ATOM     74  C   UNL     1      11.890   4.754   4.878  1.00  0.00     0.031 C 
ATOM     75  C   UNL     1      10.568   4.750   6.977  1.00  0.00     0.031 A 
BRANCH  62  76
ATOM     76  C   UNL     1       6.734   1.277  10.361  1.00  0.00    -0.014 A 
ATOM     77  C   UNL     1       7.026   0.411  11.428  1.00  0.00     0.009 A 
ATOM     78  C   UNL     1       5.566   2.053  10.415  1.00  0.00     0.009 A 
ATOM     79  C   UNL     1       6.142   0.292  12.502  1.00  0.00     0.001 A 
ATOM     80  C   UNL     1       4.701   1.955  11.505  1.00  0.00     0.001 A 
ATOM     81  C   UNL     1       4.983   1.065  12.541  1.00  0.00     0.000 A 
ENDBRANCH  62  76
BRANCH  63  82
ATOM     82  C   UNL     1      12.364   1.561   2.156  1.00  0.00    -0.014 A 
ATOM     83  C   UNL     1      13.765   1.631   2.182  1.00  0.00     0.009 A 
ATOM     84  C   UNL     1      11.709   1.538   0.914  1.00  0.00     0.009 A 
ATOM     85  C   UNL     1      14.493   1.696   0.992  1.00  0.00     0.001 A 
ATOM     86  C   UNL     1      12.441   1.581  -0.275  1.00  0.00     0.001 A 
ATOM     87  C   UNL     1      13.831   1.667  -0.235  1.00  0.00     0.000 A 
ENDBRANCH  63  82
BRANCH  75  88
ATOM     88  C   UNL     1      11.062   6.141   7.256  1.00  0.00    -0.014 A 
ATOM     89  C   UNL     1      10.598   7.247   6.529  1.00  0.00     0.009 A 
ATOM     90  C   UNL     1      11.961   6.351   8.315  1.00  0.00     0.009 A 
ATOM     91  C   UNL     1      11.042   8.534   6.844  1.00  0.00     0.001 A 
ATOM     92  C   UNL     1      12.381   7.640   8.645  1.00  0.00     0.001 A 
ATOM     93  C   UNL     1      11.926   8.730   7.905  1.00  0.00     0.000 A 
ENDBRANCH  75  88
ENDBRANCH  49  50
ENDBRANCH  42  44
ENDBRANCH  41  42
ENDBRANCH  40  41
ENDBRANCH  39  40
ENDBRANCH  38  39
ENDBRANCH  37  38
ENDBRANCH  36  37
ENDBRANCH   1  36
TORSDOF 22
