REMARK SMILES O=C(Cc1ccccc1Nc1c(Cl)cccc1C(F)(F)F)OCCOCCOCCOC(=O)c1ccc(-c2c3nc(c(-c4ccccc4)c4ccc([nH]4)c(-c4ccccc4)c4nc(c(-c5ccccc5)c5ccc2[nH]5)C=C4)C=C3)cc1
REMARK SMILES IDX 26 1 25 2 24 3 23 4 22 5 2 6 1 7 3 8 4 9 5 10 9 11 6 12 8 13
REMARK SMILES IDX 7 14 10 15 11 17 12 18 17 19 13 20 14 21 16 22 15 23 18 24
REMARK SMILES IDX 19 25 20 26 21 27 27 28 28 29 29 30 30 31 31 32 32 33 33 34
REMARK SMILES IDX 34 35 35 36 81 37 36 38 80 39 37 40 38 41 39 42 74 43 40 44
REMARK SMILES IDX 79 45 73 46 75 47 41 48 78 49 72 50 71 51 42 53 64 54 49 55
REMARK SMILES IDX 63 56 50 57 53 58 62 59 76 60 51 61 52 62 61 64 77 65 54 66
REMARK SMILES IDX 43 67 44 68 48 69 45 70 47 71 46 72 65 73 66 74 70 75 67 76
REMARK SMILES IDX 69 77 68 78 55 79 56 80 60 81 57 82 59 83 58 84
REMARK H PARENT 10 16 75 52 53 63
REMARK Flexibility Score: inf
ROOT
ATOM      1  C   UNL     1       2.283   0.617   2.036  1.00  0.00     0.188 C 
ENDROOT
BRANCH   1   2
ATOM      2  O   UNL     1       3.656   0.261   1.964  1.00  0.00    -0.376 OA
BRANCH   2   3
ATOM      3  C   UNL     1       4.470   0.889   0.977  1.00  0.00     0.202 C 
BRANCH   3   4
ATOM      4  C   UNL     1       3.817   1.419  -0.300  1.00  0.00     0.261 C 
BRANCH   4   5
ATOM      5  O   UNL     1       2.853   0.624  -1.032  1.00  0.00    -0.463 OA
BRANCH   5   6
ATOM      6  C   UNL     1       2.604  -0.689  -1.159  1.00  0.00     0.310 C 
ATOM      7  O   UNL     1       1.596  -1.042  -1.776  1.00  0.00    -0.252 OA
BRANCH   6   8
ATOM      8  C   UNL     1       3.489  -1.720  -0.522  1.00  0.00     0.160 C 
BRANCH   8   9
ATOM      9  C   UNL     1       4.382  -2.471  -1.479  1.00  0.00    -0.013 A 
ATOM     10  C   UNL     1       4.098  -3.829  -1.711  1.00  0.00     0.006 A 
ATOM     11  C   UNL     1       5.495  -1.875  -2.109  1.00  0.00     0.042 A 
ATOM     12  C   UNL     1       4.920  -4.597  -2.530  1.00  0.00     0.000 A 
ATOM     13  C   UNL     1       6.311  -2.665  -2.930  1.00  0.00     0.026 A 
ATOM     14  C   UNL     1       6.024  -4.014  -3.141  1.00  0.00     0.002 A 
BRANCH  11  15
ATOM     15  N   UNL     1       5.941  -0.595  -1.719  1.00  0.00    -0.354 N 
ATOM     16  H   UNL     1       5.914  -0.439  -0.747  1.00  0.00     0.167 HD
BRANCH  15  17
ATOM     17  C   UNL     1       6.422   0.511  -2.470  1.00  0.00     0.070 A 
ATOM     18  C   UNL     1       7.417   1.332  -1.869  1.00  0.00     0.065 A 
ATOM     19  C   UNL     1       5.893   0.925  -3.709  1.00  0.00     0.080 A 
ATOM     20  Cl  UNL     1       8.075   0.923  -0.315  1.00  0.00    -0.082 Cl
ATOM     21  C   UNL     1       7.893   2.496  -2.474  1.00  0.00     0.023 A 
ATOM     22  C   UNL     1       6.404   2.102  -4.314  1.00  0.00     0.015 A 
ATOM     23  C   UNL     1       7.387   2.880  -3.705  1.00  0.00     0.002 A 
BRANCH  19  24
ATOM     24  C   UNL     1       4.771   0.215  -4.433  1.00  0.00     0.418 C 
ATOM     25  F   UNL     1       4.196   1.002  -5.395  1.00  0.00    -0.166 F 
ATOM     26  F   UNL     1       5.193  -0.895  -5.096  1.00  0.00    -0.166 F 
ATOM     27  F   UNL     1       3.741  -0.160  -3.638  1.00  0.00    -0.166 F 
ENDBRANCH  19  24
ENDBRANCH  15  17
ENDBRANCH  11  15
ENDBRANCH   8   9
ENDBRANCH   6   8
ENDBRANCH   5   6
ENDBRANCH   4   5
ENDBRANCH   3   4
ENDBRANCH   2   3
ENDBRANCH   1   2
BRANCH   1  28
ATOM     28  C   UNL     1       1.942   2.012   2.572  1.00  0.00     0.188 C 
BRANCH  28  29
ATOM     29  O   UNL     1       2.888   2.986   2.193  1.00  0.00    -0.376 OA
BRANCH  29  30
ATOM     30  C   UNL     1       3.870   3.428   3.117  1.00  0.00     0.202 C 
BRANCH  30  31
ATOM     31  C   UNL     1       4.368   2.654   4.360  1.00  0.00     0.261 C 
BRANCH  31  32
ATOM     32  O   UNL     1       3.941   1.304   4.550  1.00  0.00    -0.460 OA
BRANCH  32  33
ATOM     33  C   UNL     1       3.010   1.126   5.516  1.00  0.00     0.338 C 
ATOM     34  O   UNL     1       2.458   1.988   6.176  1.00  0.00    -0.246 OA
BRANCH  33  35
ATOM     35  C   UNL     1       2.621  -0.292   5.586  1.00  0.00     0.060 A 
ATOM     36  C   UNL     1       1.301  -0.630   5.262  1.00  0.00     0.016 A 
ATOM     37  C   UNL     1       3.496  -1.247   6.108  1.00  0.00     0.016 A 
ATOM     38  C   UNL     1       0.836  -1.920   5.497  1.00  0.00     0.010 A 
ATOM     39  C   UNL     1       3.018  -2.534   6.375  1.00  0.00     0.010 A 
ATOM     40  C   UNL     1       1.673  -2.856   6.118  1.00  0.00    -0.014 A 
BRANCH  40  41
ATOM     41  C   UNL     1       1.048  -4.039   6.755  1.00  0.00     0.031 A 
ATOM     42  C   UNL     1       0.600  -3.908   8.187  1.00  0.00     0.074 A 
ATOM     43  C   UNL     1       0.815  -5.172   6.074  1.00  0.00     0.049 A 
ATOM     44  N   UNL     1      -0.027  -4.769   8.946  1.00  0.00    -0.248 NA
ATOM     45  C   UNL     1       0.897  -2.626   8.850  1.00  0.00     0.031 C 
ATOM     46  C   UNL     1       1.145  -5.404   4.670  1.00  0.00     0.029 A 
ATOM     47  N   UNL     1       0.226  -6.342   6.483  1.00  0.00    -0.354 N 
ATOM     48  C   UNL     1      -0.198  -4.134  10.171  1.00  0.00     0.074 A 
ATOM     49  C   UNL     1       0.418  -2.830  10.066  1.00  0.00     0.031 C 
ATOM     50  C   UNL     1       0.749  -6.645   4.331  1.00  0.00     0.029 A 
ATOM     51  C   UNL     1       0.158  -7.297   5.499  1.00  0.00     0.049 A 
ATOM     52  H   UNL     1      -0.115  -6.484   7.395  1.00  0.00     0.167 HD
ATOM     53  C   UNL     1      -0.815  -4.590  11.286  1.00  0.00     0.031 A 
ATOM     54  C   UNL     1      -0.326  -8.553   5.543  1.00  0.00     0.031 A 
ATOM     55  C   UNL     1      -1.407  -5.894  11.403  1.00  0.00     0.049 A 
ATOM     56  C   UNL     1      -0.936  -9.069   6.821  1.00  0.00     0.074 A 
ATOM     57  C   UNL     1      -2.061  -6.450  12.488  1.00  0.00     0.029 A 
ATOM     58  N   UNL     1      -1.403  -6.851  10.401  1.00  0.00    -0.354 N 
ATOM     59  N   UNL     1      -1.120  -8.449   7.962  1.00  0.00    -0.248 NA
ATOM     60  C   UNL     1      -1.419 -10.457   6.807  1.00  0.00     0.031 C 
ATOM     61  C   UNL     1      -2.402  -7.767  12.161  1.00  0.00     0.029 A 
ATOM     62  C   UNL     1      -2.020  -8.006  10.850  1.00  0.00     0.049 A 
ATOM     63  H   UNL     1      -1.018  -6.729   9.503  1.00  0.00     0.167 HD
ATOM     64  C   UNL     1      -1.780  -9.356   8.785  1.00  0.00     0.074 A 
ATOM     65  C   UNL     1      -1.966 -10.565   8.010  1.00  0.00     0.031 C 
ATOM     66  C   UNL     1      -2.204  -9.199  10.064  1.00  0.00     0.031 A 
BRANCH  53  67
ATOM     67  C   UNL     1      -0.829  -3.679  12.481  1.00  0.00    -0.014 A 
ATOM     68  C   UNL     1      -1.610  -2.512  12.506  1.00  0.00     0.009 A 
ATOM     69  C   UNL     1      -0.042  -3.995  13.600  1.00  0.00     0.009 A 
ATOM     70  C   UNL     1      -1.569  -1.659  13.611  1.00  0.00     0.001 A 
ATOM     71  C   UNL     1      -0.027  -3.156  14.715  1.00  0.00     0.001 A 
ATOM     72  C   UNL     1      -0.781  -1.984  14.715  1.00  0.00     0.000 A 
ENDBRANCH  53  67
BRANCH  54  73
ATOM     73  C   UNL     1      -0.265  -9.421   4.337  1.00  0.00    -0.014 A 
ATOM     74  C   UNL     1      -1.439  -9.787   3.659  1.00  0.00     0.009 A 
ATOM     75  C   UNL     1       0.965  -9.917   3.878  1.00  0.00     0.009 A 
ATOM     76  C   UNL     1      -1.384 -10.653   2.564  1.00  0.00     0.001 A 
ATOM     77  C   UNL     1       1.020 -10.760   2.766  1.00  0.00     0.001 A 
ATOM     78  C   UNL     1      -0.155 -11.135   2.116  1.00  0.00     0.000 A 
ENDBRANCH  54  73
BRANCH  66  79
ATOM     79  C   UNL     1      -2.965 -10.337  10.686  1.00  0.00    -0.014 A 
ATOM     80  C   UNL     1      -2.334 -11.538  11.045  1.00  0.00     0.009 A 
ATOM     81  C   UNL     1      -4.336 -10.185  10.951  1.00  0.00     0.009 A 
ATOM     82  C   UNL     1      -3.070 -12.578  11.618  1.00  0.00     0.001 A 
ATOM     83  C   UNL     1      -5.062 -11.213  11.552  1.00  0.00     0.001 A 
ATOM     84  C   UNL     1      -4.431 -12.413  11.874  1.00  0.00     0.000 A 
ENDBRANCH  66  79
ENDBRANCH  40  41
ENDBRANCH  33  35
ENDBRANCH  32  33
ENDBRANCH  31  32
ENDBRANCH  30  31
ENDBRANCH  29  30
ENDBRANCH  28  29
ENDBRANCH   1  28
TORSDOF 21
