REMARK SMILES O=C(CC[C@H]1CC[C@@H](O)CC1)OCCOCCOCCOC(=O)c1ccc(-c2c3nc(c(-c4ccccc4)c4ccc([nH]4)c(-c4ccccc4)c4nc(c(-c5ccccc5)c5ccc2[nH]5)C=C4)C=C3)cc1
REMARK SMILES IDX 16 1 15 2 14 3 13 4 12 5 2 6 1 7 3 8 4 9 5 10 6 11 11 12
REMARK SMILES IDX 7 13 10 14 8 15 9 16 17 18 18 19 19 20 20 21 21 22 22 23
REMARK SMILES IDX 23 24 24 25 25 26 71 27 26 28 70 29 27 30 28 31 29 32 64 33
REMARK SMILES IDX 30 34 69 35 63 36 65 37 31 38 68 39 62 40 61 41 32 43 54 44
REMARK SMILES IDX 39 45 53 46 40 47 43 48 52 49 66 50 41 51 42 52 51 54 67 55
REMARK SMILES IDX 44 56 33 57 34 58 38 59 35 60 37 61 36 62 55 63 56 64 60 65
REMARK SMILES IDX 57 66 59 67 58 68 45 69 46 70 50 71 47 72 49 73 48 74
REMARK H PARENT 9 17 65 42 43 53
REMARK Flexibility Score: inf
ROOT
ATOM      1  C   UNL     1       4.412  -2.337  -1.021  1.00  0.00     0.188 C 
ENDROOT
BRANCH   1   2
ATOM      2  O   UNL     1       5.490  -1.839  -0.194  1.00  0.00    -0.376 OA
BRANCH   2   3
ATOM      3  C   UNL     1       5.434  -1.158   1.081  1.00  0.00     0.202 C 
BRANCH   3   4
ATOM      4  C   UNL     1       5.082   0.480   1.369  1.00  0.00     0.261 C 
BRANCH   4   5
ATOM      5  O   UNL     1       3.438   1.366   0.980  1.00  0.00    -0.463 OA
BRANCH   5   6
ATOM      6  C   UNL     1       2.319   2.082   0.436  1.00  0.00     0.305 C 
ATOM      7  O   UNL     1       1.218   2.082   0.980  1.00  0.00    -0.252 OA
BRANCH   6   8
ATOM      8  C   UNL     1       2.485   2.741  -0.908  1.00  0.00     0.123 C 
BRANCH   8   9
ATOM      9  C   UNL     1       3.875   3.303  -0.982  1.00  0.00     0.015 C 
BRANCH   9  10
ATOM     10  C   UNL     1       4.728   2.379  -0.133  1.00  0.00    -0.010 C 
ATOM     11  C   UNL     1       4.153   0.622  -0.686  1.00  0.00     0.006 C 
ATOM     12  C   UNL     1       4.500   2.870   1.718  1.00  0.00     0.006 C 
ATOM     13  C   UNL     1       2.991  -0.395   0.530  1.00  0.00     0.032 C 
ATOM     14  C   UNL     1       3.440   1.814   2.905  1.00  0.00     0.032 C 
ATOM     15  C   UNL     1       2.864   0.098   2.374  1.00  0.00     0.114 C 
BRANCH  15  16
ATOM     16  O   UNL     1       1.560  -0.202   2.848  1.00  0.00    -0.393 OA
ATOM     17  H   UNL     1       0.914   0.362   2.396  1.00  0.00     0.210 HD
ENDBRANCH  15  16
ENDBRANCH   9  10
ENDBRANCH   8   9
ENDBRANCH   6   8
ENDBRANCH   5   6
ENDBRANCH   4   5
ENDBRANCH   3   4
ENDBRANCH   2   3
ENDBRANCH   1   2
BRANCH   1  18
ATOM     18  C   UNL     1       3.160  -3.124  -0.504  1.00  0.00     0.188 C 
BRANCH  18  19
ATOM     19  O   UNL     1       3.321  -4.094   0.506  1.00  0.00    -0.376 OA
BRANCH  19  20
ATOM     20  C   UNL     1       4.481  -4.893   0.393  1.00  0.00     0.202 C 
BRANCH  20  21
ATOM     21  C   UNL     1       4.621  -5.781  -0.862  1.00  0.00     0.261 C 
BRANCH  21  22
ATOM     22  O   UNL     1       4.233  -5.190  -2.123  1.00  0.00    -0.460 OA
BRANCH  22  23
ATOM     23  C   UNL     1       2.967  -5.455  -2.561  1.00  0.00     0.338 C 
ATOM     24  O   UNL     1       2.153  -6.181  -2.031  1.00  0.00    -0.246 OA
BRANCH  23  25
ATOM     25  C   UNL     1       2.627  -4.523  -3.681  1.00  0.00     0.060 A 
ATOM     26  C   UNL     1       1.438  -3.771  -3.615  1.00  0.00     0.016 A 
ATOM     27  C   UNL     1       3.457  -4.403  -4.793  1.00  0.00     0.016 A 
ATOM     28  C   UNL     1       1.054  -2.943  -4.678  1.00  0.00     0.010 A 
ATOM     29  C   UNL     1       3.056  -3.603  -5.871  1.00  0.00     0.010 A 
ATOM     30  C   UNL     1       1.832  -2.906  -5.840  1.00  0.00    -0.014 A 
BRANCH  30  31
ATOM     31  C   UNL     1       1.261  -2.397  -7.117  1.00  0.00     0.031 A 
ATOM     32  C   UNL     1       0.646  -3.409  -8.052  1.00  0.00     0.074 A 
ATOM     33  C   UNL     1       1.303  -1.101  -7.474  1.00  0.00     0.049 A 
ATOM     34  N   UNL     1       0.226  -3.264  -9.283  1.00  0.00    -0.248 NA
ATOM     35  C   UNL     1       0.498  -4.776  -7.522  1.00  0.00     0.031 C 
ATOM     36  C   UNL     1       1.801  -0.005  -6.648  1.00  0.00     0.029 A 
ATOM     37  N   UNL     1       0.934  -0.495  -8.653  1.00  0.00    -0.354 N 
ATOM     38  C   UNL     1      -0.207  -4.524  -9.680  1.00  0.00     0.074 A 
ATOM     39  C   UNL     1       0.016  -5.423  -8.570  1.00  0.00     0.031 C 
ATOM     40  C   UNL     1       1.731   1.139  -7.356  1.00  0.00     0.029 A 
ATOM     41  C   UNL     1       1.227   0.847  -8.698  1.00  0.00     0.049 A 
ATOM     42  H   UNL     1       0.500  -0.977  -9.393  1.00  0.00     0.167 HD
ATOM     43  C   UNL     1      -0.740  -4.905 -10.865  1.00  0.00     0.031 A 
ATOM     44  C   UNL     1       1.136   1.727  -9.717  1.00  0.00     0.031 A 
ATOM     45  C   UNL     1      -0.953  -4.018 -11.976  1.00  0.00     0.049 A 
ATOM     46  C   UNL     1       0.629   1.262 -11.061  1.00  0.00     0.074 A 
ATOM     47  C   UNL     1      -1.504  -4.303 -13.212  1.00  0.00     0.029 A 
ATOM     48  N   UNL     1      -0.613  -2.675 -11.987  1.00  0.00    -0.354 N 
ATOM     49  N   UNL     1       0.205   0.074 -11.422  1.00  0.00    -0.248 NA
ATOM     50  C   UNL     1       0.590   2.262 -12.140  1.00  0.00     0.031 C 
ATOM     51  C   UNL     1      -1.432  -3.149 -13.997  1.00  0.00     0.029 A 
ATOM     52  C   UNL     1      -0.907  -2.126 -13.223  1.00  0.00     0.049 A 
ATOM     53  H   UNL     1      -0.221  -2.184 -11.229  1.00  0.00     0.167 HD
ATOM     54  C   UNL     1      -0.180   0.194 -12.753  1.00  0.00     0.074 A 
ATOM     55  C   UNL     1       0.047   1.572 -13.133  1.00  0.00     0.031 C 
ATOM     56  C   UNL     1      -0.680  -0.752 -13.587  1.00  0.00     0.031 A 
BRANCH  43  57
ATOM     57  C   UNL     1      -1.082  -6.359 -11.037  1.00  0.00    -0.014 A 
ATOM     58  C   UNL     1      -2.150  -6.952 -10.345  1.00  0.00     0.009 A 
ATOM     59  C   UNL     1      -0.336  -7.143 -11.932  1.00  0.00     0.009 A 
ATOM     60  C   UNL     1      -2.440  -8.307 -10.520  1.00  0.00     0.001 A 
ATOM     61  C   UNL     1      -0.649  -8.488 -12.130  1.00  0.00     0.001 A 
ATOM     62  C   UNL     1      -1.694  -9.072 -11.416  1.00  0.00     0.000 A 
ENDBRANCH  43  57
BRANCH  44  63
ATOM     63  C   UNL     1       1.576   3.139  -9.533  1.00  0.00    -0.014 A 
ATOM     64  C   UNL     1       0.650   4.194  -9.589  1.00  0.00     0.009 A 
ATOM     65  C   UNL     1       2.933   3.445  -9.342  1.00  0.00     0.009 A 
ATOM     66  C   UNL     1       1.078   5.521  -9.485  1.00  0.00     0.001 A 
ATOM     67  C   UNL     1       3.354   4.770  -9.205  1.00  0.00     0.001 A 
ATOM     68  C   UNL     1       2.427   5.807  -9.287  1.00  0.00     0.000 A 
ENDBRANCH  44  63
BRANCH  56  69
ATOM     69  C   UNL     1      -1.058  -0.329 -14.981  1.00  0.00    -0.014 A 
ATOM     70  C   UNL     1      -0.086  -0.017 -15.943  1.00  0.00     0.009 A 
ATOM     71  C   UNL     1      -2.412  -0.310 -15.354  1.00  0.00     0.009 A 
ATOM     72  C   UNL     1      -0.464   0.332 -17.242  1.00  0.00     0.001 A 
ATOM     73  C   UNL     1      -2.785   0.007 -16.661  1.00  0.00     0.001 A 
ATOM     74  C   UNL     1      -1.811   0.337 -17.601  1.00  0.00     0.000 A 
ENDBRANCH  56  69
ENDBRANCH  30  31
ENDBRANCH  23  25
ENDBRANCH  22  23
ENDBRANCH  21  22
ENDBRANCH  20  21
ENDBRANCH  19  20
ENDBRANCH  18  19
ENDBRANCH   1  18
TORSDOF 20
