REMARK SMILES [NH3+][C@@]1(C(=O)OCCOCCOCCOC(=O)c2ccc(-c3c4nc(c(-c5ccccc5)c5ccc([nH]5)c(-c5ccccc5)c5nc(c(-c6ccccc6)c6ccc3[nH]6)C=C5)C=C4)cc2)CCC[C@H]1CCOC1CCCCCC1
REMARK SMILES IDX 7 1 6 2 5 3 3 4 4 5 2 6 65 7 68 8 66 9 67 10 1 11 69 15
REMARK SMILES IDX 70 16 71 17 72 18 73 19 74 20 75 21 78 23 77 24 76 25 8 27
REMARK SMILES IDX 9 28 10 29 11 30 12 31 13 32 14 33 15 34 16 35 17 36 18 37
REMARK SMILES IDX 64 38 19 39 63 40 20 41 21 42 22 43 57 44 23 45 62 46 56 47
REMARK SMILES IDX 58 48 24 49 61 50 55 51 54 52 25 54 47 55 32 56 46 57 33 58
REMARK SMILES IDX 36 59 45 60 59 61 34 62 35 63 44 65 60 66 37 67 26 68 27 69
REMARK SMILES IDX 31 70 28 71 30 72 29 73 48 74 49 75 53 76 50 77 52 78 51 79
REMARK SMILES IDX 38 80 39 81 43 82 40 83 42 84 41 85
REMARK H PARENT 1 12 1 13 1 14 58 53 36 64
REMARK Flexibility Score: 90.00
ROOT
ATOM      1  C   UNL     1      -0.101  -1.244  -5.545  1.00  0.00     0.202 C 
ENDROOT
BRANCH   1   2
ATOM      2  C   UNL     1       0.942  -1.445  -4.439  1.00  0.00     0.261 C 
BRANCH   2   3
ATOM      3  O   UNL     1       0.367  -1.866  -3.147  1.00  0.00    -0.459 OA
BRANCH   3   4
ATOM      4  C   UNL     1       0.640  -1.167  -1.933  1.00  0.00     0.368 C 
ATOM      5  O   UNL     1       0.804  -0.022  -2.381  1.00  0.00    -0.245 OA
BRANCH   4   6
ATOM      6  C   UNL     1       0.635  -1.944  -0.011  1.00  0.00     0.195 C 
ATOM      7  C   UNL     1       1.392  -3.352   0.623  1.00  0.00     0.081 C 
ATOM      8  C   UNL     1      -0.729  -2.181   1.021  1.00  0.00     0.065 C 
ATOM      9  C   UNL     1       0.380  -4.408   1.004  1.00  0.00     0.008 C 
ATOM     10  C   UNL     1      -0.688  -3.597   1.679  1.00  0.00     0.011 C 
BRANCH   6  11
ATOM     11  N   UNL     1       1.505  -1.186   0.964  1.00  0.00    -0.343 N 
ATOM     12  H   UNL     1       2.391  -0.949   0.516  1.00  0.00     0.345 HD
ATOM     13  H   UNL     1       1.683  -1.766   1.783  1.00  0.00     0.345 HD
ATOM     14  H   UNL     1       1.030  -0.330   1.250  1.00  0.00     0.345 HD
ENDBRANCH   6  11
BRANCH   8  15
ATOM     15  C   UNL     1      -1.026  -1.169   2.158  1.00  0.00     0.039 C 
BRANCH  15  16
ATOM     16  C   UNL     1      -1.219   0.285   1.765  1.00  0.00     0.161 C 
BRANCH  16  17
ATOM     17  O   UNL     1      -1.679   0.470   0.448  1.00  0.00    -0.378 OA
BRANCH  17  18
ATOM     18  C   UNL     1      -0.797   0.083  -0.617  1.00  0.00     0.118 C 
BRANCH  18  19
ATOM     19  C   UNL     1       0.970   0.657  -0.419  1.00  0.00     0.032 C 
BRANCH  19  20
ATOM     20  C   UNL     1       2.511  -0.303  -0.998  1.00  0.00     0.003 C 
BRANCH  20  21
ATOM     21  C   UNL     1       2.596  -2.085  -1.589  1.00  0.00     0.000 CG0
ATOM     22  G   UNL     1       1.232  -3.372  -1.888  1.00  0.00     0.000 G0
ENDBRANCH  20  21
ENDBRANCH  19  20
ENDBRANCH  18  19
BRANCH  18  23
ATOM     23  C   UNL     1      -1.482  -1.451  -1.421  1.00  0.00     0.032 C 
BRANCH  23  24
ATOM     24  C   UNL     1      -0.635  -3.095  -1.669  1.00  0.00     0.003 C 
BRANCH  24  25
ATOM     25  C   UNL     1       1.232  -3.372  -1.888  1.00  0.00     0.000 CG0
ATOM     26  G   UNL     1       2.596  -2.085  -1.589  1.00  0.00     0.000 G0
ENDBRANCH  24  25
ENDBRANCH  23  24
ENDBRANCH  18  23
ENDBRANCH  17  18
ENDBRANCH  16  17
ENDBRANCH  15  16
ENDBRANCH   8  15
ENDBRANCH   4   6
ENDBRANCH   3   4
ENDBRANCH   2   3
ENDBRANCH   1   2
BRANCH   1  27
ATOM     27  O   UNL     1      -0.141   0.051  -6.151  1.00  0.00    -0.376 OA
BRANCH  27  28
ATOM     28  C   UNL     1      -0.483   1.162  -5.335  1.00  0.00     0.188 C 
BRANCH  28  29
ATOM     29  C   UNL     1      -1.490   0.933  -4.226  1.00  0.00     0.188 C 
BRANCH  29  30
ATOM     30  O   UNL     1      -2.578   0.065  -4.432  1.00  0.00    -0.376 OA
BRANCH  30  31
ATOM     31  C   UNL     1      -3.701   0.392  -5.216  1.00  0.00     0.202 C 
BRANCH  31  32
ATOM     32  C   UNL     1      -4.060   1.841  -5.549  1.00  0.00     0.261 C 
BRANCH  32  33
ATOM     33  O   UNL     1      -3.620   2.845  -4.633  1.00  0.00    -0.460 OA
BRANCH  33  34
ATOM     34  C   UNL     1      -4.030   2.765  -3.345  1.00  0.00     0.338 C 
ATOM     35  O   UNL     1      -4.867   2.009  -2.889  1.00  0.00    -0.246 OA
BRANCH  34  36
ATOM     36  C   UNL     1      -3.156   3.674  -2.550  1.00  0.00     0.060 A 
ATOM     37  C   UNL     1      -2.831   3.328  -1.234  1.00  0.00     0.016 A 
ATOM     38  C   UNL     1      -2.619   4.841  -3.114  1.00  0.00     0.016 A 
ATOM     39  C   UNL     1      -2.036   4.179  -0.460  1.00  0.00     0.010 A 
ATOM     40  C   UNL     1      -1.829   5.696  -2.341  1.00  0.00     0.010 A 
ATOM     41  C   UNL     1      -1.583   5.396  -0.992  1.00  0.00    -0.014 A 
BRANCH  41  42
ATOM     42  C   UNL     1      -1.159   6.486  -0.078  1.00  0.00     0.031 A 
ATOM     43  C   UNL     1      -2.235   7.415   0.423  1.00  0.00     0.074 A 
ATOM     44  C   UNL     1       0.114   6.660   0.315  1.00  0.00     0.049 A 
ATOM     45  N   UNL     1      -2.142   8.448   1.222  1.00  0.00    -0.248 NA
ATOM     46  C   UNL     1      -3.605   7.136  -0.042  1.00  0.00     0.031 C 
ATOM     47  C   UNL     1       1.248   5.818  -0.056  1.00  0.00     0.029 A 
ATOM     48  N   UNL     1       0.660   7.625   1.129  1.00  0.00    -0.354 N 
ATOM     49  C   UNL     1      -3.438   8.929   1.360  1.00  0.00     0.074 A 
ATOM     50  C   UNL     1      -4.293   8.104   0.538  1.00  0.00     0.031 C 
ATOM     51  C   UNL     1       2.358   6.303   0.532  1.00  0.00     0.029 A 
ATOM     52  C   UNL     1       2.017   7.503   1.297  1.00  0.00     0.049 A 
ATOM     53  H   UNL     1       0.127   8.336   1.551  1.00  0.00     0.167 HD
ATOM     54  C   UNL     1      -3.890   9.962   2.109  1.00  0.00     0.031 A 
ATOM     55  C   UNL     1       2.880   8.279   1.983  1.00  0.00     0.031 A 
ATOM     56  C   UNL     1      -3.050  10.819   2.895  1.00  0.00     0.049 A 
ATOM     57  C   UNL     1       2.368   9.486   2.731  1.00  0.00     0.074 A 
ATOM     58  C   UNL     1      -3.411  11.909   3.666  1.00  0.00     0.029 A 
ATOM     59  N   UNL     1      -1.675  10.690   2.997  1.00  0.00    -0.354 N 
ATOM     60  N   UNL     1       1.137   9.917   2.874  1.00  0.00    -0.248 NA
ATOM     61  C   UNL     1       3.373  10.312   3.420  1.00  0.00     0.031 C 
ATOM     62  C   UNL     1      -2.244  12.472   4.196  1.00  0.00     0.029 A 
ATOM     63  C   UNL     1      -1.167  11.695   3.801  1.00  0.00     0.049 A 
ATOM     64  H   UNL     1      -1.139   9.988   2.562  1.00  0.00     0.167 HD
ATOM     65  C   UNL     1       1.218  11.040   3.691  1.00  0.00     0.074 A 
ATOM     66  C   UNL     1       2.615  11.214   4.027  1.00  0.00     0.031 C 
ATOM     67  C   UNL     1       0.226  11.855   4.126  1.00  0.00     0.031 A 
BRANCH  54  68
ATOM     68  C   UNL     1      -5.365  10.234   2.063  1.00  0.00    -0.014 A 
ATOM     69  C   UNL     1      -6.282   9.376   2.692  1.00  0.00     0.009 A 
ATOM     70  C   UNL     1      -5.845  11.353   1.366  1.00  0.00     0.009 A 
ATOM     71  C   UNL     1      -7.654   9.614   2.591  1.00  0.00     0.001 A 
ATOM     72  C   UNL     1      -7.215  11.603   1.290  1.00  0.00     0.001 A 
ATOM     73  C   UNL     1      -8.118  10.728   1.893  1.00  0.00     0.000 A 
ENDBRANCH  54  68
BRANCH  55  74
ATOM     74  C   UNL     1       4.335   7.966   1.994  1.00  0.00    -0.014 A 
ATOM     75  C   UNL     1       4.971   7.554   3.176  1.00  0.00     0.009 A 
ATOM     76  C   UNL     1       5.108   8.141   0.836  1.00  0.00     0.009 A 
ATOM     77  C   UNL     1       6.355   7.358   3.205  1.00  0.00     0.001 A 
ATOM     78  C   UNL     1       6.487   7.916   0.861  1.00  0.00     0.001 A 
ATOM     79  C   UNL     1       7.111   7.537   2.048  1.00  0.00     0.000 A 
ENDBRANCH  55  74
BRANCH  67  80
ATOM     80  C   UNL     1       0.608  12.984   5.044  1.00  0.00    -0.014 A 
ATOM     81  C   UNL     1       1.315  14.102   4.577  1.00  0.00     0.009 A 
ATOM     82  C   UNL     1       0.219  12.943   6.393  1.00  0.00     0.009 A 
ATOM     83  C   UNL     1       1.660  15.136   5.450  1.00  0.00     0.001 A 
ATOM     84  C   UNL     1       0.538  13.991   7.257  1.00  0.00     0.001 A 
ATOM     85  C   UNL     1       1.268  15.082   6.788  1.00  0.00     0.000 A 
ENDBRANCH  67  80
ENDBRANCH  41  42
ENDBRANCH  34  36
ENDBRANCH  33  34
ENDBRANCH  32  33
ENDBRANCH  31  32
ENDBRANCH  30  31
ENDBRANCH  29  30
ENDBRANCH  28  29
ENDBRANCH  27  28
ENDBRANCH   1  27
TORSDOF 22
