REMARK SMILES COc1cc(Cl)c(C)cc1N1C(=O)C[C@H](Nc2cc(C(=O)OCCOCCOCCOC(=O)c3ccc(-c4c5nc(c(-c6ccccc6)c6ccc([nH]6)c(-c6ccccc6)c6nc(c(-c7ccccc7)c7ccc4[nH]7)C=C6)C=C5)cc3)ccc2C)C1=O
REMARK SMILES IDX 26 1 25 2 24 3 23 4 22 5 20 6 21 7 19 8 17 9 18 10 84 11
REMARK SMILES IDX 83 12 85 13 82 14 16 15 15 17 11 18 12 19 86 20 13 21 14 22
REMARK SMILES IDX 87 23 10 24 3 25 4 26 5 27 9 28 6 29 7 30 8 31 2 32 1 33
REMARK SMILES IDX 27 34 28 35 29 36 30 37 31 38 32 39 33 40 34 41 35 42 81 43
REMARK SMILES IDX 36 44 80 45 37 46 38 47 39 48 74 49 40 50 79 51 73 52 75 53
REMARK SMILES IDX 41 54 78 55 72 56 71 57 42 59 64 60 49 61 63 62 50 63 53 64
REMARK SMILES IDX 62 65 76 66 51 67 52 68 61 70 77 71 54 72 43 73 44 74 48 75
REMARK SMILES IDX 45 76 47 77 46 78 65 79 66 80 70 81 67 82 69 83 68 84 55 85
REMARK SMILES IDX 56 86 60 87 57 88 59 89 58 90
REMARK H PARENT 16 16 75 58 53 69
REMARK Flexibility Score: inf
ROOT
ATOM      1  C   UNL     1       3.582  -1.581  -9.497  1.00  0.00     0.188 C 
ENDROOT
BRANCH   1   2
ATOM      2  O   UNL     1       2.741  -1.339  -8.353  1.00  0.00    -0.376 OA
BRANCH   2   3
ATOM      3  C   UNL     1       2.299  -0.067  -7.883  1.00  0.00     0.202 C 
BRANCH   3   4
ATOM      4  C   UNL     1       2.586   0.612  -6.342  1.00  0.00     0.261 C 
BRANCH   4   5
ATOM      5  O   UNL     1       3.867   0.525  -5.259  1.00  0.00    -0.460 OA
BRANCH   5   6
ATOM      6  C   UNL     1       4.396  -0.364  -4.296  1.00  0.00     0.338 C 
ATOM      7  O   UNL     1       3.912  -1.376  -3.792  1.00  0.00    -0.246 OA
BRANCH   6   8
ATOM      8  C   UNL     1       5.749  -0.281  -3.720  1.00  0.00     0.062 A 
ATOM      9  C   UNL     1       6.607   0.227  -1.524  1.00  0.00     0.038 A 
ATOM     10  C   UNL     1       5.836   0.578  -2.646  1.00  0.00     0.041 A 
ATOM     11  C   UNL     1       7.478  -0.889  -1.555  1.00  0.00    -0.028 A 
ATOM     12  C   UNL     1       7.425  -1.745  -2.656  1.00  0.00     0.006 A 
ATOM     13  C   UNL     1       8.384  -1.280  -0.421  1.00  0.00     0.046 C 
ATOM     14  C   UNL     1       6.526  -1.476  -3.688  1.00  0.00     0.016 A 
BRANCH   9  15
ATOM     15  N   UNL     1       6.191   0.773  -0.290  1.00  0.00    -0.373 N 
ATOM     16  H   UNL     1       6.693   1.458   0.209  1.00  0.00     0.161 HD
BRANCH  15  17
ATOM     17  C   UNL     1       4.904   0.186   0.162  1.00  0.00     0.179 C 
ATOM     18  N   UNL     1       3.346   1.540   1.264  1.00  0.00    -0.245 N 
ATOM     19  C   UNL     1       4.079   0.947   2.255  1.00  0.00     0.236 C 
ATOM     20  C   UNL     1       3.736   1.154   0.005  1.00  0.00     0.256 C 
ATOM     21  O   UNL     1       4.003   1.133   3.462  1.00  0.00    -0.274 OA
ATOM     22  C   UNL     1       4.947  -0.110   1.649  1.00  0.00     0.136 C 
ATOM     23  O   UNL     1       3.292   1.558  -1.063  1.00  0.00    -0.272 OA
BRANCH  18  24
ATOM     24  C   UNL     1       2.330   2.486   1.497  1.00  0.00     0.094 A 
ATOM     25  C   UNL     1       1.046   2.347   0.949  1.00  0.00     0.144 A 
ATOM     26  C   UNL     1       0.102   3.362   1.114  1.00  0.00     0.069 A 
ATOM     27  C   UNL     1       0.425   4.512   1.838  1.00  0.00     0.047 A 
ATOM     28  C   UNL     1       2.634   3.629   2.252  1.00  0.00     0.035 A 
ATOM     29  Cl  UNL     1      -0.790   5.726   2.011  1.00  0.00    -0.084 Cl
ATOM     30  C   UNL     1       1.699   4.666   2.406  1.00  0.00    -0.030 A 
ATOM     31  C   UNL     1       2.100   5.911   3.146  1.00  0.00     0.046 C 
BRANCH  25  32
ATOM     32  O   UNL     1       0.624   1.253   0.235  1.00  0.00    -0.495 OA
ATOM     33  C   UNL     1       0.652   0.043   0.995  1.00  0.00     0.278 C 
ENDBRANCH  25  32
ENDBRANCH  18  24
ENDBRANCH  15  17
ENDBRANCH   9  15
ENDBRANCH   6   8
ENDBRANCH   5   6
ENDBRANCH   4   5
ENDBRANCH   3   4
ENDBRANCH   2   3
ENDBRANCH   1   2
BRANCH   1  34
ATOM     34  C   UNL     1       4.295  -0.455 -10.240  1.00  0.00     0.188 C 
BRANCH  34  35
ATOM     35  O   UNL     1       4.632   0.572  -9.329  1.00  0.00    -0.376 OA
BRANCH  35  36
ATOM     36  C   UNL     1       5.340   1.667  -9.880  1.00  0.00     0.202 C 
BRANCH  36  37
ATOM     37  C   UNL     1       6.836   1.362 -10.094  1.00  0.00     0.261 C 
BRANCH  37  38
ATOM     38  O   UNL     1       7.428   0.806  -8.892  1.00  0.00    -0.460 OA
BRANCH  38  39
ATOM     39  C   UNL     1       7.747  -0.531  -8.874  1.00  0.00     0.338 C 
ATOM     40  O   UNL     1       8.311  -1.124  -9.786  1.00  0.00    -0.246 OA
BRANCH  39  41
ATOM     41  C   UNL     1       7.070  -1.213  -7.711  1.00  0.00     0.060 A 
ATOM     42  C   UNL     1       6.845  -2.592  -7.561  1.00  0.00     0.016 A 
ATOM     43  C   UNL     1       6.232  -0.426  -7.007  1.00  0.00     0.016 A 
ATOM     44  C   UNL     1       5.666  -3.115  -6.852  1.00  0.00     0.010 A 
ATOM     45  C   UNL     1       4.994  -1.011  -6.741  1.00  0.00     0.010 A 
ATOM     46  C   UNL     1       4.594  -2.311  -6.445  1.00  0.00    -0.014 A 
BRANCH  46  47
ATOM     47  C   UNL     1       3.065  -2.743  -6.064  1.00  0.00     0.031 A 
ATOM     48  C   UNL     1       1.972  -2.335  -4.883  1.00  0.00     0.074 A 
ATOM     49  C   UNL     1       2.534  -3.701  -6.861  1.00  0.00     0.049 A 
ATOM     50  N   UNL     1       1.216  -3.228  -4.253  1.00  0.00    -0.248 NA
ATOM     51  C   UNL     1       1.666  -1.014  -4.236  1.00  0.00     0.031 C 
ATOM     52  C   UNL     1       1.159  -4.195  -6.902  1.00  0.00     0.029 A 
ATOM     53  N   UNL     1       3.214  -4.535  -7.748  1.00  0.00    -0.354 N 
ATOM     54  C   UNL     1       0.404  -2.552  -3.333  1.00  0.00     0.074 A 
ATOM     55  C   UNL     1       1.004  -1.309  -3.130  1.00  0.00     0.031 C 
ATOM     56  C   UNL     1       1.155  -5.397  -7.499  1.00  0.00     0.029 A 
ATOM     57  C   UNL     1       2.534  -5.755  -7.773  1.00  0.00     0.049 A 
ATOM     58  H   UNL     1       4.022  -4.306  -8.261  1.00  0.00     0.167 HD
ATOM     59  C   UNL     1      -0.830  -2.919  -2.897  1.00  0.00     0.031 A 
ATOM     60  C   UNL     1       3.165  -6.903  -7.404  1.00  0.00     0.031 A 
ATOM     61  C   UNL     1      -1.123  -4.253  -3.336  1.00  0.00     0.049 A 
ATOM     62  C   UNL     1       2.501  -7.591  -6.234  1.00  0.00     0.074 A 
ATOM     63  C   UNL     1      -1.911  -4.759  -4.347  1.00  0.00     0.029 A 
ATOM     64  N   UNL     1      -0.268  -5.262  -2.930  1.00  0.00    -0.354 N 
ATOM     65  N   UNL     1       1.571  -7.054  -5.492  1.00  0.00    -0.248 NA
ATOM     66  C   UNL     1       2.856  -8.935  -5.789  1.00  0.00     0.031 C 
ATOM     67  C   UNL     1      -1.435  -6.070  -4.627  1.00  0.00     0.029 A 
ATOM     68  C   UNL     1      -0.425  -6.371  -3.728  1.00  0.00     0.049 A 
ATOM     69  H   UNL     1       0.362  -5.196  -2.177  1.00  0.00     0.167 HD
ATOM     70  C   UNL     1       1.258  -7.901  -4.462  1.00  0.00     0.074 A 
ATOM     71  C   UNL     1       2.063  -9.080  -4.713  1.00  0.00     0.031 C 
ATOM     72  C   UNL     1       0.393  -7.545  -3.468  1.00  0.00     0.031 A 
BRANCH  59  73
ATOM     73  C   UNL     1      -1.827  -1.975  -2.199  1.00  0.00    -0.014 A 
ATOM     74  C   UNL     1      -3.038  -2.479  -1.696  1.00  0.00     0.009 A 
ATOM     75  C   UNL     1      -1.683  -0.570  -2.071  1.00  0.00     0.009 A 
ATOM     76  C   UNL     1      -4.006  -1.647  -1.092  1.00  0.00     0.001 A 
ATOM     77  C   UNL     1      -2.612   0.258  -1.419  1.00  0.00     0.001 A 
ATOM     78  C   UNL     1      -3.785  -0.282  -0.935  1.00  0.00     0.000 A 
ENDBRANCH  59  73
BRANCH  60  79
ATOM     79  C   UNL     1       4.621  -6.935  -7.749  1.00  0.00    -0.014 A 
ATOM     80  C   UNL     1       4.971  -6.813  -9.114  1.00  0.00     0.009 A 
ATOM     81  C   UNL     1       5.632  -6.747  -6.796  1.00  0.00     0.009 A 
ATOM     82  C   UNL     1       6.250  -6.406  -9.508  1.00  0.00     0.001 A 
ATOM     83  C   UNL     1       6.925  -6.361  -7.197  1.00  0.00     0.001 A 
ATOM     84  C   UNL     1       7.223  -6.160  -8.547  1.00  0.00     0.000 A 
ENDBRANCH  60  79
BRANCH  72  85
ATOM     85  C   UNL     1       0.214  -8.250  -2.141  1.00  0.00    -0.014 A 
ATOM     86  C   UNL     1       1.132  -9.155  -1.596  1.00  0.00     0.009 A 
ATOM     87  C   UNL     1      -0.869  -7.878  -1.308  1.00  0.00     0.009 A 
ATOM     88  C   UNL     1       0.954  -9.696  -0.314  1.00  0.00     0.001 A 
ATOM     89  C   UNL     1      -1.019  -8.368  -0.008  1.00  0.00     0.001 A 
ATOM     90  C   UNL     1      -0.113  -9.293   0.483  1.00  0.00     0.000 A 
ENDBRANCH  72  85
ENDBRANCH  46  47
ENDBRANCH  39  41
ENDBRANCH  38  39
ENDBRANCH  37  38
ENDBRANCH  36  37
ENDBRANCH  35  36
ENDBRANCH  34  35
ENDBRANCH   1  34
TORSDOF 21
