REMARK SMILES O=C(OCCOCCOCCOC(=O)[C@@H]1CC(=O)N(c2ccc(Cl)cc2C(=O)c2ccccc2)C1)c1ccc(-c2c3nc(c(-c4ccccc4)c4ccc([nH]4)c(-c4ccccc4)c4nc(c(-c5ccccc5)c5ccc2[nH]5)C=C4)C=C3)cc1
REMARK SMILES IDX 8 1 7 2 6 3 5 4 4 5 3 6 2 7 1 8 36 9 37 10 83 11 38 12 82 13
REMARK SMILES IDX 39 14 40 15 41 16 76 17 42 18 81 19 75 20 77 21 43 22 80 23
REMARK SMILES IDX 74 24 73 25 44 27 66 28 51 29 65 30 52 31 55 32 64 33 78 34
REMARK SMILES IDX 53 35 54 36 63 38 79 39 56 40 45 41 46 42 50 43 47 44 49 45
REMARK SMILES IDX 48 46 67 47 68 48 72 49 69 50 71 51 70 52 57 53 58 54 62 55
REMARK SMILES IDX 59 56 61 57 60 58 9 59 10 60 11 61 12 62 13 63 14 64 15 65
REMARK SMILES IDX 16 66 35 67 17 68 19 69 18 70 20 71 21 72 26 73 22 74 25 75
REMARK SMILES IDX 23 76 24 77 27 78 28 79 29 80 30 81 34 82 31 83 33 84 32 85
REMARK H PARENT 77 26 55 37
REMARK Flexibility Score: inf
ROOT
ATOM      1  C   UNL     1       2.395  -0.321  -2.876  1.00  0.00     0.188 C 
ENDROOT
BRANCH   1   2
ATOM      2  C   UNL     1       2.296  -0.103  -1.374  1.00  0.00     0.188 C 
BRANCH   2   3
ATOM      3  O   UNL     1       3.569   0.050  -0.754  1.00  0.00    -0.376 OA
BRANCH   3   4
ATOM      4  C   UNL     1       4.327  -1.150  -0.585  1.00  0.00     0.202 C 
BRANCH   4   5
ATOM      5  C   UNL     1       4.001  -1.897   0.707  1.00  0.00     0.261 C 
BRANCH   5   6
ATOM      6  O   UNL     1       2.667  -1.679   1.196  1.00  0.00    -0.460 OA
BRANCH   6   7
ATOM      7  C   UNL     1       2.125  -0.603   1.813  1.00  0.00     0.338 C 
ATOM      8  O   UNL     1       0.917  -0.629   2.052  1.00  0.00    -0.246 OA
BRANCH   7   9
ATOM      9  C   UNL     1       2.876   0.618   2.252  1.00  0.00     0.060 A 
ATOM     10  C   UNL     1       4.120   1.031   1.778  1.00  0.00     0.016 A 
ATOM     11  C   UNL     1       2.239   1.442   3.201  1.00  0.00     0.016 A 
ATOM     12  C   UNL     1       4.718   2.205   2.200  1.00  0.00     0.010 A 
ATOM     13  C   UNL     1       2.855   2.602   3.684  1.00  0.00     0.010 A 
ATOM     14  C   UNL     1       4.117   2.956   3.201  1.00  0.00    -0.014 A 
BRANCH  14  15
ATOM     15  C   UNL     1       5.014   3.866   3.928  1.00  0.00     0.031 A 
ATOM     16  C   UNL     1       5.663   3.318   5.166  1.00  0.00     0.074 A 
ATOM     17  C   UNL     1       5.412   5.017   3.363  1.00  0.00     0.049 A 
ATOM     18  N   UNL     1       6.518   3.879   5.975  1.00  0.00    -0.248 NA
ATOM     19  C   UNL     1       5.321   1.927   5.525  1.00  0.00     0.031 C 
ATOM     20  C   UNL     1       4.978   5.509   2.053  1.00  0.00     0.029 A 
ATOM     21  N   UNL     1       6.311   5.951   3.792  1.00  0.00    -0.354 N 
ATOM     22  C   UNL     1       6.778   2.929   6.955  1.00  0.00     0.074 A 
ATOM     23  C   UNL     1       6.001   1.754   6.644  1.00  0.00     0.031 C 
ATOM     24  C   UNL     1       5.631   6.650   1.777  1.00  0.00     0.029 A 
ATOM     25  C   UNL     1       6.468   6.999   2.919  1.00  0.00     0.049 A 
ATOM     26  H   UNL     1       6.798   5.880   4.644  1.00  0.00     0.167 HD
ATOM     27  C   UNL     1       7.586   3.042   8.032  1.00  0.00     0.031 A 
ATOM     28  C   UNL     1       7.188   8.126   3.064  1.00  0.00     0.031 A 
ATOM     29  C   UNL     1       8.333   4.234   8.313  1.00  0.00     0.049 A 
ATOM     30  C   UNL     1       7.969   8.289   4.340  1.00  0.00     0.074 A 
ATOM     31  C   UNL     1       9.123   4.527   9.405  1.00  0.00     0.029 A 
ATOM     32  N   UNL     1       8.371   5.340   7.472  1.00  0.00    -0.354 N 
ATOM     33  N   UNL     1       8.135   7.433   5.323  1.00  0.00    -0.248 NA
ATOM     34  C   UNL     1       8.655   9.571   4.532  1.00  0.00     0.031 C 
ATOM     35  C   UNL     1       9.588   5.839   9.255  1.00  0.00     0.029 A 
ATOM     36  C   UNL     1       9.153   6.330   8.031  1.00  0.00     0.049 A 
ATOM     37  H   UNL     1       7.908   5.407   6.606  1.00  0.00     0.167 HD
ATOM     38  C   UNL     1       8.970   8.059   6.237  1.00  0.00     0.074 A 
ATOM     39  C   UNL     1       9.287   9.361   5.678  1.00  0.00     0.031 C 
ATOM     40  C   UNL     1       9.440   7.608   7.427  1.00  0.00     0.031 A 
BRANCH  27  41
ATOM     41  C   UNL     1       7.579   1.901   9.010  1.00  0.00    -0.014 A 
ATOM     42  C   UNL     1       8.142   0.650   8.708  1.00  0.00     0.009 A 
ATOM     43  C   UNL     1       6.924   2.068  10.241  1.00  0.00     0.009 A 
ATOM     44  C   UNL     1       8.004  -0.420   9.597  1.00  0.00     0.001 A 
ATOM     45  C   UNL     1       6.816   1.007  11.140  1.00  0.00     0.001 A 
ATOM     46  C   UNL     1       7.343  -0.240  10.812  1.00  0.00     0.000 A 
ENDBRANCH  27  41
BRANCH  28  47
ATOM     47  C   UNL     1       7.151   9.192   2.027  1.00  0.00    -0.014 A 
ATOM     48  C   UNL     1       8.308   9.568   1.328  1.00  0.00     0.009 A 
ATOM     49  C   UNL     1       5.949   9.865   1.747  1.00  0.00     0.009 A 
ATOM     50  C   UNL     1       8.268  10.611   0.397  1.00  0.00     0.001 A 
ATOM     51  C   UNL     1       5.904  10.884   0.792  1.00  0.00     0.001 A 
ATOM     52  C   UNL     1       7.066  11.264   0.127  1.00  0.00     0.000 A 
ENDBRANCH  28  47
BRANCH  40  53
ATOM     53  C   UNL     1      10.394   8.507   8.159  1.00  0.00    -0.014 A 
ATOM     54  C   UNL     1       9.965   9.693   8.770  1.00  0.00     0.009 A 
ATOM     55  C   UNL     1      11.740   8.124   8.269  1.00  0.00     0.009 A 
ATOM     56  C   UNL     1      10.879  10.504   9.443  1.00  0.00     0.001 A 
ATOM     57  C   UNL     1      12.643   8.916   8.975  1.00  0.00     0.001 A 
ATOM     58  C   UNL     1      12.214  10.112   9.550  1.00  0.00     0.000 A 
ENDBRANCH  40  53
ENDBRANCH  14  15
ENDBRANCH   7   9
ENDBRANCH   6   7
ENDBRANCH   5   6
ENDBRANCH   4   5
ENDBRANCH   3   4
ENDBRANCH   2   3
ENDBRANCH   1   2
BRANCH   1  59
ATOM     59  O   UNL     1       3.733  -0.585  -3.275  1.00  0.00    -0.376 OA
BRANCH  59  60
ATOM     60  C   UNL     1       4.469   0.551  -3.712  1.00  0.00     0.202 C 
BRANCH  60  61
ATOM     61  C   UNL     1       5.040   1.578  -2.704  1.00  0.00     0.261 C 
BRANCH  61  62
ATOM     62  O   UNL     1       4.253   2.592  -2.021  1.00  0.00    -0.463 OA
BRANCH  62  63
ATOM     63  C   UNL     1       3.103   3.127  -2.493  1.00  0.00     0.311 C 
ATOM     64  O   UNL     1       2.483   2.729  -3.457  1.00  0.00    -0.252 OA
BRANCH  63  65
ATOM     65  C   UNL     1       2.658   4.303  -1.629  1.00  0.00     0.128 C 
ATOM     66  C   UNL     1       1.218   4.120  -1.185  1.00  0.00     0.117 C 
ATOM     67  C   UNL     1       2.603   5.614  -2.401  1.00  0.00     0.141 C 
ATOM     68  C   UNL     1       0.428   4.774  -2.296  1.00  0.00     0.227 C 
ATOM     69  N   UNL     1       1.286   5.642  -3.000  1.00  0.00    -0.311 N 
ATOM     70  O   UNL     1      -0.759   4.557  -2.482  1.00  0.00    -0.274 OA
BRANCH  69  71
ATOM     71  C   UNL     1       0.859   6.525  -4.044  1.00  0.00     0.055 A 
ATOM     72  C   UNL     1      -0.482   6.965  -4.044  1.00  0.00     0.028 A 
ATOM     73  C   UNL     1       1.670   7.016  -5.089  1.00  0.00     0.048 A 
ATOM     74  C   UNL     1      -0.993   7.829  -5.024  1.00  0.00     0.023 A 
ATOM     75  C   UNL     1       1.157   7.883  -6.078  1.00  0.00     0.035 A 
ATOM     76  C   UNL     1      -0.172   8.278  -6.044  1.00  0.00     0.041 A 
ATOM     77  Cl  UNL     1      -0.797   9.314  -7.264  1.00  0.00    -0.084 Cl
BRANCH  73  78
ATOM     78  C   UNL     1       3.084   6.672  -5.299  1.00  0.00     0.195 C 
ATOM     79  O   UNL     1       3.905   7.585  -5.243  1.00  0.00    -0.289 OA
BRANCH  78  80
ATOM     80  C   UNL     1       3.530   5.292  -5.609  1.00  0.00     0.023 A 
ATOM     81  C   UNL     1       4.884   4.993  -5.388  1.00  0.00     0.012 A 
ATOM     82  C   UNL     1       2.665   4.303  -6.083  1.00  0.00     0.012 A 
ATOM     83  C   UNL     1       5.380   3.724  -5.668  1.00  0.00     0.001 A 
ATOM     84  C   UNL     1       3.170   3.034  -6.374  1.00  0.00     0.001 A 
ATOM     85  C   UNL     1       4.528   2.758  -6.193  1.00  0.00     0.000 A 
ENDBRANCH  78  80
ENDBRANCH  73  78
ENDBRANCH  69  71
ENDBRANCH  63  65
ENDBRANCH  62  63
ENDBRANCH  61  62
ENDBRANCH  60  61
ENDBRANCH  59  60
ENDBRANCH   1  59
TORSDOF 20
