REMARK SMILES CC(C)[C@@H](CNC(=O)Cc1ccc(F)cc1F)C(=O)OCCOCCOCCOC(=O)c1ccc(-c2c3nc(c(-c4ccccc4)c4ccc([nH]4)c(-c4ccccc4)c4nc(c(-c5ccccc5)c5ccc2[nH]5)C=C4)C=C3)cc1
REMARK SMILES IDX 24 1 23 2 22 3 21 4 20 5 18 6 19 7 4 8 2 9 1 10 3 11 5 12
REMARK SMILES IDX 6 13 7 14 8 16 9 17 10 18 11 19 16 20 12 21 15 22 17 23
REMARK SMILES IDX 13 24 14 25 25 26 26 27 27 28 28 29 29 30 30 31 31 32 32 33
REMARK SMILES IDX 33 34 79 35 34 36 78 37 35 38 36 39 37 40 72 41 38 42 77 43
REMARK SMILES IDX 71 44 73 45 39 46 76 47 70 48 69 49 40 51 62 52 47 53 61 54
REMARK SMILES IDX 48 55 51 56 60 57 74 58 49 59 50 60 59 62 75 63 52 64 41 65
REMARK SMILES IDX 42 66 46 67 43 68 45 69 44 70 63 71 64 72 68 73 65 74 67 75
REMARK SMILES IDX 66 76 53 77 54 78 58 79 55 80 57 81 56 82
REMARK H PARENT 6 15 73 50 51 61
REMARK Flexibility Score: inf
ROOT
ATOM      1  C   UNL     1      -1.812  -5.372   0.807  1.00  0.00     0.188 C 
ENDROOT
BRANCH   1   2
ATOM      2  O   UNL     1      -1.732  -6.351  -0.190  1.00  0.00    -0.376 OA
BRANCH   2   3
ATOM      3  C   UNL     1      -1.527  -5.941  -1.533  1.00  0.00     0.202 C 
BRANCH   3   4
ATOM      4  C   UNL     1      -1.378  -4.499  -2.091  1.00  0.00     0.261 C 
BRANCH   4   5
ATOM      5  O   UNL     1      -0.566  -3.461  -1.501  1.00  0.00    -0.463 OA
BRANCH   5   6
ATOM      6  C   UNL     1      -1.237  -2.515  -0.796  1.00  0.00     0.311 C 
ATOM      7  O   UNL     1      -2.357  -2.674  -0.322  1.00  0.00    -0.252 OA
BRANCH   6   8
ATOM      8  C   UNL     1      -0.626  -1.127  -0.750  1.00  0.00     0.121 C 
BRANCH   8   9
ATOM      9  C   UNL     1       0.911  -0.975  -0.815  1.00  0.00    -0.001 C 
ATOM     10  C   UNL     1       1.328   0.493  -0.619  1.00  0.00     0.008 C 
ATOM     11  C   UNL     1       1.610  -1.778   0.286  1.00  0.00     0.008 C 
ENDBRANCH   8   9
BRANCH   8  12
ATOM     12  C   UNL     1      -1.418  -0.288  -1.781  1.00  0.00     0.131 C 
BRANCH  12  13
ATOM     13  N   UNL     1      -1.386  -0.860  -3.117  1.00  0.00    -0.355 N 
ATOM     14  C   UNL     1      -2.408  -1.380  -3.863  1.00  0.00     0.224 C 
ATOM     15  H   UNL     1      -0.501  -0.875  -3.547  1.00  0.00     0.163 HD
ATOM     16  O   UNL     1      -2.100  -2.039  -4.859  1.00  0.00    -0.275 OA
BRANCH  14  17
ATOM     17  C   UNL     1      -3.867  -1.086  -3.522  1.00  0.00     0.138 C 
BRANCH  17  18
ATOM     18  C   UNL     1      -4.505  -1.980  -2.485  1.00  0.00    -0.003 A 
ATOM     19  C   UNL     1      -4.944  -1.455  -1.257  1.00  0.00     0.010 A 
ATOM     20  C   UNL     1      -4.659  -3.354  -2.704  1.00  0.00     0.129 A 
ATOM     21  C   UNL     1      -5.413  -2.305  -0.250  1.00  0.00     0.040 A 
ATOM     22  C   UNL     1      -5.116  -4.210  -1.703  1.00  0.00     0.078 A 
ATOM     23  F   UNL     1      -4.283  -3.890  -3.873  1.00  0.00    -0.207 F 
ATOM     24  C   UNL     1      -5.466  -3.676  -0.473  1.00  0.00     0.126 A 
ATOM     25  F   UNL     1      -5.841  -4.492   0.521  1.00  0.00    -0.207 F 
ENDBRANCH  17  18
ENDBRANCH  14  17
ENDBRANCH  12  13
ENDBRANCH   8  12
ENDBRANCH   6   8
ENDBRANCH   5   6
ENDBRANCH   4   5
ENDBRANCH   3   4
ENDBRANCH   2   3
ENDBRANCH   1   2
BRANCH   1  26
ATOM     26  C   UNL     1      -0.459  -4.869   1.275  1.00  0.00     0.188 C 
BRANCH  26  27
ATOM     27  O   UNL     1       0.628  -4.859   0.373  1.00  0.00    -0.376 OA
BRANCH  27  28
ATOM     28  C   UNL     1       1.438  -5.992   0.100  1.00  0.00     0.202 C 
BRANCH  28  29
ATOM     29  C   UNL     1       1.749  -7.035   1.183  1.00  0.00     0.261 C 
BRANCH  29  30
ATOM     30  O   UNL     1       1.597  -6.620   2.543  1.00  0.00    -0.460 OA
BRANCH  30  31
ATOM     31  C   UNL     1       2.227  -5.478   2.912  1.00  0.00     0.338 C 
ATOM     32  O   UNL     1       3.136  -4.923   2.338  1.00  0.00    -0.246 OA
BRANCH  31  33
ATOM     33  C   UNL     1       1.422  -4.885   4.019  1.00  0.00     0.060 A 
ATOM     34  C   UNL     1       1.208  -3.502   3.999  1.00  0.00     0.016 A 
ATOM     35  C   UNL     1       0.786  -5.675   4.985  1.00  0.00     0.016 A 
ATOM     36  C   UNL     1       0.423  -2.898   4.982  1.00  0.00     0.010 A 
ATOM     37  C   UNL     1       0.002  -5.070   5.973  1.00  0.00     0.010 A 
ATOM     38  C   UNL     1      -0.137  -3.671   6.008  1.00  0.00    -0.014 A 
BRANCH  38  39
ATOM     39  C   UNL     1      -0.632  -2.994   7.234  1.00  0.00     0.031 A 
ATOM     40  C   UNL     1       0.285  -2.950   8.430  1.00  0.00     0.074 A 
ATOM     41  C   UNL     1      -1.819  -2.363   7.278  1.00  0.00     0.049 A 
ATOM     42  N   UNL     1       0.103  -2.392   9.600  1.00  0.00    -0.248 NA
ATOM     43  C   UNL     1       1.585  -3.625   8.282  1.00  0.00     0.031 C 
ATOM     44  C   UNL     1      -2.781  -2.279   6.181  1.00  0.00     0.029 A 
ATOM     45  N   UNL     1      -2.409  -1.658   8.299  1.00  0.00    -0.354 N 
ATOM     46  C   UNL     1       1.260  -2.656  10.325  1.00  0.00     0.074 A 
ATOM     47  C   UNL     1       2.117  -3.458   9.482  1.00  0.00     0.031 C 
ATOM     48  C   UNL     1      -3.839  -1.552   6.586  1.00  0.00     0.029 A 
ATOM     49  C   UNL     1      -3.643  -1.148   7.978  1.00  0.00     0.049 A 
ATOM     50  H   UNL     1      -1.986  -1.530   9.179  1.00  0.00     0.167 HD
ATOM     51  C   UNL     1       1.592  -2.260  11.576  1.00  0.00     0.031 A 
ATOM     52  C   UNL     1      -4.517  -0.443   8.724  1.00  0.00     0.031 A 
ATOM     53  C   UNL     1       0.742  -1.474  12.428  1.00  0.00     0.049 A 
ATOM     54  C   UNL     1      -4.161  -0.085  10.146  1.00  0.00     0.074 A 
ATOM     55  C   UNL     1       0.990  -1.021  13.712  1.00  0.00     0.029 A 
ATOM     56  N   UNL     1      -0.525  -1.030  12.084  1.00  0.00    -0.354 N 
ATOM     57  N   UNL     1      -3.058  -0.327  10.813  1.00  0.00    -0.248 NA
ATOM     58  C   UNL     1      -5.172   0.660  10.911  1.00  0.00     0.031 C 
ATOM     59  C   UNL     1      -0.153  -0.357  14.168  1.00  0.00     0.029 A 
ATOM     60  C   UNL     1      -1.083  -0.330  13.141  1.00  0.00     0.049 A 
ATOM     61  H   UNL     1      -0.964  -1.188  11.217  1.00  0.00     0.167 HD
ATOM     62  C   UNL     1      -3.230   0.264  12.061  1.00  0.00     0.074 A 
ATOM     63  C   UNL     1      -4.534   0.894  12.048  1.00  0.00     0.031 C 
ATOM     64  C   UNL     1      -2.384   0.288  13.121  1.00  0.00     0.031 A 
BRANCH  51  65
ATOM     65  C   UNL     1       2.923  -2.715  12.109  1.00  0.00    -0.014 A 
ATOM     66  C   UNL     1       4.131  -2.216  11.594  1.00  0.00     0.009 A 
ATOM     67  C   UNL     1       2.967  -3.651  13.153  1.00  0.00     0.009 A 
ATOM     68  C   UNL     1       5.354  -2.677  12.087  1.00  0.00     0.001 A 
ATOM     69  C   UNL     1       4.190  -4.084  13.668  1.00  0.00     0.001 A 
ATOM     70  C   UNL     1       5.382  -3.605  13.127  1.00  0.00     0.000 A 
ENDBRANCH  51  65
BRANCH  52  71
ATOM     71  C   UNL     1      -5.830  -0.033   8.156  1.00  0.00    -0.014 A 
ATOM     72  C   UNL     1      -6.132   1.322   7.941  1.00  0.00     0.009 A 
ATOM     73  C   UNL     1      -6.809  -0.996   7.864  1.00  0.00     0.009 A 
ATOM     74  C   UNL     1      -7.393   1.703   7.476  1.00  0.00     0.001 A 
ATOM     75  C   UNL     1      -8.057  -0.615   7.367  1.00  0.00     0.001 A 
ATOM     76  C   UNL     1      -8.352   0.734   7.184  1.00  0.00     0.000 A 
ENDBRANCH  52  71
BRANCH  64  77
ATOM     77  C   UNL     1      -2.821   1.062  14.337  1.00  0.00    -0.014 A 
ATOM     78  C   UNL     1      -3.888   0.632  15.142  1.00  0.00     0.009 A 
ATOM     79  C   UNL     1      -2.141   2.240  14.689  1.00  0.00     0.009 A 
ATOM     80  C   UNL     1      -4.299   1.394  16.239  1.00  0.00     0.001 A 
ATOM     81  C   UNL     1      -2.529   2.979  15.807  1.00  0.00     0.001 A 
ATOM     82  C   UNL     1      -3.618   2.564  16.572  1.00  0.00     0.000 A 
ENDBRANCH  64  77
ENDBRANCH  38  39
ENDBRANCH  31  33
ENDBRANCH  30  31
ENDBRANCH  29  30
ENDBRANCH  28  29
ENDBRANCH  27  28
ENDBRANCH  26  27
ENDBRANCH   1  26
TORSDOF 22
