REMARK SMILES O=C(OCCOCCOCCOC(=O)c1ccc(C[NH2+][C@@H]2CCCC[C@H]2O)nc1)c1ccc(-c2c3nc(c(-c4ccccc4)c4ccc([nH]4)c(-c4ccccc4)c4nc(c(-c5ccccc5)c5ccc2[nH]5)C=C4)C=C3)cc1
REMARK SMILES IDX 8 1 7 2 6 3 5 4 4 5 3 6 2 7 1 8 30 9 31 10 77 11 32 12 76 13
REMARK SMILES IDX 33 14 34 15 35 16 70 17 36 18 75 19 69 20 71 21 37 22 74 23
REMARK SMILES IDX 68 24 67 25 38 27 60 28 45 29 59 30 46 31 49 32 58 33 72 34
REMARK SMILES IDX 47 35 48 36 57 38 73 39 50 40 39 41 40 42 44 43 41 44 43 45
REMARK SMILES IDX 42 46 61 47 62 48 66 49 63 50 65 51 64 52 51 53 52 54 56 55
REMARK SMILES IDX 53 56 55 57 54 58 9 59 10 60 11 61 12 62 13 63 14 64 15 65
REMARK SMILES IDX 16 66 29 67 17 68 28 69 18 70 19 71 20 72 21 75 22 76 26 77
REMARK SMILES IDX 23 78 25 79 24 80 27 81
REMARK H PARENT 71 26 49 37 20 73 20 74 27 82
REMARK Flexibility Score: inf
ROOT
ATOM      1  C   UNL     1      -5.322   9.341   5.197  1.00  0.00     0.188 C 
ENDROOT
BRANCH   1   2
ATOM      2  C   UNL     1      -4.291   8.986   6.274  1.00  0.00     0.188 C 
BRANCH   2   3
ATOM      3  O   UNL     1      -4.119   7.564   6.376  1.00  0.00    -0.376 OA
BRANCH   3   4
ATOM      4  C   UNL     1      -3.827   7.118   7.705  1.00  0.00     0.202 C 
BRANCH   4   5
ATOM      5  C   UNL     1      -2.333   7.098   8.049  1.00  0.00     0.261 C 
BRANCH   5   6
ATOM      6  O   UNL     1      -1.632   8.202   7.456  1.00  0.00    -0.460 OA
BRANCH   6   7
ATOM      7  C   UNL     1      -0.935   8.225   6.292  1.00  0.00     0.338 C 
ATOM      8  O   UNL     1      -0.369   9.269   5.973  1.00  0.00    -0.246 OA
BRANCH   7   9
ATOM      9  C   UNL     1      -0.766   7.037   5.396  1.00  0.00     0.060 A 
ATOM     10  C   UNL     1      -1.650   5.961   5.304  1.00  0.00     0.016 A 
ATOM     11  C   UNL     1       0.356   7.035   4.547  1.00  0.00     0.016 A 
ATOM     12  C   UNL     1      -1.364   4.855   4.509  1.00  0.00     0.010 A 
ATOM     13  C   UNL     1       0.615   5.957   3.692  1.00  0.00     0.010 A 
ATOM     14  C   UNL     1      -0.223   4.838   3.708  1.00  0.00    -0.014 A 
BRANCH  14  15
ATOM     15  C   UNL     1       0.117   3.597   2.982  1.00  0.00     0.031 A 
ATOM     16  C   UNL     1       1.234   2.739   3.494  1.00  0.00     0.074 A 
ATOM     17  C   UNL     1      -0.650   3.181   1.960  1.00  0.00     0.049 A 
ATOM     18  N   UNL     1       1.675   1.597   3.035  1.00  0.00    -0.248 NA
ATOM     19  C   UNL     1       1.929   3.216   4.702  1.00  0.00     0.031 C 
ATOM     20  C   UNL     1      -1.834   3.879   1.462  1.00  0.00     0.029 A 
ATOM     21  N   UNL     1      -0.573   2.056   1.181  1.00  0.00    -0.354 N 
ATOM     22  C   UNL     1       2.700   1.222   3.893  1.00  0.00     0.074 A 
ATOM     23  C   UNL     1       2.831   2.265   4.886  1.00  0.00     0.031 C 
ATOM     24  C   UNL     1      -2.386   3.155   0.476  1.00  0.00     0.029 A 
ATOM     25  C   UNL     1      -1.561   1.980   0.231  1.00  0.00     0.049 A 
ATOM     26  H   UNL     1       0.124   1.370   1.292  1.00  0.00     0.167 HD
ATOM     27  C   UNL     1       3.462   0.105   3.857  1.00  0.00     0.031 A 
ATOM     28  C   UNL     1      -1.764   1.077  -0.745  1.00  0.00     0.031 A 
ATOM     29  C   UNL     1       3.344  -0.911   2.849  1.00  0.00     0.049 A 
ATOM     30  C   UNL     1      -0.821  -0.085  -0.850  1.00  0.00     0.074 A 
ATOM     31  C   UNL     1       4.103  -2.054   2.677  1.00  0.00     0.029 A 
ATOM     32  N   UNL     1       2.400  -0.897   1.832  1.00  0.00    -0.354 N 
ATOM     33  N   UNL     1       0.177  -0.406  -0.062  1.00  0.00    -0.248 NA
ATOM     34  C   UNL     1      -1.026  -1.004  -1.976  1.00  0.00     0.031 C 
ATOM     35  C   UNL     1       3.644  -2.710   1.527  1.00  0.00     0.029 A 
ATOM     36  C   UNL     1       2.570  -1.998   1.012  1.00  0.00     0.049 A 
ATOM     37  H   UNL     1       1.710  -0.205   1.712  1.00  0.00     0.167 HD
ATOM     38  C   UNL     1       0.713  -1.572  -0.587  1.00  0.00     0.074 A 
ATOM     39  C   UNL     1      -0.083  -1.909  -1.752  1.00  0.00     0.031 C 
ATOM     40  C   UNL     1       1.768  -2.300  -0.145  1.00  0.00     0.031 A 
BRANCH  27  41
ATOM     41  C   UNL     1       4.526  -0.013   4.908  1.00  0.00    -0.014 A 
ATOM     42  C   UNL     1       4.204  -0.319   6.241  1.00  0.00     0.009 A 
ATOM     43  C   UNL     1       5.864   0.241   4.571  1.00  0.00     0.009 A 
ATOM     44  C   UNL     1       5.198  -0.325   7.222  1.00  0.00     0.001 A 
ATOM     45  C   UNL     1       6.857   0.213   5.551  1.00  0.00     0.001 A 
ATOM     46  C   UNL     1       6.523  -0.057   6.877  1.00  0.00     0.000 A 
ENDBRANCH  27  41
BRANCH  28  47
ATOM     47  C   UNL     1      -2.872   1.271  -1.716  1.00  0.00    -0.014 A 
ATOM     48  C   UNL     1      -3.991   0.426  -1.715  1.00  0.00     0.009 A 
ATOM     49  C   UNL     1      -2.817   2.323  -2.646  1.00  0.00     0.009 A 
ATOM     50  C   UNL     1      -5.025   0.624  -2.634  1.00  0.00     0.001 A 
ATOM     51  C   UNL     1      -3.863   2.533  -3.547  1.00  0.00     0.001 A 
ATOM     52  C   UNL     1      -4.964   1.679  -3.544  1.00  0.00     0.000 A 
ENDBRANCH  28  47
BRANCH  40  53
ATOM     53  C   UNL     1       2.102  -3.539  -0.920  1.00  0.00    -0.014 A 
ATOM     54  C   UNL     1       2.756  -3.462  -2.158  1.00  0.00     0.009 A 
ATOM     55  C   UNL     1       1.790  -4.798  -0.384  1.00  0.00     0.009 A 
ATOM     56  C   UNL     1       3.068  -4.627  -2.860  1.00  0.00     0.001 A 
ATOM     57  C   UNL     1       2.125  -5.960  -1.078  1.00  0.00     0.001 A 
ATOM     58  C   UNL     1       2.757  -5.873  -2.318  1.00  0.00     0.000 A 
ENDBRANCH  40  53
ENDBRANCH  14  15
ENDBRANCH   7   9
ENDBRANCH   6   7
ENDBRANCH   5   6
ENDBRANCH   4   5
ENDBRANCH   3   4
ENDBRANCH   2   3
ENDBRANCH   1   2
BRANCH   1  59
ATOM     59  O   UNL     1      -6.680   9.056   5.544  1.00  0.00    -0.376 OA
BRANCH  59  60
ATOM     60  C   UNL     1      -7.006   7.691   5.789  1.00  0.00     0.202 C 
BRANCH  60  61
ATOM     61  C   UNL     1      -7.133   6.797   4.553  1.00  0.00     0.261 C 
BRANCH  61  62
ATOM     62  O   UNL     1      -5.973   6.799   3.700  1.00  0.00    -0.460 OA
BRANCH  62  63
ATOM     63  C   UNL     1      -6.238   7.090   2.402  1.00  0.00     0.339 C 
ATOM     64  O   UNL     1      -7.323   7.375   1.920  1.00  0.00    -0.246 OA
BRANCH  63  65
ATOM     65  C   UNL     1      -5.060   6.902   1.547  1.00  0.00     0.078 A 
ATOM     66  C   UNL     1      -5.221   6.190   0.358  1.00  0.00     0.019 A 
ATOM     67  C   UNL     1      -3.841   7.507   1.790  1.00  0.00     0.127 A 
ATOM     68  C   UNL     1      -4.175   6.140  -0.556  1.00  0.00     0.031 A 
ATOM     69  N   UNL     1      -2.799   7.463   0.918  1.00  0.00    -0.254 NA
ATOM     70  C   UNL     1      -2.982   6.798  -0.255  1.00  0.00     0.094 A 
BRANCH  70  71
ATOM     71  C   UNL     1      -1.888   6.873  -1.310  1.00  0.00     0.318 C 
BRANCH  71  72
ATOM     72  N   UNL     1      -2.032   8.085  -2.125  1.00  0.00    -0.337 N 
ATOM     73  H   UNL     1      -1.795   8.893  -1.549  1.00  0.00     0.346 HD
ATOM     74  H   UNL     1      -2.998   8.119  -2.451  1.00  0.00     0.346 HD
BRANCH  72  75
ATOM     75  C   UNL     1      -1.167   8.087  -3.315  1.00  0.00     0.211 C 
ATOM     76  C   UNL     1      -0.170   9.256  -3.204  1.00  0.00     0.068 C 
ATOM     77  C   UNL     1      -1.996   8.217  -4.622  1.00  0.00     0.172 C 
ATOM     78  C   UNL     1      -0.842  10.624  -3.332  1.00  0.00     0.006 C 
ATOM     79  C   UNL     1      -2.657   9.593  -4.766  1.00  0.00     0.038 C 
ATOM     80  C   UNL     1      -1.653  10.736  -4.619  1.00  0.00     0.003 C 
BRANCH  77  81
ATOM     81  O   UNL     1      -1.146   7.971  -5.745  1.00  0.00    -0.387 OA
ATOM     82  H   UNL     1      -0.440   8.636  -5.769  1.00  0.00     0.211 HD
ENDBRANCH  77  81
ENDBRANCH  72  75
ENDBRANCH  71  72
ENDBRANCH  70  71
ENDBRANCH  63  65
ENDBRANCH  62  63
ENDBRANCH  61  62
ENDBRANCH  60  61
ENDBRANCH  59  60
ENDBRANCH   1  59
TORSDOF 21
