REMARK SMILES Cc1c(CC(=O)OCCOCCOCCOC(=O)c2ccc(-c3c4nc(c(-c5ccccc5)c5ccc([nH]5)c(-c5ccccc5)c5nc(c(-c6ccccc6)c6ccc3[nH]6)C=C5)C=C4)cc2)cc(-c2ccccc2)cc1-c1ccccc1
REMARK SMILES IDX 11 1 10 2 9 3 8 4 7 5 5 6 6 7 4 8 3 9 1 10 2 11 76 12 67 13
REMARK SMILES IDX 75 14 68 15 77 16 78 17 82 18 79 19 81 20 80 21 69 22 70 23
REMARK SMILES IDX 74 24 71 25 73 26 72 27 12 28 13 29 14 30 15 31 16 32 17 33
REMARK SMILES IDX 18 34 19 35 20 36 66 37 21 38 65 39 22 40 23 41 24 42 59 43
REMARK SMILES IDX 25 44 64 45 58 46 60 47 26 48 63 49 57 50 56 51 27 53 49 54
REMARK SMILES IDX 34 55 48 56 35 57 38 58 47 59 61 60 36 61 37 62 46 64 62 65
REMARK SMILES IDX 39 66 28 67 29 68 33 69 30 70 32 71 31 72 50 73 51 74 55 75
REMARK SMILES IDX 52 76 54 77 53 78 40 79 41 80 45 81 42 82 44 83 43 84
REMARK H PARENT 60 52 38 63
REMARK Flexibility Score: inf
ROOT
ATOM      1  C   UNL     1      -1.772  -3.416   4.971  1.00  0.00     0.188 C 
ENDROOT
BRANCH   1   2
ATOM      2  O   UNL     1      -0.571  -3.049   4.283  1.00  0.00    -0.376 OA
BRANCH   2   3
ATOM      3  C   UNL     1       0.136  -1.843   4.578  1.00  0.00     0.202 C 
BRANCH   3   4
ATOM      4  C   UNL     1       0.241  -0.610   3.477  1.00  0.00     0.261 C 
BRANCH   4   5
ATOM      5  O   UNL     1       0.463  -0.691   1.835  1.00  0.00    -0.463 OA
BRANCH   5   6
ATOM      6  C   UNL     1       1.212  -1.201   0.764  1.00  0.00     0.310 C 
ATOM      7  O   UNL     1       2.281  -1.805   0.745  1.00  0.00    -0.252 OA
BRANCH   6   8
ATOM      8  C   UNL     1       0.667  -1.004  -0.612  1.00  0.00     0.158 C 
BRANCH   8   9
ATOM      9  C   UNL     1       0.104   0.352  -0.722  1.00  0.00    -0.033 A 
ATOM     10  C   UNL     1       2.394   1.401  -0.381  1.00  0.00     0.045 C 
ATOM     11  C   UNL     1       0.880   1.500  -0.497  1.00  0.00    -0.039 A 
ATOM     12  C   UNL     1       0.200   2.726  -0.388  1.00  0.00    -0.015 A 
ATOM     13  C   UNL     1      -1.272   0.400  -0.858  1.00  0.00     0.013 A 
ATOM     14  C   UNL     1      -1.219   2.744  -0.424  1.00  0.00     0.017 A 
ATOM     15  C   UNL     1      -1.960   1.581  -0.661  1.00  0.00    -0.017 A 
BRANCH  12  16
ATOM     16  C   UNL     1       0.964   3.967  -0.241  1.00  0.00    -0.018 A 
ATOM     17  C   UNL     1       0.964   4.687   0.958  1.00  0.00     0.009 A 
ATOM     18  C   UNL     1       1.813   4.381  -1.284  1.00  0.00     0.009 A 
ATOM     19  C   UNL     1       1.793   5.800   1.108  1.00  0.00     0.001 A 
ATOM     20  C   UNL     1       2.652   5.480  -1.128  1.00  0.00     0.001 A 
ATOM     21  C   UNL     1       2.635   6.193   0.067  1.00  0.00     0.000 A 
ENDBRANCH  12  16
BRANCH  15  22
ATOM     22  C   UNL     1      -3.413   1.460  -0.665  1.00  0.00    -0.018 A 
ATOM     23  C   UNL     1      -4.113   1.314   0.542  1.00  0.00     0.009 A 
ATOM     24  C   UNL     1      -4.082   1.198  -1.872  1.00  0.00     0.009 A 
ATOM     25  C   UNL     1      -5.450   0.913   0.539  1.00  0.00     0.001 A 
ATOM     26  C   UNL     1      -5.417   0.798  -1.874  1.00  0.00     0.001 A 
ATOM     27  C   UNL     1      -6.099   0.654  -0.668  1.00  0.00     0.000 A 
ENDBRANCH  15  22
ENDBRANCH   8   9
ENDBRANCH   6   8
ENDBRANCH   5   6
ENDBRANCH   4   5
ENDBRANCH   3   4
ENDBRANCH   2   3
ENDBRANCH   1   2
BRANCH   1  28
ATOM     28  C   UNL     1      -2.937  -2.656   4.362  1.00  0.00     0.188 C 
BRANCH  28  29
ATOM     29  O   UNL     1      -4.210  -2.816   4.969  1.00  0.00    -0.376 OA
BRANCH  29  30
ATOM     30  C   UNL     1      -5.209  -2.058   4.245  1.00  0.00     0.202 C 
BRANCH  30  31
ATOM     31  C   UNL     1      -5.717  -2.740   2.943  1.00  0.00     0.261 C 
BRANCH  31  32
ATOM     32  O   UNL     1      -4.762  -2.543   1.870  1.00  0.00    -0.460 OA
BRANCH  32  33
ATOM     33  C   UNL     1      -4.472  -3.563   0.998  1.00  0.00     0.338 C 
ATOM     34  O   UNL     1      -5.207  -4.501   0.732  1.00  0.00    -0.246 OA
BRANCH  33  35
ATOM     35  C   UNL     1      -3.002  -3.481   0.647  1.00  0.00     0.060 A 
ATOM     36  C   UNL     1      -2.202  -4.571   0.286  1.00  0.00     0.016 A 
ATOM     37  C   UNL     1      -2.327  -2.393   1.101  1.00  0.00     0.016 A 
ATOM     38  C   UNL     1      -0.782  -4.620   0.607  1.00  0.00     0.010 A 
ATOM     39  C   UNL     1      -1.062  -2.644   1.647  1.00  0.00     0.010 A 
ATOM     40  C   UNL     1      -0.158  -3.690   1.454  1.00  0.00    -0.014 A 
BRANCH  40  41
ATOM     41  C   UNL     1       1.138  -3.961   2.374  1.00  0.00     0.031 A 
ATOM     42  C   UNL     1       2.511  -3.189   2.792  1.00  0.00     0.074 A 
ATOM     43  C   UNL     1       1.046  -5.123   3.060  1.00  0.00     0.049 A 
ATOM     44  N   UNL     1       3.687  -3.791   2.932  1.00  0.00    -0.248 NA
ATOM     45  C   UNL     1       2.755  -1.738   3.050  1.00  0.00     0.031 C 
ATOM     46  C   UNL     1       1.897  -5.633   4.128  1.00  0.00     0.029 A 
ATOM     47  N   UNL     1       0.177  -6.172   2.803  1.00  0.00    -0.354 N 
ATOM     48  C   UNL     1       4.624  -2.838   3.365  1.00  0.00     0.074 A 
ATOM     49  C   UNL     1       4.067  -1.605   3.040  1.00  0.00     0.031 C 
ATOM     50  C   UNL     1       1.691  -6.954   4.240  1.00  0.00     0.029 A 
ATOM     51  C   UNL     1       0.797  -7.363   3.170  1.00  0.00     0.049 A 
ATOM     52  H   UNL     1      -0.728  -6.089   2.424  1.00  0.00     0.167 HD
ATOM     53  C   UNL     1       5.710  -3.045   4.160  1.00  0.00     0.031 A 
ATOM     54  C   UNL     1       1.073  -8.270   2.187  1.00  0.00     0.031 A 
ATOM     55  C   UNL     1       5.883  -4.458   4.383  1.00  0.00     0.049 A 
ATOM     56  C   UNL     1       2.567  -8.417   1.915  1.00  0.00     0.074 A 
ATOM     57  C   UNL     1       5.707  -5.325   5.443  1.00  0.00     0.029 A 
ATOM     58  N   UNL     1       5.969  -5.241   3.254  1.00  0.00    -0.354 N 
ATOM     59  N   UNL     1       3.527  -7.927   2.657  1.00  0.00    -0.248 NA
ATOM     60  C   UNL     1       3.091  -9.062   0.706  1.00  0.00     0.031 C 
ATOM     61  C   UNL     1       5.641  -6.651   4.904  1.00  0.00     0.029 A 
ATOM     62  C   UNL     1       5.842  -6.576   3.538  1.00  0.00     0.049 A 
ATOM     63  H   UNL     1       6.106  -4.883   2.347  1.00  0.00     0.167 HD
ATOM     64  C   UNL     1       4.721  -8.048   1.993  1.00  0.00     0.074 A 
ATOM     65  C   UNL     1       4.403  -8.794   0.791  1.00  0.00     0.031 C 
ATOM     66  C   UNL     1       5.889  -7.473   2.402  1.00  0.00     0.031 A 
BRANCH  53  67
ATOM     67  C   UNL     1       6.497  -1.920   4.875  1.00  0.00    -0.014 A 
ATOM     68  C   UNL     1       7.423  -2.244   5.881  1.00  0.00     0.009 A 
ATOM     69  C   UNL     1       6.361  -0.526   4.655  1.00  0.00     0.009 A 
ATOM     70  C   UNL     1       8.098  -1.257   6.636  1.00  0.00     0.001 A 
ATOM     71  C   UNL     1       7.017   0.466   5.405  1.00  0.00     0.001 A 
ATOM     72  C   UNL     1       7.884   0.098   6.410  1.00  0.00     0.000 A 
ENDBRANCH  53  67
BRANCH  54  73
ATOM     73  C   UNL     1      -0.043  -8.414   1.186  1.00  0.00    -0.014 A 
ATOM     74  C   UNL     1      -1.339  -8.697   1.685  1.00  0.00     0.009 A 
ATOM     75  C   UNL     1       0.055  -8.039  -0.162  1.00  0.00     0.009 A 
ATOM     76  C   UNL     1      -2.486  -8.526   0.903  1.00  0.00     0.001 A 
ATOM     77  C   UNL     1      -1.096  -7.899  -0.958  1.00  0.00     0.001 A 
ATOM     78  C   UNL     1      -2.364  -8.123  -0.421  1.00  0.00     0.000 A 
ENDBRANCH  54  73
BRANCH  66  79
ATOM     79  C   UNL     1       7.192  -7.643   1.661  1.00  0.00    -0.014 A 
ATOM     80  C   UNL     1       7.620  -8.906   1.235  1.00  0.00     0.009 A 
ATOM     81  C   UNL     1       8.098  -6.572   1.495  1.00  0.00     0.009 A 
ATOM     82  C   UNL     1       8.872  -9.081   0.633  1.00  0.00     0.001 A 
ATOM     83  C   UNL     1       9.357  -6.747   0.919  1.00  0.00     0.001 A 
ATOM     84  C   UNL     1       9.741  -8.004   0.480  1.00  0.00     0.000 A 
ENDBRANCH  66  79
ENDBRANCH  40  41
ENDBRANCH  33  35
ENDBRANCH  32  33
ENDBRANCH  31  32
ENDBRANCH  30  31
ENDBRANCH  29  30
ENDBRANCH  28  29
ENDBRANCH   1  28
TORSDOF 20
