REMARK SMILES CCOc1ccc(-n2ncc(C(=O)OCCOCCOCCOC(=O)c3ccc(-c4c5nc(c(-c6ccccc6)c6ccc([nH]6)c(-c6ccccc6)c6nc(c(-c7ccccc7)c7ccc4[nH]7)C=C6)C=C5)cc3)c2C)nn1
REMARK SMILES IDX 18 1 17 2 16 3 15 4 14 5 12 6 13 7 11 8 8 9 9 10 74 11 10 12
REMARK SMILES IDX 75 13 7 14 4 15 5 16 77 17 6 18 76 19 3 20 2 21 1 22 19 23
REMARK SMILES IDX 20 24 21 25 22 26 23 27 24 28 25 29 26 30 27 31 73 32 28 33
REMARK SMILES IDX 72 34 29 35 30 36 31 37 66 38 32 39 71 40 65 41 67 42 33 43
REMARK SMILES IDX 70 44 64 45 63 46 34 48 56 49 41 50 55 51 42 52 45 53 54 54
REMARK SMILES IDX 68 55 43 56 44 57 53 59 69 60 46 61 35 62 36 63 40 64 37 65
REMARK SMILES IDX 39 66 38 67 57 68 58 69 62 70 59 71 61 72 60 73 47 74 48 75
REMARK SMILES IDX 52 76 49 77 51 78 50 79
REMARK H PARENT 67 47 45 58
REMARK Flexibility Score: inf
ROOT
ATOM      1  C   UNL     1       9.548   5.450  -3.724  1.00  0.00     0.188 C 
ENDROOT
BRANCH   1   2
ATOM      2  O   UNL     1      10.834   6.017  -3.649  1.00  0.00    -0.376 OA
BRANCH   2   3
ATOM      3  C   UNL     1      11.819   5.455  -2.798  1.00  0.00     0.202 C 
BRANCH   3   4
ATOM      4  C   UNL     1      11.826   4.011  -2.245  1.00  0.00     0.261 C 
BRANCH   4   5
ATOM      5  O   UNL     1      10.718   3.161  -2.541  1.00  0.00    -0.460 OA
BRANCH   5   6
ATOM      6  C   UNL     1       9.756   3.078  -1.575  1.00  0.00     0.341 C 
ATOM      7  O   UNL     1       9.807   3.637  -0.499  1.00  0.00    -0.246 OA
BRANCH   6   8
ATOM      8  C   UNL     1       8.587   2.353  -2.044  1.00  0.00     0.101 A 
ATOM      9  N   UNL     1       6.491   1.719  -2.428  1.00  0.00    -0.217 N 
ATOM     10  N   UNL     1       7.274   0.721  -2.931  1.00  0.00    -0.174 NA
ATOM     11  C   UNL     1       7.263   2.763  -1.933  1.00  0.00     0.058 A 
ATOM     12  C   UNL     1       8.524   1.145  -2.755  1.00  0.00     0.151 A 
ATOM     13  C   UNL     1       6.708   4.031  -1.380  1.00  0.00     0.068 C 
BRANCH   9  14
ATOM     14  C   UNL     1       5.073   1.577  -2.399  1.00  0.00     0.176 A 
ATOM     15  C   UNL     1       2.399   1.296  -2.120  1.00  0.00     0.233 A 
ATOM     16  C   UNL     1       3.160   0.153  -2.256  1.00  0.00     0.074 A 
ATOM     17  N   UNL     1       2.929   2.535  -2.152  1.00  0.00    -0.110 NA
ATOM     18  C   UNL     1       4.532   0.295  -2.410  1.00  0.00     0.057 A 
ATOM     19  N   UNL     1       4.287   2.674  -2.274  1.00  0.00    -0.127 NA
BRANCH  15  20
ATOM     20  O   UNL     1       1.038   1.170  -2.008  1.00  0.00    -0.477 OA
BRANCH  20  21
ATOM     21  C   UNL     1       0.617   1.402  -0.660  1.00  0.00     0.228 C 
ATOM     22  C   UNL     1       0.677   0.108   0.138  1.00  0.00     0.049 C 
ENDBRANCH  20  21
ENDBRANCH  15  20
ENDBRANCH   9  14
ENDBRANCH   6   8
ENDBRANCH   5   6
ENDBRANCH   4   5
ENDBRANCH   3   4
ENDBRANCH   2   3
ENDBRANCH   1   2
BRANCH   1  23
ATOM     23  C   UNL     1       9.362   4.395  -4.833  1.00  0.00     0.188 C 
BRANCH  23  24
ATOM     24  O   UNL     1      10.471   3.750  -5.439  1.00  0.00    -0.376 OA
BRANCH  24  25
ATOM     25  C   UNL     1      11.556   4.456  -6.023  1.00  0.00     0.202 C 
BRANCH  25  26
ATOM     26  C   UNL     1      11.397   5.732  -6.849  1.00  0.00     0.261 C 
BRANCH  26  27
ATOM     27  O   UNL     1      10.412   6.625  -6.373  1.00  0.00    -0.460 OA
BRANCH  27  28
ATOM     28  C   UNL     1       9.230   6.513  -7.010  1.00  0.00     0.338 C 
ATOM     29  O   UNL     1       8.919   5.694  -7.858  1.00  0.00    -0.246 OA
BRANCH  28  30
ATOM     30  C   UNL     1       8.351   7.600  -6.570  1.00  0.00     0.060 A 
ATOM     31  C   UNL     1       7.045   7.564  -7.059  1.00  0.00     0.016 A 
ATOM     32  C   UNL     1       8.908   8.752  -5.994  1.00  0.00     0.016 A 
ATOM     33  C   UNL     1       6.401   8.760  -7.249  1.00  0.00     0.010 A 
ATOM     34  C   UNL     1       8.269   9.949  -6.196  1.00  0.00     0.010 A 
ATOM     35  C   UNL     1       7.087   9.935  -6.931  1.00  0.00    -0.014 A 
BRANCH  35  36
ATOM     36  C   UNL     1       6.592  11.155  -7.522  1.00  0.00     0.031 A 
ATOM     37  C   UNL     1       5.465  11.781  -6.820  1.00  0.00     0.074 A 
ATOM     38  C   UNL     1       7.171  11.686  -8.613  1.00  0.00     0.049 A 
ATOM     39  N   UNL     1       4.256  11.928  -7.242  1.00  0.00    -0.248 NA
ATOM     40  C   UNL     1       5.693  12.201  -5.432  1.00  0.00     0.031 C 
ATOM     41  C   UNL     1       8.462  11.336  -9.216  1.00  0.00     0.029 A 
ATOM     42  N   UNL     1       6.761  12.754  -9.345  1.00  0.00    -0.354 N 
ATOM     43  C   UNL     1       3.595  12.612  -6.232  1.00  0.00     0.074 A 
ATOM     44  C   UNL     1       4.476  12.618  -5.090  1.00  0.00     0.031 C 
ATOM     45  C   UNL     1       8.832  12.326 -10.059  1.00  0.00     0.029 A 
ATOM     46  C   UNL     1       7.750  13.294 -10.148  1.00  0.00     0.049 A 
ATOM     47  H   UNL     1       5.845  13.112  -9.307  1.00  0.00     0.167 HD
ATOM     48  C   UNL     1       2.468  13.331  -6.474  1.00  0.00     0.031 A 
ATOM     49  C   UNL     1       7.708  14.502 -10.756  1.00  0.00     0.031 A 
ATOM     50  C   UNL     1       1.854  12.985  -7.727  1.00  0.00     0.049 A 
ATOM     51  C   UNL     1       6.292  14.938 -10.809  1.00  0.00     0.074 A 
ATOM     52  C   UNL     1       1.317  11.831  -8.263  1.00  0.00     0.029 A 
ATOM     53  N   UNL     1       2.049  13.840  -8.785  1.00  0.00    -0.354 N 
ATOM     54  N   UNL     1       5.386  14.369 -11.551  1.00  0.00    -0.248 NA
ATOM     55  C   UNL     1       5.775  15.754  -9.719  1.00  0.00     0.031 C 
ATOM     56  C   UNL     1       1.633  11.882  -9.651  1.00  0.00     0.029 A 
ATOM     57  C   UNL     1       2.324  13.073  -9.887  1.00  0.00     0.049 A 
ATOM     58  H   UNL     1       1.999  14.823  -8.757  1.00  0.00     0.167 HD
ATOM     59  C   UNL     1       4.224  14.404 -10.791  1.00  0.00     0.074 A 
ATOM     60  C   UNL     1       4.496  15.370  -9.731  1.00  0.00     0.031 C 
ATOM     61  C   UNL     1       3.263  13.443 -10.924  1.00  0.00     0.031 A 
BRANCH  48  62
ATOM     62  C   UNL     1       2.158  14.614  -5.754  1.00  0.00    -0.014 A 
ATOM     63  C   UNL     1       0.921  15.237  -5.985  1.00  0.00     0.009 A 
ATOM     64  C   UNL     1       3.136  15.368  -5.076  1.00  0.00     0.009 A 
ATOM     65  C   UNL     1       0.699  16.566  -5.606  1.00  0.00     0.001 A 
ATOM     66  C   UNL     1       2.901  16.677  -4.654  1.00  0.00     0.001 A 
ATOM     67  C   UNL     1       1.690  17.285  -4.944  1.00  0.00     0.000 A 
ENDBRANCH  48  62
BRANCH  49  68
ATOM     68  C   UNL     1       8.842  15.417 -11.002  1.00  0.00    -0.014 A 
ATOM     69  C   UNL     1       8.733  16.469 -11.921  1.00  0.00     0.009 A 
ATOM     70  C   UNL     1       9.965  15.402 -10.152  1.00  0.00     0.009 A 
ATOM     71  C   UNL     1       9.701  17.481 -11.970  1.00  0.00     0.001 A 
ATOM     72  C   UNL     1      10.934  16.407 -10.204  1.00  0.00     0.001 A 
ATOM     73  C   UNL     1      10.795  17.455 -11.106  1.00  0.00     0.000 A 
ENDBRANCH  49  68
BRANCH  61  74
ATOM     74  C   UNL     1       3.372  12.491 -12.088  1.00  0.00    -0.014 A 
ATOM     75  C   UNL     1       4.452  11.601 -12.235  1.00  0.00     0.009 A 
ATOM     76  C   UNL     1       2.278  12.360 -12.956  1.00  0.00     0.009 A 
ATOM     77  C   UNL     1       4.444  10.626 -13.236  1.00  0.00     0.001 A 
ATOM     78  C   UNL     1       2.262  11.372 -13.943  1.00  0.00     0.001 A 
ATOM     79  C   UNL     1       3.346  10.507 -14.085  1.00  0.00     0.000 A 
ENDBRANCH  61  74
ENDBRANCH  35  36
ENDBRANCH  28  30
ENDBRANCH  27  28
ENDBRANCH  26  27
ENDBRANCH  25  26
ENDBRANCH  24  25
ENDBRANCH  23  24
ENDBRANCH   1  23
TORSDOF 20
