REMARK SMILES CS(=O)(=O)c1ccc(C2=NN(c3ccc(C(=O)OCCOCCOCCOC(=O)c4ccc(-c5c6nc(c(-c7ccccc7)c7ccc([nH]7)c(-c7ccccc7)c7nc(c(-c8ccccc8)c8ccc5[nH]8)C=C7)C=C6)cc4)cc3)[C@H](c3ccc(F)cc3)C2)cc1
REMARK SMILES IDX 22 1 21 2 20 3 19 4 18 5 16 6 17 7 15 8 12 9 13 10 79 11
REMARK SMILES IDX 14 12 78 13 11 14 9 15 10 16 88 17 80 18 8 19 5 20 6 21
REMARK SMILES IDX 90 22 7 23 89 24 2 25 1 26 3 27 4 28 81 29 82 30 87 31 83 32
REMARK SMILES IDX 86 33 84 34 85 35 23 36 24 37 25 38 26 39 27 40 28 41 29 42
REMARK SMILES IDX 30 43 31 44 77 45 32 46 76 47 33 48 34 49 35 50 70 51 36 52
REMARK SMILES IDX 75 53 69 54 71 55 37 56 74 57 68 58 67 59 38 61 60 62 45 63
REMARK SMILES IDX 59 64 46 65 49 66 58 67 72 68 47 69 48 70 57 72 73 73 50 74
REMARK SMILES IDX 39 75 40 76 44 77 41 78 43 79 42 80 61 81 62 82 66 83 63 84
REMARK SMILES IDX 65 85 64 86 51 87 52 88 56 89 53 90 55 91 54 92
REMARK H PARENT 71 60 49 71
REMARK Flexibility Score: inf
ROOT
ATOM      1  C   UNL     1       9.349  -2.685  10.037  1.00  0.00     0.188 C 
ENDROOT
BRANCH   1   2
ATOM      2  O   UNL     1      10.308  -3.113  10.979  1.00  0.00    -0.376 OA
BRANCH   2   3
ATOM      3  C   UNL     1       9.989  -3.191  12.358  1.00  0.00     0.202 C 
BRANCH   3   4
ATOM      4  C   UNL     1       8.909  -2.343  13.050  1.00  0.00     0.261 C 
BRANCH   4   5
ATOM      5  O   UNL     1       7.730  -2.069  12.288  1.00  0.00    -0.460 OA
BRANCH   5   6
ATOM      6  C   UNL     1       7.546  -0.769  11.943  1.00  0.00     0.338 C 
ATOM      7  O   UNL     1       8.261   0.173  12.247  1.00  0.00    -0.246 OA
BRANCH   6   8
ATOM      8  C   UNL     1       6.424  -0.644  10.981  1.00  0.00     0.060 A 
ATOM      9  C   UNL     1       4.292  -0.241   9.192  1.00  0.00     0.060 A 
ATOM     10  C   UNL     1       5.460   0.520   9.080  1.00  0.00     0.029 A 
ATOM     11  C   UNL     1       4.259  -1.284  10.130  1.00  0.00     0.029 A 
ATOM     12  C   UNL     1       6.519   0.326   9.974  1.00  0.00     0.018 A 
ATOM     13  C   UNL     1       5.305  -1.477  11.037  1.00  0.00     0.018 A 
BRANCH   9  14
ATOM     14  N   UNL     1       3.120   0.103   8.505  1.00  0.00    -0.257 N 
ATOM     15  C   UNL     1       2.211   0.948   6.766  1.00  0.00     0.071 C 
ATOM     16  N   UNL     1       3.114   0.096   7.142  1.00  0.00    -0.176 NA
ATOM     17  C   UNL     1       1.565   1.751   7.859  1.00  0.00     0.091 C 
ATOM     18  C   UNL     1       2.248   1.144   9.092  1.00  0.00     0.144 C 
BRANCH  15  19
ATOM     19  C   UNL     1       1.786   1.101   5.362  1.00  0.00    -0.002 A 
ATOM     20  C   UNL     1       0.865   1.285   2.735  1.00  0.00     0.067 A 
ATOM     21  C   UNL     1       1.083   0.027   3.303  1.00  0.00     0.021 A 
ATOM     22  C   UNL     1       1.113   2.450   3.473  1.00  0.00     0.021 A 
ATOM     23  C   UNL     1       1.558  -0.061   4.613  1.00  0.00     0.011 A 
ATOM     24  C   UNL     1       1.561   2.358   4.795  1.00  0.00     0.011 A 
BRANCH  20  25
ATOM     25  S   UNL     1       0.267   1.441   1.066  1.00  0.00     0.175 S 
ATOM     26  C   UNL     1       0.961   0.090   0.153  1.00  0.00     0.163 C 
ATOM     27  O   UNL     1       0.844   2.659   0.526  1.00  0.00    -0.224 OA
ATOM     28  O   UNL     1      -1.170   1.256   1.129  1.00  0.00    -0.224 OA
ENDBRANCH  20  25
ENDBRANCH  15  19
BRANCH  18  29
ATOM     29  C   UNL     1       1.365   0.569  10.198  1.00  0.00    -0.023 A 
ATOM     30  C   UNL     1       0.033   0.165  10.014  1.00  0.00     0.009 A 
ATOM     31  C   UNL     1       1.937   0.369  11.475  1.00  0.00     0.009 A 
ATOM     32  C   UNL     1      -0.684  -0.436  11.055  1.00  0.00     0.039 A 
ATOM     33  C   UNL     1       1.240  -0.279  12.496  1.00  0.00     0.039 A 
ATOM     34  C   UNL     1      -0.068  -0.674  12.276  1.00  0.00     0.123 A 
ATOM     35  F   UNL     1      -0.743  -1.298  13.250  1.00  0.00    -0.207 F 
ENDBRANCH  18  29
ENDBRANCH   9  14
ENDBRANCH   6   8
ENDBRANCH   5   6
ENDBRANCH   4   5
ENDBRANCH   3   4
ENDBRANCH   2   3
ENDBRANCH   1   2
BRANCH   1  36
ATOM     36  C   UNL     1       8.101  -3.550   9.762  1.00  0.00     0.188 C 
BRANCH  36  37
ATOM     37  O   UNL     1       7.810  -4.656  10.585  1.00  0.00    -0.376 OA
BRANCH  37  38
ATOM     38  C   UNL     1       8.660  -5.790  10.579  1.00  0.00     0.202 C 
BRANCH  38  39
ATOM     39  C   UNL     1       9.521  -6.230   9.381  1.00  0.00     0.261 C 
BRANCH  39  40
ATOM     40  O   UNL     1      10.056  -5.200   8.545  1.00  0.00    -0.460 OA
BRANCH  40  41
ATOM     41  C   UNL     1       9.509  -5.111   7.309  1.00  0.00     0.338 C 
ATOM     42  O   UNL     1       8.605  -5.789   6.839  1.00  0.00    -0.246 OA
BRANCH  41  43
ATOM     43  C   UNL     1      10.076  -3.939   6.624  1.00  0.00     0.060 A 
ATOM     44  C   UNL     1       9.266  -2.820   6.376  1.00  0.00     0.016 A 
ATOM     45  C   UNL     1      11.401  -3.969   6.196  1.00  0.00     0.016 A 
ATOM     46  C   UNL     1       9.784  -1.720   5.692  1.00  0.00     0.010 A 
ATOM     47  C   UNL     1      11.908  -2.882   5.485  1.00  0.00     0.010 A 
ATOM     48  C   UNL     1      11.098  -1.764   5.210  1.00  0.00    -0.014 A 
BRANCH  48  49
ATOM     49  C   UNL     1      11.596  -0.751   4.251  1.00  0.00     0.031 A 
ATOM     50  C   UNL     1      11.582  -1.103   2.790  1.00  0.00     0.074 A 
ATOM     51  C   UNL     1      12.118   0.416   4.668  1.00  0.00     0.049 A 
ATOM     52  N   UNL     1      12.153  -0.492   1.785  1.00  0.00    -0.248 NA
ATOM     53  C   UNL     1      10.837  -2.317   2.415  1.00  0.00     0.031 C 
ATOM     54  C   UNL     1      12.138   0.896   6.048  1.00  0.00     0.029 A 
ATOM     55  N   UNL     1      12.769   1.396   3.959  1.00  0.00    -0.354 N 
ATOM     56  C   UNL     1      11.870  -1.268   0.668  1.00  0.00     0.074 A 
ATOM     57  C   UNL     1      11.077  -2.392   1.115  1.00  0.00     0.031 C 
ATOM     58  C   UNL     1      12.801   2.066   6.091  1.00  0.00     0.029 A 
ATOM     59  C   UNL     1      13.296   2.387   4.753  1.00  0.00     0.049 A 
ATOM     60  H   UNL     1      12.851   1.390   2.978  1.00  0.00     0.167 HD
ATOM     61  C   UNL     1      12.250  -1.066  -0.614  1.00  0.00     0.031 A 
ATOM     62  C   UNL     1      14.122   3.405   4.439  1.00  0.00     0.031 A 
ATOM     63  C   UNL     1      13.037   0.053  -1.052  1.00  0.00     0.049 A 
ATOM     64  C   UNL     1      14.592   3.562   3.013  1.00  0.00     0.074 A 
ATOM     65  C   UNL     1      13.443   0.364  -2.338  1.00  0.00     0.029 A 
ATOM     66  N   UNL     1      13.545   1.034  -0.218  1.00  0.00    -0.354 N 
ATOM     67  N   UNL     1      14.291   2.846   1.956  1.00  0.00    -0.248 NA
ATOM     68  C   UNL     1      15.520   4.671   2.735  1.00  0.00     0.031 C 
ATOM     69  C   UNL     1      14.254   1.499  -2.272  1.00  0.00     0.029 A 
ATOM     70  C   UNL     1      14.288   1.936  -0.958  1.00  0.00     0.049 A 
ATOM     71  H   UNL     1      13.399   1.083   0.754  1.00  0.00     0.167 HD
ATOM     72  C   UNL     1      14.950   3.446   0.888  1.00  0.00     0.074 A 
ATOM     73  C   UNL     1      15.664   4.585   1.420  1.00  0.00     0.031 C 
ATOM     74  C   UNL     1      14.961   3.087  -0.418  1.00  0.00     0.031 A 
BRANCH  61  75
ATOM     75  C   UNL     1      11.863  -2.095  -1.636  1.00  0.00    -0.014 A 
ATOM     76  C   UNL     1      10.542  -2.218  -2.091  1.00  0.00     0.009 A 
ATOM     77  C   UNL     1      12.861  -2.897  -2.214  1.00  0.00     0.009 A 
ATOM     78  C   UNL     1      10.226  -3.135  -3.095  1.00  0.00     0.001 A 
ATOM     79  C   UNL     1      12.547  -3.792  -3.237  1.00  0.00     0.001 A 
ATOM     80  C   UNL     1      11.229  -3.913  -3.674  1.00  0.00     0.000 A 
ENDBRANCH  61  75
BRANCH  62  81
ATOM     81  C   UNL     1      14.618   4.337   5.490  1.00  0.00    -0.014 A 
ATOM     82  C   UNL     1      14.280   5.699   5.458  1.00  0.00     0.009 A 
ATOM     83  C   UNL     1      15.495   3.884   6.489  1.00  0.00     0.009 A 
ATOM     84  C   UNL     1      14.846   6.594   6.370  1.00  0.00     0.001 A 
ATOM     85  C   UNL     1      16.030   4.774   7.423  1.00  0.00     0.001 A 
ATOM     86  C   UNL     1      15.719   6.131   7.352  1.00  0.00     0.000 A 
ENDBRANCH  62  81
BRANCH  74  87
ATOM     87  C   UNL     1      15.692   3.973  -1.388  1.00  0.00    -0.014 A 
ATOM     88  C   UNL     1      17.093   4.012  -1.441  1.00  0.00     0.009 A 
ATOM     89  C   UNL     1      14.954   4.710  -2.330  1.00  0.00     0.009 A 
ATOM     90  C   UNL     1      17.739   4.789  -2.405  1.00  0.00     0.001 A 
ATOM     91  C   UNL     1      15.602   5.459  -3.312  1.00  0.00     0.001 A 
ATOM     92  C   UNL     1      16.994   5.503  -3.344  1.00  0.00     0.000 A 
ENDBRANCH  74  87
ENDBRANCH  48  49
ENDBRANCH  41  43
ENDBRANCH  40  41
ENDBRANCH  39  40
ENDBRANCH  38  39
ENDBRANCH  37  38
ENDBRANCH  36  37
ENDBRANCH   1  36
TORSDOF 21
