REMARK SMILES CC[C@@H]1CCCN1C(=O)N(CC(=O)OCCOCCOCCOC(=O)c1ccc(-c2c3nc(c(-c4ccccc4)c4ccc([nH]4)c(-c4ccccc4)c4nc(c(-c5ccccc5)c5ccc2[nH]5)C=C4)C=C3)cc1)CC(F)(F)F
REMARK SMILES IDX 18 1 17 2 16 3 15 4 14 5 12 6 13 7 11 8 10 9 8 10 9 11 7 12
REMARK SMILES IDX 3 13 4 14 5 15 6 16 2 17 1 18 74 19 75 20 76 21 77 22 78 23
REMARK SMILES IDX 19 24 20 25 21 26 22 27 23 28 24 29 25 30 26 31 27 32 73 33
REMARK SMILES IDX 28 34 72 35 29 36 30 37 31 38 66 39 32 40 71 41 65 42 67 43
REMARK SMILES IDX 33 44 70 45 64 46 63 47 34 49 56 50 41 51 55 52 42 53 45 54
REMARK SMILES IDX 54 55 68 56 43 57 44 58 53 60 69 61 46 62 35 63 36 64 40 65
REMARK SMILES IDX 37 66 39 67 38 68 57 69 58 70 62 71 59 72 61 73 60 74 47 75
REMARK SMILES IDX 48 76 52 77 49 78 51 79 50 80
REMARK H PARENT 67 48 45 59
REMARK Flexibility Score: inf
ROOT
ATOM      1  C   UNL     1      -3.167  -1.065   3.369  1.00  0.00     0.188 C 
ENDROOT
BRANCH   1   2
ATOM      2  O   UNL     1      -2.185  -1.895   3.985  1.00  0.00    -0.376 OA
BRANCH   2   3
ATOM      3  C   UNL     1      -0.952  -1.319   4.395  1.00  0.00     0.202 C 
BRANCH   3   4
ATOM      4  C   UNL     1      -0.043  -0.823   3.269  1.00  0.00     0.261 C 
BRANCH   4   5
ATOM      5  O   UNL     1      -0.579   0.276   2.495  1.00  0.00    -0.462 OA
BRANCH   5   6
ATOM      6  C   UNL     1      -0.931   0.025   1.206  1.00  0.00     0.325 C 
ATOM      7  O   UNL     1      -0.926  -1.094   0.701  1.00  0.00    -0.250 OA
BRANCH   6   8
ATOM      8  C   UNL     1      -1.302   1.278   0.371  1.00  0.00     0.244 C 
BRANCH   8   9
ATOM      9  N   UNL     1      -1.453   2.636   0.916  1.00  0.00    -0.304 N 
BRANCH   9  10
ATOM     10  C   UNL     1      -0.615   3.715   0.797  1.00  0.00     0.321 C 
ATOM     11  O   UNL     1      -1.111   4.830   1.022  1.00  0.00    -0.248 OA
BRANCH  10  12
ATOM     12  N   UNL     1       0.699   3.674   0.432  1.00  0.00    -0.322 N 
ATOM     13  C   UNL     1       1.696   2.663   0.015  1.00  0.00     0.086 C 
ATOM     14  C   UNL     1       3.027   3.436   0.079  1.00  0.00     0.027 C 
ATOM     15  C   UNL     1       2.657   4.829  -0.357  1.00  0.00     0.024 C 
ATOM     16  C   UNL     1       1.294   5.010   0.275  1.00  0.00     0.122 C 
BRANCH  13  17
ATOM     17  C   UNL     1       1.886   1.407   0.860  1.00  0.00     0.022 C 
ATOM     18  C   UNL     1       1.968   0.154  -0.010  1.00  0.00     0.006 C 
ENDBRANCH  13  17
ENDBRANCH  10  12
ENDBRANCH   9  10
BRANCH   9  19
ATOM     19  C   UNL     1      -2.844   3.024   1.299  1.00  0.00     0.237 C 
BRANCH  19  20
ATOM     20  C   UNL     1      -3.053   3.852   2.590  1.00  0.00     0.406 C 
ATOM     21  F   UNL     1      -3.286   5.160   2.357  1.00  0.00    -0.169 F 
ATOM     22  F   UNL     1      -4.159   3.383   3.225  1.00  0.00    -0.169 F 
ATOM     23  F   UNL     1      -2.030   3.733   3.462  1.00  0.00    -0.169 F 
ENDBRANCH  19  20
ENDBRANCH   9  19
ENDBRANCH   8   9
ENDBRANCH   6   8
ENDBRANCH   5   6
ENDBRANCH   4   5
ENDBRANCH   3   4
ENDBRANCH   2   3
ENDBRANCH   1   2
BRANCH   1  24
ATOM     24  C   UNL     1      -3.188   0.429   3.715  1.00  0.00     0.188 C 
BRANCH  24  25
ATOM     25  O   UNL     1      -2.897   0.642   5.080  1.00  0.00    -0.376 OA
BRANCH  25  26
ATOM     26  C   UNL     1      -3.814   1.445   5.793  1.00  0.00     0.202 C 
BRANCH  26  27
ATOM     27  C   UNL     1      -5.146   0.741   6.072  1.00  0.00     0.261 C 
BRANCH  27  28
ATOM     28  O   UNL     1      -5.747   0.063   4.949  1.00  0.00    -0.460 OA
BRANCH  28  29
ATOM     29  C   UNL     1      -6.399   0.806   4.032  1.00  0.00     0.338 C 
ATOM     30  O   UNL     1      -6.567   2.020   4.045  1.00  0.00    -0.246 OA
BRANCH  29  31
ATOM     31  C   UNL     1      -6.730  -0.066   2.883  1.00  0.00     0.060 A 
ATOM     32  C   UNL     1      -6.224   0.229   1.606  1.00  0.00     0.016 A 
ATOM     33  C   UNL     1      -7.560  -1.170   3.070  1.00  0.00     0.016 A 
ATOM     34  C   UNL     1      -6.573  -0.563   0.506  1.00  0.00     0.010 A 
ATOM     35  C   UNL     1      -7.928  -1.945   1.968  1.00  0.00     0.010 A 
ATOM     36  C   UNL     1      -7.466  -1.628   0.677  1.00  0.00    -0.014 A 
BRANCH  36  37
ATOM     37  C   UNL     1      -8.112  -2.294  -0.481  1.00  0.00     0.031 A 
ATOM     38  C   UNL     1      -9.514  -1.879  -0.834  1.00  0.00     0.074 A 
ATOM     39  C   UNL     1      -7.514  -3.291  -1.157  1.00  0.00     0.049 A 
ATOM     40  N   UNL     1     -10.384  -2.460  -1.618  1.00  0.00    -0.248 NA
ATOM     41  C   UNL     1     -10.003  -0.644  -0.197  1.00  0.00     0.031 C 
ATOM     42  C   UNL     1      -6.137  -3.741  -0.969  1.00  0.00     0.029 A 
ATOM     43  N   UNL     1      -8.017  -4.130  -2.122  1.00  0.00    -0.354 N 
ATOM     44  C   UNL     1     -11.535  -1.684  -1.537  1.00  0.00     0.074 A 
ATOM     45  C   UNL     1     -11.255  -0.599  -0.623  1.00  0.00     0.031 C 
ATOM     46  C   UNL     1      -5.913  -4.797  -1.772  1.00  0.00     0.029 A 
ATOM     47  C   UNL     1      -7.147  -5.131  -2.482  1.00  0.00     0.049 A 
ATOM     48  H   UNL     1      -8.912  -4.024  -2.517  1.00  0.00     0.167 HD
ATOM     49  C   UNL     1     -12.723  -1.868  -2.160  1.00  0.00     0.031 A 
ATOM     50  C   UNL     1      -7.343  -6.218  -3.256  1.00  0.00     0.031 A 
ATOM     51  C   UNL     1     -12.998  -2.957  -3.056  1.00  0.00     0.049 A 
ATOM     52  C   UNL     1      -8.701  -6.457  -3.866  1.00  0.00     0.074 A 
ATOM     53  C   UNL     1     -14.166  -3.233  -3.745  1.00  0.00     0.029 A 
ATOM     54  N   UNL     1     -12.093  -3.954  -3.383  1.00  0.00    -0.354 N 
ATOM     55  N   UNL     1      -9.788  -5.728  -3.780  1.00  0.00    -0.248 NA
ATOM     56  C   UNL     1      -8.861  -7.674  -4.678  1.00  0.00     0.031 C 
ATOM     57  C   UNL     1     -13.986  -4.431  -4.442  1.00  0.00     0.029 A 
ATOM     58  C   UNL     1     -12.683  -4.860  -4.246  1.00  0.00     0.049 A 
ATOM     59  H   UNL     1     -11.168  -4.010  -3.051  1.00  0.00     0.167 HD
ATOM     60  C   UNL     1     -10.743  -6.373  -4.559  1.00  0.00     0.074 A 
ATOM     61  C   UNL     1     -10.108  -7.551  -5.109  1.00  0.00     0.031 C 
ATOM     62  C   UNL     1     -12.029  -6.017  -4.801  1.00  0.00     0.031 A 
BRANCH  49  63
ATOM     63  C   UNL     1     -13.827  -0.896  -1.848  1.00  0.00    -0.014 A 
ATOM     64  C   UNL     1     -13.779   0.437  -2.287  1.00  0.00     0.009 A 
ATOM     65  C   UNL     1     -14.947  -1.331  -1.121  1.00  0.00     0.009 A 
ATOM     66  C   UNL     1     -14.812   1.323  -1.970  1.00  0.00     0.001 A 
ATOM     67  C   UNL     1     -15.992  -0.452  -0.835  1.00  0.00     0.001 A 
ATOM     68  C   UNL     1     -15.919   0.876  -1.250  1.00  0.00     0.000 A 
ENDBRANCH  49  63
BRANCH  50  69
ATOM     69  C   UNL     1      -6.239  -7.193  -3.471  1.00  0.00    -0.014 A 
ATOM     70  C   UNL     1      -5.657  -7.344  -4.739  1.00  0.00     0.009 A 
ATOM     71  C   UNL     1      -5.776  -7.996  -2.416  1.00  0.00     0.009 A 
ATOM     72  C   UNL     1      -4.654  -8.293  -4.952  1.00  0.00     0.001 A 
ATOM     73  C   UNL     1      -4.750  -8.922  -2.624  1.00  0.00     0.001 A 
ATOM     74  C   UNL     1      -4.197  -9.076  -3.894  1.00  0.00     0.000 A 
ENDBRANCH  50  69
BRANCH  62  75
ATOM     75  C   UNL     1     -12.822  -6.865  -5.757  1.00  0.00    -0.014 A 
ATOM     76  C   UNL     1     -13.293  -8.136  -5.400  1.00  0.00     0.009 A 
ATOM     77  C   UNL     1     -13.170  -6.338  -7.012  1.00  0.00     0.009 A 
ATOM     78  C   UNL     1     -14.078  -8.872  -6.291  1.00  0.00     0.001 A 
ATOM     79  C   UNL     1     -13.979  -7.062  -7.888  1.00  0.00     0.001 A 
ATOM     80  C   UNL     1     -14.427  -8.332  -7.529  1.00  0.00     0.000 A 
ENDBRANCH  62  75
ENDBRANCH  36  37
ENDBRANCH  29  31
ENDBRANCH  28  29
ENDBRANCH  27  28
ENDBRANCH  26  27
ENDBRANCH  25  26
ENDBRANCH  24  25
ENDBRANCH   1  24
TORSDOF 23
