REMARK SMILES CCCN1CCC[C@@]2(CCN(c3ccc(C(=O)OCCOCCOCCOC(=O)c4ccc(-c5c6nc(c(-c7ccccc7)c7ccc([nH]7)c(-c7ccccc7)c7nc(c(-c8ccccc8)c8ccc5[nH]8)C=C7)C=C6)cc4)cn3)C2)C1=O
REMARK SMILES IDX 22 1 21 2 20 3 19 4 18 5 16 6 17 7 15 8 12 9 13 10 79 11
REMARK SMILES IDX 14 12 78 13 11 14 4 15 5 16 81 17 6 18 8 19 82 20 7 21 9 22
REMARK SMILES IDX 80 23 10 24 3 25 2 26 1 27 23 28 24 29 25 30 26 31 27 32
REMARK SMILES IDX 28 33 29 34 30 35 31 36 77 37 32 38 76 39 33 40 34 41 35 42
REMARK SMILES IDX 70 43 36 44 75 45 69 46 71 47 37 48 74 49 68 50 67 51 38 53
REMARK SMILES IDX 60 54 45 55 59 56 46 57 49 58 58 59 72 60 47 61 48 62 57 64
REMARK SMILES IDX 73 65 50 66 39 67 40 68 44 69 41 70 43 71 42 72 61 73 62 74
REMARK SMILES IDX 66 75 63 76 65 77 64 78 51 79 52 80 56 81 53 82 55 83 54 84
REMARK H PARENT 71 52 49 63
REMARK Flexibility Score: inf
ROOT
ATOM      1  C   UNL     1       2.509  -0.409 -12.930  1.00  0.00     0.188 C 
ENDROOT
BRANCH   1   2
ATOM      2  O   UNL     1       3.656  -0.012 -13.675  1.00  0.00    -0.376 OA
BRANCH   2   3
ATOM      3  C   UNL     1       4.868  -0.749 -13.569  1.00  0.00     0.202 C 
BRANCH   3   4
ATOM      4  C   UNL     1       5.512  -0.920 -12.187  1.00  0.00     0.261 C 
BRANCH   4   5
ATOM      5  O   UNL     1       4.636  -1.468 -11.189  1.00  0.00    -0.460 OA
BRANCH   5   6
ATOM      6  C   UNL     1       4.294  -0.620 -10.182  1.00  0.00     0.339 C 
ATOM      7  O   UNL     1       4.685   0.512 -10.009  1.00  0.00    -0.246 OA
BRANCH   6   8
ATOM      8  C   UNL     1       3.213  -1.224  -9.380  1.00  0.00     0.078 A 
ATOM      9  C   UNL     1       1.119  -2.136  -7.834  1.00  0.00     0.128 A 
ATOM     10  C   UNL     1       2.123  -3.020  -8.245  1.00  0.00     0.048 A 
ATOM     11  N   UNL     1       1.113  -0.849  -8.229  1.00  0.00    -0.238 NA
ATOM     12  C   UNL     1       3.176  -2.569  -9.038  1.00  0.00     0.021 A 
ATOM     13  C   UNL     1       2.167  -0.413  -8.965  1.00  0.00     0.129 A 
BRANCH   9  14
ATOM     14  N   UNL     1       0.209  -2.570  -6.887  1.00  0.00    -0.356 N 
ATOM     15  N   UNL     1       0.575  -1.249  -2.779  1.00  0.00    -0.342 N 
ATOM     16  C   UNL     1       0.809  -2.407  -1.928  1.00  0.00     0.119 C 
ATOM     17  C   UNL     1      -0.366  -1.294  -3.805  1.00  0.00     0.230 C 
ATOM     18  C   UNL     1       0.817  -3.723  -2.686  1.00  0.00     0.023 C 
ATOM     19  C   UNL     1      -0.430  -2.622  -4.573  1.00  0.00     0.069 C 
ATOM     20  O   UNL     1      -0.999  -0.301  -4.160  1.00  0.00    -0.274 OA
ATOM     21  C   UNL     1      -0.401  -3.808  -3.602  1.00  0.00     0.021 C 
ATOM     22  C   UNL     1      -1.649  -2.663  -5.517  1.00  0.00     0.040 C 
ATOM     23  C   UNL     1       0.778  -2.662  -5.540  1.00  0.00     0.135 C 
ATOM     24  C   UNL     1      -1.132  -2.015  -6.807  1.00  0.00     0.119 C 
BRANCH  15  25
ATOM     25  C   UNL     1       1.099   0.053  -2.367  1.00  0.00     0.119 C 
BRANCH  25  26
ATOM     26  C   UNL     1       0.426   0.685  -1.149  1.00  0.00     0.018 C 
ATOM     27  C   UNL     1       0.950   0.151   0.177  1.00  0.00     0.006 C 
ENDBRANCH  25  26
ENDBRANCH  15  25
ENDBRANCH   9  14
ENDBRANCH   6   8
ENDBRANCH   5   6
ENDBRANCH   4   5
ENDBRANCH   3   4
ENDBRANCH   2   3
ENDBRANCH   1   2
BRANCH   1  28
ATOM     28  C   UNL     1       2.137  -1.903 -12.815  1.00  0.00     0.188 C 
BRANCH  28  29
ATOM     29  O   UNL     1       2.960  -2.746 -13.592  1.00  0.00    -0.376 OA
BRANCH  29  30
ATOM     30  C   UNL     1       2.414  -3.320 -14.766  1.00  0.00     0.202 C 
BRANCH  30  31
ATOM     31  C   UNL     1       1.705  -2.446 -15.816  1.00  0.00     0.261 C 
BRANCH  31  32
ATOM     32  O   UNL     1       0.922  -1.344 -15.336  1.00  0.00    -0.460 OA
BRANCH  32  33
ATOM     33  C   UNL     1      -0.357  -1.596 -14.978  1.00  0.00     0.338 C 
ATOM     34  O   UNL     1      -0.921  -2.674 -14.966  1.00  0.00    -0.246 OA
BRANCH  33  35
ATOM     35  C   UNL     1      -0.931  -0.340 -14.447  1.00  0.00     0.060 A 
ATOM     36  C   UNL     1      -1.282  -0.269 -13.094  1.00  0.00     0.016 A 
ATOM     37  C   UNL     1      -1.121   0.764 -15.284  1.00  0.00     0.016 A 
ATOM     38  C   UNL     1      -1.845   0.902 -12.578  1.00  0.00     0.010 A 
ATOM     39  C   UNL     1      -1.700   1.929 -14.770  1.00  0.00     0.010 A 
ATOM     40  C   UNL     1      -2.089   1.996 -13.420  1.00  0.00    -0.014 A 
BRANCH  40  41
ATOM     41  C   UNL     1      -2.875   3.156 -12.929  1.00  0.00     0.031 A 
ATOM     42  C   UNL     1      -4.345   3.225 -13.247  1.00  0.00     0.074 A 
ATOM     43  C   UNL     1      -2.300   4.135 -12.208  1.00  0.00     0.049 A 
ATOM     44  N   UNL     1      -5.216   4.156 -12.951  1.00  0.00    -0.248 NA
ATOM     45  C   UNL     1      -4.905   2.092 -14.001  1.00  0.00     0.031 C 
ATOM     46  C   UNL     1      -0.897   4.176 -11.801  1.00  0.00     0.029 A 
ATOM     47  N   UNL     1      -2.835   5.292 -11.695  1.00  0.00    -0.354 N 
ATOM     48  C   UNL     1      -6.423   3.724 -13.487  1.00  0.00     0.074 A 
ATOM     49  C   UNL     1      -6.167   2.464 -14.149  1.00  0.00     0.031 C 
ATOM     50  C   UNL     1      -0.678   5.308 -11.108  1.00  0.00     0.029 A 
ATOM     51  C   UNL     1      -1.916   6.083 -11.049  1.00  0.00     0.049 A 
ATOM     52  H   UNL     1      -3.786   5.531 -11.783  1.00  0.00     0.167 HD
ATOM     53  C   UNL     1      -7.638   4.320 -13.430  1.00  0.00     0.031 A 
ATOM     54  C   UNL     1      -2.054   7.303 -10.493  1.00  0.00     0.031 A 
ATOM     55  C   UNL     1      -7.896   5.581 -12.787  1.00  0.00     0.049 A 
ATOM     56  C   UNL     1      -3.401   7.980 -10.509  1.00  0.00     0.074 A 
ATOM     57  C   UNL     1      -9.100   6.252 -12.658  1.00  0.00     0.029 A 
ATOM     58  N   UNL     1      -6.932   6.366 -12.175  1.00  0.00    -0.354 N 
ATOM     59  N   UNL     1      -4.542   7.544 -10.985  1.00  0.00    -0.248 NA
ATOM     60  C   UNL     1      -3.476   9.318  -9.902  1.00  0.00     0.031 C 
ATOM     61  C   UNL     1      -8.854   7.473 -12.021  1.00  0.00     0.029 A 
ATOM     62  C   UNL     1      -7.508   7.532 -11.697  1.00  0.00     0.049 A 
ATOM     63  H   UNL     1      -5.980   6.131 -12.092  1.00  0.00     0.167 HD
ATOM     64  C   UNL     1      -5.473   8.539 -10.710  1.00  0.00     0.074 A 
ATOM     65  C   UNL     1      -4.768   9.593 -10.011  1.00  0.00     0.031 C 
ATOM     66  C   UNL     1      -6.795   8.576 -11.008  1.00  0.00     0.031 A 
BRANCH  53  67
ATOM     67  C   UNL     1      -8.781   3.627 -14.116  1.00  0.00    -0.014 A 
ATOM     68  C   UNL     1      -9.343   2.451 -13.593  1.00  0.00     0.009 A 
ATOM     69  C   UNL     1      -9.329   4.181 -15.284  1.00  0.00     0.009 A 
ATOM     70  C   UNL     1     -10.411   1.829 -14.244  1.00  0.00     0.001 A 
ATOM     71  C   UNL     1     -10.414   3.572 -15.916  1.00  0.00     0.001 A 
ATOM     72  C   UNL     1     -10.948   2.393 -15.401  1.00  0.00     0.000 A 
ENDBRANCH  53  67
BRANCH  54  73
ATOM     73  C   UNL     1      -0.879   7.988  -9.892  1.00  0.00    -0.014 A 
ATOM     74  C   UNL     1      -0.802   8.202  -8.507  1.00  0.00     0.009 A 
ATOM     75  C   UNL     1       0.157   8.466 -10.710  1.00  0.00     0.009 A 
ATOM     76  C   UNL     1       0.274   8.905  -7.958  1.00  0.00     0.001 A 
ATOM     77  C   UNL     1       1.246   9.142 -10.155  1.00  0.00     0.001 A 
ATOM     78  C   UNL     1       1.298   9.370  -8.781  1.00  0.00     0.000 A 
ENDBRANCH  54  73
BRANCH  66  79
ATOM     79  C   UNL     1      -7.573   9.781 -10.553  1.00  0.00    -0.014 A 
ATOM     80  C   UNL     1      -7.403  11.034 -11.162  1.00  0.00     0.009 A 
ATOM     81  C   UNL     1      -8.517   9.649  -9.522  1.00  0.00     0.009 A 
ATOM     82  C   UNL     1      -8.137  12.138 -10.722  1.00  0.00     0.001 A 
ATOM     83  C   UNL     1      -9.271  10.748  -9.106  1.00  0.00     0.001 A 
ATOM     84  C   UNL     1      -9.073  11.993  -9.698  1.00  0.00     0.000 A 
ENDBRANCH  66  79
ENDBRANCH  40  41
ENDBRANCH  33  35
ENDBRANCH  32  33
ENDBRANCH  31  32
ENDBRANCH  30  31
ENDBRANCH  29  30
ENDBRANCH  28  29
ENDBRANCH   1  28
TORSDOF 20
