REMARK SMILES Cc1cc(F)cc(N[C@H](C(=O)OCCOCCOCCOC(=O)c2ccc(-c3c4nc(c(-c5ccccc5)c5ccc([nH]5)c(-c5ccccc5)c5nc(c(-c6ccccc6)c6ccc3[nH]6)C=C5)C=C4)cc2)c2cc(C)cc(C)c2)c1
REMARK SMILES IDX 16 1 15 2 14 3 13 4 12 5 10 6 11 7 9 8 8 9 7 11 1 12 2 13
REMARK SMILES IDX 3 14 80 15 4 16 5 17 6 18 72 19 73 20 79 21 74 22 77 23
REMARK SMILES IDX 75 24 76 25 78 26 17 27 18 28 19 29 20 30 21 31 22 32 23 33
REMARK SMILES IDX 24 34 25 35 71 36 26 37 70 38 27 39 28 40 29 41 64 42 30 43
REMARK SMILES IDX 69 44 63 45 65 46 31 47 68 48 62 49 61 50 32 52 54 53 39 54
REMARK SMILES IDX 53 55 40 56 43 57 52 58 66 59 41 60 42 61 51 63 67 64 44 65
REMARK SMILES IDX 33 66 34 67 38 68 35 69 37 70 36 71 55 72 56 73 60 74 57 75
REMARK SMILES IDX 59 76 58 77 45 78 46 79 50 80 47 81 49 82 48 83
REMARK H PARENT 8 10 65 51 43 62
REMARK Flexibility Score: inf
ROOT
ATOM      1  C   UNL     1       0.865  -1.102  -0.150  1.00  0.00     0.188 C 
ENDROOT
BRANCH   1   2
ATOM      2  O   UNL     1       2.209  -0.886  -0.539  1.00  0.00    -0.376 OA
BRANCH   2   3
ATOM      3  C   UNL     1       3.116  -1.962  -0.327  1.00  0.00     0.202 C 
BRANCH   3   4
ATOM      4  C   UNL     1       2.829  -3.259  -1.100  1.00  0.00     0.261 C 
BRANCH   4   5
ATOM      5  O   UNL     1       1.530  -3.832  -0.880  1.00  0.00    -0.461 OA
BRANCH   5   6
ATOM      6  C   UNL     1       1.262  -4.259   0.391  1.00  0.00     0.333 C 
ATOM      7  O   UNL     1       2.058  -4.136   1.314  1.00  0.00    -0.249 OA
BRANCH   6   8
ATOM      8  C   UNL     1      -0.209  -4.741   0.501  1.00  0.00     0.221 C 
BRANCH   8   9
ATOM      9  N   UNL     1      -0.608  -5.589  -0.651  1.00  0.00    -0.369 N 
ATOM     10  H   UNL     1      -1.355  -5.259  -1.200  1.00  0.00     0.161 HD
BRANCH   9  11
ATOM     11  C   UNL     1      -0.042  -6.794  -1.039  1.00  0.00     0.038 A 
ATOM     12  C   UNL     1      -0.240  -9.214  -4.017  1.00  0.00     0.044 C 
ATOM     13  C   UNL     1       0.125  -8.611  -2.695  1.00  0.00    -0.046 A 
ATOM     14  C   UNL     1       0.977  -9.322  -1.849  1.00  0.00     0.042 A 
ATOM     15  C   UNL     1      -0.396  -7.368  -2.273  1.00  0.00     0.029 A 
ATOM     16  C   UNL     1       1.320  -8.775  -0.632  1.00  0.00     0.125 A 
ATOM     17  F   UNL     1       2.132  -9.443   0.198  1.00  0.00    -0.207 F 
ATOM     18  C   UNL     1       0.835  -7.532  -0.249  1.00  0.00     0.065 A 
ENDBRANCH   9  11
ENDBRANCH   8   9
BRANCH   8  19
ATOM     19  C   UNL     1      -0.614  -5.342   1.844  1.00  0.00    -0.014 A 
ATOM     20  C   UNL     1       0.306  -6.070   2.607  1.00  0.00     0.010 A 
ATOM     21  C   UNL     1      -1.935  -5.266   2.318  1.00  0.00     0.010 A 
ATOM     22  C   UNL     1      -0.091  -6.895   3.653  1.00  0.00    -0.051 A 
ATOM     23  C   UNL     1      -2.318  -5.955   3.482  1.00  0.00    -0.051 A 
ATOM     24  C   UNL     1       0.867  -7.950   4.116  1.00  0.00     0.044 C 
ATOM     25  C   UNL     1      -1.405  -6.821   4.102  1.00  0.00     0.006 A 
ATOM     26  C   UNL     1      -3.704  -5.835   4.043  1.00  0.00     0.044 C 
ENDBRANCH   8  19
ENDBRANCH   6   8
ENDBRANCH   5   6
ENDBRANCH   4   5
ENDBRANCH   3   4
ENDBRANCH   2   3
ENDBRANCH   1   2
BRANCH   1  27
ATOM     27  C   UNL     1      -0.114  -1.344  -1.321  1.00  0.00     0.188 C 
BRANCH  27  28
ATOM     28  O   UNL     1       0.344  -1.345  -2.663  1.00  0.00    -0.376 OA
BRANCH  28  29
ATOM     29  C   UNL     1       1.298  -0.377  -3.077  1.00  0.00     0.202 C 
BRANCH  29  30
ATOM     30  C   UNL     1       1.056   1.120  -2.804  1.00  0.00     0.261 C 
BRANCH  30  31
ATOM     31  O   UNL     1       0.592   1.465  -1.486  1.00  0.00    -0.460 OA
BRANCH  31  32
ATOM     32  C   UNL     1      -0.697   1.860  -1.396  1.00  0.00     0.338 C 
ATOM     33  O   UNL     1      -1.506   1.967  -2.313  1.00  0.00    -0.246 OA
BRANCH  32  34
ATOM     34  C   UNL     1      -1.095   1.993   0.020  1.00  0.00     0.060 A 
ATOM     35  C   UNL     1      -2.113   1.162   0.509  1.00  0.00     0.016 A 
ATOM     36  C   UNL     1      -0.530   2.970   0.842  1.00  0.00     0.016 A 
ATOM     37  C   UNL     1      -2.590   1.320   1.810  1.00  0.00     0.010 A 
ATOM     38  C   UNL     1      -1.029   3.146   2.140  1.00  0.00     0.010 A 
ATOM     39  C   UNL     1      -2.083   2.345   2.618  1.00  0.00    -0.014 A 
BRANCH  39  40
ATOM     40  C   UNL     1      -2.784   2.696   3.880  1.00  0.00     0.031 A 
ATOM     41  C   UNL     1      -3.757   3.845   3.870  1.00  0.00     0.074 A 
ATOM     42  C   UNL     1      -2.592   1.991   5.009  1.00  0.00     0.049 A 
ATOM     43  N   UNL     1      -4.460   4.348   4.853  1.00  0.00    -0.248 NA
ATOM     44  C   UNL     1      -3.962   4.517   2.576  1.00  0.00     0.031 C 
ATOM     45  C   UNL     1      -1.723   0.824   5.144  1.00  0.00     0.029 A 
ATOM     46  N   UNL     1      -3.122   2.165   6.265  1.00  0.00    -0.354 N 
ATOM     47  C   UNL     1      -5.181   5.399   4.300  1.00  0.00     0.074 A 
ATOM     48  C   UNL     1      -4.809   5.481   2.904  1.00  0.00     0.031 C 
ATOM     49  C   UNL     1      -1.772   0.391   6.417  1.00  0.00     0.029 A 
ATOM     50  C   UNL     1      -2.647   1.269   7.191  1.00  0.00     0.049 A 
ATOM     51  H   UNL     1      -3.779   2.866   6.480  1.00  0.00     0.167 HD
ATOM     52  C   UNL     1      -6.077   6.222   4.896  1.00  0.00     0.031 A 
ATOM     53  C   UNL     1      -2.877   1.182   8.517  1.00  0.00     0.031 A 
ATOM     54  C   UNL     1      -6.437   6.157   6.287  1.00  0.00     0.049 A 
ATOM     55  C   UNL     1      -3.811   2.164   9.176  1.00  0.00     0.074 A 
ATOM     56  C   UNL     1      -7.342   6.941   6.981  1.00  0.00     0.029 A 
ATOM     57  N   UNL     1      -5.901   5.262   7.200  1.00  0.00    -0.354 N 
ATOM     58  N   UNL     1      -4.505   3.138   8.638  1.00  0.00    -0.248 NA
ATOM     59  C   UNL     1      -4.000   2.025  10.628  1.00  0.00     0.031 C 
ATOM     60  C   UNL     1      -7.308   6.562   8.326  1.00  0.00     0.029 A 
ATOM     61  C   UNL     1      -6.436   5.493   8.456  1.00  0.00     0.049 A 
ATOM     62  H   UNL     1      -5.239   4.565   6.987  1.00  0.00     0.167 HD
ATOM     63  C   UNL     1      -5.240   3.700   9.676  1.00  0.00     0.074 A 
ATOM     64  C   UNL     1      -4.916   2.952  10.872  1.00  0.00     0.031 C 
ATOM     65  C   UNL     1      -6.111   4.739   9.640  1.00  0.00     0.031 A 
BRANCH  52  66
ATOM     66  C   UNL     1      -6.701   7.295   4.047  1.00  0.00    -0.014 A 
ATOM     67  C   UNL     1      -7.629   6.987   3.039  1.00  0.00     0.009 A 
ATOM     68  C   UNL     1      -6.377   8.641   4.281  1.00  0.00     0.009 A 
ATOM     69  C   UNL     1      -8.190   8.001   2.260  1.00  0.00     0.001 A 
ATOM     70  C   UNL     1      -6.963   9.655   3.521  1.00  0.00     0.001 A 
ATOM     71  C   UNL     1      -7.860   9.334   2.505  1.00  0.00     0.000 A 
ENDBRANCH  52  66
BRANCH  53  72
ATOM     72  C   UNL     1      -2.197   0.134   9.326  1.00  0.00    -0.014 A 
ATOM     73  C   UNL     1      -2.930  -0.911   9.909  1.00  0.00     0.009 A 
ATOM     74  C   UNL     1      -0.812   0.193   9.546  1.00  0.00     0.009 A 
ATOM     75  C   UNL     1      -2.296  -1.857  10.717  1.00  0.00     0.001 A 
ATOM     76  C   UNL     1      -0.175  -0.773  10.328  1.00  0.00     0.001 A 
ATOM     77  C   UNL     1      -0.918  -1.790  10.922  1.00  0.00     0.000 A 
ENDBRANCH  53  72
BRANCH  65  78
ATOM     78  C   UNL     1      -6.822   5.096  10.918  1.00  0.00    -0.014 A 
ATOM     79  C   UNL     1      -6.149   5.697  11.993  1.00  0.00     0.009 A 
ATOM     80  C   UNL     1      -8.203   4.866  11.026  1.00  0.00     0.009 A 
ATOM     81  C   UNL     1      -6.838   6.023  13.164  1.00  0.00     0.001 A 
ATOM     82  C   UNL     1      -8.895   5.224  12.184  1.00  0.00     0.001 A 
ATOM     83  C   UNL     1      -8.210   5.792  13.256  1.00  0.00     0.000 A 
ENDBRANCH  65  78
ENDBRANCH  39  40
ENDBRANCH  32  34
ENDBRANCH  31  32
ENDBRANCH  30  31
ENDBRANCH  29  30
ENDBRANCH  28  29
ENDBRANCH  27  28
ENDBRANCH   1  27
TORSDOF 20
