REMARK SMILES O=C(OCCOCCOCCOC(=O)[C@@H](c1cccc(O)c1)[NH+]1CC[NH+](C2CCCC2)CC1)c1ccc(-c2c3nc(c(-c4ccccc4)c4ccc([nH]4)c(-c4ccccc4)c4nc(c(-c5ccccc5)c5ccc2[nH]5)C=C4)C=C3)cc1
REMARK SMILES IDX 7 1 6 2 5 3 4 4 3 5 2 6 1 7 34 8 35 9 81 10 36 11 80 12
REMARK SMILES IDX 37 13 38 14 39 15 74 16 40 17 79 18 73 19 75 20 41 21 78 22
REMARK SMILES IDX 72 23 71 24 42 26 64 27 49 28 63 29 50 30 53 31 62 32 76 33
REMARK SMILES IDX 51 34 52 35 61 37 77 38 54 39 43 40 44 41 48 42 45 43 47 44
REMARK SMILES IDX 46 45 65 46 66 47 70 48 67 49 69 50 68 51 55 52 56 53 60 54
REMARK SMILES IDX 57 55 59 56 58 57 8 58 9 59 10 60 11 61 12 62 13 63 14 64
REMARK SMILES IDX 15 65 16 66 17 67 22 68 18 69 20 70 19 71 21 72 23 74 24 75
REMARK SMILES IDX 33 76 25 78 32 79 26 80 27 82 28 83 31 84 29 85 30 86
REMARK H PARENT 75 25 53 36 21 73 23 77 26 81
REMARK Flexibility Score: inf
ROOT
ATOM      1  C   UNL     1       2.436  -0.909  -1.589  1.00  0.00     0.188 C 
ENDROOT
BRANCH   1   2
ATOM      2  O   UNL     1       3.732  -0.322  -1.377  1.00  0.00    -0.376 OA
BRANCH   2   3
ATOM      3  C   UNL     1       4.771  -1.300  -1.236  1.00  0.00     0.202 C 
BRANCH   3   4
ATOM      4  C   UNL     1       4.895  -1.930   0.158  1.00  0.00     0.261 C 
BRANCH   4   5
ATOM      5  O   UNL     1       3.667  -1.908   0.891  1.00  0.00    -0.460 OA
BRANCH   5   6
ATOM      6  C   UNL     1       3.173  -0.912   1.663  1.00  0.00     0.338 C 
ATOM      7  O   UNL     1       2.039  -1.044   2.114  1.00  0.00    -0.246 OA
BRANCH   6   8
ATOM      8  C   UNL     1       3.920   0.335   2.037  1.00  0.00     0.060 A 
ATOM      9  C   UNL     1       4.968   0.937   1.332  1.00  0.00     0.016 A 
ATOM     10  C   UNL     1       3.413   1.025   3.152  1.00  0.00     0.016 A 
ATOM     11  C   UNL     1       5.542   2.144   1.758  1.00  0.00     0.010 A 
ATOM     12  C   UNL     1       3.916   2.275   3.523  1.00  0.00     0.010 A 
ATOM     13  C   UNL     1       5.025   2.822   2.862  1.00  0.00    -0.014 A 
BRANCH  13  14
ATOM     14  C   UNL     1       5.737   3.990   3.445  1.00  0.00     0.031 A 
ATOM     15  C   UNL     1       6.311   3.840   4.822  1.00  0.00     0.074 A 
ATOM     16  C   UNL     1       5.847   5.171   2.809  1.00  0.00     0.049 A 
ATOM     17  N   UNL     1       6.911   4.729   5.567  1.00  0.00    -0.248 NA
ATOM     18  C   UNL     1       6.115   2.535   5.474  1.00  0.00     0.031 C 
ATOM     19  C   UNL     1       5.260   5.481   1.514  1.00  0.00     0.029 A 
ATOM     20  N   UNL     1       6.474   6.341   3.172  1.00  0.00    -0.354 N 
ATOM     21  C   UNL     1       7.109   4.100   6.786  1.00  0.00     0.074 A 
ATOM     22  C   UNL     1       6.461   2.812   6.716  1.00  0.00     0.031 C 
ATOM     23  C   UNL     1       5.564   6.749   1.187  1.00  0.00     0.029 A 
ATOM     24  C   UNL     1       6.388   7.336   2.224  1.00  0.00     0.049 A 
ATOM     25  H   UNL     1       6.942   6.455   4.030  1.00  0.00     0.167 HD
ATOM     26  C   UNL     1       7.824   4.521   7.853  1.00  0.00     0.031 A 
ATOM     27  C   UNL     1       6.933   8.568   2.182  1.00  0.00     0.031 A 
ATOM     28  C   UNL     1       8.507   5.778   7.903  1.00  0.00     0.049 A 
ATOM     29  C   UNL     1       7.770   9.000   3.355  1.00  0.00     0.074 A 
ATOM     30  C   UNL     1       9.305   6.294   8.905  1.00  0.00     0.029 A 
ATOM     31  N   UNL     1       8.474   6.717   6.883  1.00  0.00    -0.354 N 
ATOM     32  N   UNL     1       8.053   8.341   4.452  1.00  0.00    -0.248 NA
ATOM     33  C   UNL     1       8.380  10.334   3.274  1.00  0.00     0.031 C 
ATOM     34  C   UNL     1       9.736   7.564   8.500  1.00  0.00     0.029 A 
ATOM     35  C   UNL     1       9.239   7.814   7.230  1.00  0.00     0.049 A 
ATOM     36  H   UNL     1       7.980   6.617   6.037  1.00  0.00     0.167 HD
ATOM     37  C   UNL     1       8.902   9.166   5.174  1.00  0.00     0.074 A 
ATOM     38  C   UNL     1       9.117  10.354   4.373  1.00  0.00     0.031 C 
ATOM     39  C   UNL     1       9.448   8.968   6.397  1.00  0.00     0.031 A 
BRANCH  26  40
ATOM     40  C   UNL     1       7.867   3.571   9.014  1.00  0.00    -0.014 A 
ATOM     41  C   UNL     1       8.516   2.327   8.900  1.00  0.00     0.009 A 
ATOM     42  C   UNL     1       7.115   3.845  10.163  1.00  0.00     0.009 A 
ATOM     43  C   UNL     1       8.326   1.341   9.868  1.00  0.00     0.001 A 
ATOM     44  C   UNL     1       6.962   2.870  11.150  1.00  0.00     0.001 A 
ATOM     45  C   UNL     1       7.543   1.612  10.989  1.00  0.00     0.000 A 
ENDBRANCH  26  40
BRANCH  27  46
ATOM     46  C   UNL     1       6.796   9.483   1.009  1.00  0.00    -0.014 A 
ATOM     47  C   UNL     1       7.932   9.823   0.250  1.00  0.00     0.009 A 
ATOM     48  C   UNL     1       5.582  10.117   0.707  1.00  0.00     0.009 A 
ATOM     49  C   UNL     1       7.872  10.819  -0.729  1.00  0.00     0.001 A 
ATOM     50  C   UNL     1       5.516  11.085  -0.304  1.00  0.00     0.001 A 
ATOM     51  C   UNL     1       6.663  11.446  -1.011  1.00  0.00     0.000 A 
ENDBRANCH  27  46
BRANCH  39  52
ATOM     52  C   UNL     1      10.368  10.039   6.896  1.00  0.00    -0.014 A 
ATOM     53  C   UNL     1       9.882  11.293   7.296  1.00  0.00     0.009 A 
ATOM     54  C   UNL     1      11.744   9.778   6.973  1.00  0.00     0.009 A 
ATOM     55  C   UNL     1      10.765  12.282   7.728  1.00  0.00     0.001 A 
ATOM     56  C   UNL     1      12.620  10.757   7.438  1.00  0.00     0.001 A 
ATOM     57  C   UNL     1      12.131  12.010   7.804  1.00  0.00     0.000 A 
ENDBRANCH  39  52
ENDBRANCH  13  14
ENDBRANCH   6   8
ENDBRANCH   5   6
ENDBRANCH   4   5
ENDBRANCH   3   4
ENDBRANCH   2   3
ENDBRANCH   1   2
BRANCH   1  58
ATOM     58  C   UNL     1       1.658  -0.259  -2.740  1.00  0.00     0.188 C 
BRANCH  58  59
ATOM     59  O   UNL     1       2.182  -0.429  -4.053  1.00  0.00    -0.376 OA
BRANCH  59  60
ATOM     60  C   UNL     1       3.523  -0.033  -4.286  1.00  0.00     0.202 C 
BRANCH  60  61
ATOM     61  C   UNL     1       3.896   1.451  -4.197  1.00  0.00     0.261 C 
BRANCH  61  62
ATOM     62  O   UNL     1       3.240   2.243  -3.198  1.00  0.00    -0.459 OA
BRANCH  62  63
ATOM     63  C   UNL     1       2.166   2.965  -3.652  1.00  0.00     0.369 C 
ATOM     64  O   UNL     1       1.569   2.698  -4.692  1.00  0.00    -0.245 OA
BRANCH  63  65
ATOM     65  C   UNL     1       1.919   4.279  -2.848  1.00  0.00     0.326 C 
BRANCH  65  66
ATOM     66  C   UNL     1       1.849   4.195  -1.315  1.00  0.00     0.025 A 
ATOM     67  C   UNL     1       2.013   3.017  -0.582  1.00  0.00     0.011 A 
ATOM     68  C   UNL     1       1.527   5.341  -0.561  1.00  0.00     0.056 A 
ATOM     69  C   UNL     1       1.893   3.005   0.812  1.00  0.00     0.004 A 
ATOM     70  C   UNL     1       1.590   5.355   0.830  1.00  0.00     0.116 A 
ATOM     71  C   UNL     1       1.749   4.183   1.533  1.00  0.00     0.046 A 
BRANCH  70  72
ATOM     72  O   UNL     1       1.523   6.555   1.470  1.00  0.00    -0.508 OA
ATOM     73  H   UNL     1       1.564   6.590   2.406  1.00  0.00     0.293 HD
ENDBRANCH  70  72
ENDBRANCH  65  66
BRANCH  65  74
ATOM     74  N   UNL     1       2.825   5.299  -3.451  1.00  0.00    -0.310 N 
ATOM     75  C   UNL     1       2.433   6.712  -3.367  1.00  0.00     0.325 C 
ATOM     76  C   UNL     1       4.260   5.116  -3.243  1.00  0.00     0.325 C 
ATOM     77  H   UNL     1       2.653   5.052  -4.426  1.00  0.00     0.349 HD
ATOM     78  C   UNL     1       3.198   7.631  -2.359  1.00  0.00     0.324 C 
ATOM     79  C   UNL     1       4.739   5.793  -1.971  1.00  0.00     0.324 C 
ATOM     80  N   UNL     1       4.569   7.241  -2.008  1.00  0.00    -0.323 N 
ATOM     81  H   UNL     1       4.704   7.527  -1.039  1.00  0.00     0.348 HD
BRANCH  80  82
ATOM     82  C   UNL     1       5.631   8.026  -2.619  1.00  0.00     0.184 C 
ATOM     83  C   UNL     1       7.057   7.475  -2.507  1.00  0.00     0.065 C 
ATOM     84  C   UNL     1       5.491   8.415  -4.094  1.00  0.00     0.065 C 
ATOM     85  C   UNL     1       7.845   8.378  -3.433  1.00  0.00     0.006 C 
ATOM     86  C   UNL     1       6.917   8.572  -4.623  1.00  0.00     0.006 C 
ENDBRANCH  80  82
ENDBRANCH  65  74
ENDBRANCH  63  65
ENDBRANCH  62  63
ENDBRANCH  61  62
ENDBRANCH  60  61
ENDBRANCH  59  60
ENDBRANCH  58  59
ENDBRANCH   1  58
TORSDOF 21
