REMARK SMILES C=CC[N@@H+](CC(=O)OCCOCCOCCOC(=O)c1ccc(-c2c3nc(c(-c4ccccc4)c4ccc([nH]4)c(-c4ccccc4)c4nc(c(-c5ccccc5)c5ccc2[nH]5)C=C4)C=C3)cc1)Cc1ccnc(C#N)c1
REMARK SMILES IDX 12 1 11 2 10 3 9 4 8 5 6 6 7 7 5 8 4 9 3 11 2 12 1 13 68 14
REMARK SMILES IDX 69 15 70 16 76 17 71 18 73 19 72 20 74 21 75 22 13 23 14 24
REMARK SMILES IDX 15 25 16 26 17 27 18 28 19 29 20 30 21 31 67 32 22 33 66 34
REMARK SMILES IDX 23 35 24 36 25 37 60 38 26 39 65 40 59 41 61 42 27 43 64 44
REMARK SMILES IDX 58 45 57 46 28 48 50 49 35 50 49 51 36 52 39 53 48 54 62 55
REMARK SMILES IDX 37 56 38 57 47 59 63 60 40 61 29 62 30 63 34 64 31 65 33 66
REMARK SMILES IDX 32 67 51 68 52 69 56 70 53 71 55 72 54 73 41 74 42 75 46 76
REMARK SMILES IDX 43 77 45 78 44 79
REMARK H PARENT 4 10 61 47 39 58
REMARK Flexibility Score: inf
ROOT
ATOM      1  C   UNL     1      -3.750   1.672   1.773  1.00  0.00     0.188 C 
ENDROOT
BRANCH   1   2
ATOM      2  O   UNL     1      -4.851   1.006   2.567  1.00  0.00    -0.376 OA
BRANCH   2   3
ATOM      3  C   UNL     1      -5.260  -0.315   2.216  1.00  0.00     0.202 C 
BRANCH   3   4
ATOM      4  C   UNL     1      -5.409  -0.856   0.763  1.00  0.00     0.261 C 
BRANCH   4   5
ATOM      5  O   UNL     1      -4.405  -0.570  -0.248  1.00  0.00    -0.459 OA
BRANCH   5   6
ATOM      6  C   UNL     1      -4.710   0.466  -1.094  1.00  0.00     0.361 C 
ATOM      7  O   UNL     1      -5.734   1.138  -0.992  1.00  0.00    -0.245 OA
BRANCH   6   8
ATOM      8  C   UNL     1      -3.710   0.701  -2.232  1.00  0.00     0.387 C 
BRANCH   8   9
ATOM      9  N   UNL     1      -2.305   1.006  -1.914  1.00  0.00    -0.319 N 
ATOM     10  H   UNL     1      -1.966   1.460  -2.762  1.00  0.00     0.349 HD
BRANCH   9  11
ATOM     11  C   UNL     1      -1.377  -0.114  -1.953  1.00  0.00     0.291 C 
BRANCH  11  12
ATOM     12  C   UNL     1       0.078   0.236  -1.763  1.00  0.00     0.025 C 
ATOM     13  C   UNL     1       0.846  -0.127  -0.725  1.00  0.00     0.010 C 
ENDBRANCH  11  12
ENDBRANCH   9  11
BRANCH   9  14
ATOM     14  C   UNL     1      -1.998   2.222  -1.177  1.00  0.00     0.299 C 
BRANCH  14  15
ATOM     15  C   UNL     1      -2.298   2.171   0.296  1.00  0.00     0.011 A 
ATOM     16  C   UNL     1      -3.070   3.586   1.109  1.00  0.00     0.030 A 
ATOM     17  C   UNL     1      -1.966   0.662   1.217  1.00  0.00     0.049 A 
ATOM     18  C   UNL     1      -3.548   3.431   2.824  1.00  0.00     0.113 A 
ATOM     19  C   UNL     1      -2.454   0.565   2.927  1.00  0.00     0.140 A 
ATOM     20  N   UNL     1      -3.205   1.947   3.741  1.00  0.00    -0.246 NA
BRANCH  19  21
ATOM     21  C   UNL     1      -2.223  -0.657   3.648  1.00  0.00     0.119 C 
ATOM     22  N   UNL     1      -2.031  -1.692   4.133  1.00  0.00    -0.191 NA
ENDBRANCH  19  21
ENDBRANCH  14  15
ENDBRANCH   9  14
ENDBRANCH   8   9
ENDBRANCH   6   8
ENDBRANCH   5   6
ENDBRANCH   4   5
ENDBRANCH   3   4
ENDBRANCH   2   3
ENDBRANCH   1   2
BRANCH   1  23
ATOM     23  C   UNL     1      -1.791   2.433   2.374  1.00  0.00     0.188 C 
BRANCH  23  24
ATOM     24  O   UNL     1      -0.462   1.675   2.668  1.00  0.00    -0.376 OA
BRANCH  24  25
ATOM     25  C   UNL     1       0.113   1.947   3.955  1.00  0.00     0.202 C 
BRANCH  25  26
ATOM     26  C   UNL     1       0.515   3.388   4.362  1.00  0.00     0.261 C 
BRANCH  26  27
ATOM     27  O   UNL     1      -0.162   4.495   3.742  1.00  0.00    -0.460 OA
BRANCH  27  28
ATOM     28  C   UNL     1       0.271   4.898   2.520  1.00  0.00     0.338 C 
ATOM     29  O   UNL     1       1.218   4.447   1.901  1.00  0.00    -0.246 OA
BRANCH  28  30
ATOM     30  C   UNL     1      -0.699   5.896   1.965  1.00  0.00     0.060 A 
ATOM     31  C   UNL     1      -0.865   5.993   0.574  1.00  0.00     0.016 A 
ATOM     32  C   UNL     1      -1.481   6.707   2.797  1.00  0.00     0.016 A 
ATOM     33  C   UNL     1      -1.796   6.892   0.022  1.00  0.00     0.010 A 
ATOM     34  C   UNL     1      -2.400   7.614   2.247  1.00  0.00     0.010 A 
ATOM     35  C   UNL     1      -2.554   7.730   0.854  1.00  0.00    -0.014 A 
BRANCH  35  36
ATOM     36  C   UNL     1      -3.311   8.885   0.290  1.00  0.00     0.031 A 
ATOM     37  C   UNL     1      -2.584  10.201   0.166  1.00  0.00     0.074 A 
ATOM     38  C   UNL     1      -4.602   8.810  -0.090  1.00  0.00     0.049 A 
ATOM     39  N   UNL     1      -3.022  11.365  -0.241  1.00  0.00    -0.248 NA
ATOM     40  C   UNL     1      -1.165  10.194   0.559  1.00  0.00     0.031 C 
ATOM     41  C   UNL     1      -5.427   7.605  -0.078  1.00  0.00     0.029 A 
ATOM     42  N   UNL     1      -5.450   9.789  -0.561  1.00  0.00    -0.354 N 
ATOM     43  C   UNL     1      -1.934  12.226  -0.154  1.00  0.00     0.074 A 
ATOM     44  C   UNL     1      -0.827  11.459   0.373  1.00  0.00     0.031 C 
ATOM     45  C   UNL     1      -6.663   7.916  -0.514  1.00  0.00     0.029 A 
ATOM     46  C   UNL     1      -6.733   9.350  -0.801  1.00  0.00     0.049 A 
ATOM     47  H   UNL     1      -5.165  10.719  -0.712  1.00  0.00     0.167 HD
ATOM     48  C   UNL     1      -1.855  13.538  -0.481  1.00  0.00     0.031 A 
ATOM     49  C   UNL     1      -7.837  10.027  -1.185  1.00  0.00     0.031 A 
ATOM     50  C   UNL     1      -2.959  14.324  -0.960  1.00  0.00     0.049 A 
ATOM     51  C   UNL     1      -7.753  11.516  -1.433  1.00  0.00     0.074 A 
ATOM     52  C   UNL     1      -2.974  15.662  -1.313  1.00  0.00     0.029 A 
ATOM     53  N   UNL     1      -4.250  13.851  -1.130  1.00  0.00    -0.354 N 
ATOM     54  N   UNL     1      -6.708  12.308  -1.386  1.00  0.00    -0.248 NA
ATOM     55  C   UNL     1      -9.005  12.205  -1.792  1.00  0.00     0.031 C 
ATOM     56  C   UNL     1      -4.290  16.017  -1.621  1.00  0.00     0.029 A 
ATOM     57  C   UNL     1      -5.079  14.881  -1.543  1.00  0.00     0.049 A 
ATOM     58  H   UNL     1      -4.535  12.920  -0.981  1.00  0.00     0.167 HD
ATOM     59  C   UNL     1      -7.171  13.574  -1.735  1.00  0.00     0.074 A 
ATOM     60  C   UNL     1      -8.584  13.442  -2.015  1.00  0.00     0.031 C 
ATOM     61  C   UNL     1      -6.486  14.743  -1.815  1.00  0.00     0.031 A 
BRANCH  48  62
ATOM     62  C   UNL     1      -0.528  14.218  -0.273  1.00  0.00    -0.014 A 
ATOM     63  C   UNL     1       0.590  13.903  -1.063  1.00  0.00     0.009 A 
ATOM     64  C   UNL     1      -0.400  15.200   0.722  1.00  0.00     0.009 A 
ATOM     65  C   UNL     1       1.818  14.525  -0.830  1.00  0.00     0.001 A 
ATOM     66  C   UNL     1       0.820  15.846   0.928  1.00  0.00     0.001 A 
ATOM     67  C   UNL     1       1.930  15.499   0.161  1.00  0.00     0.000 A 
ENDBRANCH  48  62
BRANCH  49  68
ATOM     68  C   UNL     1      -9.149   9.326  -1.330  1.00  0.00    -0.014 A 
ATOM     69  C   UNL     1      -9.789   9.238  -2.578  1.00  0.00     0.009 A 
ATOM     70  C   UNL     1      -9.800   8.793  -0.206  1.00  0.00     0.009 A 
ATOM     71  C   UNL     1     -11.058   8.661  -2.690  1.00  0.00     0.001 A 
ATOM     72  C   UNL     1     -11.053   8.184  -0.327  1.00  0.00     0.001 A 
ATOM     73  C   UNL     1     -11.686   8.129  -1.566  1.00  0.00     0.000 A 
ENDBRANCH  49  68
BRANCH  61  74
ATOM     74  C   UNL     1      -7.241  15.971  -2.254  1.00  0.00    -0.014 A 
ATOM     75  C   UNL     1      -8.215  16.567  -1.437  1.00  0.00     0.009 A 
ATOM     76  C   UNL     1      -6.931  16.575  -3.484  1.00  0.00     0.009 A 
ATOM     77  C   UNL     1      -8.886  17.718  -1.859  1.00  0.00     0.001 A 
ATOM     78  C   UNL     1      -7.576  17.746  -3.887  1.00  0.00     0.001 A 
ATOM     79  C   UNL     1      -8.562  18.310  -3.079  1.00  0.00     0.000 A 
ENDBRANCH  61  74
ENDBRANCH  35  36
ENDBRANCH  28  30
ENDBRANCH  27  28
ENDBRANCH  26  27
ENDBRANCH  25  26
ENDBRANCH  24  25
ENDBRANCH  23  24
ENDBRANCH   1  23
TORSDOF 23
