REMARK SMILES CCC[NH2+][C@]1(C(=O)OCCOCCOCCOC(=O)c2ccc(-c3c4nc(c(-c5ccccc5)c5ccc([nH]5)c(-c5ccccc5)c5nc(c(-c6ccccc6)c6ccc3[nH]6)C=C5)C=C4)cc2)CCC[C@H](OC(C)(C)C)C1
REMARK SMILES IDX 12 1 11 2 10 3 9 4 8 5 6 6 7 7 5 8 68 9 77 10 69 11 71 12
REMARK SMILES IDX 70 13 4 14 3 17 2 18 1 19 72 20 73 21 74 22 75 23 76 24
REMARK SMILES IDX 13 25 14 26 15 27 16 28 17 29 18 30 19 31 20 32 21 33 67 34
REMARK SMILES IDX 22 35 66 36 23 37 24 38 25 39 60 40 26 41 65 42 59 43 61 44
REMARK SMILES IDX 27 45 64 46 58 47 57 48 28 50 50 51 35 52 49 53 36 54 39 55
REMARK SMILES IDX 48 56 62 57 37 58 38 59 47 61 63 62 40 63 29 64 30 65 34 66
REMARK SMILES IDX 31 67 33 68 32 69 51 70 52 71 56 72 53 73 55 74 54 75 41 76
REMARK SMILES IDX 42 77 46 78 43 79 45 80 44 81
REMARK H PARENT 4 15 4 16 61 49 39 60
REMARK Flexibility Score: inf
ROOT
ATOM      1  C   UNL     1      -1.670   1.999  -0.013  1.00  0.00     0.188 C 
ENDROOT
BRANCH   1   2
ATOM      2  O   UNL     1      -1.842   0.603   0.006  1.00  0.00    -0.376 OA
BRANCH   2   3
ATOM      3  C   UNL     1      -0.705  -0.186   0.310  1.00  0.00     0.202 C 
BRANCH   3   4
ATOM      4  C   UNL     1       0.364   0.212   1.360  1.00  0.00     0.261 C 
BRANCH   4   5
ATOM      5  O   UNL     1       0.455   1.584   1.802  1.00  0.00    -0.459 OA
BRANCH   5   6
ATOM      6  C   UNL     1       1.421   2.326   1.217  1.00  0.00     0.368 C 
ATOM      7  O   UNL     1       2.123   1.900   0.296  1.00  0.00    -0.245 OA
BRANCH   6   8
ATOM      8  C   UNL     1       1.575   3.820   1.716  1.00  0.00     0.196 C 
ATOM      9  C   UNL     1       0.923   4.663   0.549  1.00  0.00     0.081 C 
ATOM     10  C   UNL     1       0.942   4.278   3.050  1.00  0.00     0.113 C 
ATOM     11  C   UNL     1       0.320   6.063   0.800  1.00  0.00     0.010 C 
ATOM     12  C   UNL     1       1.006   5.827   3.224  1.00  0.00     0.125 C 
ATOM     13  C   UNL     1       0.030   6.437   2.238  1.00  0.00     0.032 C 
BRANCH   8  14
ATOM     14  N   UNL     1       3.069   3.981   1.773  1.00  0.00    -0.332 N 
ATOM     15  H   UNL     1       3.479   3.465   0.995  1.00  0.00     0.347 HD
ATOM     16  H   UNL     1       3.264   4.980   1.722  1.00  0.00     0.347 HD
BRANCH  14  17
ATOM     17  C   UNL     1       3.667   3.487   3.025  1.00  0.00     0.261 C 
BRANCH  17  18
ATOM     18  C   UNL     1       5.176   3.218   3.031  1.00  0.00     0.058 C 
ATOM     19  C   UNL     1       5.998   3.881   1.944  1.00  0.00     0.010 C 
ENDBRANCH  17  18
ENDBRANCH  14  17
ENDBRANCH   8  14
BRANCH  12  20
ATOM     20  O   UNL     1       2.341   6.309   3.337  1.00  0.00    -0.372 OA
BRANCH  20  21
ATOM     21  C   UNL     1       3.075   7.267   2.566  1.00  0.00     0.060 C 
ATOM     22  C   UNL     1       3.549   6.835   1.169  1.00  0.00     0.042 C 
ATOM     23  C   UNL     1       2.429   8.651   2.482  1.00  0.00     0.042 C 
ATOM     24  C   UNL     1       4.380   7.425   3.384  1.00  0.00     0.042 C 
ENDBRANCH  20  21
ENDBRANCH  12  20
ENDBRANCH   6   8
ENDBRANCH   5   6
ENDBRANCH   4   5
ENDBRANCH   3   4
ENDBRANCH   2   3
ENDBRANCH   1   2
BRANCH   1  25
ATOM     25  C   UNL     1      -2.074   2.671   1.314  1.00  0.00     0.188 C 
BRANCH  25  26
ATOM     26  O   UNL     1      -2.507   1.887   2.413  1.00  0.00    -0.376 OA
BRANCH  26  27
ATOM     27  C   UNL     1      -3.519   0.914   2.191  1.00  0.00     0.202 C 
BRANCH  27  28
ATOM     28  C   UNL     1      -4.803   1.286   1.424  1.00  0.00     0.261 C 
BRANCH  28  29
ATOM     29  O   UNL     1      -4.635   2.093   0.244  1.00  0.00    -0.460 OA
BRANCH  29  30
ATOM     30  C   UNL     1      -5.012   3.395   0.363  1.00  0.00     0.338 C 
ATOM     31  O   UNL     1      -5.488   3.940   1.338  1.00  0.00    -0.246 OA
BRANCH  30  32
ATOM     32  C   UNL     1      -4.567   4.146  -0.834  1.00  0.00     0.060 A 
ATOM     33  C   UNL     1      -3.627   5.180  -0.682  1.00  0.00     0.016 A 
ATOM     34  C   UNL     1      -5.122   3.877  -2.082  1.00  0.00     0.016 A 
ATOM     35  C   UNL     1      -3.252   5.962  -1.776  1.00  0.00     0.010 A 
ATOM     36  C   UNL     1      -4.776   4.685  -3.168  1.00  0.00     0.010 A 
ATOM     37  C   UNL     1      -3.866   5.750  -3.013  1.00  0.00    -0.014 A 
BRANCH  37  38
ATOM     38  C   UNL     1      -3.764   6.765  -4.088  1.00  0.00     0.031 A 
ATOM     39  C   UNL     1      -4.882   7.762  -4.219  1.00  0.00     0.074 A 
ATOM     40  C   UNL     1      -2.738   6.785  -4.955  1.00  0.00     0.049 A 
ATOM     41  N   UNL     1      -5.131   8.613  -5.180  1.00  0.00    -0.248 NA
ATOM     42  C   UNL     1      -5.858   7.790  -3.117  1.00  0.00     0.031 C 
ATOM     43  C   UNL     1      -1.555   5.932  -4.894  1.00  0.00     0.029 A 
ATOM     44  N   UNL     1      -2.551   7.547  -6.083  1.00  0.00    -0.354 N 
ATOM     45  C   UNL     1      -6.309   9.252  -4.815  1.00  0.00     0.074 A 
ATOM     46  C   UNL     1      -6.730   8.684  -3.553  1.00  0.00     0.031 C 
ATOM     47  C   UNL     1      -0.775   6.197  -5.958  1.00  0.00     0.029 A 
ATOM     48  C   UNL     1      -1.433   7.197  -6.798  1.00  0.00     0.049 A 
ATOM     49  H   UNL     1      -3.160   8.273  -6.351  1.00  0.00     0.167 HD
ATOM     50  C   UNL     1      -6.987  10.219  -5.476  1.00  0.00     0.031 A 
ATOM     51  C   UNL     1      -1.014   7.606  -8.013  1.00  0.00     0.031 A 
ATOM     52  C   UNL     1      -6.578  10.766  -6.742  1.00  0.00     0.049 A 
ATOM     53  C   UNL     1      -1.834   8.612  -8.781  1.00  0.00     0.074 A 
ATOM     54  C   UNL     1      -7.194  11.749  -7.495  1.00  0.00     0.029 A 
ATOM     55  N   UNL     1      -5.452  10.367  -7.444  1.00  0.00    -0.354 N 
ATOM     56  N   UNL     1      -2.951   9.208  -8.437  1.00  0.00    -0.248 NA
ATOM     57  C   UNL     1      -1.334   9.000 -10.109  1.00  0.00     0.031 C 
ATOM     58  C   UNL     1      -6.474  11.899  -8.685  1.00  0.00     0.029 A 
ATOM     59  C   UNL     1      -5.368  11.065  -8.636  1.00  0.00     0.049 A 
ATOM     60  H   UNL     1      -4.807   9.687  -7.141  1.00  0.00     0.167 HD
ATOM     61  C   UNL     1      -3.262  10.070  -9.483  1.00  0.00     0.074 A 
ATOM     62  C   UNL     1      -2.217   9.920 -10.474  1.00  0.00     0.031 C 
ATOM     63  C   UNL     1      -4.315  10.916  -9.608  1.00  0.00     0.031 A 
BRANCH  50  64
ATOM     64  C   UNL     1      -8.276  10.696  -4.867  1.00  0.00    -0.014 A 
ATOM     65  C   UNL     1      -8.298  11.444  -3.679  1.00  0.00     0.009 A 
ATOM     66  C   UNL     1      -9.492  10.394  -5.500  1.00  0.00     0.009 A 
ATOM     67  C   UNL     1      -9.513  11.839  -3.115  1.00  0.00     0.001 A 
ATOM     68  C   UNL     1     -10.703  10.820  -4.953  1.00  0.00     0.001 A 
ATOM     69  C   UNL     1     -10.714  11.531  -3.754  1.00  0.00     0.000 A 
ENDBRANCH  50  64
BRANCH  51  70
ATOM     70  C   UNL     1       0.229   7.039  -8.602  1.00  0.00    -0.014 A 
ATOM     71  C   UNL     1       1.366   7.841  -8.779  1.00  0.00     0.009 A 
ATOM     72  C   UNL     1       0.279   5.695  -9.007  1.00  0.00     0.009 A 
ATOM     73  C   UNL     1       2.519   7.316  -9.369  1.00  0.00     0.001 A 
ATOM     74  C   UNL     1       1.444   5.165  -9.566  1.00  0.00     0.001 A 
ATOM     75  C   UNL     1       2.559   5.977  -9.755  1.00  0.00     0.000 A 
ENDBRANCH  51  70
BRANCH  63  76
ATOM     76  C   UNL     1      -4.363  11.802 -10.823  1.00  0.00    -0.014 A 
ATOM     77  C   UNL     1      -4.657  11.296 -12.098  1.00  0.00     0.009 A 
ATOM     78  C   UNL     1      -4.179  13.187 -10.669  1.00  0.00     0.009 A 
ATOM     79  C   UNL     1      -4.740  12.155 -13.197  1.00  0.00     0.001 A 
ATOM     80  C   UNL     1      -4.294  14.046 -11.762  1.00  0.00     0.001 A 
ATOM     81  C   UNL     1      -4.566  13.529 -13.027  1.00  0.00     0.000 A 
ENDBRANCH  63  76
ENDBRANCH  37  38
ENDBRANCH  30  32
ENDBRANCH  29  30
ENDBRANCH  28  29
ENDBRANCH  27  28
ENDBRANCH  26  27
ENDBRANCH  25  26
ENDBRANCH   1  25
TORSDOF 22
