REMARK SMILES C[C@@H](C(=O)OCCOCCOCCOC(=O)c1ccc(-c2c3nc(c(-c4ccccc4)c4ccc([nH]4)c(-c4ccccc4)c4nc(c(-c5ccccc5)c5ccc2[nH]5)C=C4)C=C3)cc1)c1cccc(C(=O)c2ccccc2)c1
REMARK SMILES IDX 9 1 8 2 7 3 6 4 5 5 3 6 4 7 2 8 1 9 65 10 66 11 78 12 67 13
REMARK SMILES IDX 69 14 68 15 70 16 71 17 72 18 73 19 77 20 74 21 76 22 75 23
REMARK SMILES IDX 10 24 11 25 12 26 13 27 14 28 15 29 16 30 17 31 18 32 64 33
REMARK SMILES IDX 19 34 63 35 20 36 21 37 22 38 57 39 23 40 62 41 56 42 58 43
REMARK SMILES IDX 24 44 61 45 55 46 54 47 25 49 47 50 32 51 46 52 33 53 36 54
REMARK SMILES IDX 45 55 59 56 34 57 35 58 44 60 60 61 37 62 26 63 27 64 31 65
REMARK SMILES IDX 28 66 30 67 29 68 48 69 49 70 53 71 50 72 52 73 51 74 38 75
REMARK SMILES IDX 39 76 43 77 40 78 42 79 41 80
REMARK H PARENT 58 48 36 59
REMARK Flexibility Score: inf
ROOT
ATOM      1  C   UNL     1       0.208  -2.511   2.719  1.00  0.00     0.188 C 
ENDROOT
BRANCH   1   2
ATOM      2  O   UNL     1       0.900  -3.659   3.199  1.00  0.00    -0.376 OA
BRANCH   2   3
ATOM      3  C   UNL     1       2.208  -3.922   2.691  1.00  0.00     0.202 C 
BRANCH   3   4
ATOM      4  C   UNL     1       2.432  -3.881   1.165  1.00  0.00     0.261 C 
BRANCH   4   5
ATOM      5  O   UNL     1       1.965  -2.672   0.528  1.00  0.00    -0.463 OA
BRANCH   5   6
ATOM      6  C   UNL     1       1.356  -2.812  -0.679  1.00  0.00     0.313 C 
ATOM      7  O   UNL     1       1.291  -3.877  -1.288  1.00  0.00    -0.252 OA
BRANCH   6   8
ATOM      8  C   UNL     1       0.649  -1.534  -1.175  1.00  0.00     0.126 C 
ATOM      9  C   UNL     1       1.465  -0.258  -0.909  1.00  0.00     0.025 C 
BRANCH   8  10
ATOM     10  C   UNL     1      -0.843  -1.463  -0.807  1.00  0.00    -0.033 A 
ATOM     11  C   UNL     1      -1.529  -0.248  -0.628  1.00  0.00     0.004 A 
ATOM     12  C   UNL     1      -1.609  -2.644  -0.745  1.00  0.00     0.016 A 
ATOM     13  C   UNL     1      -2.907  -0.222  -0.369  1.00  0.00     0.001 A 
ATOM     14  C   UNL     1      -2.982  -2.629  -0.447  1.00  0.00     0.023 A 
ATOM     15  C   UNL     1      -3.632  -1.408  -0.273  1.00  0.00     0.012 A 
BRANCH  14  16
ATOM     16  C   UNL     1      -3.776  -3.889  -0.387  1.00  0.00     0.193 C 
ATOM     17  O   UNL     1      -4.988  -3.866  -0.576  1.00  0.00    -0.289 OA
BRANCH  16  18
ATOM     18  C   UNL     1      -3.113  -5.191  -0.149  1.00  0.00     0.022 A 
ATOM     19  C   UNL     1      -3.396  -6.246  -1.022  1.00  0.00     0.012 A 
ATOM     20  C   UNL     1      -2.197  -5.363   0.894  1.00  0.00     0.012 A 
ATOM     21  C   UNL     1      -2.714  -7.455  -0.888  1.00  0.00     0.001 A 
ATOM     22  C   UNL     1      -1.515  -6.574   1.022  1.00  0.00     0.001 A 
ATOM     23  C   UNL     1      -1.767  -7.614   0.125  1.00  0.00     0.000 A 
ENDBRANCH  16  18
ENDBRANCH  14  16
ENDBRANCH   8  10
ENDBRANCH   6   8
ENDBRANCH   5   6
ENDBRANCH   4   5
ENDBRANCH   3   4
ENDBRANCH   2   3
ENDBRANCH   1   2
BRANCH   1  24
ATOM     24  C   UNL     1       0.952  -1.167   2.644  1.00  0.00     0.188 C 
BRANCH  24  25
ATOM     25  O   UNL     1       2.319  -1.239   2.970  1.00  0.00    -0.376 OA
BRANCH  25  26
ATOM     26  C   UNL     1       2.797  -0.541   4.105  1.00  0.00     0.202 C 
BRANCH  26  27
ATOM     27  C   UNL     1       2.063  -0.627   5.458  1.00  0.00     0.261 C 
BRANCH  27  28
ATOM     28  O   UNL     1       0.627  -0.644   5.433  1.00  0.00    -0.460 OA
BRANCH  28  29
ATOM     29  C   UNL     1      -0.004   0.536   5.244  1.00  0.00     0.338 C 
ATOM     30  O   UNL     1       0.517   1.634   5.092  1.00  0.00    -0.246 OA
BRANCH  29  31
ATOM     31  C   UNL     1      -1.433   0.245   4.995  1.00  0.00     0.060 A 
ATOM     32  C   UNL     1      -1.987   0.573   3.749  1.00  0.00     0.016 A 
ATOM     33  C   UNL     1      -2.216  -0.369   5.974  1.00  0.00     0.016 A 
ATOM     34  C   UNL     1      -3.330   0.301   3.485  1.00  0.00     0.010 A 
ATOM     35  C   UNL     1      -3.569  -0.615   5.717  1.00  0.00     0.010 A 
ATOM     36  C   UNL     1      -4.139  -0.259   4.481  1.00  0.00    -0.014 A 
BRANCH  36  37
ATOM     37  C   UNL     1      -5.611  -0.292   4.305  1.00  0.00     0.031 A 
ATOM     38  C   UNL     1      -6.427   0.818   4.908  1.00  0.00     0.074 A 
ATOM     39  C   UNL     1      -6.220  -1.271   3.612  1.00  0.00     0.049 A 
ATOM     40  N   UNL     1      -7.725   0.972   4.941  1.00  0.00    -0.248 NA
ATOM     41  C   UNL     1      -5.673   1.898   5.565  1.00  0.00     0.031 C 
ATOM     42  C   UNL     1      -5.546  -2.368   2.924  1.00  0.00     0.029 A 
ATOM     43  N   UNL     1      -7.555  -1.492   3.377  1.00  0.00    -0.354 N 
ATOM     44  C   UNL     1      -7.945   2.151   5.642  1.00  0.00     0.074 A 
ATOM     45  C   UNL     1      -6.648   2.663   6.028  1.00  0.00     0.031 C 
ATOM     46  C   UNL     1      -6.474  -3.147   2.339  1.00  0.00     0.029 A 
ATOM     47  C   UNL     1      -7.805  -2.630   2.649  1.00  0.00     0.049 A 
ATOM     48  H   UNL     1      -8.266  -0.891   3.700  1.00  0.00     0.167 HD
ATOM     49  C   UNL     1      -9.120   2.751   5.943  1.00  0.00     0.031 A 
ATOM     50  C   UNL     1      -8.973  -3.200   2.293  1.00  0.00     0.031 A 
ATOM     51  C   UNL     1     -10.411   2.236   5.576  1.00  0.00     0.049 A 
ATOM     52  C   UNL     1     -10.270  -2.557   2.717  1.00  0.00     0.074 A 
ATOM     53  C   UNL     1     -11.659   2.778   5.832  1.00  0.00     0.029 A 
ATOM     54  N   UNL     1     -10.623   1.053   4.886  1.00  0.00    -0.354 N 
ATOM     55  N   UNL     1     -10.468  -1.437   3.370  1.00  0.00    -0.248 NA
ATOM     56  C   UNL     1     -11.509  -3.263   2.353  1.00  0.00     0.031 C 
ATOM     57  C   UNL     1     -12.627   1.889   5.356  1.00  0.00     0.029 A 
ATOM     58  C   UNL     1     -11.982   0.831   4.737  1.00  0.00     0.049 A 
ATOM     59  H   UNL     1      -9.913   0.459   4.551  1.00  0.00     0.167 HD
ATOM     60  C   UNL     1     -11.847  -1.291   3.468  1.00  0.00     0.074 A 
ATOM     61  C   UNL     1     -12.438  -2.426   2.792  1.00  0.00     0.031 C 
ATOM     62  C   UNL     1     -12.561  -0.303   4.063  1.00  0.00     0.031 A 
BRANCH  49  63
ATOM     63  C   UNL     1      -9.060   4.009   6.764  1.00  0.00    -0.014 A 
ATOM     64  C   UNL     1      -8.567   5.212   6.234  1.00  0.00     0.009 A 
ATOM     65  C   UNL     1      -9.528   3.991   8.088  1.00  0.00     0.009 A 
ATOM     66  C   UNL     1      -8.510   6.361   7.026  1.00  0.00     0.001 A 
ATOM     67  C   UNL     1      -9.501   5.149   8.866  1.00  0.00     0.001 A 
ATOM     68  C   UNL     1      -8.982   6.330   8.338  1.00  0.00     0.000 A 
ENDBRANCH  49  63
BRANCH  50  69
ATOM     69  C   UNL     1      -8.988  -4.470   1.517  1.00  0.00    -0.014 A 
ATOM     70  C   UNL     1      -9.492  -4.502   0.207  1.00  0.00     0.009 A 
ATOM     71  C   UNL     1      -8.536  -5.667   2.094  1.00  0.00     0.009 A 
ATOM     72  C   UNL     1      -9.571  -5.708  -0.495  1.00  0.00     0.001 A 
ATOM     73  C   UNL     1      -8.583  -6.865   1.378  1.00  0.00     0.001 A 
ATOM     74  C   UNL     1      -9.111  -6.887   0.089  1.00  0.00     0.000 A 
ENDBRANCH  50  69
BRANCH  62  75
ATOM     75  C   UNL     1     -14.062  -0.379   3.977  1.00  0.00    -0.014 A 
ATOM     76  C   UNL     1     -14.792  -1.344   4.687  1.00  0.00     0.009 A 
ATOM     77  C   UNL     1     -14.759   0.566   3.205  1.00  0.00     0.009 A 
ATOM     78  C   UNL     1     -16.186  -1.384   4.597  1.00  0.00     0.001 A 
ATOM     79  C   UNL     1     -16.153   0.545   3.145  1.00  0.00     0.001 A 
ATOM     80  C   UNL     1     -16.865  -0.437   3.832  1.00  0.00     0.000 A 
ENDBRANCH  62  75
ENDBRANCH  36  37
ENDBRANCH  29  31
ENDBRANCH  28  29
ENDBRANCH  27  28
ENDBRANCH  26  27
ENDBRANCH  25  26
ENDBRANCH  24  25
ENDBRANCH   1  24
TORSDOF 20
