REMARK SMILES COc1ccc(N2C(=O)/C(=C/c3c(C(=O)OCCOCCOCCOC(=O)c4ccc(-c5c6nc(c(-c7ccccc7)c7ccc([nH]7)c(-c7ccccc7)c7nc(c(-c8ccccc8)c8ccc5[nH]8)C=C7)C=C6)cc4)[nH]c4cc(OC)ccc34)SC2=S)cc1
REMARK SMILES IDX 20 1 19 2 18 3 17 4 16 5 14 6 15 7 13 8 12 9 84 10 76 11
REMARK SMILES IDX 77 12 83 13 78 15 82 16 79 17 11 18 7 19 8 20 86 21 9 22
REMARK SMILES IDX 10 23 85 24 87 25 6 26 3 27 4 28 89 29 5 30 88 31 2 32 1 33
REMARK SMILES IDX 80 34 81 35 21 36 22 37 23 38 24 39 25 40 26 41 27 42 28 43
REMARK SMILES IDX 29 44 75 45 30 46 74 47 31 48 32 49 33 50 68 51 34 52 73 53
REMARK SMILES IDX 67 54 69 55 35 56 72 57 66 58 65 59 36 61 58 62 43 63 57 64
REMARK SMILES IDX 44 65 47 66 56 67 70 68 45 69 46 70 55 72 71 73 48 74 37 75
REMARK SMILES IDX 38 76 42 77 39 78 41 79 40 80 59 81 60 82 64 83 61 84 63 85
REMARK SMILES IDX 62 86 49 87 50 88 54 89 51 90 53 91 52 92
REMARK H PARENT 76 14 69 60 47 71
REMARK Flexibility Score: inf
ROOT
ATOM      1  C   UNL     1       3.733  -9.571   5.992  1.00  0.00     0.188 C 
ENDROOT
BRANCH   1   2
ATOM      2  O   UNL     1       4.482  -8.458   6.463  1.00  0.00    -0.376 OA
BRANCH   2   3
ATOM      3  C   UNL     1       4.691  -7.363   5.576  1.00  0.00     0.202 C 
BRANCH   3   4
ATOM      4  C   UNL     1       5.388  -7.686   4.253  1.00  0.00     0.261 C 
BRANCH   4   5
ATOM      5  O   UNL     1       4.599  -8.576   3.442  1.00  0.00    -0.459 OA
BRANCH   5   6
ATOM      6  C   UNL     1       5.290  -9.623   2.911  1.00  0.00     0.355 C 
ATOM      7  O   UNL     1       6.508  -9.745   2.935  1.00  0.00    -0.244 OA
BRANCH   6   8
ATOM      8  C   UNL     1       4.401 -10.698   2.535  1.00  0.00     0.133 A 
ATOM      9  C   UNL     1       3.146 -10.806   1.935  1.00  0.00     0.016 A 
ATOM     10  C   UNL     1       2.779 -12.202   1.957  1.00  0.00     0.008 A 
ATOM     11  N   UNL     1       4.778 -11.975   2.889  1.00  0.00    -0.348 N 
ATOM     12  C   UNL     1       3.768 -12.868   2.676  1.00  0.00     0.050 A 
ATOM     13  C   UNL     1       1.681 -12.971   1.504  1.00  0.00     0.015 A 
ATOM     14  H   UNL     1       5.663 -12.212   3.249  1.00  0.00     0.167 HD
ATOM     15  C   UNL     1       3.669 -14.203   3.078  1.00  0.00     0.073 A 
ATOM     16  C   UNL     1       1.592 -14.337   1.844  1.00  0.00     0.047 A 
ATOM     17  C   UNL     1       2.561 -14.931   2.649  1.00  0.00     0.120 A 
BRANCH   9  18
ATOM     18  C   UNL     1       2.277  -9.723   1.547  1.00  0.00     0.032 C 
ATOM     19  N   UNL     1       2.353  -6.204   0.762  1.00  0.00    -0.261 N 
ATOM     20  C   UNL     1       1.637  -7.396   0.936  1.00  0.00     0.270 C 
ATOM     21  C   UNL     1       3.728  -6.378   0.607  1.00  0.00     0.152 C 
ATOM     22  O   UNL     1       0.429  -7.551   1.066  1.00  0.00    -0.268 OA
ATOM     23  C   UNL     1       2.584  -8.557   0.957  1.00  0.00     0.081 C 
ATOM     24  S   UNL     1       4.081  -8.073   0.288  1.00  0.00    -0.054 SA
ATOM     25  S   UNL     1       5.005  -5.309   0.810  1.00  0.00    -0.051 S 
BRANCH  19  26
ATOM     26  C   UNL     1       1.699  -4.918   0.783  1.00  0.00     0.051 A 
ATOM     27  C   UNL     1       0.494  -2.333   0.860  1.00  0.00     0.119 A 
ATOM     28  C   UNL     1      -0.068  -3.408   1.548  1.00  0.00     0.048 A 
ATOM     29  C   UNL     1       1.640  -2.554   0.108  1.00  0.00     0.048 A 
ATOM     30  C   UNL     1       0.522  -4.684   1.510  1.00  0.00     0.030 A 
ATOM     31  C   UNL     1       2.215  -3.831   0.057  1.00  0.00     0.030 A 
BRANCH  27  32
ATOM     32  O   UNL     1      -0.158  -1.139   0.988  1.00  0.00    -0.497 OA
ATOM     33  C   UNL     1       0.384  -0.034   0.271  1.00  0.00     0.278 C 
ENDBRANCH  27  32
ENDBRANCH  19  26
ENDBRANCH   9  18
BRANCH  17  34
ATOM     34  O   UNL     1       2.464 -16.198   3.158  1.00  0.00    -0.497 OA
ATOM     35  C   UNL     1       2.204 -17.201   2.184  1.00  0.00     0.278 C 
ENDBRANCH  17  34
ENDBRANCH   6   8
ENDBRANCH   5   6
ENDBRANCH   4   5
ENDBRANCH   3   4
ENDBRANCH   2   3
ENDBRANCH   1   2
BRANCH   1  36
ATOM     36  C   UNL     1       2.327  -9.344   5.401  1.00  0.00     0.188 C 
BRANCH  36  37
ATOM     37  O   UNL     1       1.866  -8.000   5.421  1.00  0.00    -0.376 OA
BRANCH  37  38
ATOM     38  C   UNL     1       0.735  -7.767   6.258  1.00  0.00     0.202 C 
BRANCH  38  39
ATOM     39  C   UNL     1       1.112  -7.572   7.731  1.00  0.00     0.261 C 
BRANCH  39  40
ATOM     40  O   UNL     1       1.765  -8.708   8.320  1.00  0.00    -0.460 OA
BRANCH  40  41
ATOM     41  C   UNL     1       1.027  -9.832   8.462  1.00  0.00     0.338 C 
ATOM     42  O   UNL     1      -0.156  -9.969   8.208  1.00  0.00    -0.246 OA
BRANCH  41  43
ATOM     43  C   UNL     1       1.954 -10.945   8.774  1.00  0.00     0.060 A 
ATOM     44  C   UNL     1       1.798 -12.154   8.083  1.00  0.00     0.016 A 
ATOM     45  C   UNL     1       3.020 -10.776   9.665  1.00  0.00     0.016 A 
ATOM     46  C   UNL     1       2.703 -13.197   8.291  1.00  0.00     0.010 A 
ATOM     47  C   UNL     1       3.916 -11.826   9.884  1.00  0.00     0.010 A 
ATOM     48  C   UNL     1       3.752 -13.046   9.211  1.00  0.00    -0.014 A 
BRANCH  48  49
ATOM     49  C   UNL     1       4.571 -14.221   9.589  1.00  0.00     0.031 A 
ATOM     50  C   UNL     1       4.077 -15.108  10.697  1.00  0.00     0.074 A 
ATOM     51  C   UNL     1       5.730 -14.505   8.969  1.00  0.00     0.049 A 
ATOM     52  N   UNL     1       4.580 -16.229  11.147  1.00  0.00    -0.248 NA
ATOM     53  C   UNL     1       2.853 -14.671  11.386  1.00  0.00     0.031 C 
ATOM     54  C   UNL     1       6.331 -13.729   7.886  1.00  0.00     0.029 A 
ATOM     55  N   UNL     1       6.612 -15.537   9.176  1.00  0.00    -0.354 N 
ATOM     56  C   UNL     1       3.717 -16.646  12.151  1.00  0.00     0.074 A 
ATOM     57  C   UNL     1       2.686 -15.639  12.274  1.00  0.00     0.031 C 
ATOM     58  C   UNL     1       7.489 -14.313   7.525  1.00  0.00     0.029 A 
ATOM     59  C   UNL     1       7.711 -15.496   8.355  1.00  0.00     0.049 A 
ATOM     60  H   UNL     1       6.469 -16.240   9.850  1.00  0.00     0.167 HD
ATOM     61  C   UNL     1       3.769 -17.771  12.901  1.00  0.00     0.031 A 
ATOM     62  C   UNL     1       8.774 -16.320   8.285  1.00  0.00     0.031 A 
ATOM     63  C   UNL     1       4.813 -18.754  12.827  1.00  0.00     0.049 A 
ATOM     64  C   UNL     1       8.853 -17.523   9.189  1.00  0.00     0.074 A 
ATOM     65  C   UNL     1       4.938 -19.936  13.535  1.00  0.00     0.029 A 
ATOM     66  N   UNL     1       5.928 -18.654  12.012  1.00  0.00    -0.354 N 
ATOM     67  N   UNL     1       7.987 -17.951  10.075  1.00  0.00    -0.248 NA
ATOM     68  C   UNL     1      10.056 -18.361   9.071  1.00  0.00     0.031 C 
ATOM     69  C   UNL     1       6.156 -20.529  13.182  1.00  0.00     0.029 A 
ATOM     70  C   UNL     1       6.765 -19.736  12.223  1.00  0.00     0.049 A 
ATOM     71  H   UNL     1       6.101 -17.921  11.377  1.00  0.00     0.167 HD
ATOM     72  C   UNL     1       8.529 -19.119  10.601  1.00  0.00     0.074 A 
ATOM     73  C   UNL     1       9.792 -19.338   9.928  1.00  0.00     0.031 C 
ATOM     74  C   UNL     1       8.021 -19.939  11.553  1.00  0.00     0.031 A 
BRANCH  61  75
ATOM     75  C   UNL     1       2.658 -17.978  13.886  1.00  0.00    -0.014 A 
ATOM     76  C   UNL     1       1.381 -18.371  13.454  1.00  0.00     0.009 A 
ATOM     77  C   UNL     1       2.888 -17.784  15.255  1.00  0.00     0.009 A 
ATOM     78  C   UNL     1       0.346 -18.536  14.375  1.00  0.00     0.001 A 
ATOM     79  C   UNL     1       1.856 -17.968  16.175  1.00  0.00     0.001 A 
ATOM     80  C   UNL     1       0.585 -18.336  15.735  1.00  0.00     0.000 A 
ENDBRANCH  61  75
BRANCH  62  81
ATOM     81  C   UNL     1       9.868 -16.048   7.318  1.00  0.00    -0.014 A 
ATOM     82  C   UNL     1      10.028 -16.851   6.179  1.00  0.00     0.009 A 
ATOM     83  C   UNL     1      10.782 -15.011   7.555  1.00  0.00     0.009 A 
ATOM     84  C   UNL     1      11.099 -16.636   5.308  1.00  0.00     0.001 A 
ATOM     85  C   UNL     1      11.839 -14.785   6.671  1.00  0.00     0.001 A 
ATOM     86  C   UNL     1      12.002 -15.602   5.554  1.00  0.00     0.000 A 
ENDBRANCH  62  81
BRANCH  74  87
ATOM     87  C   UNL     1       8.821 -21.160  11.910  1.00  0.00    -0.014 A 
ATOM     88  C   UNL     1       9.982 -21.064  12.693  1.00  0.00     0.009 A 
ATOM     89  C   UNL     1       8.382 -22.427  11.494  1.00  0.00     0.009 A 
ATOM     90  C   UNL     1      10.703 -22.212  13.028  1.00  0.00     0.001 A 
ATOM     91  C   UNL     1       9.092 -23.574  11.851  1.00  0.00     0.001 A 
ATOM     92  C   UNL     1      10.255 -23.465  12.611  1.00  0.00     0.000 A 
ENDBRANCH  74  87
ENDBRANCH  48  49
ENDBRANCH  41  43
ENDBRANCH  40  41
ENDBRANCH  39  40
ENDBRANCH  38  39
ENDBRANCH  37  38
ENDBRANCH  36  37
ENDBRANCH   1  36
TORSDOF 21
