REMARK SMILES CC(=O)Oc1ccc2oc(N)c([C@@H]3[NH2+][C@@H](C(=O)OCCOCCOCCOC(=O)c4ccc(-c5c6nc(c(-c7ccccc7)c7ccc([nH]7)c(-c7ccccc7)c7nc(c(-c8ccccc8)c8ccc5[nH]8)C=C7)C=C6)cc4)C(C)(C)S3)c(=O)c2c1
REMARK SMILES IDX 22 1 21 2 20 3 19 4 18 5 16 6 17 7 15 8 13 9 14 10 81 11
REMARK SMILES IDX 78 14 79 15 80 16 12 17 5 18 6 19 85 20 7 21 84 22 8 23
REMARK SMILES IDX 82 24 9 25 83 26 10 27 4 28 2 29 1 30 3 31 11 32 23 35 24 36
REMARK SMILES IDX 25 37 26 38 27 39 28 40 29 41 30 42 31 43 77 44 32 45 76 46
REMARK SMILES IDX 33 47 34 48 35 49 70 50 36 51 75 52 69 53 71 54 37 55 74 56
REMARK SMILES IDX 68 57 67 58 38 60 60 61 45 62 59 63 46 64 49 65 58 66 72 67
REMARK SMILES IDX 47 68 48 69 57 71 73 72 50 73 39 74 40 75 44 76 41 77 43 78
REMARK SMILES IDX 42 79 61 80 62 81 66 82 63 83 65 84 64 85 51 86 52 87 56 88
REMARK SMILES IDX 53 89 55 90 54 91
REMARK H PARENT 14 12 14 13 11 33 11 34 71 59 49 70
REMARK Flexibility Score: inf
ROOT
ATOM      1  C   UNL     1       2.177   4.095 -14.263  1.00  0.00     0.188 C 
ENDROOT
BRANCH   1   2
ATOM      2  O   UNL     1       1.559   2.891 -14.698  1.00  0.00    -0.376 OA
BRANCH   2   3
ATOM      3  C   UNL     1       0.273   2.520 -14.217  1.00  0.00     0.202 C 
BRANCH   3   4
ATOM      4  C   UNL     1       0.116   2.192 -12.721  1.00  0.00     0.261 C 
BRANCH   4   5
ATOM      5  O   UNL     1       0.397   3.255 -11.775  1.00  0.00    -0.459 OA
BRANCH   5   6
ATOM      6  C   UNL     1       1.598   3.164 -11.150  1.00  0.00     0.366 C 
ATOM      7  O   UNL     1       2.402   2.260 -11.379  1.00  0.00    -0.245 OA
BRANCH   6   8
ATOM      8  C   UNL     1       1.915   4.249 -10.079  1.00  0.00     0.310 C 
ATOM      9  C   UNL     1       2.275   4.455  -7.723  1.00  0.00     0.284 C 
ATOM     10  N   UNL     1       1.789   3.558  -8.767  1.00  0.00    -0.318 N 
ATOM     11  S   UNL     1       1.798   6.127  -8.199  1.00  0.00    -0.081 SA
ATOM     12  H   UNL     1       0.811   3.325  -8.592  1.00  0.00     0.348 HD
ATOM     13  H   UNL     1       2.337   2.697  -8.770  1.00  0.00     0.348 HD
ATOM     14  C   UNL     1       1.284   5.669  -9.928  1.00  0.00     0.079 C 
ATOM     15  C   UNL     1      -0.240   5.727 -10.016  1.00  0.00     0.030 C 
ATOM     16  C   UNL     1       1.895   6.830 -10.736  1.00  0.00     0.030 C 
BRANCH   9  17
ATOM     17  C   UNL     1       3.741   4.271  -7.395  1.00  0.00     0.128 A 
ATOM     18  C   UNL     1       6.908   3.207  -3.804  1.00  0.00     0.131 A 
ATOM     19  C   UNL     1       7.965   3.514  -4.663  1.00  0.00     0.051 A 
ATOM     20  C   UNL     1       5.590   3.185  -4.250  1.00  0.00     0.063 A 
ATOM     21  C   UNL     1       7.688   3.859  -5.984  1.00  0.00     0.052 A 
ATOM     22  C   UNL     1       5.330   3.540  -5.572  1.00  0.00     0.069 A 
ATOM     23  C   UNL     1       6.365   3.888  -6.425  1.00  0.00     0.140 A 
ATOM     24  C   UNL     1       3.960   3.585  -6.086  1.00  0.00     0.205 A 
ATOM     25  O   UNL     1       6.139   4.281  -7.708  1.00  0.00    -0.440 OA
ATOM     26  O   UNL     1       3.045   3.125  -5.412  1.00  0.00    -0.288 OA
ATOM     27  C   UNL     1       4.851   4.624  -8.088  1.00  0.00     0.205 A 
BRANCH  18  28
ATOM     28  O   UNL     1       7.148   2.853  -2.476  1.00  0.00    -0.427 OA
BRANCH  28  29
ATOM     29  C   UNL     1       7.570   3.914  -1.683  1.00  0.00     0.308 C 
ATOM     30  C   UNL     1       7.706   3.430  -0.272  1.00  0.00     0.139 C 
ATOM     31  O   UNL     1       7.776   5.067  -2.039  1.00  0.00    -0.252 OA
ENDBRANCH  28  29
ENDBRANCH  18  28
BRANCH  27  32
ATOM     32  N   UNL     1       4.883   5.362  -9.235  1.00  0.00    -0.369 N 
ATOM     33  H   UNL     1       5.744   5.566  -9.666  1.00  0.00     0.159 HD
ATOM     34  H   UNL     1       4.044   5.691  -9.632  1.00  0.00     0.159 HD
ENDBRANCH  27  32
ENDBRANCH   9  17
ENDBRANCH   6   8
ENDBRANCH   5   6
ENDBRANCH   4   5
ENDBRANCH   3   4
ENDBRANCH   2   3
ENDBRANCH   1   2
BRANCH   1  35
ATOM     35  C   UNL     1       1.318   5.223 -13.691  1.00  0.00     0.188 C 
BRANCH  35  36
ATOM     36  O   UNL     1      -0.020   5.202 -14.117  1.00  0.00    -0.376 OA
BRANCH  36  37
ATOM     37  C   UNL     1      -0.548   6.286 -14.845  1.00  0.00     0.202 C 
BRANCH  37  38
ATOM     38  C   UNL     1       0.179   6.763 -16.108  1.00  0.00     0.261 C 
BRANCH  38  39
ATOM     39  O   UNL     1       1.612   6.775 -16.073  1.00  0.00    -0.460 OA
BRANCH  39  40
ATOM     40  C   UNL     1       2.220   7.786 -15.400  1.00  0.00     0.338 C 
ATOM     41  O   UNL     1       1.689   8.674 -14.778  1.00  0.00    -0.246 OA
BRANCH  40  42
ATOM     42  C   UNL     1       3.668   7.453 -15.367  1.00  0.00     0.060 A 
ATOM     43  C   UNL     1       4.344   7.157 -16.551  1.00  0.00     0.016 A 
ATOM     44  C   UNL     1       4.336   7.387 -14.136  1.00  0.00     0.016 A 
ATOM     45  C   UNL     1       5.696   6.814 -16.506  1.00  0.00     0.010 A 
ATOM     46  C   UNL     1       5.691   7.040 -14.092  1.00  0.00     0.010 A 
ATOM     47  C   UNL     1       6.386   6.770 -15.280  1.00  0.00    -0.014 A 
BRANCH  47  48
ATOM     48  C   UNL     1       7.862   6.618 -15.287  1.00  0.00     0.031 A 
ATOM     49  C   UNL     1       8.541   5.339 -14.904  1.00  0.00     0.074 A 
ATOM     50  C   UNL     1       8.596   7.678 -15.678  1.00  0.00     0.049 A 
ATOM     51  N   UNL     1       9.807   5.024 -15.015  1.00  0.00    -0.248 NA
ATOM     52  C   UNL     1       7.706   4.283 -14.314  1.00  0.00     0.031 C 
ATOM     53  C   UNL     1       8.043   8.985 -16.041  1.00  0.00     0.029 A 
ATOM     54  N   UNL     1       9.948   7.824 -15.864  1.00  0.00    -0.354 N 
ATOM     55  C   UNL     1       9.923   3.729 -14.530  1.00  0.00     0.074 A 
ATOM     56  C   UNL     1       8.605   3.334 -14.075  1.00  0.00     0.031 C 
ATOM     57  C   UNL     1       9.038   9.779 -16.459  1.00  0.00     0.029 A 
ATOM     58  C   UNL     1      10.302   9.055 -16.361  1.00  0.00     0.049 A 
ATOM     59  H   UNL     1      10.601   7.115 -15.660  1.00  0.00     0.167 HD
ATOM     60  C   UNL     1      11.026   2.943 -14.487  1.00  0.00     0.031 A 
ATOM     61  C   UNL     1      11.503   9.547 -16.721  1.00  0.00     0.031 A 
ATOM     62  C   UNL     1      12.336   3.357 -14.929  1.00  0.00     0.049 A 
ATOM     63  C   UNL     1      12.715   8.664 -16.633  1.00  0.00     0.074 A 
ATOM     64  C   UNL     1      13.498   2.605 -14.982  1.00  0.00     0.029 A 
ATOM     65  N   UNL     1      12.665   4.628 -15.375  1.00  0.00    -0.354 N 
ATOM     66  N   UNL     1      12.790   7.406 -16.273  1.00  0.00    -0.248 NA
ATOM     67  C   UNL     1      14.003   9.258 -17.018  1.00  0.00     0.031 C 
ATOM     68  C   UNL     1      14.544   3.441 -15.374  1.00  0.00     0.029 A 
ATOM     69  C   UNL     1      14.020   4.692 -15.658  1.00  0.00     0.049 A 
ATOM     70  H   UNL     1      12.030   5.374 -15.476  1.00  0.00     0.167 HD
ATOM     71  C   UNL     1      14.126   7.051 -16.408  1.00  0.00     0.074 A 
ATOM     72  C   UNL     1      14.822   8.220 -16.903  1.00  0.00     0.031 C 
ATOM     73  C   UNL     1      14.715   5.859 -16.145  1.00  0.00     0.031 A 
BRANCH  60  74
ATOM     74  C   UNL     1      10.891   1.540 -13.954  1.00  0.00    -0.014 A 
ATOM     75  C   UNL     1      11.584   1.163 -12.791  1.00  0.00     0.009 A 
ATOM     76  C   UNL     1      10.199   0.555 -14.675  1.00  0.00     0.009 A 
ATOM     77  C   UNL     1      11.608  -0.170 -12.376  1.00  0.00     0.001 A 
ATOM     78  C   UNL     1      10.198  -0.773 -14.240  1.00  0.00     0.001 A 
ATOM     79  C   UNL     1      10.913  -1.137 -13.100  1.00  0.00     0.000 A 
ENDBRANCH  60  74
BRANCH  61  80
ATOM     80  C   UNL     1      11.587  10.933 -17.254  1.00  0.00    -0.014 A 
ATOM     81  C   UNL     1      11.301  12.036 -16.430  1.00  0.00     0.009 A 
ATOM     82  C   UNL     1      11.879  11.159 -18.607  1.00  0.00     0.009 A 
ATOM     83  C   UNL     1      11.272  13.328 -16.958  1.00  0.00     0.001 A 
ATOM     84  C   UNL     1      11.884  12.457 -19.124  1.00  0.00     0.001 A 
ATOM     85  C   UNL     1      11.567  13.538 -18.303  1.00  0.00     0.000 A 
ENDBRANCH  61  80
BRANCH  73  86
ATOM     86  C   UNL     1      16.197   5.730 -16.383  1.00  0.00    -0.014 A 
ATOM     87  C   UNL     1      16.671   4.851 -17.372  1.00  0.00     0.009 A 
ATOM     88  C   UNL     1      17.126   6.379 -15.555  1.00  0.00     0.009 A 
ATOM     89  C   UNL     1      18.038   4.603 -17.509  1.00  0.00     0.001 A 
ATOM     90  C   UNL     1      18.495   6.157 -15.718  1.00  0.00     0.001 A 
ATOM     91  C   UNL     1      18.949   5.259 -16.684  1.00  0.00     0.000 A 
ENDBRANCH  73  86
ENDBRANCH  47  48
ENDBRANCH  40  42
ENDBRANCH  39  40
ENDBRANCH  38  39
ENDBRANCH  37  38
ENDBRANCH  36  37
ENDBRANCH  35  36
ENDBRANCH   1  35
TORSDOF 21
