REMARK SMILES O=C(OCCOCCOCCOC(=O)c1nn2cc(Br)cnc2c1Br)c1ccc(-c2c3nc(c(-c4ccccc4)c4ccc([nH]4)c(-c4ccccc4)c4nc(c(-c5ccccc5)c5ccc2[nH]5)C=C4)C=C3)cc1
REMARK SMILES IDX 7 1 6 2 5 3 4 4 3 5 2 6 1 7 26 8 27 9 73 10 28 11 72 12
REMARK SMILES IDX 29 13 30 14 31 15 66 16 32 17 71 18 65 19 67 20 33 21 70 22
REMARK SMILES IDX 64 23 63 24 34 26 56 27 41 28 55 29 42 30 45 31 54 32 68 33
REMARK SMILES IDX 43 34 44 35 53 37 69 38 46 39 35 40 36 41 40 42 37 43 39 44
REMARK SMILES IDX 38 45 57 46 58 47 62 48 59 49 61 50 60 51 47 52 48 53 52 54
REMARK SMILES IDX 49 55 51 56 50 57 8 58 9 59 10 60 11 61 12 62 13 63 14 64
REMARK SMILES IDX 15 65 16 66 24 67 17 68 23 69 25 70 18 71 22 72 19 73 21 74
REMARK SMILES IDX 20 75
REMARK H PARENT 67 25 45 36
REMARK Flexibility Score: inf
ROOT
ATOM      1  C   UNL     1       2.912   1.756  -0.022  1.00  0.00     0.188 C 
ENDROOT
BRANCH   1   2
ATOM      2  O   UNL     1       4.311   1.762  -0.216  1.00  0.00    -0.376 OA
BRANCH   2   3
ATOM      3  C   UNL     1       5.001   0.555  -0.488  1.00  0.00     0.202 C 
BRANCH   3   4
ATOM      4  C   UNL     1       4.525  -0.411  -1.590  1.00  0.00     0.261 C 
BRANCH   4   5
ATOM      5  O   UNL     1       3.113  -0.516  -1.821  1.00  0.00    -0.460 OA
BRANCH   5   6
ATOM      6  C   UNL     1       2.283  -1.433  -1.278  1.00  0.00     0.338 C 
ATOM      7  O   UNL     1       1.340  -1.893  -1.914  1.00  0.00    -0.246 OA
BRANCH   6   8
ATOM      8  C   UNL     1       2.319  -1.661   0.188  1.00  0.00     0.060 A 
ATOM      9  C   UNL     1       3.463  -2.050   0.884  1.00  0.00     0.016 A 
ATOM     10  C   UNL     1       1.084  -1.580   0.860  1.00  0.00     0.016 A 
ATOM     11  C   UNL     1       3.362  -2.460   2.206  1.00  0.00     0.010 A 
ATOM     12  C   UNL     1       0.976  -2.002   2.180  1.00  0.00     0.010 A 
ATOM     13  C   UNL     1       2.104  -2.538   2.806  1.00  0.00    -0.014 A 
BRANCH  13  14
ATOM     14  C   UNL     1       1.983  -3.493   3.907  1.00  0.00     0.031 A 
ATOM     15  C   UNL     1       2.515  -3.156   5.251  1.00  0.00     0.074 A 
ATOM     16  C   UNL     1       1.394  -4.685   3.675  1.00  0.00     0.049 A 
ATOM     17  N   UNL     1       3.341  -3.844   5.977  1.00  0.00    -0.248 NA
ATOM     18  C   UNL     1       2.064  -1.904   5.871  1.00  0.00     0.031 C 
ATOM     19  C   UNL     1       0.618  -5.078   2.490  1.00  0.00     0.029 A 
ATOM     20  N   UNL     1       1.256  -5.756   4.508  1.00  0.00    -0.354 N 
ATOM     21  C   UNL     1       3.411  -3.192   7.204  1.00  0.00     0.074 A 
ATOM     22  C   UNL     1       2.654  -1.970   7.065  1.00  0.00     0.031 C 
ATOM     23  C   UNL     1      -0.117  -6.168   2.788  1.00  0.00     0.029 A 
ATOM     24  C   UNL     1       0.243  -6.617   4.121  1.00  0.00     0.049 A 
ATOM     25  H   UNL     1       1.819  -5.902   5.302  1.00  0.00     0.167 HD
ATOM     26  C   UNL     1       3.951  -3.749   8.322  1.00  0.00     0.031 A 
ATOM     27  C   UNL     1      -0.349  -7.569   4.875  1.00  0.00     0.031 A 
ATOM     28  C   UNL     1       4.800  -4.872   8.059  1.00  0.00     0.049 A 
ATOM     29  C   UNL     1       0.551  -7.907   5.996  1.00  0.00     0.074 A 
ATOM     30  C   UNL     1       5.993  -5.063   7.394  1.00  0.00     0.029 A 
ATOM     31  N   UNL     1       4.313  -6.128   8.317  1.00  0.00    -0.354 N 
ATOM     32  N   UNL     1       1.682  -8.535   5.857  1.00  0.00    -0.248 NA
ATOM     33  C   UNL     1       0.369  -7.227   7.269  1.00  0.00     0.031 C 
ATOM     34  C   UNL     1       5.934  -6.394   6.888  1.00  0.00     0.029 A 
ATOM     35  C   UNL     1       4.703  -6.928   7.273  1.00  0.00     0.049 A 
ATOM     36  H   UNL     1       3.785  -6.403   9.101  1.00  0.00     0.167 HD
ATOM     37  C   UNL     1       2.509  -8.002   6.835  1.00  0.00     0.074 A 
ATOM     38  C   UNL     1       1.611  -7.312   7.752  1.00  0.00     0.031 C 
ATOM     39  C   UNL     1       3.861  -7.929   6.655  1.00  0.00     0.031 A 
BRANCH  26  40
ATOM     40  C   UNL     1       3.478  -3.413   9.707  1.00  0.00    -0.014 A 
ATOM     41  C   UNL     1       4.280  -3.703  10.821  1.00  0.00     0.009 A 
ATOM     42  C   UNL     1       2.145  -3.029   9.955  1.00  0.00     0.009 A 
ATOM     43  C   UNL     1       3.771  -3.607  12.123  1.00  0.00     0.001 A 
ATOM     44  C   UNL     1       1.645  -2.897  11.252  1.00  0.00     0.001 A 
ATOM     45  C   UNL     1       2.457  -3.199  12.338  1.00  0.00     0.000 A 
ENDBRANCH  26  40
BRANCH  27  46
ATOM     46  C   UNL     1      -1.778  -7.938   4.833  1.00  0.00    -0.014 A 
ATOM     47  C   UNL     1      -2.229  -9.150   5.367  1.00  0.00     0.009 A 
ATOM     48  C   UNL     1      -2.744  -6.984   4.454  1.00  0.00     0.009 A 
ATOM     49  C   UNL     1      -3.601  -9.391   5.527  1.00  0.00     0.001 A 
ATOM     50  C   UNL     1      -4.110  -7.228   4.603  1.00  0.00     0.001 A 
ATOM     51  C   UNL     1      -4.538  -8.430   5.151  1.00  0.00     0.000 A 
ENDBRANCH  27  46
BRANCH  39  52
ATOM     52  C   UNL     1       4.458  -8.683   5.492  1.00  0.00    -0.014 A 
ATOM     53  C   UNL     1       4.117  -8.392   4.159  1.00  0.00     0.009 A 
ATOM     54  C   UNL     1       5.499  -9.594   5.728  1.00  0.00     0.009 A 
ATOM     55  C   UNL     1       4.771  -9.019   3.095  1.00  0.00     0.001 A 
ATOM     56  C   UNL     1       6.168 -10.206   4.663  1.00  0.00     0.001 A 
ATOM     57  C   UNL     1       5.800  -9.923   3.348  1.00  0.00     0.000 A 
ENDBRANCH  39  52
ENDBRANCH  13  14
ENDBRANCH   6   8
ENDBRANCH   5   6
ENDBRANCH   4   5
ENDBRANCH   3   4
ENDBRANCH   2   3
ENDBRANCH   1   2
BRANCH   1  58
ATOM     58  C   UNL     1       2.166   2.742  -0.939  1.00  0.00     0.188 C 
BRANCH  58  59
ATOM     59  O   UNL     1       2.782   3.115  -2.169  1.00  0.00    -0.376 OA
BRANCH  59  60
ATOM     60  C   UNL     1       4.090   3.686  -2.120  1.00  0.00     0.202 C 
BRANCH  60  61
ATOM     61  C   UNL     1       4.327   4.872  -1.173  1.00  0.00     0.261 C 
BRANCH  61  62
ATOM     62  O   UNL     1       4.020   4.589   0.205  1.00  0.00    -0.458 OA
BRANCH  62  63
ATOM     63  C   UNL     1       3.205   5.490   0.831  1.00  0.00     0.360 C 
ATOM     64  O   UNL     1       2.797   6.529   0.331  1.00  0.00    -0.244 OA
BRANCH  63  65
ATOM     65  C   UNL     1       2.847   5.089   2.192  1.00  0.00     0.187 A 
ATOM     66  N   UNL     1       1.885   4.178   2.451  1.00  0.00    -0.158 NA
ATOM     67  C   UNL     1       3.334   5.655   3.383  1.00  0.00     0.097 A 
ATOM     68  N   UNL     1       1.705   4.236   3.796  1.00  0.00    -0.219 N 
ATOM     69  C   UNL     1       2.596   5.122   4.409  1.00  0.00     0.170 A 
ATOM     70  Br  UNL     1       4.690   6.940   3.506  1.00  0.00    -0.044 Br
ATOM     71  C   UNL     1       0.756   3.551   4.551  1.00  0.00     0.132 A 
ATOM     72  N   UNL     1       2.585   5.346   5.761  1.00  0.00    -0.235 NA
ATOM     73  C   UNL     1       0.680   3.743   5.875  1.00  0.00     0.054 A 
ATOM     74  C   UNL     1       1.677   4.705   6.436  1.00  0.00     0.131 A 
ATOM     75  Br  UNL     1      -0.534   2.925   7.003  1.00  0.00    -0.047 Br
ENDBRANCH  63  65
ENDBRANCH  62  63
ENDBRANCH  61  62
ENDBRANCH  60  61
ENDBRANCH  59  60
ENDBRANCH  58  59
ENDBRANCH   1  58
TORSDOF 17
