REMARK SMILES COc1ccc(NC(=O)[C@@H]2[C@@H](C(=O)OCCOCCOCCOC(=O)c3ccc(-c4c5nc(c(-c6ccccc6)c6ccc([nH]6)c(-c6ccccc6)c6nc(c(-c7ccccc7)c7ccc4[nH]7)C=C6)C=C5)cc3)[C@H]3C=C[C@@H]2C3)cc1O
REMARK SMILES IDX 18 1 17 2 16 3 15 4 14 5 12 6 13 7 11 8 10 9 77 10 74 11
REMARK SMILES IDX 76 12 78 13 75 14 8 15 7 16 9 18 6 19 3 20 4 21 80 22 5 23
REMARK SMILES IDX 79 24 2 25 1 26 81 27 19 29 20 30 21 31 22 32 23 33 24 34
REMARK SMILES IDX 25 35 26 36 27 37 73 38 28 39 72 40 29 41 30 42 31 43 66 44
REMARK SMILES IDX 32 45 71 46 65 47 67 48 33 49 70 50 64 51 63 52 34 54 56 55
REMARK SMILES IDX 41 56 55 57 42 58 45 59 54 60 68 61 43 62 44 63 53 65 69 66
REMARK SMILES IDX 46 67 35 68 36 69 40 70 37 71 39 72 38 73 57 74 58 75 62 76
REMARK SMILES IDX 59 77 61 78 60 79 47 80 48 81 52 82 49 83 51 84 50 85
REMARK H PARENT 7 17 81 28 67 53 45 64
REMARK Flexibility Score: inf
ROOT
ATOM      1  C   UNL     1       1.401  -5.095  -3.014  1.00  0.00     0.188 C 
ENDROOT
BRANCH   1   2
ATOM      2  O   UNL     1       0.379  -5.587  -3.872  1.00  0.00    -0.376 OA
BRANCH   2   3
ATOM      3  C   UNL     1      -0.893  -4.966  -3.752  1.00  0.00     0.202 C 
BRANCH   3   4
ATOM      4  C   UNL     1      -1.757  -5.385  -2.555  1.00  0.00     0.261 C 
BRANCH   4   5
ATOM      5  O   UNL     1      -1.107  -5.362  -1.268  1.00  0.00    -0.463 OA
BRANCH   5   6
ATOM      6  C   UNL     1      -0.672  -6.584  -0.840  1.00  0.00     0.310 C 
ATOM      7  O   UNL     1      -0.739  -7.601  -1.518  1.00  0.00    -0.252 OA
BRANCH   6   8
ATOM      8  C   UNL     1      -0.044  -6.520   0.556  1.00  0.00     0.119 C 
ATOM      9  C   UNL     1       1.316  -7.284   0.560  1.00  0.00     0.100 C 
ATOM     10  C   UNL     1       1.009  -8.408   1.612  1.00  0.00     0.025 C 
ATOM     11  C   UNL     1      -0.893  -7.245   1.634  1.00  0.00     0.027 C 
ATOM     12  C   UNL     1      -0.094  -9.315   1.103  1.00  0.00    -0.027 C 
ATOM     13  C   UNL     1       0.196  -7.616   2.643  1.00  0.00     0.017 C 
ATOM     14  C   UNL     1      -1.244  -8.627   1.163  1.00  0.00    -0.027 C 
BRANCH   9  15
ATOM     15  C   UNL     1       2.701  -6.723   0.920  1.00  0.00     0.228 C 
ATOM     16  N   UNL     1       3.121  -5.481   1.236  1.00  0.00    -0.326 N 
ATOM     17  H   UNL     1       4.056  -5.506   1.543  1.00  0.00     0.169 HD
ATOM     18  O   UNL     1       3.631  -7.553   0.973  1.00  0.00    -0.274 OA
BRANCH  16  19
ATOM     19  C   UNL     1       2.641  -4.168   1.263  1.00  0.00     0.045 A 
ATOM     20  C   UNL     1       1.739  -1.512   1.523  1.00  0.00     0.160 A 
ATOM     21  C   UNL     1       1.001  -2.432   0.799  1.00  0.00     0.052 A 
ATOM     22  C   UNL     1       2.976  -1.897   2.031  1.00  0.00     0.159 A 
ATOM     23  C   UNL     1       1.510  -3.721   0.605  1.00  0.00     0.030 A 
ATOM     24  C   UNL     1       3.417  -3.215   1.937  1.00  0.00     0.076 A 
BRANCH  20  25
ATOM     25  O   UNL     1       1.309  -0.248   1.813  1.00  0.00    -0.493 OA
ATOM     26  C   UNL     1       0.945   0.498   0.659  1.00  0.00     0.278 C 
ENDBRANCH  20  25
BRANCH  22  27
ATOM     27  O   UNL     1       3.805  -0.965   2.588  1.00  0.00    -0.504 OA
ATOM     28  H   UNL     1       3.526  -0.073   2.660  1.00  0.00     0.293 HD
ENDBRANCH  22  27
ENDBRANCH  16  19
ENDBRANCH   9  15
ENDBRANCH   6   8
ENDBRANCH   5   6
ENDBRANCH   4   5
ENDBRANCH   3   4
ENDBRANCH   2   3
ENDBRANCH   1   2
BRANCH   1  29
ATOM     29  C   UNL     1       1.622  -3.586  -3.066  1.00  0.00     0.188 C 
BRANCH  29  30
ATOM     30  O   UNL     1       0.700  -2.824  -2.290  1.00  0.00    -0.376 OA
BRANCH  30  31
ATOM     31  C   UNL     1       0.468  -1.490  -2.750  1.00  0.00     0.202 C 
BRANCH  31  32
ATOM     32  C   UNL     1       1.649  -0.563  -3.127  1.00  0.00     0.261 C 
BRANCH  32  33
ATOM     33  O   UNL     1       2.914  -1.210  -3.330  1.00  0.00    -0.460 OA
BRANCH  33  34
ATOM     34  C   UNL     1       3.768  -1.181  -2.279  1.00  0.00     0.338 C 
ATOM     35  O   UNL     1       3.638  -0.544  -1.242  1.00  0.00    -0.246 OA
BRANCH  34  36
ATOM     36  C   UNL     1       4.815  -2.206  -2.474  1.00  0.00     0.060 A 
ATOM     37  C   UNL     1       4.927  -3.212  -1.506  1.00  0.00     0.016 A 
ATOM     38  C   UNL     1       5.656  -2.211  -3.583  1.00  0.00     0.016 A 
ATOM     39  C   UNL     1       5.888  -4.214  -1.618  1.00  0.00     0.010 A 
ATOM     40  C   UNL     1       6.643  -3.200  -3.685  1.00  0.00     0.010 A 
ATOM     41  C   UNL     1       6.781  -4.191  -2.692  1.00  0.00    -0.014 A 
BRANCH  41  42
ATOM     42  C   UNL     1       7.971  -5.079  -2.689  1.00  0.00     0.031 A 
ATOM     43  C   UNL     1       9.300  -4.484  -2.312  1.00  0.00     0.074 A 
ATOM     44  C   UNL     1       7.886  -6.388  -2.988  1.00  0.00     0.049 A 
ATOM     45  N   UNL     1      10.499  -5.000  -2.399  1.00  0.00    -0.248 NA
ATOM     46  C   UNL     1       9.269  -3.120  -1.758  1.00  0.00     0.031 C 
ATOM     47  C   UNL     1       6.653  -7.125  -3.256  1.00  0.00     0.029 A 
ATOM     48  N   UNL     1       8.877  -7.330  -3.123  1.00  0.00    -0.354 N 
ATOM     49  C   UNL     1      11.365  -4.017  -1.936  1.00  0.00     0.074 A 
ATOM     50  C   UNL     1      10.558  -2.869  -1.586  1.00  0.00     0.031 C 
ATOM     51  C   UNL     1       6.963  -8.403  -3.540  1.00  0.00     0.029 A 
ATOM     52  C   UNL     1       8.416  -8.558  -3.532  1.00  0.00     0.049 A 
ATOM     53  H   UNL     1       9.827  -7.143  -2.944  1.00  0.00     0.167 HD
ATOM     54  C   UNL     1      12.712  -4.066  -1.814  1.00  0.00     0.031 A 
ATOM     55  C   UNL     1       9.093  -9.664  -3.901  1.00  0.00     0.031 A 
ATOM     56  C   UNL     1      13.515  -5.205  -2.165  1.00  0.00     0.049 A 
ATOM     57  C   UNL     1      10.601  -9.646  -3.891  1.00  0.00     0.074 A 
ATOM     58  C   UNL     1      14.891  -5.343  -2.102  1.00  0.00     0.029 A 
ATOM     59  N   UNL     1      13.013  -6.405  -2.643  1.00  0.00    -0.354 N 
ATOM     60  N   UNL     1      11.418  -8.700  -3.496  1.00  0.00    -0.248 NA
ATOM     61  C   UNL     1      11.281 -10.853  -4.389  1.00  0.00     0.031 C 
ATOM     62  C   UNL     1      15.225  -6.608  -2.595  1.00  0.00     0.029 A 
ATOM     63  C   UNL     1      14.054  -7.280  -2.903  1.00  0.00     0.049 A 
ATOM     64  H   UNL     1      12.059  -6.606  -2.777  1.00  0.00     0.167 HD
ATOM     65  C   UNL     1      12.701  -9.210  -3.662  1.00  0.00     0.074 A 
ATOM     66  C   UNL     1      12.556 -10.552  -4.182  1.00  0.00     0.031 C 
ATOM     67  C   UNL     1      13.894  -8.619  -3.407  1.00  0.00     0.031 A 
BRANCH  54  68
ATOM     68  C   UNL     1      13.407  -2.829  -1.320  1.00  0.00    -0.014 A 
ATOM     69  C   UNL     1      13.310  -2.418   0.018  1.00  0.00     0.009 A 
ATOM     70  C   UNL     1      14.202  -2.082  -2.204  1.00  0.00     0.009 A 
ATOM     71  C   UNL     1      13.972  -1.268   0.454  1.00  0.00     0.001 A 
ATOM     72  C   UNL     1      14.887  -0.950  -1.759  1.00  0.00     0.001 A 
ATOM     73  C   UNL     1      14.764  -0.539  -0.433  1.00  0.00     0.000 A 
ENDBRANCH  54  68
BRANCH  55  74
ATOM     74  C   UNL     1       8.367 -10.875  -4.375  1.00  0.00    -0.014 A 
ATOM     75  C   UNL     1       8.433 -12.078  -3.656  1.00  0.00     0.009 A 
ATOM     76  C   UNL     1       7.654 -10.850  -5.585  1.00  0.00     0.009 A 
ATOM     77  C   UNL     1       7.832 -13.237  -4.155  1.00  0.00     0.001 A 
ATOM     78  C   UNL     1       7.024 -12.002  -6.064  1.00  0.00     0.001 A 
ATOM     79  C   UNL     1       7.125 -13.197  -5.355  1.00  0.00     0.000 A 
ENDBRANCH  55  74
BRANCH  67  80
ATOM     80  C   UNL     1      15.138  -9.435  -3.633  1.00  0.00    -0.014 A 
ATOM     81  C   UNL     1      15.588  -9.743  -4.925  1.00  0.00     0.009 A 
ATOM     82  C   UNL     1      15.899  -9.854  -2.530  1.00  0.00     0.009 A 
ATOM     83  C   UNL     1      16.761 -10.481  -5.107  1.00  0.00     0.001 A 
ATOM     84  C   UNL     1      17.087 -10.563  -2.715  1.00  0.00     0.001 A 
ATOM     85  C   UNL     1      17.512 -10.884  -4.003  1.00  0.00     0.000 A 
ENDBRANCH  67  80
ENDBRANCH  41  42
ENDBRANCH  34  36
ENDBRANCH  33  34
ENDBRANCH  32  33
ENDBRANCH  31  32
ENDBRANCH  30  31
ENDBRANCH  29  30
ENDBRANCH   1  29
TORSDOF 21
