REMARK SMILES O=C(OCCOCCOCCOC(=O)[C@@H]1CCCN1C(=O)[C@@H]1CCCN1C(=O)OCC1c2ccccc2-c2ccccc21)c1ccc(-c2c3nc(c(-c4ccccc4)c4ccc([nH]4)c(-c4ccccc4)c4nc(c(-c5ccccc5)c5ccc2[nH]5)C=C4)C=C3)cc1
REMARK SMILES IDX 10 1 9 2 8 3 7 4 6 5 5 6 4 7 3 8 2 9 1 10 44 11 45 12 91 13
REMARK SMILES IDX 46 14 90 15 47 16 48 17 49 18 84 19 50 20 89 21 83 22 85 23
REMARK SMILES IDX 51 24 88 25 82 26 81 27 52 29 74 30 59 31 73 32 60 33 63 34
REMARK SMILES IDX 72 35 86 36 61 37 62 38 71 40 87 41 64 42 53 43 54 44 58 45
REMARK SMILES IDX 55 46 57 47 56 48 75 49 76 50 80 51 77 52 79 53 78 54 65 55
REMARK SMILES IDX 66 56 70 57 67 58 69 59 68 60 11 61 12 62 13 63 14 64 15 65
REMARK SMILES IDX 16 66 19 67 17 68 18 69 20 70 21 71 22 72 23 73 26 74 24 75
REMARK SMILES IDX 25 76 27 77 28 78 29 79 30 80 31 81 32 82 43 83 33 84 37 85
REMARK SMILES IDX 38 86 42 87 34 88 36 89 39 90 41 91 35 92 40 93
REMARK H PARENT 85 28 63 39
REMARK Flexibility Score: inf
ROOT
ATOM      1  C   UNL     1       3.025  -0.025   4.504  1.00  0.00     0.202 C 
ENDROOT
BRANCH   1   2
ATOM      2  O   UNL     1       1.685   0.111   4.054  1.00  0.00    -0.376 OA
BRANCH   2   3
ATOM      3  C   UNL     1       1.359  -0.470   2.797  1.00  0.00     0.188 C 
BRANCH   3   4
ATOM      4  C   UNL     1       2.159  -0.009   1.571  1.00  0.00     0.188 C 
BRANCH   4   5
ATOM      5  O   UNL     1       3.564   0.066   1.749  1.00  0.00    -0.376 OA
BRANCH   5   6
ATOM      6  C   UNL     1       4.267   1.248   1.337  1.00  0.00     0.202 C 
BRANCH   6   7
ATOM      7  C   UNL     1       3.766   2.221   0.188  1.00  0.00     0.261 C 
BRANCH   7   8
ATOM      8  O   UNL     1       2.507   1.953  -0.545  1.00  0.00    -0.460 OA
BRANCH   8   9
ATOM      9  C   UNL     1       2.206   1.537  -1.825  1.00  0.00     0.338 C 
ATOM     10  O   UNL     1       1.137   1.842  -2.342  1.00  0.00    -0.246 OA
BRANCH   9  11
ATOM     11  C   UNL     1       3.039   0.487  -2.492  1.00  0.00     0.060 A 
ATOM     12  C   UNL     1       4.104  -0.215  -1.368  1.00  0.00     0.016 A 
ATOM     13  C   UNL     1       2.552  -0.381  -3.995  1.00  0.00     0.016 A 
ATOM     14  C   UNL     1       4.731  -1.830  -1.601  1.00  0.00     0.010 A 
ATOM     15  C   UNL     1       3.102  -2.055  -4.402  1.00  0.00     0.010 A 
ATOM     16  C   UNL     1       4.228  -2.919  -3.256  1.00  0.00    -0.014 A 
BRANCH  16  17
ATOM     17  C   UNL     1       4.843  -4.390  -3.974  1.00  0.00     0.031 A 
ATOM     18  C   UNL     1       5.914  -4.213  -5.019  1.00  0.00     0.074 A 
ATOM     19  C   UNL     1       4.612  -5.747  -3.821  1.00  0.00     0.049 A 
ATOM     20  N   UNL     1       6.835  -5.062  -5.399  1.00  0.00    -0.248 NA
ATOM     21  C   UNL     1       5.906  -2.954  -5.767  1.00  0.00     0.031 C 
ATOM     22  C   UNL     1       3.407  -6.377  -3.328  1.00  0.00     0.029 A 
ATOM     23  N   UNL     1       5.511  -6.865  -3.833  1.00  0.00    -0.354 N 
ATOM     24  C   UNL     1       7.478  -4.454  -6.454  1.00  0.00     0.074 A 
ATOM     25  C   UNL     1       6.948  -3.112  -6.562  1.00  0.00     0.031 C 
ATOM     26  C   UNL     1       3.719  -7.570  -2.774  1.00  0.00     0.029 A 
ATOM     27  C   UNL     1       5.090  -7.953  -3.036  1.00  0.00     0.049 A 
ATOM     28  H   UNL     1       6.349  -6.873  -4.351  1.00  0.00     0.167 HD
ATOM     29  C   UNL     1       8.324  -4.996  -7.354  1.00  0.00     0.031 A 
ATOM     30  C   UNL     1       5.645  -9.126  -2.574  1.00  0.00     0.031 A 
ATOM     31  C   UNL     1       8.680  -6.386  -7.443  1.00  0.00     0.049 A 
ATOM     32  C   UNL     1       6.708  -9.683  -3.480  1.00  0.00     0.074 A 
ATOM     33  C   UNL     1       9.441  -6.992  -8.428  1.00  0.00     0.029 A 
ATOM     34  N   UNL     1       8.256  -7.396  -6.592  1.00  0.00    -0.354 N 
ATOM     35  N   UNL     1       7.352  -9.050  -4.422  1.00  0.00    -0.248 NA
ATOM     36  C   UNL     1       6.955 -11.139  -3.448  1.00  0.00     0.031 C 
ATOM     37  C   UNL     1       9.421  -8.372  -8.219  1.00  0.00     0.029 A 
ATOM     38  C   UNL     1       8.730  -8.622  -7.049  1.00  0.00     0.049 A 
ATOM     39  H   UNL     1       7.704  -7.266  -5.788  1.00  0.00     0.167 HD
ATOM     40  C   UNL     1       7.945 -10.033  -5.186  1.00  0.00     0.074 A 
ATOM     41  C   UNL     1       7.733 -11.297  -4.511  1.00  0.00     0.031 C 
ATOM     42  C   UNL     1       8.518  -9.887  -6.400  1.00  0.00     0.031 A 
BRANCH  29  43
ATOM     43  C   UNL     1       8.751  -4.073  -8.450  1.00  0.00    -0.014 A 
ATOM     44  C   UNL     1       9.697  -3.064  -8.226  1.00  0.00     0.009 A 
ATOM     45  C   UNL     1       8.141  -4.189  -9.708  1.00  0.00     0.009 A 
ATOM     46  C   UNL     1      10.023  -2.179  -9.252  1.00  0.00     0.001 A 
ATOM     47  C   UNL     1       8.489  -3.321 -10.737  1.00  0.00     0.001 A 
ATOM     48  C   UNL     1       9.427  -2.315 -10.508  1.00  0.00     0.000 A 
ENDBRANCH  29  43
BRANCH  30  49
ATOM     49  C   UNL     1       5.112 -10.038  -1.448  1.00  0.00    -0.014 A 
ATOM     50  C   UNL     1       5.972 -10.667  -0.507  1.00  0.00     0.009 A 
ATOM     51  C   UNL     1       3.753 -10.357  -1.308  1.00  0.00     0.009 A 
ATOM     52  C   UNL     1       5.481 -11.500   0.526  1.00  0.00     0.001 A 
ATOM     53  C   UNL     1       3.250 -11.102  -0.227  1.00  0.00     0.001 A 
ATOM     54  C   UNL     1       4.113 -11.678   0.692  1.00  0.00     0.000 A 
ENDBRANCH  30  49
BRANCH  42  55
ATOM     55  C   UNL     1       8.997 -11.143  -7.054  1.00  0.00    -0.014 A 
ATOM     56  C   UNL     1       8.100 -12.073  -7.606  1.00  0.00     0.009 A 
ATOM     57  C   UNL     1      10.369 -11.419  -7.066  1.00  0.00     0.009 A 
ATOM     58  C   UNL     1       8.573 -13.286  -8.110  1.00  0.00     0.001 A 
ATOM     59  C   UNL     1      10.840 -12.618  -7.595  1.00  0.00     0.001 A 
ATOM     60  C   UNL     1       9.941 -13.557  -8.101  1.00  0.00     0.000 A 
ENDBRANCH  42  55
ENDBRANCH  16  17
ENDBRANCH   9  11
ENDBRANCH   8   9
ENDBRANCH   7   8
ENDBRANCH   6   7
ENDBRANCH   5   6
ENDBRANCH   4   5
ENDBRANCH   3   4
ENDBRANCH   2   3
ENDBRANCH   1   2
BRANCH   1  61
ATOM     61  C   UNL     1       3.603  -1.433   4.668  1.00  0.00     0.261 C 
BRANCH  61  62
ATOM     62  O   UNL     1       3.375  -2.349   3.588  1.00  0.00    -0.462 OA
BRANCH  62  63
ATOM     63  C   UNL     1       2.724  -3.503   3.924  1.00  0.00     0.328 C 
ATOM     64  O   UNL     1       2.253  -3.748   5.028  1.00  0.00    -0.250 OA
BRANCH  63  65
ATOM     65  C   UNL     1       2.700  -4.480   2.757  1.00  0.00     0.195 C 
ATOM     66  C   UNL     1       1.205  -4.796   2.503  1.00  0.00     0.039 C 
ATOM     67  N   UNL     1       3.311  -5.792   3.028  1.00  0.00    -0.327 N 
ATOM     68  C   UNL     1       1.073  -6.306   2.369  1.00  0.00     0.024 C 
ATOM     69  C   UNL     1       2.469  -6.861   2.516  1.00  0.00     0.120 C 
BRANCH  67  70
ATOM     70  C   UNL     1       4.602  -6.149   3.357  1.00  0.00     0.246 C 
ATOM     71  O   UNL     1       4.883  -7.359   3.429  1.00  0.00    -0.272 OA
BRANCH  70  72
ATOM     72  C   UNL     1       5.762  -5.156   3.676  1.00  0.00     0.178 C 
ATOM     73  C   UNL     1       5.677  -4.424   4.996  1.00  0.00     0.037 C 
ATOM     74  N   UNL     1       6.127  -4.120   2.721  1.00  0.00    -0.296 N 
ATOM     75  C   UNL     1       6.686  -3.286   4.834  1.00  0.00     0.024 C 
ATOM     76  C   UNL     1       6.667  -2.940   3.350  1.00  0.00     0.124 C 
BRANCH  74  77
ATOM     77  C   UNL     1       6.434  -4.460   1.438  1.00  0.00     0.410 C 
ATOM     78  O   UNL     1       7.064  -3.775   0.651  1.00  0.00    -0.224 OA
BRANCH  77  79
ATOM     79  O   UNL     1       5.863  -5.651   1.199  1.00  0.00    -0.448 OA
BRANCH  79  80
ATOM     80  C   UNL     1       5.494  -6.026  -0.101  1.00  0.00     0.248 C 
BRANCH  80  81
ATOM     81  C   UNL     1       4.305  -5.249  -0.646  1.00  0.00     0.088 C 
ATOM     82  C   UNL     1       2.700  -5.237  -0.530  1.00  0.00    -0.029 A 
ATOM     83  C   UNL     1       4.677  -3.925  -1.236  1.00  0.00    -0.029 A 
ATOM     84  C   UNL     1       1.808  -6.301  -0.665  1.00  0.00     0.005 A 
ATOM     85  C   UNL     1       2.116  -3.986  -0.850  1.00  0.00    -0.014 A 
ATOM     86  C   UNL     1       3.134  -3.143  -1.336  1.00  0.00    -0.014 A 
ATOM     87  C   UNL     1       6.168  -3.352  -2.055  1.00  0.00     0.005 A 
ATOM     88  C   UNL     1       0.459  -6.096  -1.080  1.00  0.00     0.000 A 
ATOM     89  C   UNL     1       0.756  -3.734  -1.076  1.00  0.00     0.009 A 
ATOM     90  C   UNL     1       2.977  -1.744  -2.329  1.00  0.00     0.009 A 
ATOM     91  C   UNL     1       6.174  -1.888  -3.071  1.00  0.00     0.000 A 
ATOM     92  C   UNL     1      -0.080  -4.818  -1.232  1.00  0.00     0.001 A 
ATOM     93  C   UNL     1       4.606  -1.018  -3.296  1.00  0.00     0.001 A 
ENDBRANCH  80  81
ENDBRANCH  79  80
ENDBRANCH  77  79
ENDBRANCH  74  77
ENDBRANCH  70  72
ENDBRANCH  67  70
ENDBRANCH  63  65
ENDBRANCH  62  63
ENDBRANCH  61  62
ENDBRANCH   1  61
TORSDOF 23
