REMARK SMILES C[C@H]1CN(C(=O)N[C@@H]2CCCCC[C@@H]2C(=O)OCCOCCOCCOC(=O)c2ccc(-c3c4nc(c(-c5ccccc5)c5ccc([nH]5)c(-c5ccccc5)c5nc(c(-c6ccccc6)c6ccc3[nH]6)C=C5)C=C4)cc2)C[C@H](C)O1
REMARK SMILES IDX 21 1 20 2 19 3 18 4 17 5 15 6 16 7 14 8 8 9 7 10 1 11 2 12
REMARK SMILES IDX 3 13 80 14 4 15 78 16 5 17 77 18 79 19 6 20 9 22 10 23 13 25
REMARK SMILES IDX 12 26 11 27 22 29 23 30 24 31 25 32 26 33 27 34 28 35 29 36
REMARK SMILES IDX 30 37 76 38 31 39 75 40 32 41 33 42 34 43 69 44 35 45 74 46
REMARK SMILES IDX 68 47 70 48 36 49 73 50 67 51 66 52 37 54 59 55 44 56 58 57
REMARK SMILES IDX 45 58 48 59 57 60 71 61 46 62 47 63 56 65 72 66 49 67 38 68
REMARK SMILES IDX 39 69 43 70 40 71 42 72 41 73 60 74 61 75 65 76 62 77 64 78
REMARK SMILES IDX 63 79 50 80 51 81 55 82 52 83 54 84 53 85
REMARK H PARENT 7 21 70 53 48 64
REMARK Flexibility Score: 90.00
ROOT
ATOM      1  C   UNL     1      -5.506   0.842  -1.238  1.00  0.00     0.188 C 
ENDROOT
BRANCH   1   2
ATOM      2  O   UNL     1      -6.535   1.159  -2.156  1.00  0.00    -0.376 OA
BRANCH   2   3
ATOM      3  C   UNL     1      -7.032   0.156  -3.040  1.00  0.00     0.202 C 
BRANCH   3   4
ATOM      4  C   UNL     1      -6.141  -0.981  -3.554  1.00  0.00     0.261 C 
BRANCH   4   5
ATOM      5  O   UNL     1      -5.472  -1.673  -2.492  1.00  0.00    -0.463 OA
BRANCH   5   6
ATOM      6  C   UNL     1      -4.186  -2.040  -2.749  1.00  0.00     0.311 C 
ATOM      7  O   UNL     1      -3.651  -2.029  -3.850  1.00  0.00    -0.252 OA
BRANCH   6   8
ATOM      8  C   UNL     1      -3.465  -2.401  -1.464  1.00  0.00     0.121 C 
BRANCH   8   9
ATOM      9  C   UNL     1      -2.244  -1.473  -1.152  1.00  0.00     0.098 C 
BRANCH   9  10
ATOM     10  N   UNL     1      -1.906  -0.512  -2.203  1.00  0.00    -0.334 N 
ATOM     11  C   UNL     1       0.710   0.931   2.324  1.00  0.00     0.040 C 
ATOM     12  C   UNL     1       0.768   1.032   0.804  1.00  0.00     0.135 C 
ATOM     13  C   UNL     1      -0.654   1.009   0.206  1.00  0.00     0.153 C 
ATOM     14  O   UNL     1       1.459   2.252   0.494  1.00  0.00    -0.372 OA
ATOM     15  N   UNL     1      -0.634   1.275  -1.234  1.00  0.00    -0.320 N 
ATOM     16  C   UNL     1       1.493   2.550  -0.912  1.00  0.00     0.135 C 
ATOM     17  C   UNL     1      -1.223   0.644  -2.289  1.00  0.00     0.317 C 
ATOM     18  C   UNL     1       0.083   2.524  -1.518  1.00  0.00     0.153 C 
ATOM     19  C   UNL     1       2.468   1.645  -1.657  1.00  0.00     0.040 C 
ATOM     20  O   UNL     1      -1.152   1.106  -3.434  1.00  0.00    -0.249 OA
ATOM     21  H   UNL     1      -2.276  -0.782  -3.075  1.00  0.00     0.165 HD
ENDBRANCH   9  10
BRANCH   9  22
ATOM     22  C   UNL     1      -0.969  -2.227  -0.744  1.00  0.00     0.026 C 
BRANCH  22  23
ATOM     23  C   UNL     1      -1.097  -2.901   0.618  1.00  0.00     0.002 CG0
ATOM     24  G   UNL     1      -1.633  -4.322   0.536  1.00  0.00     0.000 G0
ENDBRANCH  22  23
ENDBRANCH   9  22
ENDBRANCH   8   9
BRANCH   8  25
ATOM     25  C   UNL     1      -3.242  -3.917  -1.429  1.00  0.00     0.017 C 
BRANCH  25  26
ATOM     26  C   UNL     1      -3.051  -4.449  -0.007  1.00  0.00     0.001 C 
BRANCH  26  27
ATOM     27  C   UNL     1      -1.633  -4.322   0.536  1.00  0.00     0.000 CG0
ATOM     28  G   UNL     1      -1.097  -2.901   0.618  1.00  0.00     0.000 G0
ENDBRANCH  26  27
ENDBRANCH  25  26
ENDBRANCH   8  25
ENDBRANCH   6   8
ENDBRANCH   5   6
ENDBRANCH   4   5
ENDBRANCH   3   4
ENDBRANCH   2   3
ENDBRANCH   1   2
BRANCH   1  29
ATOM     29  C   UNL     1      -5.847   0.041   0.034  1.00  0.00     0.188 C 
BRANCH  29  30
ATOM     30  O   UNL     1      -7.011  -0.751   0.108  1.00  0.00    -0.376 OA
BRANCH  30  31
ATOM     31  C   UNL     1      -8.285  -0.122   0.136  1.00  0.00     0.202 C 
BRANCH  31  32
ATOM     32  C   UNL     1      -8.568   1.196   0.880  1.00  0.00     0.261 C 
BRANCH  32  33
ATOM     33  O   UNL     1      -7.547   2.200   0.809  1.00  0.00    -0.460 OA
BRANCH  33  34
ATOM     34  C   UNL     1      -6.938   2.476   1.986  1.00  0.00     0.338 C 
ATOM     35  O   UNL     1      -7.173   1.977   3.082  1.00  0.00    -0.246 OA
BRANCH  34  36
ATOM     36  C   UNL     1      -5.767   3.335   1.749  1.00  0.00     0.060 A 
ATOM     37  C   UNL     1      -4.499   2.828   2.063  1.00  0.00     0.016 A 
ATOM     38  C   UNL     1      -5.915   4.640   1.280  1.00  0.00     0.016 A 
ATOM     39  C   UNL     1      -3.372   3.630   1.907  1.00  0.00     0.010 A 
ATOM     40  C   UNL     1      -4.785   5.454   1.153  1.00  0.00     0.010 A 
ATOM     41  C   UNL     1      -3.512   4.957   1.476  1.00  0.00    -0.014 A 
BRANCH  41  42
ATOM     42  C   UNL     1      -2.330   5.850   1.488  1.00  0.00     0.031 A 
ATOM     43  C   UNL     1      -1.925   6.503   2.776  1.00  0.00     0.074 A 
ATOM     44  C   UNL     1      -1.613   6.057   0.369  1.00  0.00     0.049 A 
ATOM     45  N   UNL     1      -0.918   7.301   3.018  1.00  0.00    -0.248 NA
ATOM     46  C   UNL     1      -2.783   6.239   3.943  1.00  0.00     0.031 C 
ATOM     47  C   UNL     1      -1.907   5.474  -0.936  1.00  0.00     0.029 A 
ATOM     48  N   UNL     1      -0.465   6.781   0.165  1.00  0.00    -0.354 N 
ATOM     49  C   UNL     1      -1.049   7.678   4.348  1.00  0.00     0.074 A 
ATOM     50  C   UNL     1      -2.212   6.993   4.871  1.00  0.00     0.031 C 
ATOM     51  C   UNL     1      -0.920   5.800  -1.789  1.00  0.00     0.029 A 
ATOM     52  C   UNL     1       0.054   6.644  -1.101  1.00  0.00     0.049 A 
ATOM     53  H   UNL     1      -0.053   7.345   0.858  1.00  0.00     0.167 HD
ATOM     54  C   UNL     1      -0.295   8.550   5.056  1.00  0.00     0.031 A 
ATOM     55  C   UNL     1       1.193   7.131  -1.631  1.00  0.00     0.031 A 
ATOM     56  C   UNL     1       0.840   9.257   4.525  1.00  0.00     0.049 A 
ATOM     57  C   UNL     1       2.038   8.069  -0.807  1.00  0.00     0.074 A 
ATOM     58  C   UNL     1       1.644  10.191   5.154  1.00  0.00     0.029 A 
ATOM     59  N   UNL     1       1.327   9.111   3.236  1.00  0.00    -0.354 N 
ATOM     60  N   UNL     1       1.900   8.424   0.447  1.00  0.00    -0.248 NA
ATOM     61  C   UNL     1       3.172   8.709  -1.491  1.00  0.00     0.031 C 
ATOM     62  C   UNL     1       2.584  10.652   4.226  1.00  0.00     0.029 A 
ATOM     63  C   UNL     1       2.404   9.959   3.040  1.00  0.00     0.049 A 
ATOM     64  H   UNL     1       0.962   8.495   2.560  1.00  0.00     0.167 HD
ATOM     65  C   UNL     1       2.913   9.342   0.695  1.00  0.00     0.074 A 
ATOM     66  C   UNL     1       3.694   9.445  -0.520  1.00  0.00     0.031 C 
ATOM     67  C   UNL     1       3.158  10.061   1.818  1.00  0.00     0.031 A 
BRANCH  54  68
ATOM     68  C   UNL     1      -0.742   8.863   6.454  1.00  0.00    -0.014 A 
ATOM     69  C   UNL     1      -0.579   7.947   7.504  1.00  0.00     0.009 A 
ATOM     70  C   UNL     1      -1.333  10.109   6.721  1.00  0.00     0.009 A 
ATOM     71  C   UNL     1      -1.029   8.263   8.789  1.00  0.00     0.001 A 
ATOM     72  C   UNL     1      -1.757  10.431   8.010  1.00  0.00     0.001 A 
ATOM     73  C   UNL     1      -1.613   9.505   9.040  1.00  0.00     0.000 A 
ENDBRANCH  54  68
BRANCH  55  74
ATOM     74  C   UNL     1       1.613   6.763  -3.011  1.00  0.00    -0.014 A 
ATOM     75  C   UNL     1       2.800   6.040  -3.219  1.00  0.00     0.009 A 
ATOM     76  C   UNL     1       0.861   7.154  -4.129  1.00  0.00     0.009 A 
ATOM     77  C   UNL     1       3.235   5.740  -4.513  1.00  0.00     0.001 A 
ATOM     78  C   UNL     1       1.277   6.820  -5.420  1.00  0.00     0.001 A 
ATOM     79  C   UNL     1       2.469   6.124  -5.611  1.00  0.00     0.000 A 
ENDBRANCH  55  74
BRANCH  67  80
ATOM     80  C   UNL     1       4.299  11.038   1.777  1.00  0.00    -0.014 A 
ATOM     81  C   UNL     1       4.202  12.229   1.039  1.00  0.00     0.009 A 
ATOM     82  C   UNL     1       5.459  10.797   2.529  1.00  0.00     0.009 A 
ATOM     83  C   UNL     1       5.255  13.145   1.032  1.00  0.00     0.001 A 
ATOM     84  C   UNL     1       6.500  11.728   2.542  1.00  0.00     0.001 A 
ATOM     85  C   UNL     1       6.400  12.896   1.788  1.00  0.00     0.000 A 
ENDBRANCH  67  80
ENDBRANCH  41  42
ENDBRANCH  34  36
ENDBRANCH  33  34
ENDBRANCH  32  33
ENDBRANCH  31  32
ENDBRANCH  30  31
ENDBRANCH  29  30
ENDBRANCH   1  29
TORSDOF 18
