REMARK SMILES Nc1c(CC(=O)OCCOCCOCCOC(=O)c2ccc(-c3c4nc(c(-c5ccccc5)c5ccc([nH]5)c(-c5ccccc5)c5nc(c(-c6ccccc6)c6ccc3[nH]6)C=C5)C=C4)cc2)cccc1C(=O)c1ccc(Br)cc1
REMARK SMILES IDX 11 1 10 2 9 3 8 4 7 5 5 6 6 7 4 8 3 9 2 10 70 11 67 12 69 13
REMARK SMILES IDX 68 14 1 15 71 18 72 19 73 20 74 21 79 22 75 23 78 24 76 25
REMARK SMILES IDX 77 26 12 27 13 28 14 29 15 30 16 31 17 32 18 33 19 34 20 35
REMARK SMILES IDX 66 36 21 37 65 38 22 39 23 40 24 41 59 42 25 43 64 44 58 45
REMARK SMILES IDX 60 46 26 47 63 48 57 49 56 50 27 52 49 53 34 54 48 55 35 56
REMARK SMILES IDX 38 57 47 58 61 59 36 60 37 61 46 63 62 64 39 65 28 66 29 67
REMARK SMILES IDX 33 68 30 69 32 70 31 71 50 72 51 73 55 74 52 75 54 76 53 77
REMARK SMILES IDX 40 78 41 79 45 80 42 81 44 82 43 83
REMARK H PARENT 1 16 1 17 60 51 38 62
REMARK Flexibility Score: inf
ROOT
ATOM      1  C   UNL     1      -1.315  -4.228   1.805  1.00  0.00     0.188 C 
ENDROOT
BRANCH   1   2
ATOM      2  O   UNL     1      -0.713  -5.064   2.795  1.00  0.00    -0.376 OA
BRANCH   2   3
ATOM      3  C   UNL     1       0.164  -4.479   3.751  1.00  0.00     0.202 C 
BRANCH   3   4
ATOM      4  C   UNL     1       1.469  -3.899   3.194  1.00  0.00     0.261 C 
BRANCH   4   5
ATOM      5  O   UNL     1       1.262  -3.014   2.073  1.00  0.00    -0.463 OA
BRANCH   5   6
ATOM      6  C   UNL     1       2.011  -3.234   0.968  1.00  0.00     0.310 C 
ATOM      7  O   UNL     1       2.951  -4.023   0.926  1.00  0.00    -0.252 OA
BRANCH   6   8
ATOM      8  C   UNL     1       1.514  -2.551  -0.292  1.00  0.00     0.160 C 
BRANCH   8   9
ATOM      9  C   UNL     1       0.781  -1.220  -0.234  1.00  0.00    -0.013 A 
ATOM     10  C   UNL     1       1.396  -0.023   0.192  1.00  0.00     0.047 A 
ATOM     11  C   UNL     1       0.664   1.194   0.074  1.00  0.00     0.046 A 
ATOM     12  C   UNL     1      -0.538  -1.171  -0.733  1.00  0.00     0.006 A 
ATOM     13  C   UNL     1      -0.678   1.191  -0.336  1.00  0.00     0.014 A 
ATOM     14  C   UNL     1      -1.279   0.009  -0.739  1.00  0.00     0.001 A 
BRANCH  10  15
ATOM     15  N   UNL     1       2.686  -0.074   0.706  1.00  0.00    -0.398 N 
ATOM     16  H   UNL     1       3.156  -0.936   0.770  1.00  0.00     0.156 HD
ATOM     17  H   UNL     1       3.129   0.752   1.006  1.00  0.00     0.156 HD
ENDBRANCH  10  15
BRANCH  11  18
ATOM     18  C   UNL     1       1.253   2.553   0.285  1.00  0.00     0.195 C 
ATOM     19  O   UNL     1       0.565   3.478   0.707  1.00  0.00    -0.289 OA
BRANCH  18  20
ATOM     20  C   UNL     1       2.674   2.815  -0.033  1.00  0.00     0.023 A 
ATOM     21  C   UNL     1       3.446   3.483   0.922  1.00  0.00     0.013 A 
ATOM     22  C   UNL     1       3.263   2.311  -1.199  1.00  0.00     0.013 A 
ATOM     23  C   UNL     1       4.829   3.559   0.758  1.00  0.00     0.016 A 
ATOM     24  C   UNL     1       4.647   2.389  -1.360  1.00  0.00     0.016 A 
ATOM     25  C   UNL     1       5.424   2.991  -0.370  1.00  0.00     0.018 A 
ATOM     26  Br  UNL     1       7.306   3.002  -0.538  1.00  0.00    -0.051 Br
ENDBRANCH  18  20
ENDBRANCH  11  18
ENDBRANCH   8   9
ENDBRANCH   6   8
ENDBRANCH   5   6
ENDBRANCH   4   5
ENDBRANCH   3   4
ENDBRANCH   2   3
ENDBRANCH   1   2
BRANCH   1  27
ATOM     27  C   UNL     1      -1.570  -2.744   2.118  1.00  0.00     0.188 C 
BRANCH  27  28
ATOM     28  O   UNL     1      -1.870  -2.558   3.489  1.00  0.00    -0.376 OA
BRANCH  28  29
ATOM     29  C   UNL     1      -2.984  -1.740   3.768  1.00  0.00     0.202 C 
BRANCH  29  30
ATOM     30  C   UNL     1      -4.306  -2.498   3.621  1.00  0.00     0.261 C 
BRANCH  30  31
ATOM     31  O   UNL     1      -4.443  -3.301   2.432  1.00  0.00    -0.460 OA
BRANCH  31  32
ATOM     32  C   UNL     1      -4.729  -2.667   1.278  1.00  0.00     0.338 C 
ATOM     33  O   UNL     1      -4.835  -1.458   1.102  1.00  0.00    -0.246 OA
BRANCH  32  34
ATOM     34  C   UNL     1      -4.738  -3.670   0.194  1.00  0.00     0.060 A 
ATOM     35  C   UNL     1      -3.817  -3.569  -0.857  1.00  0.00     0.016 A 
ATOM     36  C   UNL     1      -5.675  -4.702   0.208  1.00  0.00     0.016 A 
ATOM     37  C   UNL     1      -3.835  -4.492  -1.907  1.00  0.00     0.010 A 
ATOM     38  C   UNL     1      -5.709  -5.610  -0.851  1.00  0.00     0.010 A 
ATOM     39  C   UNL     1      -4.806  -5.499  -1.925  1.00  0.00    -0.014 A 
BRANCH  39  40
ATOM     40  C   UNL     1      -5.029  -6.348  -3.122  1.00  0.00     0.031 A 
ATOM     41  C   UNL     1      -6.197  -6.022  -4.011  1.00  0.00     0.074 A 
ATOM     42  C   UNL     1      -4.267  -7.425  -3.379  1.00  0.00     0.049 A 
ATOM     43  N   UNL     1      -6.756  -6.742  -4.947  1.00  0.00    -0.248 NA
ATOM     44  C   UNL     1      -6.825  -4.707  -3.800  1.00  0.00     0.031 C 
ATOM     45  C   UNL     1      -3.060  -7.807  -2.650  1.00  0.00     0.029 A 
ATOM     46  N   UNL     1      -4.426  -8.418  -4.315  1.00  0.00    -0.354 N 
ATOM     47  C   UNL     1      -7.825  -5.985  -5.411  1.00  0.00     0.074 A 
ATOM     48  C   UNL     1      -7.840  -4.755  -4.649  1.00  0.00     0.031 C 
ATOM     49  C   UNL     1      -2.603  -8.971  -3.147  1.00  0.00     0.029 A 
ATOM     50  C   UNL     1      -3.521  -9.444  -4.182  1.00  0.00     0.049 A 
ATOM     51  H   UNL     1      -5.120  -8.397  -5.013  1.00  0.00     0.167 HD
ATOM     52  C   UNL     1      -8.720  -6.293  -6.379  1.00  0.00     0.031 A 
ATOM     53  C   UNL     1      -3.473 -10.647  -4.787  1.00  0.00     0.031 A 
ATOM     54  C   UNL     1      -8.708  -7.524  -7.121  1.00  0.00     0.049 A 
ATOM     55  C   UNL     1      -4.543 -11.018  -5.784  1.00  0.00     0.074 A 
ATOM     56  C   UNL     1      -9.572  -7.937  -8.120  1.00  0.00     0.029 A 
ATOM     57  N   UNL     1      -7.786  -8.542  -6.940  1.00  0.00    -0.354 N 
ATOM     58  N   UNL     1      -5.561 -10.308  -6.208  1.00  0.00    -0.248 NA
ATOM     59  C   UNL     1      -4.460 -12.359  -6.383  1.00  0.00     0.031 C 
ATOM     60  C   UNL     1      -9.208  -9.230  -8.502  1.00  0.00     0.029 A 
ATOM     61  C   UNL     1      -8.072  -9.592  -7.794  1.00  0.00     0.049 A 
ATOM     62  H   UNL     1      -7.038  -8.522  -6.299  1.00  0.00     0.167 HD
ATOM     63  C   UNL     1      -6.210 -11.096  -7.152  1.00  0.00     0.074 A 
ATOM     64  C   UNL     1      -5.473 -12.339  -7.239  1.00  0.00     0.031 C 
ATOM     65  C   UNL     1      -7.312 -10.811  -7.888  1.00  0.00     0.031 A 
BRANCH  52  66
ATOM     66  C   UNL     1      -9.819  -5.303  -6.649  1.00  0.00    -0.014 A 
ATOM     67  C   UNL     1      -9.559  -4.067  -7.262  1.00  0.00     0.009 A 
ATOM     68  C   UNL     1     -11.142  -5.628  -6.311  1.00  0.00     0.009 A 
ATOM     69  C   UNL     1     -10.598  -3.163  -7.496  1.00  0.00     0.001 A 
ATOM     70  C   UNL     1     -12.182  -4.737  -6.576  1.00  0.00     0.001 A 
ATOM     71  C   UNL     1     -11.908  -3.501  -7.158  1.00  0.00     0.000 A 
ENDBRANCH  52  66
BRANCH  53  72
ATOM     72  C   UNL     1      -2.399 -11.619  -4.442  1.00  0.00    -0.014 A 
ATOM     73  C   UNL     1      -1.426 -11.973  -5.390  1.00  0.00     0.009 A 
ATOM     74  C   UNL     1      -2.357 -12.221  -3.174  1.00  0.00     0.009 A 
ATOM     75  C   UNL     1      -0.451 -12.926  -5.084  1.00  0.00     0.001 A 
ATOM     76  C   UNL     1      -1.361 -13.149  -2.860  1.00  0.00     0.001 A 
ATOM     77  C   UNL     1      -0.416 -13.509  -3.818  1.00  0.00     0.000 A 
ENDBRANCH  53  72
BRANCH  65  78
ATOM     78  C   UNL     1      -7.753 -11.817  -8.915  1.00  0.00    -0.014 A 
ATOM     79  C   UNL     1      -8.389 -13.013  -8.552  1.00  0.00     0.009 A 
ATOM     80  C   UNL     1      -7.613 -11.506 -10.278  1.00  0.00     0.009 A 
ATOM     81  C   UNL     1      -8.863 -13.884  -9.536  1.00  0.00     0.001 A 
ATOM     82  C   UNL     1      -8.114 -12.364 -11.258  1.00  0.00     0.001 A 
ATOM     83  C   UNL     1      -8.734 -13.555 -10.886  1.00  0.00     0.000 A 
ENDBRANCH  65  78
ENDBRANCH  39  40
ENDBRANCH  32  34
ENDBRANCH  31  32
ENDBRANCH  30  31
ENDBRANCH  29  30
ENDBRANCH  28  29
ENDBRANCH  27  28
ENDBRANCH   1  27
TORSDOF 21
