REMARK SMILES O=C(OCCOCCOCCOC(=O)c1ccc(Cl)nc1NC[C@@H]1C[N@H+]2CCC[C@@H]2CO1)c1ccc(-c2c3nc(c(-c4ccccc4)c4ccc([nH]4)c(-c4ccccc4)c4nc(c(-c5ccccc5)c5ccc2[nH]5)C=C4)C=C3)cc1
REMARK SMILES IDX 8 1 7 2 6 3 5 4 4 5 3 6 2 7 1 8 33 9 34 10 80 11 35 12 79 13
REMARK SMILES IDX 36 14 37 15 38 16 73 17 39 18 78 19 72 20 74 21 40 22 77 23
REMARK SMILES IDX 71 24 70 25 41 27 63 28 48 29 62 30 49 31 52 32 61 33 75 34
REMARK SMILES IDX 50 35 51 36 60 38 76 39 53 40 42 41 43 42 47 43 44 44 46 45
REMARK SMILES IDX 45 46 64 47 65 48 69 49 66 50 68 51 67 52 54 53 55 54 59 55
REMARK SMILES IDX 56 56 58 57 57 58 9 59 10 60 11 61 12 62 13 63 14 64 15 65
REMARK SMILES IDX 16 66 21 67 17 68 20 69 18 70 19 71 22 72 23 74 24 75 25 76
REMARK SMILES IDX 32 77 26 78 31 79 27 80 30 81 28 83 29 84
REMARK H PARENT 74 26 52 37 22 73 26 82
REMARK Flexibility Score: inf
ROOT
ATOM      1  C   UNL     1      -5.753   2.872  -2.345  1.00  0.00     0.188 C 
ENDROOT
BRANCH   1   2
ATOM      2  C   UNL     1      -6.030   3.253  -0.890  1.00  0.00     0.188 C 
BRANCH   2   3
ATOM      3  O   UNL     1      -7.300   3.848  -0.638  1.00  0.00    -0.376 OA
BRANCH   3   4
ATOM      4  C   UNL     1      -7.442   5.206  -1.032  1.00  0.00     0.202 C 
BRANCH   4   5
ATOM      5  C   UNL     1      -7.081   6.185   0.091  1.00  0.00     0.261 C 
BRANCH   5   6
ATOM      6  O   UNL     1      -5.676   6.126   0.409  1.00  0.00    -0.460 OA
BRANCH   6   7
ATOM      7  C   UNL     1      -5.017   5.528   1.429  1.00  0.00     0.338 C 
ATOM      8  O   UNL     1      -3.818   5.780   1.554  1.00  0.00    -0.246 OA
BRANCH   7   9
ATOM      9  C   UNL     1      -5.620   4.557   2.405  1.00  0.00     0.060 A 
ATOM     10  C   UNL     1      -6.911   4.032   2.362  1.00  0.00     0.016 A 
ATOM     11  C   UNL     1      -4.784   4.122   3.455  1.00  0.00     0.016 A 
ATOM     12  C   UNL     1      -7.391   3.193   3.365  1.00  0.00     0.010 A 
ATOM     13  C   UNL     1      -5.244   3.251   4.451  1.00  0.00     0.010 A 
ATOM     14  C   UNL     1      -6.576   2.834   4.437  1.00  0.00    -0.014 A 
BRANCH  14  15
ATOM     15  C   UNL     1      -7.222   2.216   5.612  1.00  0.00     0.031 A 
ATOM     16  C   UNL     1      -7.596   3.111   6.759  1.00  0.00     0.074 A 
ATOM     17  C   UNL     1      -7.632   0.937   5.577  1.00  0.00     0.049 A 
ATOM     18  N   UNL     1      -8.318   2.844   7.815  1.00  0.00    -0.248 NA
ATOM     19  C   UNL     1      -7.124   4.504   6.686  1.00  0.00     0.031 C 
ATOM     20  C   UNL     1      -7.418   0.018   4.461  1.00  0.00     0.029 A 
ATOM     21  N   UNL     1      -8.355   0.206   6.482  1.00  0.00    -0.354 N 
ATOM     22  C   UNL     1      -8.393   4.035   8.524  1.00  0.00     0.074 A 
ATOM     23  C   UNL     1      -7.622   5.019   7.798  1.00  0.00     0.031 C 
ATOM     24  C   UNL     1      -8.021  -1.150   4.737  1.00  0.00     0.029 A 
ATOM     25  C   UNL     1      -8.636  -1.068   6.057  1.00  0.00     0.049 A 
ATOM     26  H   UNL     1      -8.646   0.561   7.353  1.00  0.00     0.167 HD
ATOM     27  C   UNL     1      -9.053   4.293   9.675  1.00  0.00     0.031 A 
ATOM     28  C   UNL     1      -9.318  -2.055   6.666  1.00  0.00     0.031 A 
ATOM     29  C   UNL     1      -9.791   3.307  10.411  1.00  0.00     0.049 A 
ATOM     30  C   UNL     1      -9.943  -1.778   8.005  1.00  0.00     0.074 A 
ATOM     31  C   UNL     1     -10.449   3.440  11.619  1.00  0.00     0.029 A 
ATOM     32  N   UNL     1      -9.958   1.992  10.001  1.00  0.00    -0.354 N 
ATOM     33  N   UNL     1      -9.998  -0.650   8.671  1.00  0.00    -0.248 NA
ATOM     34  C   UNL     1     -10.609  -2.906   8.670  1.00  0.00     0.031 C 
ATOM     35  C   UNL     1     -10.979   2.191  11.962  1.00  0.00     0.029 A 
ATOM     36  C   UNL     1     -10.689   1.294  10.944  1.00  0.00     0.049 A 
ATOM     37  H   UNL     1      -9.608   1.613   9.163  1.00  0.00     0.167 HD
ATOM     38  C   UNL     1     -10.723  -0.924   9.823  1.00  0.00     0.074 A 
ATOM     39  C   UNL     1     -11.100  -2.323   9.756  1.00  0.00     0.031 C 
ATOM     40  C   UNL     1     -11.049  -0.096  10.845  1.00  0.00     0.031 A 
BRANCH  27  41
ATOM     41  C   UNL     1      -8.934   5.686  10.217  1.00  0.00    -0.014 A 
ATOM     42  C   UNL     1      -9.629   6.758   9.632  1.00  0.00     0.009 A 
ATOM     43  C   UNL     1      -8.069   5.939  11.292  1.00  0.00     0.009 A 
ATOM     44  C   UNL     1      -9.426   8.062  10.089  1.00  0.00     0.001 A 
ATOM     45  C   UNL     1      -7.886   7.240  11.759  1.00  0.00     0.001 A 
ATOM     46  C   UNL     1      -8.555   8.302  11.151  1.00  0.00     0.000 A 
ENDBRANCH  27  41
BRANCH  28  47
ATOM     47  C   UNL     1      -9.441  -3.390   6.024  1.00  0.00    -0.014 A 
ATOM     48  C   UNL     1     -10.679  -3.853   5.553  1.00  0.00     0.009 A 
ATOM     49  C   UNL     1      -8.315  -4.220   5.894  1.00  0.00     0.009 A 
ATOM     50  C   UNL     1     -10.791  -5.126   4.987  1.00  0.00     0.001 A 
ATOM     51  C   UNL     1      -8.425  -5.483   5.307  1.00  0.00     0.001 A 
ATOM     52  C   UNL     1      -9.665  -5.939   4.863  1.00  0.00     0.000 A 
ENDBRANCH  28  47
BRANCH  40  53
ATOM     53  C   UNL     1     -11.874  -0.679  11.954  1.00  0.00    -0.014 A 
ATOM     54  C   UNL     1     -11.304  -1.538  12.905  1.00  0.00     0.009 A 
ATOM     55  C   UNL     1     -13.226  -0.325  12.072  1.00  0.00     0.009 A 
ATOM     56  C   UNL     1     -12.084  -2.055  13.940  1.00  0.00     0.001 A 
ATOM     57  C   UNL     1     -13.997  -0.825  13.121  1.00  0.00     0.001 A 
ATOM     58  C   UNL     1     -13.427  -1.696  14.049  1.00  0.00     0.000 A 
ENDBRANCH  40  53
ENDBRANCH  14  15
ENDBRANCH   7   9
ENDBRANCH   6   7
ENDBRANCH   5   6
ENDBRANCH   4   5
ENDBRANCH   3   4
ENDBRANCH   2   3
ENDBRANCH   1   2
BRANCH   1  59
ATOM     59  O   UNL     1      -6.856   2.587  -3.193  1.00  0.00    -0.376 OA
BRANCH  59  60
ATOM     60  C   UNL     1      -7.905   1.762  -2.704  1.00  0.00     0.202 C 
BRANCH  60  61
ATOM     61  C   UNL     1      -7.542   0.314  -2.377  1.00  0.00     0.261 C 
BRANCH  61  62
ATOM     62  O   UNL     1      -7.005   0.148  -1.051  1.00  0.00    -0.460 OA
BRANCH  62  63
ATOM     63  C   UNL     1      -5.735  -0.318  -0.976  1.00  0.00     0.341 C 
ATOM     64  O   UNL     1      -4.938  -0.446  -1.887  1.00  0.00    -0.246 OA
BRANCH  63  65
ATOM     65  C   UNL     1      -5.462  -0.762   0.396  1.00  0.00     0.102 A 
ATOM     66  C   UNL     1      -6.150  -1.898   0.851  1.00  0.00     0.023 A 
ATOM     67  C   UNL     1      -4.450  -0.191   1.175  1.00  0.00     0.142 A 
ATOM     68  C   UNL     1      -5.810  -2.450   2.077  1.00  0.00     0.042 A 
ATOM     69  N   UNL     1      -4.169  -0.711   2.395  1.00  0.00    -0.218 NA
ATOM     70  C   UNL     1      -4.819  -1.821   2.800  1.00  0.00     0.131 A 
ATOM     71  Cl  UNL     1      -4.327  -2.421   4.328  1.00  0.00    -0.062 Cl
BRANCH  67  72
ATOM     72  N   UNL     1      -3.749   0.939   0.780  1.00  0.00    -0.366 N 
ATOM     73  H   UNL     1      -4.016   1.432  -0.029  1.00  0.00     0.162 HD
BRANCH  72  74
ATOM     74  C   UNL     1      -2.610   1.389   1.577  1.00  0.00     0.152 C 
BRANCH  74  75
ATOM     75  C   UNL     1      -1.356   1.768   0.758  1.00  0.00     0.192 C 
ATOM     76  C   UNL     1      -1.481   3.093  -0.037  1.00  0.00     0.296 C 
ATOM     77  O   UNL     1      -0.824   0.665  -0.019  1.00  0.00    -0.364 OA
ATOM     78  N   UNL     1      -2.121   2.884  -1.338  1.00  0.00    -0.328 N 
ATOM     79  C   UNL     1      -1.395   0.527  -1.333  1.00  0.00     0.225 C 
ATOM     80  C   UNL     1      -2.086   4.056  -2.214  1.00  0.00     0.262 C 
ATOM     81  C   UNL     1      -1.347   1.861  -2.068  1.00  0.00     0.210 C 
ATOM     82  H   UNL     1      -3.090   2.638  -1.137  1.00  0.00     0.348 HD
ATOM     83  C   UNL     1      -2.199   3.450  -3.618  1.00  0.00     0.068 C 
ATOM     84  C   UNL     1      -2.004   1.941  -3.430  1.00  0.00     0.073 C 
ENDBRANCH  74  75
ENDBRANCH  72  74
ENDBRANCH  67  72
ENDBRANCH  63  65
ENDBRANCH  62  63
ENDBRANCH  61  62
ENDBRANCH  60  61
ENDBRANCH  59  60
ENDBRANCH   1  59
TORSDOF 20
