REMARK SMILES NS(=O)(=O)c1ccc(-n2nc(C(=O)OCCOCCOCCOC(=O)c3ccc(-c4c5nc(c(-c6ccccc6)c6ccc([nH]6)c(-c6ccccc6)c6nc(c(-c7ccccc7)c7ccc4[nH]7)C=C6)C=C5)cc3)c(Cl)c2-c2ccc(Cl)cc2)cc1
REMARK SMILES IDX 18 1 17 2 16 3 15 4 14 5 12 6 13 7 11 8 9 9 10 10 76 11
REMARK SMILES IDX 74 12 75 13 8 14 5 15 6 16 85 17 7 18 84 19 2 20 3 21 4 22
REMARK SMILES IDX 1 23 77 26 78 27 83 28 79 29 82 30 80 31 81 32 19 33 20 34
REMARK SMILES IDX 21 35 22 36 23 37 24 38 25 39 26 40 27 41 73 42 28 43 72 44
REMARK SMILES IDX 29 45 30 46 31 47 66 48 32 49 71 50 65 51 67 52 33 53 70 54
REMARK SMILES IDX 64 55 63 56 34 58 56 59 41 60 55 61 42 62 45 63 54 64 68 65
REMARK SMILES IDX 43 66 44 67 53 69 69 70 46 71 35 72 36 73 40 74 37 75 39 76
REMARK SMILES IDX 38 77 57 78 58 79 62 80 59 81 61 82 60 83 47 84 48 85 52 86
REMARK SMILES IDX 49 87 51 88 50 89
REMARK H PARENT 1 24 1 25 67 57 45 68
REMARK Flexibility Score: inf
ROOT
ATOM      1  C   UNL     1       1.067  -9.560  -7.122  1.00  0.00     0.188 C 
ENDROOT
BRANCH   1   2
ATOM      2  O   UNL     1       0.896 -10.130  -8.415  1.00  0.00    -0.376 OA
BRANCH   2   3
ATOM      3  C   UNL     1       1.801  -9.790  -9.461  1.00  0.00     0.202 C 
BRANCH   3   4
ATOM      4  C   UNL     1       2.059  -8.308  -9.777  1.00  0.00     0.261 C 
BRANCH   4   5
ATOM      5  O   UNL     1       2.586  -7.547  -8.678  1.00  0.00    -0.458 OA
BRANCH   5   6
ATOM      6  C   UNL     1       1.786  -6.576  -8.145  1.00  0.00     0.360 C 
ATOM      7  O   UNL     1       0.679  -6.286  -8.584  1.00  0.00    -0.244 OA
BRANCH   6   8
ATOM      8  C   UNL     1       2.359  -5.962  -6.933  1.00  0.00     0.190 A 
ATOM      9  N   UNL     1       2.404  -4.923  -5.055  1.00  0.00    -0.231 N 
ATOM     10  N   UNL     1       1.578  -5.588  -5.898  1.00  0.00    -0.159 NA
ATOM     11  C   UNL     1       3.737  -5.018  -5.437  1.00  0.00     0.094 A 
ATOM     12  C   UNL     1       3.721  -5.725  -6.627  1.00  0.00     0.102 A 
ATOM     13  Cl  UNL     1       5.071  -6.190  -7.558  1.00  0.00    -0.079 Cl
BRANCH   9  14
ATOM     14  C   UNL     1       1.862  -4.205  -3.956  1.00  0.00     0.065 A 
ATOM     15  C   UNL     1       0.957  -2.862  -1.688  1.00  0.00     0.082 A 
ATOM     16  C   UNL     1       0.454  -4.135  -1.990  1.00  0.00     0.024 A 
ATOM     17  C   UNL     1       1.868  -2.238  -2.542  1.00  0.00     0.024 A 
ATOM     18  C   UNL     1       0.887  -4.800  -3.143  1.00  0.00     0.030 A 
ATOM     19  C   UNL     1       2.330  -2.915  -3.670  1.00  0.00     0.030 A 
BRANCH  15  20
ATOM     20  S   UNL     1       0.440  -2.084  -0.185  1.00  0.00     0.238 S 
ATOM     21  O   UNL     1       1.119  -2.730   0.911  1.00  0.00    -0.207 OA
ATOM     22  O   UNL     1      -0.994  -1.907  -0.229  1.00  0.00    -0.207 OA
BRANCH  20  23
ATOM     23  N   UNL     1       1.083  -0.531  -0.261  1.00  0.00    -0.225 NA
ATOM     24  H   UNL     1       0.825  -0.014   0.580  1.00  0.00     0.137 HD
ATOM     25  H   UNL     1       0.715  -0.050  -1.082  1.00  0.00     0.137 HD
ENDBRANCH  20  23
ENDBRANCH  15  20
ENDBRANCH   9  14
BRANCH  11  26
ATOM     26  C   UNL     1       4.887  -4.498  -4.688  1.00  0.00     0.002 A 
ATOM     27  C   UNL     1       5.811  -3.671  -5.344  1.00  0.00     0.012 A 
ATOM     28  C   UNL     1       5.103  -4.820  -3.340  1.00  0.00     0.012 A 
ATOM     29  C   UNL     1       6.935  -3.185  -4.675  1.00  0.00     0.021 A 
ATOM     30  C   UNL     1       6.223  -4.322  -2.665  1.00  0.00     0.021 A 
ATOM     31  C   UNL     1       7.137  -3.513  -3.338  1.00  0.00     0.041 A 
ATOM     32  Cl  UNL     1       8.528  -2.920  -2.519  1.00  0.00    -0.084 Cl
ENDBRANCH  11  26
ENDBRANCH   6   8
ENDBRANCH   5   6
ENDBRANCH   4   5
ENDBRANCH   3   4
ENDBRANCH   2   3
ENDBRANCH   1   2
BRANCH   1  33
ATOM     33  C   UNL     1       2.471  -9.509  -6.479  1.00  0.00     0.188 C 
BRANCH  33  34
ATOM     34  O   UNL     1       3.524  -9.891  -7.346  1.00  0.00    -0.376 OA
BRANCH  34  35
ATOM     35  C   UNL     1       4.271 -11.049  -7.001  1.00  0.00     0.202 C 
BRANCH  35  36
ATOM     36  C   UNL     1       3.538 -12.390  -7.016  1.00  0.00     0.261 C 
BRANCH  36  37
ATOM     37  O   UNL     1       2.233 -12.372  -6.456  1.00  0.00    -0.460 OA
BRANCH  37  38
ATOM     38  C   UNL     1       2.171 -12.317  -5.112  1.00  0.00     0.338 C 
ATOM     39  O   UNL     1       3.082 -12.074  -4.341  1.00  0.00    -0.246 OA
BRANCH  38  40
ATOM     40  C   UNL     1       0.809 -12.679  -4.704  1.00  0.00     0.060 A 
ATOM     41  C   UNL     1       0.439 -12.419  -3.383  1.00  0.00     0.016 A 
ATOM     42  C   UNL     1       0.040 -13.498  -5.545  1.00  0.00     0.016 A 
ATOM     43  C   UNL     1      -0.590 -13.155  -2.837  1.00  0.00     0.010 A 
ATOM     44  C   UNL     1      -0.973 -14.245  -4.995  1.00  0.00     0.010 A 
ATOM     45  C   UNL     1      -1.208 -14.130  -3.627  1.00  0.00    -0.014 A 
BRANCH  45  46
ATOM     46  C   UNL     1      -2.056 -15.093  -2.962  1.00  0.00     0.031 A 
ATOM     47  C   UNL     1      -3.424 -14.640  -2.657  1.00  0.00     0.074 A 
ATOM     48  C   UNL     1      -1.640 -16.354  -2.741  1.00  0.00     0.049 A 
ATOM     49  N   UNL     1      -3.985 -14.559  -1.498  1.00  0.00    -0.248 NA
ATOM     50  C   UNL     1      -4.243 -14.143  -3.772  1.00  0.00     0.031 C 
ATOM     51  C   UNL     1      -0.433 -17.002  -3.262  1.00  0.00     0.029 A 
ATOM     52  N   UNL     1      -2.295 -17.366  -2.110  1.00  0.00    -0.354 N 
ATOM     53  C   UNL     1      -5.292 -14.160  -1.745  1.00  0.00     0.074 A 
ATOM     54  C   UNL     1      -5.357 -13.788  -3.136  1.00  0.00     0.031 C 
ATOM     55  C   UNL     1      -0.568 -18.341  -3.134  1.00  0.00     0.029 A 
ATOM     56  C   UNL     1      -1.808 -18.624  -2.430  1.00  0.00     0.049 A 
ATOM     57  H   UNL     1      -3.042 -17.219  -1.486  1.00  0.00     0.167 HD
ATOM     58  C   UNL     1      -6.289 -14.387  -0.850  1.00  0.00     0.031 A 
ATOM     59  C   UNL     1      -2.440 -19.804  -2.222  1.00  0.00     0.031 A 
ATOM     60  C   UNL     1      -5.794 -14.664   0.471  1.00  0.00     0.049 A 
ATOM     61  C   UNL     1      -3.492 -19.585  -1.200  1.00  0.00     0.074 A 
ATOM     62  C   UNL     1      -4.985 -13.990   1.365  1.00  0.00     0.029 A 
ATOM     63  N   UNL     1      -5.847 -15.962   0.919  1.00  0.00    -0.354 N 
ATOM     64  N   UNL     1      -3.245 -19.352   0.057  1.00  0.00    -0.248 NA
ATOM     65  C   UNL     1      -4.831 -19.229  -1.645  1.00  0.00     0.031 C 
ATOM     66  C   UNL     1      -4.226 -15.004   2.018  1.00  0.00     0.029 A 
ATOM     67  C   UNL     1      -4.639 -16.235   1.506  1.00  0.00     0.049 A 
ATOM     68  H   UNL     1      -6.610 -16.579   0.835  1.00  0.00     0.167 HD
ATOM     69  C   UNL     1      -4.215 -18.439   0.446  1.00  0.00     0.074 A 
ATOM     70  C   UNL     1      -5.232 -18.500  -0.599  1.00  0.00     0.031 C 
ATOM     71  C   UNL     1      -3.965 -17.511   1.418  1.00  0.00     0.031 A 
BRANCH  58  72
ATOM     72  C   UNL     1      -7.686 -14.742  -1.279  1.00  0.00    -0.014 A 
ATOM     73  C   UNL     1      -8.696 -14.830  -0.308  1.00  0.00     0.009 A 
ATOM     74  C   UNL     1      -7.980 -15.265  -2.555  1.00  0.00     0.009 A 
ATOM     75  C   UNL     1      -9.915 -15.458  -0.587  1.00  0.00     0.001 A 
ATOM     76  C   UNL     1      -9.212 -15.849  -2.850  1.00  0.00     0.001 A 
ATOM     77  C   UNL     1     -10.170 -15.970  -1.856  1.00  0.00     0.000 A 
ENDBRANCH  58  72
BRANCH  59  78
ATOM     78  C   UNL     1      -2.365 -21.034  -3.041  1.00  0.00    -0.014 A 
ATOM     79  C   UNL     1      -2.902 -22.240  -2.568  1.00  0.00     0.009 A 
ATOM     80  C   UNL     1      -1.978 -20.980  -4.394  1.00  0.00     0.009 A 
ATOM     81  C   UNL     1      -3.076 -23.336  -3.425  1.00  0.00     0.001 A 
ATOM     82  C   UNL     1      -2.137 -22.077  -5.246  1.00  0.00     0.001 A 
ATOM     83  C   UNL     1      -2.702 -23.251  -4.764  1.00  0.00     0.000 A 
ENDBRANCH  59  78
BRANCH  71  84
ATOM     84  C   UNL     1      -2.713 -17.669   2.247  1.00  0.00    -0.014 A 
ATOM     85  C   UNL     1      -1.427 -17.699   1.681  1.00  0.00     0.009 A 
ATOM     86  C   UNL     1      -2.822 -17.628   3.646  1.00  0.00     0.009 A 
ATOM     87  C   UNL     1      -0.286 -17.730   2.489  1.00  0.00     0.001 A 
ATOM     88  C   UNL     1      -1.682 -17.634   4.453  1.00  0.00     0.001 A 
ATOM     89  C   UNL     1      -0.415 -17.693   3.875  1.00  0.00     0.000 A 
ENDBRANCH  71  84
ENDBRANCH  45  46
ENDBRANCH  38  40
ENDBRANCH  37  38
ENDBRANCH  36  37
ENDBRANCH  35  36
ENDBRANCH  34  35
ENDBRANCH  33  34
ENDBRANCH   1  33
TORSDOF 21
