REMARK SMILES Cc1ncccc1OC1(C(=O)OCCOCCOCCOC(=O)c2ccc(-c3c4nc(c(-c5ccccc5)c5ccc([nH]5)c(-c5ccccc5)c5nc(c(-c6ccccc6)c6ccc3[nH]6)C=C5)C=C4)cc2)CCN(C(=O)c2ccc(O)nn2)CC1
REMARK SMILES IDX 16 1 15 2 14 3 13 4 12 5 10 6 11 7 9 8 72 9 85 10 73 11
REMARK SMILES IDX 84 12 74 13 75 14 76 15 8 16 7 17 1 18 2 19 3 20 4 21 6 22
REMARK SMILES IDX 5 23 77 24 78 25 83 26 79 27 82 28 80 29 81 30 17 32 18 33
REMARK SMILES IDX 19 34 20 35 21 36 22 37 23 38 24 39 25 40 71 41 26 42 70 43
REMARK SMILES IDX 27 44 28 45 29 46 64 47 30 48 69 49 63 50 65 51 31 52 68 53
REMARK SMILES IDX 62 54 61 55 32 57 54 58 39 59 53 60 40 61 43 62 52 63 66 64
REMARK SMILES IDX 41 65 42 66 51 68 67 69 44 70 33 71 34 72 38 73 35 74 37 75
REMARK SMILES IDX 36 76 55 77 56 78 60 79 57 80 59 81 58 82 45 83 46 84 50 85
REMARK SMILES IDX 47 86 49 87 48 88
REMARK H PARENT 81 31 65 56 43 67
REMARK Flexibility Score: inf
ROOT
ATOM      1  C   UNL     1       1.964  -5.976   1.635  1.00  0.00     0.188 C 
ENDROOT
BRANCH   1   2
ATOM      2  O   UNL     1       2.558  -6.944   0.777  1.00  0.00    -0.376 OA
BRANCH   2   3
ATOM      3  C   UNL     1       3.775  -6.641   0.109  1.00  0.00     0.202 C 
BRANCH   3   4
ATOM      4  C   UNL     1       3.696  -5.604  -1.015  1.00  0.00     0.261 C 
BRANCH   4   5
ATOM      5  O   UNL     1       3.523  -4.237  -0.580  1.00  0.00    -0.460 OA
BRANCH   5   6
ATOM      6  C   UNL     1       2.319  -3.627  -0.839  1.00  0.00     0.350 C 
ATOM      7  O   UNL     1       1.340  -4.228  -1.262  1.00  0.00    -0.247 OA
BRANCH   6   8
ATOM      8  C   UNL     1       2.388  -2.070  -0.633  1.00  0.00     0.209 C 
ATOM      9  C   UNL     1       3.002  -1.740   0.736  1.00  0.00     0.082 C 
ATOM     10  C   UNL     1       3.323  -1.633  -1.773  1.00  0.00     0.082 C 
ATOM     11  C   UNL     1       3.749  -0.426   0.898  1.00  0.00     0.124 C 
ATOM     12  C   UNL     1       3.875  -0.238  -1.636  1.00  0.00     0.124 C 
ATOM     13  N   UNL     1       4.356   0.134  -0.303  1.00  0.00    -0.337 N 
ATOM     14  C   UNL     1       5.120   1.305  -0.111  1.00  0.00     0.274 C 
ATOM     15  O   UNL     1       5.477   1.717   0.990  1.00  0.00    -0.267 OA
BRANCH   8  16
ATOM     16  O   UNL     1       1.095  -1.540  -1.012  1.00  0.00    -0.474 OA
BRANCH  16  17
ATOM     17  C   UNL     1       0.106  -0.911  -0.317  1.00  0.00     0.142 A 
ATOM     18  C   UNL     1       1.170   1.422  -0.258  1.00  0.00     0.071 C 
ATOM     19  C   UNL     1       0.046   0.470  -0.076  1.00  0.00     0.079 A 
ATOM     20  N   UNL     1      -1.106   1.135   0.228  1.00  0.00    -0.258 NA
ATOM     21  C   UNL     1      -2.258   0.450   0.237  1.00  0.00     0.111 A 
ATOM     22  C   UNL     1      -1.123  -1.589  -0.261  1.00  0.00     0.050 A 
ATOM     23  C   UNL     1      -2.317  -0.907   0.010  1.00  0.00     0.024 A 
ENDBRANCH  16  17
ENDBRANCH   8  16
BRANCH  14  24
ATOM     24  C   UNL     1       5.543   2.045  -1.321  1.00  0.00     0.151 A 
ATOM     25  C   UNL     1       6.844   1.907  -1.770  1.00  0.00     0.042 A 
ATOM     26  N   UNL     1       4.559   2.636  -2.047  1.00  0.00    -0.142 NA
ATOM     27  C   UNL     1       7.131   2.374  -3.044  1.00  0.00     0.072 A 
ATOM     28  N   UNL     1       4.849   3.101  -3.290  1.00  0.00    -0.112 NA
ATOM     29  C   UNL     1       6.103   2.951  -3.758  1.00  0.00     0.230 A 
BRANCH  29  30
ATOM     30  O   UNL     1       6.305   3.370  -5.034  1.00  0.00    -0.492 OA
ATOM     31  H   UNL     1       7.154   3.295  -5.423  1.00  0.00     0.295 HD
ENDBRANCH  29  30
ENDBRANCH  14  24
ENDBRANCH   6   8
ENDBRANCH   5   6
ENDBRANCH   4   5
ENDBRANCH   3   4
ENDBRANCH   2   3
ENDBRANCH   1   2
BRANCH   1  32
ATOM     32  C   UNL     1       2.864  -4.961   2.345  1.00  0.00     0.188 C 
BRANCH  32  33
ATOM     33  O   UNL     1       4.115  -5.487   2.752  1.00  0.00    -0.376 OA
BRANCH  33  34
ATOM     34  C   UNL     1       4.412  -5.351   4.134  1.00  0.00     0.202 C 
BRANCH  34  35
ATOM     35  C   UNL     1       3.713  -6.439   4.952  1.00  0.00     0.261 C 
BRANCH  35  36
ATOM     36  O   UNL     1       2.276  -6.368   4.911  1.00  0.00    -0.460 OA
BRANCH  36  37
ATOM     37  C   UNL     1       1.702  -5.255   5.424  1.00  0.00     0.338 C 
ATOM     38  O   UNL     1       2.264  -4.334   5.993  1.00  0.00    -0.246 OA
BRANCH  37  39
ATOM     39  C   UNL     1       0.296  -5.222   4.970  1.00  0.00     0.060 A 
ATOM     40  C   UNL     1      -0.190  -4.064   4.346  1.00  0.00     0.016 A 
ATOM     41  C   UNL     1      -0.531  -6.334   5.137  1.00  0.00     0.016 A 
ATOM     42  C   UNL     1      -1.518  -4.005   3.915  1.00  0.00     0.010 A 
ATOM     43  C   UNL     1      -1.862  -6.269   4.723  1.00  0.00     0.010 A 
ATOM     44  C   UNL     1      -2.371  -5.094   4.139  1.00  0.00    -0.014 A 
BRANCH  44  45
ATOM     45  C   UNL     1      -3.836  -4.951   3.962  1.00  0.00     0.031 A 
ATOM     46  C   UNL     1      -4.668  -4.629   5.173  1.00  0.00     0.074 A 
ATOM     47  C   UNL     1      -4.428  -5.125   2.768  1.00  0.00     0.049 A 
ATOM     48  N   UNL     1      -5.969  -4.542   5.289  1.00  0.00    -0.248 NA
ATOM     49  C   UNL     1      -3.931  -4.377   6.423  1.00  0.00     0.031 C 
ATOM     50  C   UNL     1      -3.743  -5.401   1.508  1.00  0.00     0.029 A 
ATOM     51  N   UNL     1      -5.761  -5.109   2.434  1.00  0.00    -0.354 N 
ATOM     52  C   UNL     1      -6.205  -4.238   6.624  1.00  0.00     0.074 A 
ATOM     53  C   UNL     1      -4.918  -4.181   7.283  1.00  0.00     0.031 C 
ATOM     54  C   UNL     1      -4.663  -5.542   0.536  1.00  0.00     0.029 A 
ATOM     55  C   UNL     1      -6.000  -5.402   1.114  1.00  0.00     0.049 A 
ATOM     56  H   UNL     1      -6.476  -4.907   3.079  1.00  0.00     0.167 HD
ATOM     57  C   UNL     1      -7.386  -4.023   7.250  1.00  0.00     0.031 A 
ATOM     58  C   UNL     1      -7.165  -5.564   0.456  1.00  0.00     0.031 A 
ATOM     59  C   UNL     1      -8.670  -4.095   6.610  1.00  0.00     0.049 A 
ATOM     60  C   UNL     1      -8.470  -5.409   1.194  1.00  0.00     0.074 A 
ATOM     61  C   UNL     1      -9.920  -3.871   7.159  1.00  0.00     0.029 A 
ATOM     62  N   UNL     1      -8.869  -4.429   5.280  1.00  0.00    -0.354 N 
ATOM     63  N   UNL     1      -8.682  -5.088   2.447  1.00  0.00    -0.248 NA
ATOM     64  C   UNL     1      -9.700  -5.636   0.418  1.00  0.00     0.031 C 
ATOM     65  C   UNL     1     -10.881  -4.125   6.175  1.00  0.00     0.029 A 
ATOM     66  C   UNL     1     -10.225  -4.447   4.998  1.00  0.00     0.049 A 
ATOM     67  H   UNL     1      -8.154  -4.624   4.632  1.00  0.00     0.167 HD
ATOM     68  C   UNL     1     -10.063  -5.043   2.601  1.00  0.00     0.074 A 
ATOM     69  C   UNL     1     -10.640  -5.359   1.312  1.00  0.00     0.031 C 
ATOM     70  C   UNL     1     -10.789  -4.759   3.711  1.00  0.00     0.031 A 
BRANCH  57  71
ATOM     71  C   UNL     1      -7.337  -3.728   8.722  1.00  0.00    -0.014 A 
ATOM     72  C   UNL     1      -6.858  -2.500   9.205  1.00  0.00     0.009 A 
ATOM     73  C   UNL     1      -7.796  -4.688   9.637  1.00  0.00     0.009 A 
ATOM     74  C   UNL     1      -6.807  -2.253  10.578  1.00  0.00     0.001 A 
ATOM     75  C   UNL     1      -7.770  -4.427  11.008  1.00  0.00     0.001 A 
ATOM     76  C   UNL     1      -7.267  -3.215  11.478  1.00  0.00     0.000 A 
ENDBRANCH  57  71
BRANCH  58  77
ATOM     77  C   UNL     1      -7.165  -5.913  -0.990  1.00  0.00    -0.014 A 
ATOM     78  C   UNL     1      -7.604  -4.985  -1.947  1.00  0.00     0.009 A 
ATOM     79  C   UNL     1      -6.763  -7.189  -1.416  1.00  0.00     0.009 A 
ATOM     80  C   UNL     1      -7.664  -5.336  -3.298  1.00  0.00     0.001 A 
ATOM     81  C   UNL     1      -6.798  -7.527  -2.770  1.00  0.00     0.001 A 
ATOM     82  C   UNL     1      -7.257  -6.605  -3.709  1.00  0.00     0.000 A 
ENDBRANCH  58  77
BRANCH  70  83
ATOM     83  C   UNL     1     -12.287  -4.730   3.575  1.00  0.00    -0.014 A 
ATOM     84  C   UNL     1     -13.032  -5.909   3.425  1.00  0.00     0.009 A 
ATOM     85  C   UNL     1     -12.965  -3.503   3.653  1.00  0.00     0.009 A 
ATOM     86  C   UNL     1     -14.425  -5.856   3.323  1.00  0.00     0.001 A 
ATOM     87  C   UNL     1     -14.358  -3.455   3.580  1.00  0.00     0.001 A 
ATOM     88  C   UNL     1     -15.086  -4.631   3.407  1.00  0.00     0.000 A 
ENDBRANCH  70  83
ENDBRANCH  44  45
ENDBRANCH  37  39
ENDBRANCH  36  37
ENDBRANCH  35  36
ENDBRANCH  34  35
ENDBRANCH  33  34
ENDBRANCH  32  33
ENDBRANCH   1  32
TORSDOF 21
