REMARK SMILES O=C(Cc1c(C(=O)c2cc3c(cn2)CCCC3)[nH]c2cc(Cl)ccc12)OCCOCCOCCOC(=O)c1ccc(-c2c3nc(c(-c4ccccc4)c4ccc([nH]4)c(-c4ccccc4)c4nc(c(-c5ccccc5)c5ccc2[nH]5)C=C4)C=C3)cc1
REMARK SMILES IDX 30 1 29 2 28 3 27 4 26 5 2 6 1 7 3 8 4 9 5 10 25 11 18 12
REMARK SMILES IDX 19 13 24 14 20 16 23 17 21 18 22 19 6 20 7 21 8 22 9 23
REMARK SMILES IDX 13 24 10 25 12 26 11 27 17 28 14 29 16 30 15 31 31 32 32 33
REMARK SMILES IDX 33 34 34 35 35 36 36 37 37 38 38 39 39 40 85 41 40 42 84 43
REMARK SMILES IDX 41 44 42 45 43 46 78 47 44 48 83 49 77 50 79 51 45 52 82 53
REMARK SMILES IDX 76 54 75 55 46 57 68 58 53 59 67 60 54 61 57 62 66 63 80 64
REMARK SMILES IDX 55 65 56 66 65 68 81 69 58 70 47 71 48 72 52 73 49 74 51 75
REMARK SMILES IDX 50 76 69 77 70 78 74 79 71 80 73 81 72 82 59 83 60 84 64 85
REMARK SMILES IDX 61 86 63 87 62 88
REMARK H PARENT 18 15 79 56 57 67
REMARK Flexibility Score: inf
ROOT
ATOM      1  C   UNL     1       3.120   0.636   2.442  1.00  0.00     0.188 C 
ENDROOT
BRANCH   1   2
ATOM      2  O   UNL     1       4.500   0.793   2.192  1.00  0.00    -0.376 OA
BRANCH   2   3
ATOM      3  C   UNL     1       4.966   0.428   0.908  1.00  0.00     0.202 C 
BRANCH   3   4
ATOM      4  C   UNL     1       4.286   1.134  -0.252  1.00  0.00     0.261 C 
BRANCH   4   5
ATOM      5  O   UNL     1       2.862   0.945  -0.413  1.00  0.00    -0.463 OA
BRANCH   5   6
ATOM      6  C   UNL     1       2.130  -0.142  -0.737  1.00  0.00     0.310 C 
ATOM      7  O   UNL     1       0.945   0.011  -1.042  1.00  0.00    -0.252 OA
BRANCH   6   8
ATOM      8  C   UNL     1       2.654  -1.528  -0.480  1.00  0.00     0.161 C 
BRANCH   8   9
ATOM      9  C   UNL     1       3.658  -2.179  -1.375  1.00  0.00     0.000 A 
ATOM     10  C   UNL     1       4.398  -1.684  -2.441  1.00  0.00     0.093 A 
ATOM     11  C   UNL     1       3.938  -3.589  -1.304  1.00  0.00     0.004 A 
ATOM     12  N   UNL     1       5.289  -2.673  -2.804  1.00  0.00    -0.351 N 
ATOM     13  C   UNL     1       4.917  -3.873  -2.248  1.00  0.00     0.048 A 
ATOM     14  C   UNL     1       3.387  -4.653  -0.556  1.00  0.00     0.012 A 
ATOM     15  H   UNL     1       6.077  -2.538  -3.379  1.00  0.00     0.167 HD
ATOM     16  C   UNL     1       5.351  -5.176  -2.521  1.00  0.00     0.047 A 
ATOM     17  C   UNL     1       3.781  -5.967  -0.835  1.00  0.00     0.021 A 
ATOM     18  C   UNL     1       4.740  -6.217  -1.813  1.00  0.00     0.043 A 
ATOM     19  Cl  UNL     1       5.165  -7.846  -2.178  1.00  0.00    -0.084 Cl
BRANCH  10  20
ATOM     20  C   UNL     1       4.240  -0.440  -3.160  1.00  0.00     0.227 C 
ATOM     21  O   UNL     1       3.158   0.124  -3.293  1.00  0.00    -0.285 OA
BRANCH  20  22
ATOM     22  C   UNL     1       5.398   0.162  -3.842  1.00  0.00     0.113 A 
ATOM     23  C   UNL     1       5.301   0.302  -5.212  1.00  0.00     0.036 A 
ATOM     24  N   UNL     1       6.436   0.598  -3.084  1.00  0.00    -0.252 NA
ATOM     25  C   UNL     1       6.332   0.951  -5.875  1.00  0.00    -0.041 A 
ATOM     26  C   UNL     1       7.399   1.275  -3.748  1.00  0.00     0.115 A 
ATOM     27  C   UNL     1       7.408   1.460  -5.131  1.00  0.00    -0.026 A 
ATOM     28  C   UNL     1       6.275   1.030  -7.374  1.00  0.00     0.036 C 
ATOM     29  C   UNL     1       8.506   2.248  -5.794  1.00  0.00     0.037 C 
ATOM     30  C   UNL     1       7.250   2.043  -7.957  1.00  0.00     0.005 C 
ATOM     31  C   UNL     1       8.615   1.928  -7.285  1.00  0.00     0.005 C 
ENDBRANCH  20  22
ENDBRANCH  10  20
ENDBRANCH   8   9
ENDBRANCH   6   8
ENDBRANCH   5   6
ENDBRANCH   4   5
ENDBRANCH   3   4
ENDBRANCH   2   3
ENDBRANCH   1   2
BRANCH   1  32
ATOM     32  C   UNL     1       2.285   1.928   2.489  1.00  0.00     0.188 C 
BRANCH  32  33
ATOM     33  O   UNL     1       2.901   3.206   2.551  1.00  0.00    -0.376 OA
BRANCH  33  34
ATOM     34  C   UNL     1       4.151   3.380   3.197  1.00  0.00     0.202 C 
BRANCH  34  35
ATOM     35  C   UNL     1       4.237   3.086   4.700  1.00  0.00     0.261 C 
BRANCH  35  36
ATOM     36  O   UNL     1       3.972   1.720   5.064  1.00  0.00    -0.460 OA
BRANCH  36  37
ATOM     37  C   UNL     1       2.783   1.479   5.672  1.00  0.00     0.338 C 
ATOM     38  O   UNL     1       1.921   2.294   5.953  1.00  0.00    -0.246 OA
BRANCH  37  39
ATOM     39  C   UNL     1       2.580   0.015   5.807  1.00  0.00     0.060 A 
ATOM     40  C   UNL     1       3.598  -0.823   6.266  1.00  0.00     0.016 A 
ATOM     41  C   UNL     1       1.340  -0.529   5.430  1.00  0.00     0.016 A 
ATOM     42  C   UNL     1       3.352  -2.193   6.407  1.00  0.00     0.010 A 
ATOM     43  C   UNL     1       1.099  -1.900   5.563  1.00  0.00     0.010 A 
ATOM     44  C   UNL     1       2.090  -2.736   6.093  1.00  0.00    -0.014 A 
BRANCH  44  45
ATOM     45  C   UNL     1       1.754  -4.103   6.570  1.00  0.00     0.031 A 
ATOM     46  C   UNL     1       1.731  -5.301   5.672  1.00  0.00     0.074 A 
ATOM     47  C   UNL     1       1.485  -4.241   7.884  1.00  0.00     0.049 A 
ATOM     48  N   UNL     1       1.640  -6.564   6.006  1.00  0.00    -0.248 NA
ATOM     49  C   UNL     1       1.812  -5.064   4.224  1.00  0.00     0.031 C 
ATOM     50  C   UNL     1       1.439  -3.135   8.844  1.00  0.00     0.029 A 
ATOM     51  N   UNL     1       1.236  -5.354   8.646  1.00  0.00    -0.354 N 
ATOM     52  C   UNL     1       1.679  -7.279   4.817  1.00  0.00     0.074 A 
ATOM     53  C   UNL     1       1.754  -6.304   3.747  1.00  0.00     0.031 C 
ATOM     54  C   UNL     1       1.241  -3.629  10.073  1.00  0.00     0.029 A 
ATOM     55  C   UNL     1       1.115  -5.080   9.988  1.00  0.00     0.049 A 
ATOM     56  H   UNL     1       1.153  -6.260   8.269  1.00  0.00     0.167 HD
ATOM     57  C   UNL     1       1.667  -8.623   4.646  1.00  0.00     0.031 A 
ATOM     58  C   UNL     1       0.949  -5.901  11.043  1.00  0.00     0.031 A 
ATOM     59  C   UNL     1       1.562  -9.580   5.721  1.00  0.00     0.049 A 
ATOM     60  C   UNL     1       0.916  -7.386  10.817  1.00  0.00     0.074 A 
ATOM     61  C   UNL     1       1.593 -10.963   5.642  1.00  0.00     0.029 A 
ATOM     62  N   UNL     1       1.392  -9.263   7.060  1.00  0.00    -0.354 N 
ATOM     63  N   UNL     1       1.068  -8.051   9.698  1.00  0.00    -0.248 NA
ATOM     64  C   UNL     1       0.711  -8.235  11.999  1.00  0.00     0.031 C 
ATOM     65  C   UNL     1       1.365 -11.482   6.918  1.00  0.00     0.029 A 
ATOM     66  C   UNL     1       1.280 -10.425   7.809  1.00  0.00     0.049 A 
ATOM     67  H   UNL     1       1.357  -8.349   7.425  1.00  0.00     0.167 HD
ATOM     68  C   UNL     1       1.009  -9.394  10.044  1.00  0.00     0.074 A 
ATOM     69  C   UNL     1       0.824  -9.450  11.479  1.00  0.00     0.031 C 
ATOM     70  C   UNL     1       1.102 -10.480   9.239  1.00  0.00     0.031 A 
BRANCH  57  71
ATOM     71  C   UNL     1       1.786  -9.175   3.249  1.00  0.00    -0.014 A 
ATOM     72  C   UNL     1       0.724  -9.904   2.689  1.00  0.00     0.009 A 
ATOM     73  C   UNL     1       3.005  -9.115   2.555  1.00  0.00     0.009 A 
ATOM     74  C   UNL     1       0.887 -10.585   1.480  1.00  0.00     0.001 A 
ATOM     75  C   UNL     1       3.157  -9.774   1.331  1.00  0.00     0.001 A 
ATOM     76  C   UNL     1       2.103 -10.518   0.802  1.00  0.00     0.000 A 
ENDBRANCH  57  71
BRANCH  58  77
ATOM     77  C   UNL     1       0.870  -5.325  12.412  1.00  0.00    -0.014 A 
ATOM     78  C   UNL     1      -0.215  -4.517  12.788  1.00  0.00     0.009 A 
ATOM     79  C   UNL     1       1.904  -5.541  13.336  1.00  0.00     0.009 A 
ATOM     80  C   UNL     1      -0.252  -3.918  14.049  1.00  0.00     0.001 A 
ATOM     81  C   UNL     1       1.847  -4.971  14.610  1.00  0.00     0.001 A 
ATOM     82  C   UNL     1       0.774  -4.152  14.961  1.00  0.00     0.000 A 
ENDBRANCH  58  77
BRANCH  70  83
ATOM     83  C   UNL     1       1.032 -11.843   9.874  1.00  0.00    -0.014 A 
ATOM     84  C   UNL     1       2.157 -12.684   9.839  1.00  0.00     0.009 A 
ATOM     85  C   UNL     1      -0.169 -12.341  10.402  1.00  0.00     0.009 A 
ATOM     86  C   UNL     1       2.075 -14.001  10.295  1.00  0.00     0.001 A 
ATOM     87  C   UNL     1      -0.239 -13.648  10.890  1.00  0.00     0.001 A 
ATOM     88  C   UNL     1       0.878 -14.480  10.824  1.00  0.00     0.000 A 
ENDBRANCH  70  83
ENDBRANCH  44  45
ENDBRANCH  37  39
ENDBRANCH  36  37
ENDBRANCH  35  36
ENDBRANCH  34  35
ENDBRANCH  33  34
ENDBRANCH  32  33
ENDBRANCH   1  32
TORSDOF 20
