REMARK SMILES O=C(OCCOCCOCCOC(=O)[C@H]1CS[C@]2(c3ccccc3)CCC(=O)N12)c1ccc(-c2c3nc(c(-c4ccccc4)c4ccc([nH]4)c(-c4ccccc4)c4nc(c(-c5ccccc5)c5ccc2[nH]5)C=C4)C=C3)cc1
REMARK SMILES IDX 7 1 6 2 5 3 4 4 3 5 2 6 1 7 30 8 31 9 77 10 32 11 76 12
REMARK SMILES IDX 33 13 34 14 35 15 70 16 36 17 75 18 69 19 71 20 37 21 74 22
REMARK SMILES IDX 68 23 67 24 38 26 60 27 45 28 59 29 46 30 49 31 58 32 72 33
REMARK SMILES IDX 47 34 48 35 57 37 73 38 50 39 39 40 40 41 44 42 41 43 43 44
REMARK SMILES IDX 42 45 61 46 62 47 66 48 63 49 65 50 64 51 51 52 52 53 56 54
REMARK SMILES IDX 53 55 55 56 54 57 8 58 9 59 10 60 11 61 12 62 13 63 14 64
REMARK SMILES IDX 15 65 16 66 29 67 17 68 18 69 27 70 25 71 26 72 28 73 19 74
REMARK SMILES IDX 20 75 24 76 21 77 23 78 22 79
REMARK H PARENT 71 25 49 36
REMARK Flexibility Score: inf
ROOT
ATOM      1  C   UNL     1       5.009   3.708   6.309  1.00  0.00     0.188 C 
ENDROOT
BRANCH   1   2
ATOM      2  O   UNL     1       4.532   4.692   7.210  1.00  0.00    -0.376 OA
BRANCH   2   3
ATOM      3  C   UNL     1       4.989   4.773   8.563  1.00  0.00     0.202 C 
BRANCH   3   4
ATOM      4  C   UNL     1       5.012   3.546   9.525  1.00  0.00     0.261 C 
BRANCH   4   5
ATOM      5  O   UNL     1       5.827   2.450   9.085  1.00  0.00    -0.460 OA
BRANCH   5   6
ATOM      6  C   UNL     1       5.572   1.375   8.285  1.00  0.00     0.338 C 
ATOM      7  O   UNL     1       6.570   0.948   7.707  1.00  0.00    -0.246 OA
BRANCH   6   8
ATOM      8  C   UNL     1       4.052   0.819   8.016  1.00  0.00     0.060 A 
ATOM      9  C   UNL     1       2.961   2.259   7.878  1.00  0.00     0.016 A 
ATOM     10  C   UNL     1       3.123  -0.970   7.884  1.00  0.00     0.016 A 
ATOM     11  C   UNL     1       1.248   2.065   7.740  1.00  0.00     0.010 A 
ATOM     12  C   UNL     1       1.333  -1.020   7.689  1.00  0.00     0.010 A 
ATOM     13  C   UNL     1       0.444   0.507   7.707  1.00  0.00    -0.014 A 
BRANCH  13  14
ATOM     14  C   UNL     1      -1.009   0.515   8.082  1.00  0.00     0.031 A 
ATOM     15  C   UNL     1      -1.511  -0.345   9.212  1.00  0.00     0.074 A 
ATOM     16  C   UNL     1      -1.871   1.365   7.483  1.00  0.00     0.049 A 
ATOM     17  N   UNL     1      -2.747  -0.532   9.597  1.00  0.00    -0.248 NA
ATOM     18  C   UNL     1      -0.522  -0.993  10.091  1.00  0.00     0.031 C 
ATOM     19  C   UNL     1      -1.536   2.494   6.627  1.00  0.00     0.029 A 
ATOM     20  N   UNL     1      -3.241   1.336   7.404  1.00  0.00    -0.354 N 
ATOM     21  C   UNL     1      -2.670  -1.232  10.794  1.00  0.00     0.074 A 
ATOM     22  C   UNL     1      -1.282  -1.536  11.028  1.00  0.00     0.031 C 
ATOM     23  C   UNL     1      -2.600   2.880   5.920  1.00  0.00     0.029 A 
ATOM     24  C   UNL     1      -3.707   2.060   6.324  1.00  0.00     0.049 A 
ATOM     25  H   UNL     1      -3.821   0.857   8.040  1.00  0.00     0.167 HD
ATOM     26  C   UNL     1      -3.673  -1.542  11.646  1.00  0.00     0.031 A 
ATOM     27  C   UNL     1      -4.885   2.037   5.685  1.00  0.00     0.031 A 
ATOM     28  C   UNL     1      -5.054  -1.300  11.333  1.00  0.00     0.049 A 
ATOM     29  C   UNL     1      -5.987   1.370   6.420  1.00  0.00     0.074 A 
ATOM     30  C   UNL     1      -6.182  -1.637  12.054  1.00  0.00     0.029 A 
ATOM     31  N   UNL     1      -5.488  -0.677  10.168  1.00  0.00    -0.354 N 
ATOM     32  N   UNL     1      -5.910   0.681   7.532  1.00  0.00    -0.248 NA
ATOM     33  C   UNL     1      -7.339   1.593   5.915  1.00  0.00     0.031 C 
ATOM     34  C   UNL     1      -7.299  -1.295  11.283  1.00  0.00     0.029 A 
ATOM     35  C   UNL     1      -6.869  -0.671  10.120  1.00  0.00     0.049 A 
ATOM     36  H   UNL     1      -4.898  -0.297   9.478  1.00  0.00     0.167 HD
ATOM     37  C   UNL     1      -7.213   0.478   7.929  1.00  0.00     0.074 A 
ATOM     38  C   UNL     1      -8.053   1.087   6.909  1.00  0.00     0.031 C 
ATOM     39  C   UNL     1      -7.670  -0.106   9.062  1.00  0.00     0.031 A 
BRANCH  26  40
ATOM     40  C   UNL     1      -3.292  -2.213  12.937  1.00  0.00    -0.014 A 
ATOM     41  C   UNL     1      -2.601  -1.518  13.946  1.00  0.00     0.009 A 
ATOM     42  C   UNL     1      -3.592  -3.568  13.138  1.00  0.00     0.009 A 
ATOM     43  C   UNL     1      -2.189  -2.174  15.110  1.00  0.00     0.001 A 
ATOM     44  C   UNL     1      -3.201  -4.216  14.313  1.00  0.00     0.001 A 
ATOM     45  C   UNL     1      -2.491  -3.523  15.292  1.00  0.00     0.000 A 
ENDBRANCH  26  40
BRANCH  27  46
ATOM     46  C   UNL     1      -5.056   2.701   4.368  1.00  0.00    -0.014 A 
ATOM     47  C   UNL     1      -5.740   3.916   4.237  1.00  0.00     0.009 A 
ATOM     48  C   UNL     1      -4.502   2.113   3.216  1.00  0.00     0.009 A 
ATOM     49  C   UNL     1      -5.912   4.501   2.978  1.00  0.00     0.001 A 
ATOM     50  C   UNL     1      -4.658   2.709   1.961  1.00  0.00     0.001 A 
ATOM     51  C   UNL     1      -5.377   3.896   1.841  1.00  0.00     0.000 A 
ENDBRANCH  27  46
BRANCH  39  52
ATOM     52  C   UNL     1      -9.153  -0.089   9.241  1.00  0.00    -0.014 A 
ATOM     53  C   UNL     1      -9.992  -0.839   8.405  1.00  0.00     0.009 A 
ATOM     54  C   UNL     1      -9.711   0.705  10.252  1.00  0.00     0.009 A 
ATOM     55  C   UNL     1     -11.373  -0.749   8.544  1.00  0.00     0.001 A 
ATOM     56  C   UNL     1     -11.091   0.755  10.420  1.00  0.00     0.001 A 
ATOM     57  C   UNL     1     -11.920   0.041   9.556  1.00  0.00     0.000 A 
ENDBRANCH  39  52
ENDBRANCH  13  14
ENDBRANCH   6   8
ENDBRANCH   5   6
ENDBRANCH   4   5
ENDBRANCH   3   4
ENDBRANCH   2   3
ENDBRANCH   1   2
BRANCH   1  58
ATOM     58  C   UNL     1       5.985   4.044   5.188  1.00  0.00     0.188 C 
BRANCH  58  59
ATOM     59  O   UNL     1       5.957   5.288   4.517  1.00  0.00    -0.376 OA
BRANCH  59  60
ATOM     60  C   UNL     1       5.139   6.311   5.046  1.00  0.00     0.202 C 
BRANCH  60  61
ATOM     61  C   UNL     1       3.662   6.235   4.617  1.00  0.00     0.261 C 
BRANCH  61  62
ATOM     62  O   UNL     1       3.030   4.935   4.682  1.00  0.00    -0.462 OA
BRANCH  62  63
ATOM     63  C   UNL     1       3.195   4.146   3.589  1.00  0.00     0.329 C 
ATOM     64  O   UNL     1       3.842   4.470   2.595  1.00  0.00    -0.250 OA
BRANCH  63  65
ATOM     65  C   UNL     1       2.422   2.812   3.635  1.00  0.00     0.206 C 
ATOM     66  C   UNL     1       3.136   1.707   2.876  1.00  0.00     0.109 C 
ATOM     67  N   UNL     1       1.599   2.242   4.747  1.00  0.00    -0.309 N 
ATOM     68  S   UNL     1       2.824   0.144   3.703  1.00  0.00    -0.126 SA
ATOM     69  C   UNL     1       1.819   0.833   5.213  1.00  0.00     0.116 C 
ATOM     70  C   UNL     1       0.252   2.387   4.330  1.00  0.00     0.224 C 
ATOM     71  C   UNL     1       0.479   0.093   4.891  1.00  0.00     0.055 C 
ATOM     72  C   UNL     1      -0.304   1.032   3.994  1.00  0.00     0.104 C 
ATOM     73  O   UNL     1      -0.263   3.448   3.999  1.00  0.00    -0.275 OA
BRANCH  69  74
ATOM     74  C   UNL     1       2.653   0.458   6.733  1.00  0.00    -0.012 A 
ATOM     75  C   UNL     1       4.222  -0.343   6.222  1.00  0.00     0.007 A 
ATOM     76  C   UNL     1       2.358   0.481   8.738  1.00  0.00     0.007 A 
ATOM     77  C   UNL     1       5.276  -1.073   7.430  1.00  0.00     0.000 A 
ATOM     78  C   UNL     1       3.563  -0.256   9.853  1.00  0.00     0.000 A 
ATOM     79  C   UNL     1       4.964  -1.007   9.165  1.00  0.00     0.000 A 
ENDBRANCH  69  74
ENDBRANCH  63  65
ENDBRANCH  62  63
ENDBRANCH  61  62
ENDBRANCH  60  61
ENDBRANCH  59  60
ENDBRANCH  58  59
ENDBRANCH   1  58
TORSDOF 18
