REMARK SMILES Cc1cccc(-c2cc(OCC(=O)OCCOCCOCCOC(=O)c3ccc(-c4c5nc(c(-c6ccccc6)c6ccc([nH]6)c(-c6ccccc6)c6nc(c(-c7ccccc7)c7ccc4[nH]7)C=C6)C=C5)cc3)nc(Nc3ccccc3C)n2)c1
REMARK SMILES IDX 18 1 17 2 16 3 15 4 14 5 12 6 13 7 11 8 10 9 9 10 7 11 8 12
REMARK SMILES IDX 84 13 75 14 74 15 6 16 1 17 2 18 3 19 85 20 4 21 5 22 76 23
REMARK SMILES IDX 77 25 78 26 82 27 79 28 81 29 83 30 80 31 19 32 20 33 21 34
REMARK SMILES IDX 22 35 23 36 24 37 25 38 26 39 27 40 73 41 28 42 72 43 29 44
REMARK SMILES IDX 30 45 31 46 66 47 32 48 71 49 65 50 67 51 33 52 70 53 64 54
REMARK SMILES IDX 63 55 34 57 56 58 41 59 55 60 42 61 45 62 54 63 68 64 43 65
REMARK SMILES IDX 44 66 53 68 69 69 46 70 35 71 36 72 40 73 37 74 39 75 38 76
REMARK SMILES IDX 57 77 58 78 62 79 59 80 61 81 60 82 47 83 48 84 52 85 49 86
REMARK SMILES IDX 51 87 50 88
REMARK H PARENT 76 24 67 56 45 67
REMARK Flexibility Score: inf
ROOT
ATOM      1  C   UNL     1       2.479   2.483  -0.011  1.00  0.00     0.188 C 
ENDROOT
BRANCH   1   2
ATOM      2  O   UNL     1       3.705   2.904  -0.555  1.00  0.00    -0.376 OA
BRANCH   2   3
ATOM      3  C   UNL     1       3.713   4.271  -0.814  1.00  0.00     0.202 C 
BRANCH   3   4
ATOM      4  C   UNL     1       2.376   4.830  -1.323  1.00  0.00     0.261 C 
BRANCH   4   5
ATOM      5  O   UNL     1       1.145   3.794  -2.187  1.00  0.00    -0.461 OA
BRANCH   5   6
ATOM      6  C   UNL     1       0.093   3.906  -3.585  1.00  0.00     0.344 C 
ATOM      7  O   UNL     1      -0.052   2.904  -4.271  1.00  0.00    -0.248 OA
BRANCH   6   8
ATOM      8  C   UNL     1      -1.254   5.280  -3.803  1.00  0.00     0.353 C 
BRANCH   8   9
ATOM      9  O   UNL     1      -2.240   5.904  -2.462  1.00  0.00    -0.466 OA
BRANCH   9  10
ATOM     10  C   UNL     1      -2.211   5.236  -0.854  1.00  0.00     0.219 A 
ATOM     11  C   UNL     1      -1.785   2.186   0.303  1.00  0.00     0.080 A 
ATOM     12  C   UNL     1      -0.997   3.670  -0.397  1.00  0.00     0.097 A 
ATOM     13  N   UNL     1      -3.433   2.354   0.813  1.00  0.00    -0.212 NA
ATOM     14  C   UNL     1      -4.301   3.847   0.696  1.00  0.00     0.231 A 
ATOM     15  N   UNL     1      -3.804   5.235  -0.200  1.00  0.00    -0.177 NA
BRANCH  11  16
ATOM     16  C   UNL     1      -1.215   0.796   0.305  1.00  0.00     0.001 A 
ATOM     17  C   UNL     1       2.185  -0.925   0.976  1.00  0.00     0.044 C 
ATOM     18  C   UNL     1       0.727  -0.737   0.654  1.00  0.00    -0.050 A 
ATOM     19  C   UNL     1      -0.034  -1.813   0.235  1.00  0.00     0.003 A 
ATOM     20  C   UNL     1       0.086   0.510   0.748  1.00  0.00     0.013 A 
ATOM     21  C   UNL     1      -1.381  -1.619  -0.072  1.00  0.00     0.001 A 
ATOM     22  C   UNL     1      -1.959  -0.331  -0.061  1.00  0.00     0.010 A 
ENDBRANCH  11  16
BRANCH  14  23
ATOM     23  N   UNL     1      -4.895   4.250   1.954  1.00  0.00    -0.324 N 
ATOM     24  H   UNL     1      -5.273   5.158   1.996  1.00  0.00     0.170 HD
BRANCH  23  25
ATOM     25  C   UNL     1      -4.985   3.463   3.132  1.00  0.00     0.044 A 
ATOM     26  C   UNL     1      -6.045   2.546   3.165  1.00  0.00     0.026 A 
ATOM     27  C   UNL     1      -4.069   3.435   4.221  1.00  0.00    -0.027 A 
ATOM     28  C   UNL     1      -6.134   1.548   4.137  1.00  0.00     0.002 A 
ATOM     29  C   UNL     1      -4.098   2.329   5.109  1.00  0.00     0.005 A 
ATOM     30  C   UNL     1      -2.968   4.422   4.535  1.00  0.00     0.046 C 
ATOM     31  C   UNL     1      -5.116   1.388   5.062  1.00  0.00     0.000 A 
ENDBRANCH  23  25
ENDBRANCH  14  23
ENDBRANCH   9  10
ENDBRANCH   8   9
ENDBRANCH   6   8
ENDBRANCH   5   6
ENDBRANCH   4   5
ENDBRANCH   3   4
ENDBRANCH   2   3
ENDBRANCH   1   2
BRANCH   1  32
ATOM     32  C   UNL     1       1.698   3.453   0.885  1.00  0.00     0.188 C 
BRANCH  32  33
ATOM     33  O   UNL     1       2.433   4.374   1.660  1.00  0.00    -0.376 OA
BRANCH  33  34
ATOM     34  C   UNL     1       1.668   5.061   2.653  1.00  0.00     0.202 C 
BRANCH  34  35
ATOM     35  C   UNL     1       0.809   4.105   3.453  1.00  0.00     0.261 C 
BRANCH  35  36
ATOM     36  O   UNL     1      -0.507   3.713   2.883  1.00  0.00    -0.460 OA
BRANCH  36  37
ATOM     37  C   UNL     1      -1.672   3.411   2.312  1.00  0.00     0.338 C 
ATOM     38  O   UNL     1      -2.132   2.377   2.776  1.00  0.00    -0.246 OA
BRANCH  37  39
ATOM     39  C   UNL     1      -2.235   4.266   0.897  1.00  0.00     0.060 A 
ATOM     40  C   UNL     1      -2.802   3.478  -0.877  1.00  0.00     0.016 A 
ATOM     41  C   UNL     1      -1.079   5.553   0.979  1.00  0.00     0.016 A 
ATOM     42  C   UNL     1      -1.666   3.876  -2.215  1.00  0.00     0.010 A 
ATOM     43  C   UNL     1      -0.198   6.002  -0.330  1.00  0.00     0.010 A 
ATOM     44  C   UNL     1      -0.324   5.224  -1.854  1.00  0.00    -0.014 A 
BRANCH  44  45
ATOM     45  C   UNL     1       0.985   5.938  -3.002  1.00  0.00     0.031 A 
ATOM     46  C   UNL     1       0.716   7.375  -3.269  1.00  0.00     0.074 A 
ATOM     47  C   UNL     1       2.158   5.234  -3.701  1.00  0.00     0.049 A 
ATOM     48  N   UNL     1       0.974   7.881  -4.423  1.00  0.00    -0.248 NA
ATOM     49  C   UNL     1      -0.122   8.290  -2.470  1.00  0.00     0.031 C 
ATOM     50  C   UNL     1       3.593   5.587  -3.973  1.00  0.00     0.029 A 
ATOM     51  N   UNL     1       2.443   3.813  -3.761  1.00  0.00    -0.354 N 
ATOM     52  C   UNL     1       0.930   9.233  -4.210  1.00  0.00     0.074 A 
ATOM     53  C   UNL     1      -0.054   9.419  -3.187  1.00  0.00     0.031 C 
ATOM     54  C   UNL     1       4.346   4.496  -4.360  1.00  0.00     0.029 A 
ATOM     55  C   UNL     1       3.536   3.284  -4.365  1.00  0.00     0.049 A 
ATOM     56  H   UNL     1       1.804   3.195  -3.337  1.00  0.00     0.167 HD
ATOM     57  C   UNL     1       2.014   9.957  -4.593  1.00  0.00     0.031 A 
ATOM     58  C   UNL     1       3.215   2.342  -5.311  1.00  0.00     0.031 A 
ATOM     59  C   UNL     1       3.028   9.077  -5.208  1.00  0.00     0.049 A 
ATOM     60  C   UNL     1       2.995   3.213  -6.514  1.00  0.00     0.074 A 
ATOM     61  C   UNL     1       4.293   8.664  -4.831  1.00  0.00     0.029 A 
ATOM     62  N   UNL     1       2.635   8.184  -6.203  1.00  0.00    -0.354 N 
ATOM     63  N   UNL     1       2.747   4.494  -6.428  1.00  0.00    -0.248 NA
ATOM     64  C   UNL     1       3.124   2.754  -7.878  1.00  0.00     0.031 C 
ATOM     65  C   UNL     1       4.694   7.611  -5.722  1.00  0.00     0.029 A 
ATOM     66  C   UNL     1       3.619   7.278  -6.540  1.00  0.00     0.049 A 
ATOM     67  H   UNL     1       1.744   8.199  -6.623  1.00  0.00     0.167 HD
ATOM     68  C   UNL     1       3.054   5.077  -7.599  1.00  0.00     0.074 A 
ATOM     69  C   UNL     1       3.030   3.934  -8.518  1.00  0.00     0.031 C 
ATOM     70  C   UNL     1       3.401   6.400  -7.700  1.00  0.00     0.031 A 
BRANCH  57  71
ATOM     71  C   UNL     1       2.286  11.386  -4.193  1.00  0.00    -0.014 A 
ATOM     72  C   UNL     1       3.539  11.937  -4.512  1.00  0.00     0.009 A 
ATOM     73  C   UNL     1       1.371  12.258  -3.571  1.00  0.00     0.009 A 
ATOM     74  C   UNL     1       3.858  13.274  -4.253  1.00  0.00     0.001 A 
ATOM     75  C   UNL     1       1.685  13.601  -3.303  1.00  0.00     0.001 A 
ATOM     76  C   UNL     1       2.926  14.111  -3.657  1.00  0.00     0.000 A 
ENDBRANCH  57  71
BRANCH  58  77
ATOM     77  C   UNL     1       2.267   1.194  -4.891  1.00  0.00    -0.014 A 
ATOM     78  C   UNL     1       2.536   0.511  -3.683  1.00  0.00     0.009 A 
ATOM     79  C   UNL     1       0.991   0.967  -5.447  1.00  0.00     0.009 A 
ATOM     80  C   UNL     1       1.509  -0.078  -2.924  1.00  0.00     0.001 A 
ATOM     81  C   UNL     1      -0.044   0.362  -4.679  1.00  0.00     0.001 A 
ATOM     82  C   UNL     1       0.200  -0.073  -3.382  1.00  0.00     0.000 A 
ENDBRANCH  58  77
BRANCH  70  83
ATOM     83  C   UNL     1       3.480   7.048  -9.033  1.00  0.00    -0.014 A 
ATOM     84  C   UNL     1       3.821   6.362 -10.190  1.00  0.00     0.009 A 
ATOM     85  C   UNL     1       3.118   8.402  -9.157  1.00  0.00     0.009 A 
ATOM     86  C   UNL     1       3.532   6.907 -11.432  1.00  0.00     0.001 A 
ATOM     87  C   UNL     1       2.904   8.982 -10.392  1.00  0.00     0.001 A 
ATOM     88  C   UNL     1       3.052   8.209 -11.530  1.00  0.00     0.000 A 
ENDBRANCH  70  83
ENDBRANCH  44  45
ENDBRANCH  37  39
ENDBRANCH  36  37
ENDBRANCH  35  36
ENDBRANCH  34  35
ENDBRANCH  33  34
ENDBRANCH  32  33
ENDBRANCH   1  32
TORSDOF 22
