REMARK SMILES CC[C@]1(C(=O)OCCOCCOCCOC(=O)c2ccc(-c3c4nc(c(-c5ccccc5)c5ccc([nH]5)c(-c5ccccc5)c5nc(c(-c6ccccc6)c6ccc3[nH]6)C=C5)C=C4)cc2)CC[N@@H+](Cc2ccc(CC(C)C)cc2)C1
REMARK SMILES IDX 10 1 9 2 8 3 7 4 6 5 4 6 5 7 3 8 66 9 80 10 67 11 68 12 2 14
REMARK SMILES IDX 1 15 69 16 70 17 71 18 79 19 72 20 78 21 73 22 74 23 75 24
REMARK SMILES IDX 76 25 77 26 11 27 12 28 13 29 14 30 15 31 16 32 17 33 18 34
REMARK SMILES IDX 19 35 65 36 20 37 64 38 21 39 22 40 23 41 58 42 24 43 63 44
REMARK SMILES IDX 57 45 59 46 25 47 62 48 56 49 55 50 26 52 48 53 33 54 47 55
REMARK SMILES IDX 34 56 37 57 46 58 60 59 35 60 36 61 45 63 61 64 38 65 27 66
REMARK SMILES IDX 28 67 32 68 29 69 31 70 30 71 49 72 50 73 54 74 51 75 53 76
REMARK SMILES IDX 52 77 39 78 40 79 44 80 41 81 43 82 42 83
REMARK H PARENT 68 13 59 51 37 62
REMARK Flexibility Score: inf
ROOT
ATOM      1  C   UNL     1      -0.737   0.843   2.756  1.00  0.00     0.188 C 
ENDROOT
BRANCH   1   2
ATOM      2  O   UNL     1      -1.806   0.614   3.667  1.00  0.00    -0.376 OA
BRANCH   2   3
ATOM      3  C   UNL     1      -1.708  -0.504   4.545  1.00  0.00     0.202 C 
BRANCH   3   4
ATOM      4  C   UNL     1      -1.485  -1.873   3.892  1.00  0.00     0.261 C 
BRANCH   4   5
ATOM      5  O   UNL     1      -0.263  -1.960   3.124  1.00  0.00    -0.463 OA
BRANCH   5   6
ATOM      6  C   UNL     1      -0.350  -2.603   1.935  1.00  0.00     0.318 C 
ATOM      7  O   UNL     1      -1.381  -3.146   1.544  1.00  0.00    -0.251 OA
BRANCH   6   8
ATOM      8  C   UNL     1       0.945  -2.649   1.105  1.00  0.00     0.122 C 
ATOM      9  C   UNL     1       2.228  -1.979   1.613  1.00  0.00     0.086 C 
ATOM     10  C   UNL     1       1.353  -4.152   1.142  1.00  0.00     0.281 C 
ATOM     11  C   UNL     1       3.333  -2.885   1.095  1.00  0.00     0.263 C 
ATOM     12  N   UNL     1       2.817  -4.233   1.310  1.00  0.00    -0.330 N 
ATOM     13  H   UNL     1       3.207  -4.877   0.622  1.00  0.00     0.348 HD
BRANCH   8  14
ATOM     14  C   UNL     1       0.601  -2.183  -0.351  1.00  0.00     0.021 C 
ATOM     15  C   UNL     1       0.898  -0.720  -0.685  1.00  0.00     0.005 C 
ENDBRANCH   8  14
BRANCH  12  16
ATOM     16  C   UNL     1       3.266  -4.863   2.572  1.00  0.00     0.299 C 
BRANCH  16  17
ATOM     17  C   UNL     1       3.089  -4.076   3.860  1.00  0.00     0.006 A 
ATOM     18  C   UNL     1       4.121  -3.251   4.339  1.00  0.00     0.010 A 
ATOM     19  C   UNL     1       1.876  -4.092   4.561  1.00  0.00     0.010 A 
ATOM     20  C   UNL     1       3.915  -2.403   5.431  1.00  0.00     0.004 A 
ATOM     21  C   UNL     1       1.673  -3.249   5.659  1.00  0.00     0.004 A 
ATOM     22  C   UNL     1       2.678  -2.373   6.083  1.00  0.00    -0.048 A 
BRANCH  22  23
ATOM     23  C   UNL     1       2.413  -1.380   7.190  1.00  0.00     0.038 C 
BRANCH  23  24
ATOM     24  C   UNL     1       2.628  -1.918   8.615  1.00  0.00    -0.013 C 
ATOM     25  C   UNL     1       4.100  -2.224   8.898  1.00  0.00     0.008 C 
ATOM     26  C   UNL     1       2.116  -0.890   9.630  1.00  0.00     0.008 C 
ENDBRANCH  23  24
ENDBRANCH  22  23
ENDBRANCH  16  17
ENDBRANCH  12  16
ENDBRANCH   6   8
ENDBRANCH   5   6
ENDBRANCH   4   5
ENDBRANCH   3   4
ENDBRANCH   2   3
ENDBRANCH   1   2
BRANCH   1  27
ATOM     27  C   UNL     1       0.704   0.723   3.280  1.00  0.00     0.188 C 
BRANCH  27  28
ATOM     28  O   UNL     1       0.805   0.738   4.691  1.00  0.00    -0.376 OA
BRANCH  28  29
ATOM     29  C   UNL     1       1.635   1.748   5.234  1.00  0.00     0.202 C 
BRANCH  29  30
ATOM     30  C   UNL     1       0.995   3.137   5.182  1.00  0.00     0.261 C 
BRANCH  30  31
ATOM     31  O   UNL     1       0.612   3.587   3.869  1.00  0.00    -0.460 OA
BRANCH  31  32
ATOM     32  C   UNL     1       1.598   3.844   2.980  1.00  0.00     0.338 C 
ATOM     33  O   UNL     1       2.800   3.770   3.169  1.00  0.00    -0.246 OA
BRANCH  32  34
ATOM     34  C   UNL     1       0.953   4.001   1.658  1.00  0.00     0.060 A 
ATOM     35  C   UNL     1       1.284   3.116   0.621  1.00  0.00     0.016 A 
ATOM     36  C   UNL     1      -0.029   4.974   1.467  1.00  0.00     0.016 A 
ATOM     37  C   UNL     1       0.620   3.194  -0.605  1.00  0.00     0.010 A 
ATOM     38  C   UNL     1      -0.670   5.071   0.231  1.00  0.00     0.010 A 
ATOM     39  C   UNL     1      -0.345   4.187  -0.814  1.00  0.00    -0.014 A 
BRANCH  39  40
ATOM     40  C   UNL     1      -0.903   4.428  -2.166  1.00  0.00     0.031 A 
ATOM     41  C   UNL     1      -0.290   5.516  -3.000  1.00  0.00     0.074 A 
ATOM     42  C   UNL     1      -1.943   3.718  -2.638  1.00  0.00     0.049 A 
ATOM     43  N   UNL     1      -0.694   6.021  -4.136  1.00  0.00    -0.248 NA
ATOM     44  C   UNL     1       0.949   6.114  -2.475  1.00  0.00     0.031 C 
ATOM     45  C   UNL     1      -2.575   2.585  -1.965  1.00  0.00     0.029 A 
ATOM     46  N   UNL     1      -2.661   3.865  -3.800  1.00  0.00    -0.354 N 
ATOM     47  C   UNL     1       0.229   7.011  -4.452  1.00  0.00     0.074 A 
ATOM     48  C   UNL     1       1.204   7.043  -3.384  1.00  0.00     0.031 C 
ATOM     49  C   UNL     1      -3.601   2.149  -2.720  1.00  0.00     0.029 A 
ATOM     50  C   UNL     1      -3.730   3.006  -3.897  1.00  0.00     0.049 A 
ATOM     51  H   UNL     1      -2.432   4.521  -4.497  1.00  0.00     0.167 HD
ATOM     52  C   UNL     1       0.255   7.826  -5.532  1.00  0.00     0.031 A 
ATOM     53  C   UNL     1      -4.723   2.952  -4.808  1.00  0.00     0.031 A 
ATOM     54  C   UNL     1      -0.731   7.809  -6.577  1.00  0.00     0.049 A 
ATOM     55  C   UNL     1      -4.741   3.953  -5.938  1.00  0.00     0.074 A 
ATOM     56  C   UNL     1      -0.801   8.601  -7.709  1.00  0.00     0.029 A 
ATOM     57  N   UNL     1      -1.827   6.961  -6.610  1.00  0.00    -0.354 N 
ATOM     58  N   UNL     1      -3.870   4.890  -6.229  1.00  0.00    -0.248 NA
ATOM     59  C   UNL     1      -5.887   3.894  -6.859  1.00  0.00     0.031 C 
ATOM     60  C   UNL     1      -1.977   8.277  -8.393  1.00  0.00     0.029 A 
ATOM     61  C   UNL     1      -2.600   7.235  -7.725  1.00  0.00     0.049 A 
ATOM     62  H   UNL     1      -2.026   6.268  -5.940  1.00  0.00     0.167 HD
ATOM     63  C   UNL     1      -4.348   5.511  -7.378  1.00  0.00     0.074 A 
ATOM     64  C   UNL     1      -5.577   4.835  -7.739  1.00  0.00     0.031 C 
ATOM     65  C   UNL     1      -3.819   6.549  -8.071  1.00  0.00     0.031 A 
BRANCH  52  66
ATOM     66  C   UNL     1       1.356   8.847  -5.595  1.00  0.00    -0.014 A 
ATOM     67  C   UNL     1       2.690   8.477  -5.829  1.00  0.00     0.009 A 
ATOM     68  C   UNL     1       1.048  10.207  -5.428  1.00  0.00     0.009 A 
ATOM     69  C   UNL     1       3.697   9.444  -5.854  1.00  0.00     0.001 A 
ATOM     70  C   UNL     1       2.052  11.174  -5.486  1.00  0.00     0.001 A 
ATOM     71  C   UNL     1       3.377  10.791  -5.687  1.00  0.00     0.000 A 
ENDBRANCH  52  66
BRANCH  53  72
ATOM     72  C   UNL     1      -5.821   1.956  -4.669  1.00  0.00    -0.014 A 
ATOM     73  C   UNL     1      -5.989   0.934  -5.617  1.00  0.00     0.009 A 
ATOM     74  C   UNL     1      -6.736   2.046  -3.607  1.00  0.00     0.009 A 
ATOM     75  C   UNL     1      -7.060   0.042  -5.517  1.00  0.00     0.001 A 
ATOM     76  C   UNL     1      -7.786   1.133  -3.491  1.00  0.00     0.001 A 
ATOM     77  C   UNL     1      -7.955   0.139  -4.452  1.00  0.00     0.000 A 
ENDBRANCH  53  72
BRANCH  65  78
ATOM     78  C   UNL     1      -4.539   6.998  -9.313  1.00  0.00    -0.014 A 
ATOM     79  C   UNL     1      -5.753   7.699  -9.241  1.00  0.00     0.009 A 
ATOM     80  C   UNL     1      -3.955   6.778 -10.571  1.00  0.00     0.009 A 
ATOM     81  C   UNL     1      -6.378   8.148 -10.406  1.00  0.00     0.001 A 
ATOM     82  C   UNL     1      -4.566   7.255 -11.731  1.00  0.00     0.001 A 
ATOM     83  C   UNL     1      -5.780   7.934 -11.648  1.00  0.00     0.000 A 
ENDBRANCH  65  78
ENDBRANCH  39  40
ENDBRANCH  32  34
ENDBRANCH  31  32
ENDBRANCH  30  31
ENDBRANCH  29  30
ENDBRANCH  28  29
ENDBRANCH  27  28
ENDBRANCH   1  27
TORSDOF 22
