REMARK SMILES CCc1ccc2c(c1)C=C(C(=O)OCCOCCOCCOC(=O)c1ccc(-c3c4nc(c(-c5ccccc5)c5ccc([nH]5)c(-c5ccccc5)c5nc(c(-c6ccccc6)c6ccc3[nH]6)C=C5)C=C4)cc1)[C@H](C(F)(F)F)O2
REMARK SMILES IDX 18 1 17 2 16 3 15 4 14 5 13 6 11 7 12 8 10 9 3 10 4 11 8 12
REMARK SMILES IDX 5 13 7 14 6 15 9 16 78 17 73 18 2 19 1 20 74 21 75 22 76 23
REMARK SMILES IDX 77 24 19 25 20 26 21 27 22 28 23 29 24 30 25 31 26 32 72 33
REMARK SMILES IDX 27 34 71 35 28 36 29 37 30 38 65 39 31 40 70 41 64 42 66 43
REMARK SMILES IDX 32 44 69 45 63 46 62 47 33 49 55 50 40 51 54 52 41 53 44 54
REMARK SMILES IDX 53 55 67 56 42 57 43 58 52 60 68 61 45 62 34 63 35 64 39 65
REMARK SMILES IDX 36 66 38 67 37 68 56 69 57 70 61 71 58 72 60 73 59 74 46 75
REMARK SMILES IDX 47 76 51 77 48 78 50 79 49 80
REMARK H PARENT 66 48 44 59
REMARK Flexibility Score: inf
ROOT
ATOM      1  C   UNL     1       1.054  -2.277  -7.493  1.00  0.00     0.188 C 
ENDROOT
BRANCH   1   2
ATOM      2  C   UNL     1       2.066  -2.155  -8.650  1.00  0.00     0.188 C 
BRANCH   2   3
ATOM      3  O   UNL     1       2.835  -3.332  -8.832  1.00  0.00    -0.376 OA
BRANCH   3   4
ATOM      4  C   UNL     1       4.220  -3.256  -8.541  1.00  0.00     0.202 C 
BRANCH   4   5
ATOM      5  C   UNL     1       4.588  -3.081  -7.064  1.00  0.00     0.261 C 
BRANCH   5   6
ATOM      6  O   UNL     1       3.882  -2.035  -6.379  1.00  0.00    -0.460 OA
BRANCH   6   7
ATOM      7  C   UNL     1       4.327  -0.768  -6.530  1.00  0.00     0.338 C 
ATOM      8  O   UNL     1       5.259  -0.414  -7.229  1.00  0.00    -0.246 OA
BRANCH   7   9
ATOM      9  C   UNL     1       3.437   0.151  -5.788  1.00  0.00     0.087 C 
ATOM     10  C   UNL     1       0.983   1.446  -1.822  1.00  0.00    -0.047 A 
ATOM     11  C   UNL     1       0.861   2.740  -2.358  1.00  0.00     0.007 A 
ATOM     12  C   UNL     1       1.669   0.474  -2.569  1.00  0.00     0.015 A 
ATOM     13  C   UNL     1       1.418   3.061  -3.597  1.00  0.00     0.047 A 
ATOM     14  C   UNL     1       2.244   0.796  -3.806  1.00  0.00     0.018 A 
ATOM     15  C   UNL     1       2.097   2.087  -4.320  1.00  0.00     0.128 A 
ATOM     16  C   UNL     1       3.082  -0.158  -4.529  1.00  0.00     0.027 C 
ATOM     17  O   UNL     1       2.661   2.473  -5.508  1.00  0.00    -0.475 OA
ATOM     18  C   UNL     1       2.882   1.391  -6.455  1.00  0.00     0.316 C 
BRANCH  10  19
ATOM     19  C   UNL     1       0.362   1.176  -0.469  1.00  0.00     0.032 C 
ATOM     20  C   UNL     1       0.816  -0.088   0.250  1.00  0.00     0.009 C 
ENDBRANCH  10  19
BRANCH  18  21
ATOM     21  C   UNL     1       3.635   1.955  -7.669  1.00  0.00     0.430 C 
ATOM     22  F   UNL     1       3.634   1.071  -8.697  1.00  0.00    -0.167 F 
ATOM     23  F   UNL     1       3.006   3.064  -8.139  1.00  0.00    -0.167 F 
ATOM     24  F   UNL     1       4.906   2.303  -7.392  1.00  0.00    -0.167 F 
ENDBRANCH  18  21
ENDBRANCH   7   9
ENDBRANCH   6   7
ENDBRANCH   5   6
ENDBRANCH   4   5
ENDBRANCH   3   4
ENDBRANCH   2   3
ENDBRANCH   1   2
BRANCH   1  25
ATOM     25  O   UNL     1       0.683  -3.566  -7.015  1.00  0.00    -0.376 OA
BRANCH  25  26
ATOM     26  C   UNL     1       0.466  -4.618  -7.947  1.00  0.00     0.202 C 
BRANCH  26  27
ATOM     27  C   UNL     1      -0.679  -4.453  -8.951  1.00  0.00     0.261 C 
BRANCH  27  28
ATOM     28  O   UNL     1      -0.586  -3.262  -9.751  1.00  0.00    -0.460 OA
BRANCH  28  29
ATOM     29  C   UNL     1      -1.576  -2.357  -9.559  1.00  0.00     0.338 C 
ATOM     30  O   UNL     1      -2.542  -2.454  -8.823  1.00  0.00    -0.246 OA
BRANCH  29  31
ATOM     31  C   UNL     1      -1.244  -1.103 -10.263  1.00  0.00     0.060 A 
ATOM     32  C   UNL     1      -1.151   0.074  -9.507  1.00  0.00     0.016 A 
ATOM     33  C   UNL     1      -1.096  -1.067 -11.651  1.00  0.00     0.016 A 
ATOM     34  C   UNL     1      -0.925   1.296 -10.139  1.00  0.00     0.010 A 
ATOM     35  C   UNL     1      -0.895   0.164 -12.285  1.00  0.00     0.010 A 
ATOM     36  C   UNL     1      -0.832   1.352 -11.535  1.00  0.00    -0.014 A 
BRANCH  36  37
ATOM     37  C   UNL     1      -0.814   2.664 -12.223  1.00  0.00     0.031 A 
ATOM     38  C   UNL     1      -2.112   3.260 -12.690  1.00  0.00     0.074 A 
ATOM     39  C   UNL     1       0.341   3.320 -12.430  1.00  0.00     0.049 A 
ATOM     40  N   UNL     1      -2.324   4.364 -13.361  1.00  0.00    -0.248 NA
ATOM     41  C   UNL     1      -3.335   2.514 -12.353  1.00  0.00     0.031 C 
ATOM     42  C   UNL     1       1.660   2.880 -11.981  1.00  0.00     0.029 A 
ATOM     43  N   UNL     1       0.582   4.501 -13.087  1.00  0.00    -0.354 N 
ATOM     44  C   UNL     1      -3.700   4.445 -13.526  1.00  0.00     0.074 A 
ATOM     45  C   UNL     1      -4.272   3.269 -12.905  1.00  0.00     0.031 C 
ATOM     46  C   UNL     1       2.578   3.773 -12.392  1.00  0.00     0.029 A 
ATOM     47  C   UNL     1       1.914   4.826 -13.159  1.00  0.00     0.049 A 
ATOM     48  H   UNL     1      -0.131   5.061 -13.470  1.00  0.00     0.167 HD
ATOM     49  C   UNL     1      -4.425   5.410 -14.140  1.00  0.00     0.031 A 
ATOM     50  C   UNL     1       2.528   5.842 -13.795  1.00  0.00     0.031 A 
ATOM     51  C   UNL     1      -3.862   6.565 -14.785  1.00  0.00     0.049 A 
ATOM     52  C   UNL     1       1.708   6.844 -14.563  1.00  0.00     0.074 A 
ATOM     53  C   UNL     1      -4.518   7.600 -15.428  1.00  0.00     0.029 A 
ATOM     54  N   UNL     1      -2.505   6.829 -14.882  1.00  0.00    -0.354 N 
ATOM     55  N   UNL     1       0.406   6.923 -14.694  1.00  0.00    -0.248 NA
ATOM     56  C   UNL     1       2.448   7.900 -15.273  1.00  0.00     0.031 C 
ATOM     57  C   UNL     1      -3.555   8.464 -15.960  1.00  0.00     0.029 A 
ATOM     58  C   UNL     1      -2.302   7.993 -15.603  1.00  0.00     0.049 A 
ATOM     59  H   UNL     1      -1.792   6.271 -14.495  1.00  0.00     0.167 HD
ATOM     60  C   UNL     1       0.170   8.046 -15.478  1.00  0.00     0.074 A 
ATOM     61  C   UNL     1       1.462   8.625 -15.783  1.00  0.00     0.031 C 
ATOM     62  C   UNL     1      -1.012   8.555 -15.905  1.00  0.00     0.031 A 
BRANCH  49  63
ATOM     63  C   UNL     1      -5.915   5.230 -14.175  1.00  0.00    -0.014 A 
ATOM     64  C   UNL     1      -6.698   5.426 -13.027  1.00  0.00     0.009 A 
ATOM     65  C   UNL     1      -6.546   4.883 -15.380  1.00  0.00     0.009 A 
ATOM     66  C   UNL     1      -8.082   5.248 -13.079  1.00  0.00     0.001 A 
ATOM     67  C   UNL     1      -7.932   4.728 -15.434  1.00  0.00     0.001 A 
ATOM     68  C   UNL     1      -8.697   4.903 -14.282  1.00  0.00     0.000 A 
ENDBRANCH  49  63
BRANCH  50  69
ATOM     69  C   UNL     1       4.010   5.950 -13.771  1.00  0.00    -0.014 A 
ATOM     70  C   UNL     1       4.640   6.979 -13.056  1.00  0.00     0.009 A 
ATOM     71  C   UNL     1       4.799   5.040 -14.492  1.00  0.00     0.009 A 
ATOM     72  C   UNL     1       6.031   7.108 -13.083  1.00  0.00     0.001 A 
ATOM     73  C   UNL     1       6.190   5.157 -14.496  1.00  0.00     0.001 A 
ATOM     74  C   UNL     1       6.804   6.196 -13.799  1.00  0.00     0.000 A 
ENDBRANCH  50  69
BRANCH  62  75
ATOM     75  C   UNL     1      -0.966   9.812 -16.725  1.00  0.00    -0.014 A 
ATOM     76  C   UNL     1      -0.542   9.793 -18.063  1.00  0.00     0.009 A 
ATOM     77  C   UNL     1      -1.394  11.026 -16.163  1.00  0.00     0.009 A 
ATOM     78  C   UNL     1      -0.523  10.971 -18.813  1.00  0.00     0.001 A 
ATOM     79  C   UNL     1      -1.398  12.196 -16.924  1.00  0.00     0.001 A 
ATOM     80  C   UNL     1      -0.955  12.169 -18.245  1.00  0.00     0.000 A 
ENDBRANCH  62  75
ENDBRANCH  36  37
ENDBRANCH  29  31
ENDBRANCH  28  29
ENDBRANCH  27  28
ENDBRANCH  26  27
ENDBRANCH  25  26
ENDBRANCH   1  25
TORSDOF 19
