REMARK SMILES CC(C)[NH2+][C@]1(C(=O)OCCOCCOCCOC(=O)c2ccc(-c3c4nc(c(-c5ccccc5)c5ccc([nH]5)c(-c5ccccc5)c5nc(c(-c6ccccc6)c6ccc3[nH]6)C=C5)C=C4)cc2)CCC[C@@H]([N@@H+](C)C2CC2)C1
REMARK SMILES IDX 12 1 11 2 10 3 9 4 8 5 6 6 7 7 5 8 68 9 77 10 69 11 71 12
REMARK SMILES IDX 70 13 4 14 2 17 1 18 3 19 72 20 73 21 74 23 75 24 76 25
REMARK SMILES IDX 13 26 14 27 15 28 16 29 17 30 18 31 19 32 20 33 21 34 67 35
REMARK SMILES IDX 22 36 66 37 23 38 24 39 25 40 60 41 26 42 65 43 59 44 61 45
REMARK SMILES IDX 27 46 64 47 58 48 57 49 28 51 50 52 35 53 49 54 36 55 39 56
REMARK SMILES IDX 48 57 62 58 37 59 38 60 47 62 63 63 40 64 29 65 30 66 34 67
REMARK SMILES IDX 31 68 33 69 32 70 51 71 52 72 56 73 53 74 55 75 54 76 41 77
REMARK SMILES IDX 42 78 46 79 43 80 45 81 44 82
REMARK H PARENT 4 15 4 16 72 22 61 50 39 61
REMARK Flexibility Score: inf
ROOT
ATOM      1  C   UNL     1      -0.708   0.163   1.010  1.00  0.00     0.188 C 
ENDROOT
BRANCH   1   2
ATOM      2  O   UNL     1       0.686   0.200   1.294  1.00  0.00    -0.376 OA
BRANCH   2   3
ATOM      3  C   UNL     1       1.559   0.457   0.200  1.00  0.00     0.202 C 
BRANCH   3   4
ATOM      4  C   UNL     1       1.734  -0.652  -0.852  1.00  0.00     0.261 C 
BRANCH   4   5
ATOM      5  O   UNL     1       0.552  -1.376  -1.231  1.00  0.00    -0.459 OA
BRANCH   5   6
ATOM      6  C   UNL     1       0.272  -2.448  -0.445  1.00  0.00     0.368 C 
ATOM      7  O   UNL     1       0.937  -2.725   0.555  1.00  0.00    -0.245 OA
BRANCH   6   8
ATOM      8  C   UNL     1      -0.968  -3.303  -0.859  1.00  0.00     0.200 C 
ATOM      9  C   UNL     1      -0.322  -4.723  -0.963  1.00  0.00     0.081 C 
ATOM     10  C   UNL     1      -2.010  -3.286   0.295  1.00  0.00     0.146 C 
ATOM     11  C   UNL     1      -1.300  -5.883  -0.955  1.00  0.00     0.013 C 
ATOM     12  C   UNL     1      -2.931  -4.526   0.396  1.00  0.00     0.190 C 
ATOM     13  C   UNL     1      -2.159  -5.848   0.301  1.00  0.00     0.065 C 
BRANCH   8  14
ATOM     14  N   UNL     1      -1.572  -3.045  -2.197  1.00  0.00    -0.330 N 
ATOM     15  H   UNL     1      -0.874  -3.339  -2.880  1.00  0.00     0.347 HD
ATOM     16  H   UNL     1      -2.456  -3.547  -2.120  1.00  0.00     0.347 HD
BRANCH  14  17
ATOM     17  C   UNL     1      -2.027  -1.719  -2.630  1.00  0.00     0.176 C 
ATOM     18  C   UNL     1      -2.216  -1.825  -4.154  1.00  0.00     0.075 C 
ATOM     19  C   UNL     1      -3.349  -1.232  -2.032  1.00  0.00     0.075 C 
ENDBRANCH  14  17
ENDBRANCH   8  14
BRANCH  12  20
ATOM     20  N   UNL     1      -3.895  -4.464   1.524  1.00  0.00    -0.332 N 
ATOM     21  C   UNL     1      -4.995  -5.424   1.324  1.00  0.00     0.333 C 
ATOM     22  H   UNL     1      -4.184  -3.488   1.453  1.00  0.00     0.348 HD
BRANCH  20  23
ATOM     23  C   UNL     1      -3.427  -4.530   2.932  1.00  0.00     0.184 C 
ATOM     24  C   UNL     1      -2.038  -4.351   3.468  1.00  0.00     0.071 C 
ATOM     25  C   UNL     1      -3.023  -3.227   3.581  1.00  0.00     0.071 C 
ENDBRANCH  20  23
ENDBRANCH  12  20
ENDBRANCH   6   8
ENDBRANCH   5   6
ENDBRANCH   4   5
ENDBRANCH   3   4
ENDBRANCH   2   3
ENDBRANCH   1   2
BRANCH   1  26
ATOM     26  C   UNL     1      -1.282   1.397   0.339  1.00  0.00     0.188 C 
BRANCH  26  27
ATOM     27  O   UNL     1      -0.727   1.720  -0.930  1.00  0.00    -0.376 OA
BRANCH  27  28
ATOM     28  C   UNL     1      -1.328   2.856  -1.564  1.00  0.00     0.202 C 
BRANCH  28  29
ATOM     29  C   UNL     1      -1.351   4.175  -0.753  1.00  0.00     0.261 C 
BRANCH  29  30
ATOM     30  O   UNL     1      -2.022   4.135   0.529  1.00  0.00    -0.460 OA
BRANCH  30  31
ATOM     31  C   UNL     1      -3.289   3.657   0.575  1.00  0.00     0.338 C 
ATOM     32  O   UNL     1      -4.020   3.467  -0.382  1.00  0.00    -0.246 OA
BRANCH  31  33
ATOM     33  C   UNL     1      -3.563   3.133   1.948  1.00  0.00     0.060 A 
ATOM     34  C   UNL     1      -4.297   1.942   2.069  1.00  0.00     0.016 A 
ATOM     35  C   UNL     1      -3.067   3.752   3.100  1.00  0.00     0.016 A 
ATOM     36  C   UNL     1      -4.589   1.407   3.329  1.00  0.00     0.010 A 
ATOM     37  C   UNL     1      -3.373   3.225   4.364  1.00  0.00     0.010 A 
ATOM     38  C   UNL     1      -4.175   2.074   4.489  1.00  0.00    -0.014 A 
BRANCH  38  39
ATOM     39  C   UNL     1      -4.785   1.725   5.802  1.00  0.00     0.031 A 
ATOM     40  C   UNL     1      -5.967   2.539   6.268  1.00  0.00     0.074 A 
ATOM     41  C   UNL     1      -4.350   0.704   6.564  1.00  0.00     0.049 A 
ATOM     42  N   UNL     1      -6.652   2.458   7.381  1.00  0.00    -0.248 NA
ATOM     43  C   UNL     1      -6.436   3.588   5.348  1.00  0.00     0.031 C 
ATOM     44  C   UNL     1      -3.259  -0.207   6.230  1.00  0.00     0.029 A 
ATOM     45  N   UNL     1      -4.787   0.269   7.795  1.00  0.00    -0.354 N 
ATOM     46  C   UNL     1      -7.622   3.450   7.298  1.00  0.00     0.074 A 
ATOM     47  C   UNL     1      -7.420   4.137   6.042  1.00  0.00     0.031 C 
ATOM     48  C   UNL     1      -3.109  -1.093   7.233  1.00  0.00     0.029 A 
ATOM     49  C   UNL     1      -4.070  -0.791   8.295  1.00  0.00     0.049 A 
ATOM     50  H   UNL     1      -5.544   0.679   8.272  1.00  0.00     0.167 HD
ATOM     51  C   UNL     1      -8.601   3.764   8.179  1.00  0.00     0.031 A 
ATOM     52  C   UNL     1      -4.164  -1.432   9.479  1.00  0.00     0.031 A 
ATOM     53  C   UNL     1      -8.809   3.104   9.438  1.00  0.00     0.049 A 
ATOM     54  C   UNL     1      -5.206  -1.006  10.486  1.00  0.00     0.074 A 
ATOM     55  C   UNL     1      -9.778   3.356  10.394  1.00  0.00     0.029 A 
ATOM     56  N   UNL     1      -8.029   2.067   9.923  1.00  0.00    -0.354 N 
ATOM     57  N   UNL     1      -6.127  -0.079  10.387  1.00  0.00    -0.248 NA
ATOM     58  C   UNL     1      -5.221  -1.728  11.769  1.00  0.00     0.031 C 
ATOM     59  C   UNL     1      -9.551   2.508  11.482  1.00  0.00     0.029 A 
ATOM     60  C   UNL     1      -8.481   1.684  11.175  1.00  0.00     0.049 A 
ATOM     61  H   UNL     1      -7.268   1.662   9.448  1.00  0.00     0.167 HD
ATOM     62  C   UNL     1      -6.851  -0.132  11.575  1.00  0.00     0.074 A 
ATOM     63  C   UNL     1      -6.270  -1.188  12.375  1.00  0.00     0.031 C 
ATOM     64  C   UNL     1      -7.906   0.626  11.964  1.00  0.00     0.031 A 
BRANCH  51  65
ATOM     65  C   UNL     1      -9.503   4.912   7.819  1.00  0.00    -0.014 A 
ATOM     66  C   UNL     1     -10.453   4.801   6.792  1.00  0.00     0.009 A 
ATOM     67  C   UNL     1      -9.409   6.117   8.532  1.00  0.00     0.009 A 
ATOM     68  C   UNL     1     -11.265   5.888   6.461  1.00  0.00     0.001 A 
ATOM     69  C   UNL     1     -10.243   7.191   8.220  1.00  0.00     0.001 A 
ATOM     70  C   UNL     1     -11.162   7.079   7.178  1.00  0.00     0.000 A 
ENDBRANCH  51  65
BRANCH  52  71
ATOM     71  C   UNL     1      -3.230  -2.543   9.809  1.00  0.00    -0.014 A 
ATOM     72  C   UNL     1      -3.697  -3.861   9.933  1.00  0.00     0.009 A 
ATOM     73  C   UNL     1      -1.872  -2.282  10.053  1.00  0.00     0.009 A 
ATOM     74  C   UNL     1      -2.831  -4.887  10.322  1.00  0.00     0.001 A 
ATOM     75  C   UNL     1      -1.003  -3.314  10.412  1.00  0.00     0.001 A 
ATOM     76  C   UNL     1      -1.484  -4.614  10.556  1.00  0.00     0.000 A 
ENDBRANCH  52  71
BRANCH  64  77
ATOM     77  C   UNL     1      -8.544   0.309  13.290  1.00  0.00    -0.014 A 
ATOM     78  C   UNL     1      -7.905   0.600  14.505  1.00  0.00     0.009 A 
ATOM     79  C   UNL     1      -9.834  -0.248  13.320  1.00  0.00     0.009 A 
ATOM     80  C   UNL     1      -8.528   0.306  15.720  1.00  0.00     0.001 A 
ATOM     81  C   UNL     1     -10.467  -0.512  14.536  1.00  0.00     0.001 A 
ATOM     82  C   UNL     1      -9.809  -0.244  15.735  1.00  0.00     0.000 A 
ENDBRANCH  64  77
ENDBRANCH  38  39
ENDBRANCH  31  33
ENDBRANCH  30  31
ENDBRANCH  29  30
ENDBRANCH  28  29
ENDBRANCH  27  28
ENDBRANCH  26  27
ENDBRANCH   1  26
TORSDOF 21
