REMARK SMILES O=C(OCCOCCOCCOC(=O)c1ccc(-c2c3nc(c(-c4ccccc4)c4ccc([nH]4)c(-c4ccccc4)c4nc(c(-c5ccccc5)c5ccc2[nH]5)C=C4)C=C3)cc1)C1=Cc2cc(Cl)cc(-c3ccc(Cl)cc3)c2O[C@@H]1C(F)(F)F
REMARK SMILES IDX 8 1 7 2 6 3 5 4 4 5 3 6 2 7 1 8 63 9 64 10 80 11 65 12 79 13
REMARK SMILES IDX 66 14 78 15 67 16 70 17 68 18 69 19 81 20 82 21 83 22 84 23
REMARK SMILES IDX 71 24 72 25 77 26 73 27 76 28 74 29 75 30 9 31 10 32 11 33
REMARK SMILES IDX 12 34 13 35 14 36 15 37 16 38 62 39 17 40 61 41 18 42 19 43
REMARK SMILES IDX 20 44 55 45 21 46 60 47 54 48 56 49 22 50 59 51 53 52 52 53
REMARK SMILES IDX 23 55 45 56 30 57 44 58 31 59 34 60 43 61 57 62 32 63 33 64
REMARK SMILES IDX 42 66 58 67 35 68 24 69 25 70 29 71 26 72 28 73 27 74 46 75
REMARK SMILES IDX 47 76 51 77 48 78 50 79 49 80 36 81 37 82 41 83 38 84 40 85
REMARK SMILES IDX 39 86
REMARK H PARENT 56 54 34 65
REMARK Flexibility Score: inf
ROOT
ATOM      1  C   UNL     1       1.742   3.503  -0.004  1.00  0.00     0.188 C 
ENDROOT
BRANCH   1   2
ATOM      2  C   UNL     1       2.232   2.179   0.600  1.00  0.00     0.188 C 
BRANCH   2   3
ATOM      3  O   UNL     1       3.679   1.923   0.980  1.00  0.00    -0.376 OA
BRANCH   3   4
ATOM      4  C   UNL     1       4.570   0.402   0.833  1.00  0.00     0.202 C 
BRANCH   4   5
ATOM      5  C   UNL     1       3.947  -1.185  -0.523  1.00  0.00     0.261 C 
BRANCH   5   6
ATOM      6  O   UNL     1       3.014  -2.354  -0.172  1.00  0.00    -0.460 OA
BRANCH   6   7
ATOM      7  C   UNL     1       3.179  -2.777   1.090  1.00  0.00     0.338 C 
ATOM      8  O   UNL     1       2.504  -3.548   1.726  1.00  0.00    -0.246 OA
BRANCH   7   9
ATOM      9  C   UNL     1       4.021  -1.674   1.507  1.00  0.00     0.087 C 
ATOM     10  C   UNL     1       5.413  -1.758   1.119  1.00  0.00     0.027 C 
ATOM     11  C   UNL     1       2.789  -0.326   0.928  1.00  0.00     0.316 C 
ATOM     12  C   UNL     1       6.133  -0.797  -0.203  1.00  0.00     0.019 A 
ATOM     13  O   UNL     1       3.505   0.626  -0.641  1.00  0.00    -0.475 OA
ATOM     14  C   UNL     1       7.408  -1.129  -0.581  1.00  0.00     0.032 A 
ATOM     15  C   UNL     1       5.238   0.339  -1.153  1.00  0.00     0.135 A 
ATOM     16  C   UNL     1       7.896  -0.452  -1.701  1.00  0.00     0.042 A 
ATOM     17  C   UNL     1       5.824   0.996  -2.224  1.00  0.00     0.026 A 
ATOM     18  Cl  UNL     1       9.488  -0.861  -2.247  1.00  0.00    -0.084 Cl
ATOM     19  C   UNL     1       7.166   0.547  -2.446  1.00  0.00     0.033 A 
BRANCH  11  20
ATOM     20  C   UNL     1       2.510   0.148   2.562  1.00  0.00     0.430 C 
ATOM     21  F   UNL     1       2.616   1.421   2.964  1.00  0.00    -0.167 F 
ATOM     22  F   UNL     1       1.269  -0.274   2.924  1.00  0.00    -0.167 F 
ATOM     23  F   UNL     1       3.356  -0.505   3.423  1.00  0.00    -0.167 F 
ENDBRANCH  11  20
BRANCH  17  24
ATOM     24  C   UNL     1       5.345   2.047  -3.114  1.00  0.00    -0.015 A 
ATOM     25  C   UNL     1       4.565   1.754  -4.237  1.00  0.00     0.010 A 
ATOM     26  C   UNL     1       5.855   3.357  -2.994  1.00  0.00     0.010 A 
ATOM     27  C   UNL     1       4.215   2.760  -5.149  1.00  0.00     0.021 A 
ATOM     28  C   UNL     1       5.481   4.372  -3.883  1.00  0.00     0.021 A 
ATOM     29  C   UNL     1       4.640   4.071  -4.945  1.00  0.00     0.041 A 
ATOM     30  Cl  UNL     1       4.122   5.321  -6.006  1.00  0.00    -0.084 Cl
ENDBRANCH  17  24
ENDBRANCH   7   9
ENDBRANCH   6   7
ENDBRANCH   5   6
ENDBRANCH   4   5
ENDBRANCH   3   4
ENDBRANCH   2   3
ENDBRANCH   1   2
BRANCH   1  31
ATOM     31  O   UNL     1       2.452   4.072  -1.067  1.00  0.00    -0.376 OA
BRANCH  31  32
ATOM     32  C   UNL     1       3.831   4.257  -0.830  1.00  0.00     0.202 C 
BRANCH  32  33
ATOM     33  C   UNL     1       4.301   5.171   0.302  1.00  0.00     0.261 C 
BRANCH  33  34
ATOM     34  O   UNL     1       3.922   4.730   1.610  1.00  0.00    -0.460 OA
BRANCH  34  35
ATOM     35  C   UNL     1       2.932   5.437   2.202  1.00  0.00     0.338 C 
ATOM     36  O   UNL     1       2.348   6.416   1.774  1.00  0.00    -0.246 OA
BRANCH  35  37
ATOM     37  C   UNL     1       2.517   4.713   3.412  1.00  0.00     0.060 A 
ATOM     38  C   UNL     1       1.228   4.163   3.481  1.00  0.00     0.016 A 
ATOM     39  C   UNL     1       3.390   4.641   4.495  1.00  0.00     0.016 A 
ATOM     40  C   UNL     1       0.805   3.534   4.645  1.00  0.00     0.010 A 
ATOM     41  C   UNL     1       2.949   4.056   5.678  1.00  0.00     0.010 A 
ATOM     42  C   UNL     1       1.646   3.533   5.762  1.00  0.00    -0.014 A 
BRANCH  42  43
ATOM     43  C   UNL     1       1.065   3.245   7.087  1.00  0.00     0.031 A 
ATOM     44  C   UNL     1       0.522   4.406   7.869  1.00  0.00     0.074 A 
ATOM     45  C   UNL     1       1.014   1.994   7.569  1.00  0.00     0.049 A 
ATOM     46  N   UNL     1       0.002   4.428   9.067  1.00  0.00    -0.248 NA
ATOM     47  C   UNL     1       0.578   5.723   7.208  1.00  0.00     0.031 C 
ATOM     48  C   UNL     1       1.463   0.794   6.868  1.00  0.00     0.029 A 
ATOM     49  N   UNL     1       0.561   1.535   8.778  1.00  0.00    -0.354 N 
ATOM     50  C   UNL     1      -0.322   5.758   9.305  1.00  0.00     0.074 A 
ATOM     51  C   UNL     1       0.085   6.516   8.145  1.00  0.00     0.031 C 
ATOM     52  C   UNL     1       1.275  -0.270   7.669  1.00  0.00     0.029 A 
ATOM     53  C   UNL     1       0.728   0.184   8.947  1.00  0.00     0.049 A 
ATOM     54  H   UNL     1       0.155   2.119   9.460  1.00  0.00     0.167 HD
ATOM     55  C   UNL     1      -0.907   6.297  10.398  1.00  0.00     0.031 A 
ATOM     56  C   UNL     1       0.486  -0.586  10.025  1.00  0.00     0.031 A 
ATOM     57  C   UNL     1      -1.271   5.538  11.562  1.00  0.00     0.049 A 
ATOM     58  C   UNL     1      -0.081   0.055  11.267  1.00  0.00     0.074 A 
ATOM     59  C   UNL     1      -1.873   5.980  12.725  1.00  0.00     0.029 A 
ATOM     60  N   UNL     1      -1.049   4.177  11.714  1.00  0.00    -0.354 N 
ATOM     61  N   UNL     1      -0.414   1.307  11.476  1.00  0.00    -0.248 NA
ATOM     62  C   UNL     1      -0.314  -0.827  12.418  1.00  0.00     0.031 C 
ATOM     63  C   UNL     1      -1.944   4.902  13.612  1.00  0.00     0.029 A 
ATOM     64  C   UNL     1      -1.469   3.770  12.968  1.00  0.00     0.049 A 
ATOM     65  H   UNL     1      -0.651   3.589  11.032  1.00  0.00     0.167 HD
ATOM     66  C   UNL     1      -0.929   1.355  12.767  1.00  0.00     0.074 A 
ATOM     67  C   UNL     1      -0.878   0.003  13.284  1.00  0.00     0.031 C 
ATOM     68  C   UNL     1      -1.405   2.418  13.463  1.00  0.00     0.031 A 
BRANCH  55  69
ATOM     69  C   UNL     1      -1.130   7.784  10.401  1.00  0.00    -0.014 A 
ATOM     70  C   UNL     1      -2.064   8.389   9.544  1.00  0.00     0.009 A 
ATOM     71  C   UNL     1      -0.403   8.590  11.290  1.00  0.00     0.009 A 
ATOM     72  C   UNL     1      -2.238   9.775   9.555  1.00  0.00     0.001 A 
ATOM     73  C   UNL     1      -0.604   9.971  11.323  1.00  0.00     0.001 A 
ATOM     74  C   UNL     1      -1.514  10.563  10.448  1.00  0.00     0.000 A 
ENDBRANCH  55  69
BRANCH  56  75
ATOM     75  C   UNL     1       0.801  -2.039   9.994  1.00  0.00    -0.014 A 
ATOM     76  C   UNL     1      -0.218  -3.000  10.076  1.00  0.00     0.009 A 
ATOM     77  C   UNL     1       2.134  -2.476   9.908  1.00  0.00     0.009 A 
ATOM     78  C   UNL     1       0.091  -4.362  10.105  1.00  0.00     0.001 A 
ATOM     79  C   UNL     1       2.438  -3.838   9.901  1.00  0.00     0.001 A 
ATOM     80  C   UNL     1       1.417  -4.780  10.012  1.00  0.00     0.000 A 
ENDBRANCH  56  75
BRANCH  68  81
ATOM     81  C   UNL     1      -1.954   2.155  14.839  1.00  0.00    -0.014 A 
ATOM     82  C   UNL     1      -1.123   1.788  15.909  1.00  0.00     0.009 A 
ATOM     83  C   UNL     1      -3.328   2.328  15.077  1.00  0.00     0.009 A 
ATOM     84  C   UNL     1      -1.663   1.557  17.176  1.00  0.00     0.001 A 
ATOM     85  C   UNL     1      -3.859   2.137  16.352  1.00  0.00     0.001 A 
ATOM     86  C   UNL     1      -3.028   1.738  17.398  1.00  0.00     0.000 A 
ENDBRANCH  68  81
ENDBRANCH  42  43
ENDBRANCH  35  37
ENDBRANCH  34  35
ENDBRANCH  33  34
ENDBRANCH  32  33
ENDBRANCH  31  32
ENDBRANCH   1  31
TORSDOF 19
