REMARK SMILES CC1(C)[C@H](C(=O)OCCOCCOCCOC(=O)c2ccc(-c3c4nc(c(-c5ccccc5)c5ccc([nH]5)c(-c5ccccc5)c5nc(c(-c6ccccc6)c6ccc3[nH]6)C=C5)C=C4)cc2)[C@@H]1C(=O)Nc1ccc(NC(=O)C2CCC2)cc1
REMARK SMILES IDX 11 1 10 2 9 3 8 4 7 5 5 6 6 7 4 8 1 9 2 10 3 11 67 12 68 13
REMARK SMILES IDX 69 14 70 15 71 17 72 18 83 19 73 20 82 21 74 22 75 23 76 24
REMARK SMILES IDX 77 26 78 27 79 28 81 29 80 30 12 31 13 32 14 33 15 34 16 35
REMARK SMILES IDX 17 36 18 37 19 38 20 39 66 40 21 41 65 42 22 43 23 44 24 45
REMARK SMILES IDX 59 46 25 47 64 48 58 49 60 50 26 51 63 52 57 53 56 54 27 56
REMARK SMILES IDX 49 57 34 58 48 59 35 60 38 61 47 62 61 63 36 64 37 65 46 67
REMARK SMILES IDX 62 68 39 69 28 70 29 71 33 72 30 73 32 74 31 75 50 76 51 77
REMARK SMILES IDX 55 78 52 79 54 80 53 81 40 82 41 83 45 84 42 85 44 86 43 87
REMARK H PARENT 70 16 75 25 60 55 38 66
REMARK Flexibility Score: inf
ROOT
ATOM      1  C   UNL     1      -0.794   1.451  -4.292  1.00  0.00     0.188 C 
ENDROOT
BRANCH   1   2
ATOM      2  O   UNL     1      -1.499   2.681  -4.324  1.00  0.00    -0.376 OA
BRANCH   2   3
ATOM      3  C   UNL     1      -2.474   2.895  -3.315  1.00  0.00     0.202 C 
BRANCH   3   4
ATOM      4  C   UNL     1      -1.910   3.178  -1.917  1.00  0.00     0.261 C 
BRANCH   4   5
ATOM      5  O   UNL     1      -1.458   2.094  -1.070  1.00  0.00    -0.463 OA
BRANCH   5   6
ATOM      6  C   UNL     1      -1.879   0.819  -1.233  1.00  0.00     0.310 C 
ATOM      7  O   UNL     1      -2.662   0.426  -2.071  1.00  0.00    -0.252 OA
BRANCH   6   8
ATOM      8  C   UNL     1      -1.199  -0.188  -0.389  1.00  0.00     0.118 C 
ATOM      9  C   UNL     1       1.061  -1.133   0.328  1.00  0.00     0.013 C 
ATOM     10  C   UNL     1       0.051  -0.013   0.442  1.00  0.00    -0.009 C 
ATOM     11  C   UNL     1       0.710   1.340   0.600  1.00  0.00     0.013 C 
ATOM     12  C   UNL     1      -1.313  -0.314   1.107  1.00  0.00     0.100 C 
BRANCH  12  13
ATOM     13  C   UNL     1      -1.871   0.657   2.078  1.00  0.00     0.228 C 
ATOM     14  O   UNL     1      -1.175   1.014   3.026  1.00  0.00    -0.274 OA
ATOM     15  N   UNL     1      -3.136   1.175   1.961  1.00  0.00    -0.326 N 
ATOM     16  H   UNL     1      -3.433   1.733   2.716  1.00  0.00     0.169 HD
BRANCH  15  17
ATOM     17  C   UNL     1      -4.064   1.027   0.931  1.00  0.00     0.041 A 
ATOM     18  C   UNL     1      -4.511   2.211   0.363  1.00  0.00     0.028 A 
ATOM     19  C   UNL     1      -4.471  -0.187   0.389  1.00  0.00     0.028 A 
ATOM     20  C   UNL     1      -5.188   2.187  -0.854  1.00  0.00     0.028 A 
ATOM     21  C   UNL     1      -5.247  -0.193  -0.787  1.00  0.00     0.028 A 
ATOM     22  C   UNL     1      -5.549   1.003  -1.466  1.00  0.00     0.041 A 
BRANCH  22  23
ATOM     23  N   UNL     1      -6.126   0.898  -2.740  1.00  0.00    -0.326 N 
ATOM     24  C   UNL     1      -6.435   1.727  -3.797  1.00  0.00     0.227 C 
ATOM     25  H   UNL     1      -6.384  -0.032  -2.934  1.00  0.00     0.169 HD
ATOM     26  O   UNL     1      -6.912   1.109  -4.774  1.00  0.00    -0.274 OA
BRANCH  24  27
ATOM     27  C   UNL     1      -6.212   3.245  -3.935  1.00  0.00     0.079 C 
ATOM     28  C   UNL     1      -7.413   3.979  -4.642  1.00  0.00     0.013 C 
ATOM     29  C   UNL     1      -6.369   4.344  -2.856  1.00  0.00     0.013 C 
ATOM     30  C   UNL     1      -6.993   5.258  -3.913  1.00  0.00     0.002 C 
ENDBRANCH  24  27
ENDBRANCH  22  23
ENDBRANCH  15  17
ENDBRANCH  12  13
ENDBRANCH   6   8
ENDBRANCH   5   6
ENDBRANCH   4   5
ENDBRANCH   3   4
ENDBRANCH   2   3
ENDBRANCH   1   2
BRANCH   1  31
ATOM     31  C   UNL     1       0.486   1.472  -3.437  1.00  0.00     0.188 C 
BRANCH  31  32
ATOM     32  O   UNL     1       1.267   2.657  -3.352  1.00  0.00    -0.376 OA
BRANCH  32  33
ATOM     33  C   UNL     1       1.317   3.528  -4.471  1.00  0.00     0.202 C 
BRANCH  33  34
ATOM     34  C   UNL     1       2.038   3.024  -5.727  1.00  0.00     0.261 C 
BRANCH  34  35
ATOM     35  O   UNL     1       1.583   1.744  -6.196  1.00  0.00    -0.460 OA
BRANCH  35  36
ATOM     36  C   UNL     1       2.378   0.690  -5.888  1.00  0.00     0.338 C 
ATOM     37  O   UNL     1       3.462   0.720  -5.333  1.00  0.00    -0.246 OA
BRANCH  36  38
ATOM     38  C   UNL     1       1.648  -0.573  -6.150  1.00  0.00     0.060 A 
ATOM     39  C   UNL     1       1.616  -1.544  -5.135  1.00  0.00     0.016 A 
ATOM     40  C   UNL     1       1.040  -0.822  -7.381  1.00  0.00     0.016 A 
ATOM     41  C   UNL     1       1.013  -2.780  -5.359  1.00  0.00     0.010 A 
ATOM     42  C   UNL     1       0.473  -2.077  -7.620  1.00  0.00     0.010 A 
ATOM     43  C   UNL     1       0.495  -3.072  -6.625  1.00  0.00    -0.014 A 
BRANCH  43  44
ATOM     44  C   UNL     1       0.252  -4.482  -7.010  1.00  0.00     0.031 A 
ATOM     45  C   UNL     1       1.395  -5.237  -7.633  1.00  0.00     0.074 A 
ATOM     46  C   UNL     1      -0.938  -5.080  -6.833  1.00  0.00     0.049 A 
ATOM     47  N   UNL     1       1.408  -6.422  -8.187  1.00  0.00    -0.248 NA
ATOM     48  C   UNL     1       2.702  -4.555  -7.636  1.00  0.00     0.031 C 
ATOM     49  C   UNL     1      -2.100  -4.489  -6.175  1.00  0.00     0.029 A 
ATOM     50  N   UNL     1      -1.363  -6.327  -7.220  1.00  0.00    -0.354 N 
ATOM     51  C   UNL     1       2.714  -6.616  -8.620  1.00  0.00     0.074 A 
ATOM     52  C   UNL     1       3.463  -5.429  -8.274  1.00  0.00     0.031 C 
ATOM     53  C   UNL     1      -3.119  -5.367  -6.226  1.00  0.00     0.029 A 
ATOM     54  C   UNL     1      -2.692  -6.558  -6.959  1.00  0.00     0.049 A 
ATOM     55  H   UNL     1      -0.773  -6.992  -7.643  1.00  0.00     0.167 HD
ATOM     56  C   UNL     1       3.243  -7.683  -9.260  1.00  0.00     0.031 A 
ATOM     57  C   UNL     1      -3.477  -7.596  -7.310  1.00  0.00     0.031 A 
ATOM     58  C   UNL     1       2.496  -8.852  -9.628  1.00  0.00     0.049 A 
ATOM     59  C   UNL     1      -2.891  -8.732  -8.109  1.00  0.00     0.074 A 
ATOM     60  C   UNL     1       2.936  -9.984 -10.289  1.00  0.00     0.029 A 
ATOM     61  N   UNL     1       1.146  -9.032  -9.371  1.00  0.00    -0.354 N 
ATOM     62  N   UNL     1      -1.657  -8.907  -8.521  1.00  0.00    -0.248 NA
ATOM     63  C   UNL     1      -3.809  -9.815  -8.495  1.00  0.00     0.031 C 
ATOM     64  C   UNL     1       1.839 -10.831 -10.475  1.00  0.00     0.029 A 
ATOM     65  C   UNL     1       0.731 -10.250  -9.877  1.00  0.00     0.049 A 
ATOM     66  H   UNL     1       0.570  -8.389  -8.898  1.00  0.00     0.167 HD
ATOM     67  C   UNL     1      -1.645 -10.131  -9.180  1.00  0.00     0.074 A 
ATOM     68  C   UNL     1      -2.991 -10.658  -9.111  1.00  0.00     0.031 C 
ATOM     69  C   UNL     1      -0.610 -10.765  -9.783  1.00  0.00     0.031 A 
BRANCH  56  70
ATOM     70  C   UNL     1       4.691  -7.602  -9.648  1.00  0.00    -0.014 A 
ATOM     71  C   UNL     1       5.711  -7.694  -8.687  1.00  0.00     0.009 A 
ATOM     72  C   UNL     1       5.038  -7.437 -10.997  1.00  0.00     0.009 A 
ATOM     73  C   UNL     1       7.050  -7.591  -9.069  1.00  0.00     0.001 A 
ATOM     74  C   UNL     1       6.378  -7.361 -11.379  1.00  0.00     0.001 A 
ATOM     75  C   UNL     1       7.382  -7.429 -10.414  1.00  0.00     0.000 A 
ENDBRANCH  56  70
BRANCH  57  76
ATOM     76  C   UNL     1      -4.919  -7.599  -6.949  1.00  0.00    -0.014 A 
ATOM     77  C   UNL     1      -5.419  -8.512  -6.006  1.00  0.00     0.009 A 
ATOM     78  C   UNL     1      -5.811  -6.711  -7.569  1.00  0.00     0.009 A 
ATOM     79  C   UNL     1      -6.784  -8.549  -5.712  1.00  0.00     0.001 A 
ATOM     80  C   UNL     1      -7.171  -6.732  -7.252  1.00  0.00     0.001 A 
ATOM     81  C   UNL     1      -7.658  -7.657  -6.331  1.00  0.00     0.000 A 
ENDBRANCH  57  76
BRANCH  69  82
ATOM     82  C   UNL     1      -0.868 -12.127 -10.363  1.00  0.00    -0.014 A 
ATOM     83  C   UNL     1      -1.575 -12.291 -11.563  1.00  0.00     0.009 A 
ATOM     84  C   UNL     1      -0.325 -13.257  -9.731  1.00  0.00     0.009 A 
ATOM     85  C   UNL     1      -1.753 -13.565 -12.106  1.00  0.00     0.001 A 
ATOM     86  C   UNL     1      -0.482 -14.526 -10.289  1.00  0.00     0.001 A 
ATOM     87  C   UNL     1      -1.201 -14.679 -11.473  1.00  0.00     0.000 A 
ENDBRANCH  69  82
ENDBRANCH  43  44
ENDBRANCH  36  38
ENDBRANCH  35  36
ENDBRANCH  34  35
ENDBRANCH  33  34
ENDBRANCH  32  33
ENDBRANCH  31  32
ENDBRANCH   1  31
TORSDOF 21
