REMARK SMILES O=C(OCCOCCOCCOC(=O)[C@@H]1CS[C@H](c2ncc(-c3ccccc3)s2)[NH2+]1)c1ccc(-c2c3nc(c(-c4ccccc4)c4ccc([nH]4)c(-c4ccccc4)c4nc(c(-c5ccccc5)c5ccc2[nH]5)C=C4)C=C3)cc1
REMARK SMILES IDX 7 1 6 2 5 3 4 4 3 5 2 6 1 7 31 8 32 9 78 10 33 11 77 12
REMARK SMILES IDX 34 13 35 14 36 15 71 16 37 17 76 18 70 19 72 20 38 21 75 22
REMARK SMILES IDX 69 23 68 24 39 26 61 27 46 28 60 29 47 30 50 31 59 32 73 33
REMARK SMILES IDX 48 34 49 35 58 37 74 38 51 39 40 40 41 41 45 42 42 43 44 44
REMARK SMILES IDX 43 45 62 46 63 47 67 48 64 49 66 50 65 51 52 52 53 53 57 54
REMARK SMILES IDX 54 55 56 56 55 57 8 58 9 59 10 60 11 61 12 62 13 63 14 64
REMARK SMILES IDX 15 65 16 66 30 67 17 68 18 69 19 72 20 73 29 74 21 75 22 76
REMARK SMILES IDX 23 77 24 78 28 79 25 80 27 81 26 82
REMARK H PARENT 72 25 50 36 30 70 30 71
REMARK Flexibility Score: inf
ROOT
ATOM      1  C   UNL     1      -1.030   0.664   7.416  1.00  0.00     0.188 C 
ENDROOT
BRANCH   1   2
ATOM      2  O   UNL     1      -1.184   1.817   6.581  1.00  0.00    -0.376 OA
BRANCH   2   3
ATOM      3  C   UNL     1      -2.473   2.430   6.702  1.00  0.00     0.202 C 
BRANCH   3   4
ATOM      4  C   UNL     1      -3.580   1.802   5.837  1.00  0.00     0.261 C 
BRANCH   4   5
ATOM      5  O   UNL     1      -3.439   0.378   5.693  1.00  0.00    -0.460 OA
BRANCH   5   6
ATOM      6  C   UNL     1      -2.999  -0.315   4.610  1.00  0.00     0.338 C 
ATOM      7  O   UNL     1      -3.178  -1.530   4.576  1.00  0.00    -0.246 OA
BRANCH   6   8
ATOM      8  C   UNL     1      -2.317   0.332   3.444  1.00  0.00     0.060 A 
ATOM      9  C   UNL     1      -1.685   1.571   3.494  1.00  0.00     0.016 A 
ATOM     10  C   UNL     1      -2.267  -0.377   2.228  1.00  0.00     0.016 A 
ATOM     11  C   UNL     1      -1.153   2.161   2.357  1.00  0.00     0.010 A 
ATOM     12  C   UNL     1      -1.663   0.179   1.090  1.00  0.00     0.010 A 
ATOM     13  C   UNL     1      -1.142   1.476   1.144  1.00  0.00    -0.014 A 
BRANCH  13  14
ATOM     14  C   UNL     1      -0.663   2.219  -0.041  1.00  0.00     0.031 A 
ATOM     15  C   UNL     1      -1.669   2.763  -1.008  1.00  0.00     0.074 A 
ATOM     16  C   UNL     1       0.631   2.584  -0.111  1.00  0.00     0.049 A 
ATOM     17  N   UNL     1      -1.484   3.566  -2.022  1.00  0.00    -0.248 NA
ATOM     18  C   UNL     1      -3.075   2.384  -0.785  1.00  0.00     0.031 C 
ATOM     19  C   UNL     1       1.659   2.193   0.855  1.00  0.00     0.029 A 
ATOM     20  N   UNL     1       1.294   3.406  -0.981  1.00  0.00    -0.354 N 
ATOM     21  C   UNL     1      -2.746   3.792  -2.553  1.00  0.00     0.074 A 
ATOM     22  C   UNL     1      -3.688   3.028  -1.767  1.00  0.00     0.031 C 
ATOM     23  C   UNL     1       2.810   2.813   0.556  1.00  0.00     0.029 A 
ATOM     24  C   UNL     1       2.618   3.594  -0.659  1.00  0.00     0.049 A 
ATOM     25  H   UNL     1       0.865   3.823  -1.763  1.00  0.00     0.167 HD
ATOM     26  C   UNL     1      -3.087   4.574  -3.602  1.00  0.00     0.031 A 
ATOM     27  C   UNL     1       3.572   4.304  -1.288  1.00  0.00     0.031 A 
ATOM     28  C   UNL     1      -2.135   5.298  -4.398  1.00  0.00     0.049 A 
ATOM     29  C   UNL     1       3.185   5.060  -2.526  1.00  0.00     0.074 A 
ATOM     30  C   UNL     1      -2.348   6.035  -5.548  1.00  0.00     0.029 A 
ATOM     31  N   UNL     1      -0.778   5.368  -4.118  1.00  0.00    -0.354 N 
ATOM     32  N   UNL     1       1.995   5.214  -3.058  1.00  0.00    -0.248 NA
ATOM     33  C   UNL     1       4.267   5.731  -3.256  1.00  0.00     0.031 C 
ATOM     34  C   UNL     1      -1.109   6.519  -5.986  1.00  0.00     0.029 A 
ATOM     35  C   UNL     1      -0.135   6.124  -5.081  1.00  0.00     0.049 A 
ATOM     36  H   UNL     1      -0.337   4.943  -3.347  1.00  0.00     0.167 HD
ATOM     37  C   UNL     1       2.183   6.002  -4.183  1.00  0.00     0.074 A 
ATOM     38  C   UNL     1       3.596   6.324  -4.235  1.00  0.00     0.031 C 
ATOM     39  C   UNL     1       1.275   6.414  -5.101  1.00  0.00     0.031 A 
BRANCH  26  40
ATOM     40  C   UNL     1      -4.542   4.618  -3.967  1.00  0.00    -0.014 A 
ATOM     41  C   UNL     1      -5.463   5.349  -3.200  1.00  0.00     0.009 A 
ATOM     42  C   UNL     1      -5.003   3.887  -5.072  1.00  0.00     0.009 A 
ATOM     43  C   UNL     1      -6.823   5.321  -3.515  1.00  0.00     0.001 A 
ATOM     44  C   UNL     1      -6.361   3.878  -5.397  1.00  0.00     0.001 A 
ATOM     45  C   UNL     1      -7.271   4.587  -4.613  1.00  0.00     0.000 A 
ENDBRANCH  26  40
BRANCH  27  46
ATOM     46  C   UNL     1       4.979   4.277  -0.804  1.00  0.00    -0.014 A 
ATOM     47  C   UNL     1       5.613   5.436  -0.333  1.00  0.00     0.009 A 
ATOM     48  C   UNL     1       5.711   3.078  -0.840  1.00  0.00     0.009 A 
ATOM     49  C   UNL     1       6.954   5.399   0.065  1.00  0.00     0.001 A 
ATOM     50  C   UNL     1       7.039   3.036  -0.412  1.00  0.00     0.001 A 
ATOM     51  C   UNL     1       7.664   4.200   0.029  1.00  0.00     0.000 A 
ENDBRANCH  27  46
BRANCH  39  52
ATOM     52  C   UNL     1       1.797   7.265  -6.220  1.00  0.00    -0.014 A 
ATOM     53  C   UNL     1       2.558   6.704  -7.257  1.00  0.00     0.009 A 
ATOM     54  C   UNL     1       1.505   8.636  -6.246  1.00  0.00     0.009 A 
ATOM     55  C   UNL     1       3.049   7.512  -8.283  1.00  0.00     0.001 A 
ATOM     56  C   UNL     1       1.975   9.436  -7.287  1.00  0.00     0.001 A 
ATOM     57  C   UNL     1       2.755   8.875  -8.298  1.00  0.00     0.000 A 
ENDBRANCH  39  52
ENDBRANCH  13  14
ENDBRANCH   6   8
ENDBRANCH   5   6
ENDBRANCH   4   5
ENDBRANCH   3   4
ENDBRANCH   2   3
ENDBRANCH   1   2
BRANCH   1  58
ATOM     58  C   UNL     1       0.436   0.386   7.747  1.00  0.00     0.188 C 
BRANCH  58  59
ATOM     59  O   UNL     1       1.095   1.317   8.599  1.00  0.00    -0.376 OA
BRANCH  59  60
ATOM     60  C   UNL     1       1.216   2.647   8.119  1.00  0.00     0.202 C 
BRANCH  60  61
ATOM     61  C   UNL     1       2.250   2.905   7.011  1.00  0.00     0.261 C 
BRANCH  61  62
ATOM     62  O   UNL     1       2.329   1.889   5.994  1.00  0.00    -0.459 OA
BRANCH  62  63
ATOM     63  C   UNL     1       3.438   1.093   6.052  1.00  0.00     0.365 C 
ATOM     64  O   UNL     1       4.367   1.259   6.836  1.00  0.00    -0.245 OA
BRANCH  63  65
ATOM     65  C   UNL     1       3.454  -0.003   4.971  1.00  0.00     0.304 C 
ATOM     66  C   UNL     1       2.144  -0.235   4.233  1.00  0.00     0.153 C 
ATOM     67  N   UNL     1       3.948  -1.278   5.572  1.00  0.00    -0.317 N 
ATOM     68  S   UNL     1       2.422  -1.853   3.501  1.00  0.00    -0.085 SA
ATOM     69  C   UNL     1       3.235  -2.443   5.024  1.00  0.00     0.303 C 
ATOM     70  H   UNL     1       3.805  -1.246   6.581  1.00  0.00     0.348 HD
ATOM     71  H   UNL     1       4.938  -1.374   5.348  1.00  0.00     0.348 HD
BRANCH  69  72
ATOM     72  C   UNL     1       2.210  -3.039   5.995  1.00  0.00     0.162 A 
ATOM     73  N   UNL     1       1.171  -3.773   5.632  1.00  0.00    -0.242 NA
ATOM     74  S   UNL     1       2.335  -2.811   7.708  1.00  0.00    -0.112 S 
ATOM     75  C   UNL     1       0.332  -3.980   6.709  1.00  0.00     0.132 A 
ATOM     76  C   UNL     1       0.750  -3.445   7.910  1.00  0.00     0.055 A 
BRANCH  76  77
ATOM     77  C   UNL     1       0.015  -3.274   9.163  1.00  0.00    -0.007 A 
ATOM     78  C   UNL     1      -1.196  -2.560   9.145  1.00  0.00     0.009 A 
ATOM     79  C   UNL     1       0.498  -3.743  10.389  1.00  0.00     0.009 A 
ATOM     80  C   UNL     1      -1.875  -2.264  10.328  1.00  0.00     0.001 A 
ATOM     81  C   UNL     1      -0.203  -3.478  11.571  1.00  0.00     0.001 A 
ATOM     82  C   UNL     1      -1.377  -2.725  11.542  1.00  0.00     0.000 A 
ENDBRANCH  76  77
ENDBRANCH  69  72
ENDBRANCH  63  65
ENDBRANCH  62  63
ENDBRANCH  61  62
ENDBRANCH  60  61
ENDBRANCH  59  60
ENDBRANCH  58  59
ENDBRANCH   1  58
TORSDOF 19
