REMARK SMILES O=C(OCCOCCOCCOC(=O)[C@@H]1C[C@@H]2CC(=O)[C@H]1C2)c1ccc(-c2c3nc(c(-c4ccccc4)c4ccc([nH]4)c(-c4ccccc4)c4nc(c(-c5ccccc5)c5ccc2[nH]5)C=C4)C=C3)cc1
REMARK SMILES IDX 7 1 6 2 5 3 4 4 3 5 2 6 1 7 23 8 24 9 70 10 25 11 69 12
REMARK SMILES IDX 26 13 27 14 28 15 63 16 29 17 68 18 62 19 64 20 30 21 67 22
REMARK SMILES IDX 61 23 60 24 31 26 53 27 38 28 52 29 39 30 42 31 51 32 65 33
REMARK SMILES IDX 40 34 41 35 50 37 66 38 43 39 32 40 33 41 37 42 34 43 36 44
REMARK SMILES IDX 35 45 54 46 55 47 59 48 56 49 58 50 57 51 44 52 45 53 49 54
REMARK SMILES IDX 46 55 48 56 47 57 8 58 9 59 10 60 11 61 12 62 13 63 14 64
REMARK SMILES IDX 15 65 16 66 21 67 17 68 19 69 22 70 18 71 20 72
REMARK H PARENT 64 25 42 36
REMARK Flexibility Score: inf
ROOT
ATOM      1  C   UNL     1       2.637  -1.532   1.223  1.00  0.00     0.188 C 
ENDROOT
BRANCH   1   2
ATOM      2  O   UNL     1       3.964  -1.530   0.690  1.00  0.00    -0.376 OA
BRANCH   2   3
ATOM      3  C   UNL     1       4.838  -0.560   1.279  1.00  0.00     0.202 C 
BRANCH   3   4
ATOM      4  C   UNL     1       4.499   0.921   1.019  1.00  0.00     0.261 C 
BRANCH   4   5
ATOM      5  O   UNL     1       3.114   1.176   0.722  1.00  0.00    -0.460 OA
BRANCH   5   6
ATOM      6  C   UNL     1       2.500   1.252  -0.485  1.00  0.00     0.338 C 
ATOM      7  O   UNL     1       1.325   1.611  -0.528  1.00  0.00    -0.246 OA
BRANCH   6   8
ATOM      8  C   UNL     1       3.162   0.893  -1.775  1.00  0.00     0.060 A 
ATOM      9  C   UNL     1       4.265   0.052  -1.890  1.00  0.00     0.016 A 
ATOM     10  C   UNL     1       2.584   1.379  -2.960  1.00  0.00     0.016 A 
ATOM     11  C   UNL     1       4.851  -0.225  -3.111  1.00  0.00     0.010 A 
ATOM     12  C   UNL     1       3.137   1.069  -4.208  1.00  0.00     0.010 A 
ATOM     13  C   UNL     1       4.298   0.292  -4.275  1.00  0.00    -0.014 A 
BRANCH  13  14
ATOM     14  C   UNL     1       5.073   0.126  -5.514  1.00  0.00     0.031 A 
ATOM     15  C   UNL     1       5.839   1.306  -6.021  1.00  0.00     0.074 A 
ATOM     16  C   UNL     1       5.224  -1.100  -6.045  1.00  0.00     0.049 A 
ATOM     17  N   UNL     1       6.590   1.407  -7.082  1.00  0.00    -0.248 NA
ATOM     18  C   UNL     1       5.765   2.536  -5.212  1.00  0.00     0.031 C 
ATOM     19  C   UNL     1       4.641  -2.330  -5.503  1.00  0.00     0.029 A 
ATOM     20  N   UNL     1       5.949  -1.524  -7.124  1.00  0.00    -0.354 N 
ATOM     21  C   UNL     1       7.049   2.717  -7.087  1.00  0.00     0.074 A 
ATOM     22  C   UNL     1       6.489   3.377  -5.931  1.00  0.00     0.031 C 
ATOM     23  C   UNL     1       5.061  -3.373  -6.235  1.00  0.00     0.029 A 
ATOM     24  C   UNL     1       5.868  -2.878  -7.340  1.00  0.00     0.049 A 
ATOM     25  H   UNL     1       6.479  -0.917  -7.691  1.00  0.00     0.167 HD
ATOM     26  C   UNL     1       7.859   3.311  -7.991  1.00  0.00     0.031 A 
ATOM     27  C   UNL     1       6.363  -3.623  -8.344  1.00  0.00     0.031 A 
ATOM     28  C   UNL     1       8.382   2.624  -9.139  1.00  0.00     0.049 A 
ATOM     29  C   UNL     1       7.149  -2.911  -9.408  1.00  0.00     0.074 A 
ATOM     30  C   UNL     1       9.147   3.123 -10.174  1.00  0.00     0.029 A 
ATOM     31  N   UNL     1       8.182   1.273  -9.395  1.00  0.00    -0.354 N 
ATOM     32  N   UNL     1       7.509  -1.649  -9.459  1.00  0.00    -0.248 NA
ATOM     33  C   UNL     1       7.583  -3.713 -10.556  1.00  0.00     0.031 C 
ATOM     34  C   UNL     1       9.359   2.086 -11.088  1.00  0.00     0.029 A 
ATOM     35  C   UNL     1       8.789   0.924 -10.587  1.00  0.00     0.049 A 
ATOM     36  H   UNL     1       7.683   0.655  -8.814  1.00  0.00     0.167 HD
ATOM     37  C   UNL     1       8.231  -1.508 -10.634  1.00  0.00     0.074 A 
ATOM     38  C   UNL     1       8.275  -2.821 -11.251  1.00  0.00     0.031 C 
ATOM     39  C   UNL     1       8.804  -0.398 -11.161  1.00  0.00     0.031 A 
BRANCH  26  40
ATOM     40  C   UNL     1       8.124   4.778  -7.807  1.00  0.00    -0.014 A 
ATOM     41  C   UNL     1       8.922   5.263  -6.758  1.00  0.00     0.009 A 
ATOM     42  C   UNL     1       7.518   5.697  -8.677  1.00  0.00     0.009 A 
ATOM     43  C   UNL     1       9.069   6.638  -6.560  1.00  0.00     0.001 A 
ATOM     44  C   UNL     1       7.691   7.069  -8.495  1.00  0.00     0.001 A 
ATOM     45  C   UNL     1       8.456   7.540  -7.429  1.00  0.00     0.000 A 
ENDBRANCH  26  40
BRANCH  27  46
ATOM     46  C   UNL     1       6.075  -5.082  -8.424  1.00  0.00    -0.014 A 
ATOM     47  C   UNL     1       7.107  -6.030  -8.352  1.00  0.00     0.009 A 
ATOM     48  C   UNL     1       4.755  -5.538  -8.589  1.00  0.00     0.009 A 
ATOM     49  C   UNL     1       6.826  -7.395  -8.472  1.00  0.00     0.001 A 
ATOM     50  C   UNL     1       4.474  -6.903  -8.674  1.00  0.00     0.001 A 
ATOM     51  C   UNL     1       5.511  -7.830  -8.627  1.00  0.00     0.000 A 
ENDBRANCH  27  46
BRANCH  39  52
ATOM     52  C   UNL     1       9.557  -0.578 -12.446  1.00  0.00    -0.014 A 
ATOM     53  C   UNL     1       8.890  -0.809 -13.658  1.00  0.00     0.009 A 
ATOM     54  C   UNL     1      10.956  -0.462 -12.443  1.00  0.00     0.009 A 
ATOM     55  C   UNL     1       9.616  -0.957 -14.840  1.00  0.00     0.001 A 
ATOM     56  C   UNL     1      11.675  -0.574 -13.631  1.00  0.00     0.001 A 
ATOM     57  C   UNL     1      11.005  -0.831 -14.826  1.00  0.00     0.000 A 
ENDBRANCH  39  52
ENDBRANCH  13  14
ENDBRANCH   6   8
ENDBRANCH   5   6
ENDBRANCH   4   5
ENDBRANCH   3   4
ENDBRANCH   2   3
ENDBRANCH   1   2
BRANCH   1  58
ATOM     58  C   UNL     1       2.041  -2.932   1.345  1.00  0.00     0.188 C 
BRANCH  58  59
ATOM     59  O   UNL     1       2.655  -3.828   2.264  1.00  0.00    -0.376 OA
BRANCH  59  60
ATOM     60  C   UNL     1       4.069  -3.964   2.227  1.00  0.00     0.202 C 
BRANCH  60  61
ATOM     61  C   UNL     1       4.707  -4.690   1.032  1.00  0.00     0.261 C 
BRANCH  61  62
ATOM     62  O   UNL     1       4.256  -4.272  -0.264  1.00  0.00    -0.463 OA
BRANCH  62  63
ATOM     63  C   UNL     1       3.258  -5.039  -0.777  1.00  0.00     0.309 C 
ATOM     64  O   UNL     1       2.725  -5.980  -0.204  1.00  0.00    -0.252 OA
BRANCH  63  65
ATOM     65  C   UNL     1       2.853  -4.560  -2.161  1.00  0.00     0.110 C 
ATOM     66  C   UNL     1       1.367  -4.907  -2.451  1.00  0.00     0.020 C 
ATOM     67  C   UNL     1       3.590  -5.311  -3.281  1.00  0.00     0.070 C 
ATOM     68  C   UNL     1       1.463  -5.968  -3.567  1.00  0.00    -0.002 C 
ATOM     69  C   UNL     1       3.543  -6.778  -2.919  1.00  0.00     0.137 C 
ATOM     70  C   UNL     1       2.571  -5.356  -4.425  1.00  0.00     0.016 C 
ATOM     71  C   UNL     1       2.119  -7.271  -3.048  1.00  0.00     0.079 C 
ATOM     72  O   UNL     1       4.508  -7.438  -2.554  1.00  0.00    -0.299 OA
ENDBRANCH  63  65
ENDBRANCH  62  63
ENDBRANCH  61  62
ENDBRANCH  60  61
ENDBRANCH  59  60
ENDBRANCH  58  59
ENDBRANCH   1  58
TORSDOF 17
