REMARK SMILES CC(C)[C@@H](CO)NC(=O)CC(C)(C)CC(=O)OCCOCCOCCOC(=O)c1ccc(-c2c3nc(c(-c4ccccc4)c4ccc([nH]4)c(-c4ccccc4)c4nc(c(-c5ccccc5)c5ccc2[nH]5)C=C4)C=C3)cc1
REMARK SMILES IDX 19 1 18 2 17 3 15 4 16 5 14 6 11 7 12 8 13 9 10 10 8 11 7 12
REMARK SMILES IDX 9 14 4 15 2 16 1 17 3 18 5 19 6 20 20 22 21 23 22 24 23 25
REMARK SMILES IDX 24 26 25 27 26 28 27 29 28 30 29 31 30 32 76 33 31 34 75 35
REMARK SMILES IDX 32 36 33 37 34 38 69 39 35 40 74 41 68 42 70 43 36 44 73 45
REMARK SMILES IDX 67 46 66 47 37 49 59 50 44 51 58 52 45 53 48 54 57 55 71 56
REMARK SMILES IDX 46 57 47 58 56 60 72 61 49 62 38 63 39 64 43 65 40 66 42 67
REMARK SMILES IDX 41 68 60 69 61 70 65 71 62 72 64 73 63 74 50 75 51 76 55 77
REMARK SMILES IDX 52 78 54 79 53 80
REMARK H PARENT 7 13 6 21 70 48 48 59
REMARK Flexibility Score: inf
ROOT
ATOM      1  C   UNL     1      -3.233  -8.518  -1.455  1.00  0.00     0.202 C 
ENDROOT
BRANCH   1   2
ATOM      2  C   UNL     1      -2.028  -8.114  -0.580  1.00  0.00     0.261 C 
BRANCH   2   3
ATOM      3  O   UNL     1      -1.932  -6.682  -0.362  1.00  0.00    -0.463 OA
BRANCH   3   4
ATOM      4  C   UNL     1      -0.713  -6.102  -0.534  1.00  0.00     0.306 C 
ATOM      5  O   UNL     1       0.323  -6.726  -0.740  1.00  0.00    -0.252 OA
BRANCH   4   6
ATOM      6  C   UNL     1      -0.784  -4.575  -0.661  1.00  0.00     0.129 C 
BRANCH   6   7
ATOM      7  C   UNL     1      -1.391  -3.686   0.464  1.00  0.00    -0.016 C 
ATOM      8  C   UNL     1      -0.266  -2.921   1.182  1.00  0.00     0.012 C 
ATOM      9  C   UNL     1      -2.083  -4.512   1.572  1.00  0.00     0.012 C 
BRANCH   7  10
ATOM     10  C   UNL     1      -2.453  -2.666  -0.057  1.00  0.00     0.107 C 
BRANCH  10  11
ATOM     11  C   UNL     1      -2.316  -1.829  -1.324  1.00  0.00     0.220 C 
ATOM     12  N   UNL     1      -1.138  -1.312  -1.754  1.00  0.00    -0.351 N 
ATOM     13  H   UNL     1      -0.723  -1.654  -2.579  1.00  0.00     0.163 HD
ATOM     14  O   UNL     1      -3.320  -1.476  -1.943  1.00  0.00    -0.275 OA
BRANCH  12  15
ATOM     15  C   UNL     1      -0.486  -0.252  -0.995  1.00  0.00     0.110 C 
BRANCH  15  16
ATOM     16  C   UNL     1       1.037  -0.165  -1.287  1.00  0.00     0.007 C 
ATOM     17  C   UNL     1       1.744   0.353  -0.032  1.00  0.00     0.009 C 
ATOM     18  C   UNL     1       1.699  -1.464  -1.766  1.00  0.00     0.009 C 
ENDBRANCH  15  16
BRANCH  15  19
ATOM     19  C   UNL     1      -1.199   1.102  -1.283  1.00  0.00     0.181 C 
BRANCH  19  20
ATOM     20  O   UNL     1      -0.946   1.549  -2.615  1.00  0.00    -0.394 OA
ATOM     21  H   UNL     1       0.007   1.683  -2.735  1.00  0.00     0.210 HD
ENDBRANCH  19  20
ENDBRANCH  15  19
ENDBRANCH  12  15
ENDBRANCH  10  11
ENDBRANCH   7  10
ENDBRANCH   6   7
ENDBRANCH   4   6
ENDBRANCH   3   4
ENDBRANCH   2   3
ENDBRANCH   1   2
BRANCH   1  22
ATOM     22  O   UNL     1      -3.223  -8.040  -2.805  1.00  0.00    -0.376 OA
BRANCH  22  23
ATOM     23  C   UNL     1      -3.015  -6.644  -2.966  1.00  0.00     0.188 C 
BRANCH  23  24
ATOM     24  C   UNL     1      -4.062  -5.728  -2.318  1.00  0.00     0.188 C 
BRANCH  24  25
ATOM     25  O   UNL     1      -4.593  -6.169  -1.078  1.00  0.00    -0.376 OA
BRANCH  25  26
ATOM     26  C   UNL     1      -5.628  -5.372  -0.503  1.00  0.00     0.202 C 
BRANCH  26  27
ATOM     27  C   UNL     1      -6.919  -5.255  -1.335  1.00  0.00     0.261 C 
BRANCH  27  28
ATOM     28  O   UNL     1      -6.768  -4.658  -2.640  1.00  0.00    -0.460 OA
BRANCH  28  29
ATOM     29  C   UNL     1      -6.227  -3.419  -2.681  1.00  0.00     0.338 C 
ATOM     30  O   UNL     1      -6.046  -2.685  -1.723  1.00  0.00    -0.246 OA
BRANCH  29  31
ATOM     31  C   UNL     1      -5.692  -3.195  -4.047  1.00  0.00     0.060 A 
ATOM     32  C   UNL     1      -4.320  -2.979  -4.210  1.00  0.00     0.016 A 
ATOM     33  C   UNL     1      -6.514  -3.210  -5.168  1.00  0.00     0.016 A 
ATOM     34  C   UNL     1      -3.768  -2.675  -5.448  1.00  0.00     0.010 A 
ATOM     35  C   UNL     1      -5.960  -2.941  -6.427  1.00  0.00     0.010 A 
ATOM     36  C   UNL     1      -4.591  -2.633  -6.569  1.00  0.00    -0.014 A 
BRANCH  36  37
ATOM     37  C   UNL     1      -4.059  -2.130  -7.859  1.00  0.00     0.031 A 
ATOM     38  C   UNL     1      -4.574  -0.819  -8.378  1.00  0.00     0.074 A 
ATOM     39  C   UNL     1      -3.112  -2.798  -8.543  1.00  0.00     0.049 A 
ATOM     40  N   UNL     1      -4.455  -0.292  -9.568  1.00  0.00    -0.248 NA
ATOM     41  C   UNL     1      -5.335   0.005  -7.424  1.00  0.00     0.031 C 
ATOM     42  C   UNL     1      -2.423  -4.008  -8.092  1.00  0.00     0.029 A 
ATOM     43  N   UNL     1      -2.575  -2.551  -9.783  1.00  0.00    -0.354 N 
ATOM     44  C   UNL     1      -5.178   0.894  -9.524  1.00  0.00     0.074 A 
ATOM     45  C   UNL     1      -5.730   1.009  -8.192  1.00  0.00     0.031 C 
ATOM     46  C   UNL     1      -1.565  -4.405  -9.047  1.00  0.00     0.029 A 
ATOM     47  C   UNL     1      -1.707  -3.530 -10.206  1.00  0.00     0.049 A 
ATOM     48  H   UNL     1      -2.790  -1.752 -10.316  1.00  0.00     0.167 HD
ATOM     49  C   UNL     1      -5.370   1.797 -10.513  1.00  0.00     0.031 A 
ATOM     50  C   UNL     1      -1.144  -3.733 -11.413  1.00  0.00     0.031 A 
ATOM     51  C   UNL     1      -4.794   1.678 -11.826  1.00  0.00     0.049 A 
ATOM     52  C   UNL     1      -1.462  -2.780 -12.536  1.00  0.00     0.074 A 
ATOM     53  C   UNL     1      -4.929   2.529 -12.908  1.00  0.00     0.029 A 
ATOM     54  N   UNL     1      -3.966   0.641 -12.230  1.00  0.00    -0.354 N 
ATOM     55  N   UNL     1      -2.200  -1.696 -12.516  1.00  0.00    -0.248 NA
ATOM     56  C   UNL     1      -0.880  -3.087 -13.851  1.00  0.00     0.031 C 
ATOM     57  C   UNL     1      -4.234   1.974 -13.986  1.00  0.00     0.029 A 
ATOM     58  C   UNL     1      -3.604   0.817 -13.554  1.00  0.00     0.049 A 
ATOM     59  H   UNL     1      -3.677  -0.107 -11.660  1.00  0.00     0.167 HD
ATOM     60  C   UNL     1      -2.145  -1.175 -13.803  1.00  0.00     0.074 A 
ATOM     61  C   UNL     1      -1.293  -2.055 -14.575  1.00  0.00     0.031 C 
ATOM     62  C   UNL     1      -2.744  -0.065 -14.300  1.00  0.00     0.031 A 
BRANCH  49  63
ATOM     63  C   UNL     1      -6.293   2.950 -10.233  1.00  0.00    -0.014 A 
ATOM     64  C   UNL     1      -5.947   3.982  -9.348  1.00  0.00     0.009 A 
ATOM     65  C   UNL     1      -7.532   3.009 -10.892  1.00  0.00     0.009 A 
ATOM     66  C   UNL     1      -6.839   5.029  -9.100  1.00  0.00     0.001 A 
ATOM     67  C   UNL     1      -8.407   4.073 -10.668  1.00  0.00     0.001 A 
ATOM     68  C   UNL     1      -8.064   5.076  -9.764  1.00  0.00     0.000 A 
ENDBRANCH  49  63
BRANCH  50  69
ATOM     69  C   UNL     1      -0.283  -4.924 -11.648  1.00  0.00    -0.014 A 
ATOM     70  C   UNL     1       1.083  -4.779 -11.933  1.00  0.00     0.009 A 
ATOM     71  C   UNL     1      -0.829  -6.218 -11.606  1.00  0.00     0.009 A 
ATOM     72  C   UNL     1       1.877  -5.900 -12.191  1.00  0.00     0.001 A 
ATOM     73  C   UNL     1      -0.027  -7.339 -11.829  1.00  0.00     0.001 A 
ATOM     74  C   UNL     1       1.323  -7.179 -12.132  1.00  0.00     0.000 A 
ENDBRANCH  50  69
BRANCH  62  75
ATOM     75  C   UNL     1      -2.452   0.300 -15.729  1.00  0.00    -0.014 A 
ATOM     76  C   UNL     1      -2.991  -0.429 -16.799  1.00  0.00     0.009 A 
ATOM     77  C   UNL     1      -1.679   1.441 -16.003  1.00  0.00     0.009 A 
ATOM     78  C   UNL     1      -2.741  -0.036 -18.115  1.00  0.00     0.001 A 
ATOM     79  C   UNL     1      -1.458   1.849 -17.317  1.00  0.00     0.001 A 
ATOM     80  C   UNL     1      -1.982   1.106 -18.373  1.00  0.00     0.000 A 
ENDBRANCH  62  75
ENDBRANCH  36  37
ENDBRANCH  29  31
ENDBRANCH  28  29
ENDBRANCH  27  28
ENDBRANCH  26  27
ENDBRANCH  25  26
ENDBRANCH  24  25
ENDBRANCH  23  24
ENDBRANCH  22  23
ENDBRANCH   1  22
TORSDOF 24
