REMARK SMILES O=C(OCCOCCOCCOC(=O)[C@H]1C[C@H]2CCCC[C@@H]2[N@@H+]1CC[C@@H]1CCCO1)c1ccc(-c2c3nc(c(-c4ccccc4)c4ccc([nH]4)c(-c4ccccc4)c4nc(c(-c5ccccc5)c5ccc2[nH]5)C=C4)C=C3)cc1
REMARK SMILES IDX 8 1 7 2 6 3 5 4 4 5 3 6 2 7 1 8 31 9 32 10 78 11 33 12 77 13
REMARK SMILES IDX 34 14 35 15 36 16 71 17 37 18 76 19 70 20 72 21 38 22 75 23
REMARK SMILES IDX 69 24 68 25 39 27 61 28 46 29 60 30 47 31 50 32 59 33 73 34
REMARK SMILES IDX 48 35 49 36 58 38 74 39 51 40 40 41 41 42 45 43 42 44 44 45
REMARK SMILES IDX 43 46 62 47 63 48 67 49 64 50 66 51 65 52 52 53 53 54 57 55
REMARK SMILES IDX 54 56 56 57 55 58 9 59 10 60 11 61 12 62 13 63 14 64 15 65
REMARK SMILES IDX 16 66 23 67 17 68 22 69 18 71 21 72 19 73 20 74 24 75 25 76
REMARK SMILES IDX 26 77 27 78 30 79 28 80 29 81
REMARK H PARENT 72 26 50 37 23 70
REMARK Flexibility Score: inf
ROOT
ATOM      1  C   UNL     1       5.136  -2.131  -7.083  1.00  0.00     0.188 C 
ENDROOT
BRANCH   1   2
ATOM      2  C   UNL     1       5.154  -0.790  -7.813  1.00  0.00     0.188 C 
BRANCH   2   3
ATOM      3  O   UNL     1       3.882  -0.406  -8.326  1.00  0.00    -0.376 OA
BRANCH   3   4
ATOM      4  C   UNL     1       3.828   0.343  -9.545  1.00  0.00     0.202 C 
BRANCH   4   5
ATOM      5  C   UNL     1       4.832   1.489  -9.773  1.00  0.00     0.261 C 
BRANCH   5   6
ATOM      6  O   UNL     1       5.853   1.666  -8.768  1.00  0.00    -0.460 OA
BRANCH   6   7
ATOM      7  C   UNL     1       5.768   2.249  -7.547  1.00  0.00     0.338 C 
ATOM      8  O   UNL     1       6.738   2.254  -6.795  1.00  0.00    -0.246 OA
BRANCH   7   9
ATOM      9  C   UNL     1       4.513   2.898  -7.109  1.00  0.00     0.060 A 
ATOM     10  C   UNL     1       3.253   2.383  -7.398  1.00  0.00     0.016 A 
ATOM     11  C   UNL     1       4.579   3.996  -6.269  1.00  0.00     0.016 A 
ATOM     12  C   UNL     1       2.070   3.044  -7.170  1.00  0.00     0.010 A 
ATOM     13  C   UNL     1       3.383   4.566  -5.835  1.00  0.00     0.010 A 
ATOM     14  C   UNL     1       2.117   4.114  -6.322  1.00  0.00    -0.014 A 
BRANCH  14  15
ATOM     15  C   UNL     1       0.849   4.691  -5.827  1.00  0.00     0.031 A 
ATOM     16  C   UNL     1       0.834   6.155  -5.731  1.00  0.00     0.074 A 
ATOM     17  C   UNL     1       0.005   3.933  -5.071  1.00  0.00     0.049 A 
ATOM     18  N   UNL     1       0.245   6.897  -4.845  1.00  0.00    -0.248 NA
ATOM     19  C   UNL     1       1.761   6.849  -6.650  1.00  0.00     0.031 C 
ATOM     20  C   UNL     1       0.487   2.130  -4.643  1.00  0.00     0.029 A 
ATOM     21  N   UNL     1      -0.960   4.478  -3.684  1.00  0.00    -0.354 N 
ATOM     22  C   UNL     1       0.689   8.157  -5.153  1.00  0.00     0.074 A 
ATOM     23  C   UNL     1       1.805   8.030  -6.064  1.00  0.00     0.031 C 
ATOM     24  C   UNL     1      -0.023   1.789  -2.939  1.00  0.00     0.029 A 
ATOM     25  C   UNL     1      -1.018   3.326  -2.321  1.00  0.00     0.049 A 
ATOM     26  H   UNL     1      -1.425   5.345  -3.668  1.00  0.00     0.167 HD
ATOM     27  C   UNL     1       0.089   9.322  -4.863  1.00  0.00     0.031 A 
ATOM     28  C   UNL     1      -1.800   3.439  -1.221  1.00  0.00     0.031 A 
ATOM     29  C   UNL     1      -0.962   9.454  -3.909  1.00  0.00     0.049 A 
ATOM     30  C   UNL     1      -2.405   4.786  -0.949  1.00  0.00     0.074 A 
ATOM     31  C   UNL     1      -1.675  10.589  -3.598  1.00  0.00     0.029 A 
ATOM     32  N   UNL     1      -1.405   8.438  -3.067  1.00  0.00    -0.354 N 
ATOM     33  N   UNL     1      -2.115   5.936  -1.510  1.00  0.00    -0.248 NA
ATOM     34  C   UNL     1      -3.418   4.870   0.114  1.00  0.00     0.031 C 
ATOM     35  C   UNL     1      -2.470  10.293  -2.491  1.00  0.00     0.029 A 
ATOM     36  C   UNL     1      -2.350   8.941  -2.192  1.00  0.00     0.049 A 
ATOM     37  H   UNL     1      -1.093   7.505  -3.090  1.00  0.00     0.167 HD
ATOM     38  C   UNL     1      -2.946   6.872  -0.915  1.00  0.00     0.074 A 
ATOM     39  C   UNL     1      -3.725   6.161   0.083  1.00  0.00     0.031 C 
ATOM     40  C   UNL     1      -3.072   8.193  -1.188  1.00  0.00     0.031 A 
BRANCH  27  41
ATOM     41  C   UNL     1       0.594  10.472  -5.674  1.00  0.00    -0.014 A 
ATOM     42  C   UNL     1       0.498  10.440  -7.084  1.00  0.00     0.009 A 
ATOM     43  C   UNL     1       1.340  11.475  -5.057  1.00  0.00     0.009 A 
ATOM     44  C   UNL     1       1.241  11.324  -7.858  1.00  0.00     0.001 A 
ATOM     45  C   UNL     1       2.037  12.394  -5.837  1.00  0.00     0.001 A 
ATOM     46  C   UNL     1       2.012  12.300  -7.232  1.00  0.00     0.000 A 
ENDBRANCH  27  41
BRANCH  28  47
ATOM     47  C   UNL     1      -2.192   2.245  -0.429  1.00  0.00    -0.014 A 
ATOM     48  C   UNL     1      -3.456   1.645  -0.599  1.00  0.00     0.009 A 
ATOM     49  C   UNL     1      -1.345   1.706   0.535  1.00  0.00     0.009 A 
ATOM     50  C   UNL     1      -3.833   0.520   0.149  1.00  0.00     0.001 A 
ATOM     51  C   UNL     1      -1.702   0.559   1.258  1.00  0.00     0.001 A 
ATOM     52  C   UNL     1      -2.943  -0.040   1.060  1.00  0.00     0.000 A 
ENDBRANCH  28  47
BRANCH  40  53
ATOM     53  C   UNL     1      -4.120   8.951  -0.427  1.00  0.00    -0.014 A 
ATOM     54  C   UNL     1      -3.954   9.292   0.922  1.00  0.00     0.009 A 
ATOM     55  C   UNL     1      -5.237   9.436  -1.128  1.00  0.00     0.009 A 
ATOM     56  C   UNL     1      -4.897  10.101   1.557  1.00  0.00     0.001 A 
ATOM     57  C   UNL     1      -6.151  10.279  -0.504  1.00  0.00     0.001 A 
ATOM     58  C   UNL     1      -5.983  10.606   0.840  1.00  0.00     0.000 A 
ENDBRANCH  40  53
ENDBRANCH  14  15
ENDBRANCH   7   9
ENDBRANCH   6   7
ENDBRANCH   5   6
ENDBRANCH   4   5
ENDBRANCH   3   4
ENDBRANCH   2   3
ENDBRANCH   1   2
BRANCH   1  59
ATOM     59  O   UNL     1       4.694  -3.262  -7.824  1.00  0.00    -0.376 OA
BRANCH  59  60
ATOM     60  C   UNL     1       3.519  -3.099  -8.608  1.00  0.00     0.202 C 
BRANCH  60  61
ATOM     61  C   UNL     1       2.177  -2.860  -7.884  1.00  0.00     0.261 C 
BRANCH  61  62
ATOM     62  O   UNL     1       2.223  -2.036  -6.706  1.00  0.00    -0.459 OA
BRANCH  62  63
ATOM     63  C   UNL     1       2.295  -2.685  -5.505  1.00  0.00     0.365 C 
ATOM     64  O   UNL     1       2.292  -3.905  -5.380  1.00  0.00    -0.245 OA
BRANCH  63  65
ATOM     65  C   UNL     1       2.382  -1.712  -4.303  1.00  0.00     0.295 C 
ATOM     66  C   UNL     1       2.988  -0.286  -4.672  1.00  0.00     0.087 C 
ATOM     67  N   UNL     1       0.979  -1.517  -3.722  1.00  0.00    -0.320 N 
ATOM     68  C   UNL     1       2.063   0.589  -3.852  1.00  0.00     0.054 C 
ATOM     69  C   UNL     1       0.580  -0.195  -4.232  1.00  0.00     0.188 C 
ATOM     70  H   UNL     1       0.309  -2.222  -4.032  1.00  0.00     0.349 HD
ATOM     71  C   UNL     1       2.310   2.312  -3.574  1.00  0.00     0.010 C 
ATOM     72  C   UNL     1      -1.105   0.562  -4.301  1.00  0.00     0.065 C 
ATOM     73  C   UNL     1       0.732   3.397  -3.315  1.00  0.00     0.001 C 
ATOM     74  C   UNL     1      -1.193   2.527  -4.139  1.00  0.00     0.006 C 
BRANCH  67  75
ATOM     75  C   UNL     1       0.795  -1.848  -2.272  1.00  0.00     0.265 C 
BRANCH  75  76
ATOM     76  C   UNL     1       1.663  -1.559  -0.942  1.00  0.00     0.093 C 
BRANCH  76  77
ATOM     77  C   UNL     1       1.566  -0.173  -0.237  1.00  0.00     0.123 C 
ATOM     78  C   UNL     1       2.422   0.834  -0.906  1.00  0.00     0.034 C 
ATOM     79  O   UNL     1       2.036  -0.006   1.116  1.00  0.00    -0.378 OA
ATOM     80  C   UNL     1       2.605   2.018  -0.042  1.00  0.00     0.031 C 
ATOM     81  C   UNL     1       2.337   1.418   1.302  1.00  0.00     0.160 C 
ENDBRANCH  76  77
ENDBRANCH  75  76
ENDBRANCH  67  75
ENDBRANCH  63  65
ENDBRANCH  62  63
ENDBRANCH  61  62
ENDBRANCH  60  61
ENDBRANCH  59  60
ENDBRANCH   1  59
TORSDOF 20
