REMARK SMILES C[C@]1(C(=O)OCCOCCOCCOC(=O)c2ccc(-c3c4nc(c(-c5ccccc5)c5ccc([nH]5)c(-c5ccccc5)c5nc(c(-c6ccccc6)c6ccc3[nH]6)C=C5)C=C4)cc2)[NH2+]C2(C(=O)c3ccccc3C2=O)[C@@H]2C(=O)N(c3ccccc3)C(=O)[C@H]21
REMARK SMILES IDX 10 1 9 2 8 3 7 4 6 5 5 6 3 7 4 8 2 9 1 10 65 11 89 12 66 13
REMARK SMILES IDX 77 16 87 17 67 18 75 19 78 20 80 21 88 22 68 23 69 24 74 25
REMARK SMILES IDX 76 26 79 27 70 28 73 29 71 30 72 31 81 32 82 33 86 34 83 35
REMARK SMILES IDX 85 36 84 37 11 38 12 39 13 40 14 41 15 42 16 43 17 44 18 45
REMARK SMILES IDX 64 46 19 47 63 48 20 49 21 50 22 51 57 52 23 53 62 54 56 55
REMARK SMILES IDX 58 56 24 57 61 58 55 59 54 60 25 62 47 63 32 64 46 65 33 66
REMARK SMILES IDX 36 67 45 68 59 69 34 70 35 71 44 73 60 74 37 75 26 76 27 77
REMARK SMILES IDX 31 78 28 79 30 80 29 81 48 82 49 83 53 84 50 85 52 86 51 87
REMARK SMILES IDX 38 88 39 89 43 90 40 91 42 92 41 93
REMARK H PARENT 65 14 65 15 58 61 36 72
REMARK Flexibility Score: inf
ROOT
ATOM      1  C   UNL     1       3.242  -0.223   2.968  1.00  0.00     0.188 C 
ENDROOT
BRANCH   1   2
ATOM      2  C   UNL     1       3.124   1.305   2.872  1.00  0.00     0.188 C 
BRANCH   2   3
ATOM      3  O   UNL     1       2.917   2.077   4.034  1.00  0.00    -0.376 OA
BRANCH   3   4
ATOM      4  C   UNL     1       1.814   1.808   4.882  1.00  0.00     0.202 C 
BRANCH   4   5
ATOM      5  C   UNL     1       0.449   1.331   4.364  1.00  0.00     0.261 C 
BRANCH   5   6
ATOM      6  O   UNL     1       0.456   0.267   3.398  1.00  0.00    -0.459 OA
BRANCH   6   7
ATOM      7  C   UNL     1       0.081   0.606   2.135  1.00  0.00     0.368 C 
ATOM      8  O   UNL     1      -0.180   1.756   1.801  1.00  0.00    -0.245 OA
BRANCH   7   9
ATOM      9  C   UNL     1      -0.032  -0.601   1.150  1.00  0.00     0.205 C 
ATOM     10  C   UNL     1       0.432  -0.101  -0.221  1.00  0.00     0.093 C 
ATOM     11  N   UNL     1       0.774  -1.849   1.508  1.00  0.00    -0.313 N 
ATOM     12  C   UNL     1      -1.425  -1.155   1.178  1.00  0.00     0.172 C 
ATOM     13  C   UNL     1      -0.169  -2.883   2.106  1.00  0.00     0.237 C 
ATOM     14  H   UNL     1       1.496  -1.609   2.187  1.00  0.00     0.348 HD
ATOM     15  H   UNL     1       1.219  -2.228   0.672  1.00  0.00     0.348 HD
ATOM     16  C   UNL     1      -1.347  -2.033   2.417  1.00  0.00     0.177 C 
ATOM     17  C   UNL     1      -2.651  -0.365   1.464  1.00  0.00     0.244 C 
ATOM     18  C   UNL     1      -0.366  -4.043   1.128  1.00  0.00     0.232 C 
ATOM     19  C   UNL     1       0.468  -3.568   3.317  1.00  0.00     0.232 C 
ATOM     20  C   UNL     1      -2.775  -2.361   2.620  1.00  0.00     0.245 C 
ATOM     21  N   UNL     1      -3.432  -1.181   2.277  1.00  0.00    -0.250 N 
ATOM     22  O   UNL     1      -2.878   0.736   0.998  1.00  0.00    -0.273 OA
ATOM     23  O   UNL     1      -0.833  -3.986   0.002  1.00  0.00    -0.286 OA
ATOM     24  C   UNL     1       0.224  -5.248   1.707  1.00  0.00     0.036 A 
ATOM     25  C   UNL     1       0.732  -4.968   2.968  1.00  0.00     0.036 A 
ATOM     26  O   UNL     1       0.690  -3.101   4.421  1.00  0.00    -0.286 OA
ATOM     27  O   UNL     1      -3.191  -3.395   3.114  1.00  0.00    -0.273 OA
ATOM     28  C   UNL     1       0.333  -6.506   1.137  1.00  0.00     0.013 A 
ATOM     29  C   UNL     1       1.373  -5.940   3.718  1.00  0.00     0.013 A 
ATOM     30  C   UNL     1       0.972  -7.500   1.883  1.00  0.00     0.001 A 
ATOM     31  C   UNL     1       1.490  -7.219   3.162  1.00  0.00     0.001 A 
BRANCH  21  32
ATOM     32  C   UNL     1      -4.642  -0.728   2.840  1.00  0.00     0.052 A 
ATOM     33  C   UNL     1      -5.497   0.106   2.108  1.00  0.00     0.027 A 
ATOM     34  C   UNL     1      -4.915  -0.966   4.193  1.00  0.00     0.027 A 
ATOM     35  C   UNL     1      -6.596   0.708   2.718  1.00  0.00     0.002 A 
ATOM     36  C   UNL     1      -5.993  -0.329   4.812  1.00  0.00     0.002 A 
ATOM     37  C   UNL     1      -6.832   0.506   4.075  1.00  0.00     0.000 A 
ENDBRANCH  21  32
ENDBRANCH   7   9
ENDBRANCH   6   7
ENDBRANCH   5   6
ENDBRANCH   4   5
ENDBRANCH   3   4
ENDBRANCH   2   3
ENDBRANCH   1   2
BRANCH   1  38
ATOM     38  O   UNL     1       3.053  -0.881   4.192  1.00  0.00    -0.376 OA
BRANCH  38  39
ATOM     39  C   UNL     1       4.034  -0.801   5.206  1.00  0.00     0.202 C 
BRANCH  39  40
ATOM     40  C   UNL     1       5.522  -0.493   4.954  1.00  0.00     0.261 C 
BRANCH  40  41
ATOM     41  O   UNL     1       5.856   0.281   3.795  1.00  0.00    -0.460 OA
BRANCH  41  42
ATOM     42  C   UNL     1       6.409  -0.399   2.757  1.00  0.00     0.338 C 
ATOM     43  O   UNL     1       6.667  -1.594   2.703  1.00  0.00    -0.246 OA
BRANCH  42  44
ATOM     44  C   UNL     1       6.418   0.499   1.582  1.00  0.00     0.060 A 
ATOM     45  C   UNL     1       7.138   1.692   1.619  1.00  0.00     0.016 A 
ATOM     46  C   UNL     1       5.632   0.178   0.463  1.00  0.00     0.016 A 
ATOM     47  C   UNL     1       7.070   2.567   0.533  1.00  0.00     0.010 A 
ATOM     48  C   UNL     1       5.540   1.070  -0.608  1.00  0.00     0.010 A 
ATOM     49  C   UNL     1       6.271   2.266  -0.586  1.00  0.00    -0.014 A 
BRANCH  49  50
ATOM     50  C   UNL     1       6.339   3.125  -1.792  1.00  0.00     0.031 A 
ATOM     51  C   UNL     1       5.296   4.156  -2.100  1.00  0.00     0.074 A 
ATOM     52  C   UNL     1       7.390   2.962  -2.617  1.00  0.00     0.049 A 
ATOM     53  N   UNL     1       5.285   5.039  -3.068  1.00  0.00    -0.248 NA
ATOM     54  C   UNL     1       4.119   4.207  -1.222  1.00  0.00     0.031 C 
ATOM     55  C   UNL     1       8.461   1.985  -2.417  1.00  0.00     0.029 A 
ATOM     56  N   UNL     1       7.742   3.617  -3.770  1.00  0.00    -0.354 N 
ATOM     57  C   UNL     1       4.117   5.771  -2.902  1.00  0.00     0.074 A 
ATOM     58  C   UNL     1       3.420   5.196  -1.770  1.00  0.00     0.031 C 
ATOM     59  C   UNL     1       9.367   2.126  -3.395  1.00  0.00     0.029 A 
ATOM     60  C   UNL     1       8.926   3.176  -4.309  1.00  0.00     0.049 A 
ATOM     61  H   UNL     1       7.200   4.334  -4.171  1.00  0.00     0.167 HD
ATOM     62  C   UNL     1       3.684   6.835  -3.622  1.00  0.00     0.031 A 
ATOM     63  C   UNL     1       9.590   3.568  -5.413  1.00  0.00     0.031 A 
ATOM     64  C   UNL     1       4.376   7.383  -4.763  1.00  0.00     0.049 A 
ATOM     65  C   UNL     1       9.047   4.702  -6.236  1.00  0.00     0.074 A 
ATOM     66  C   UNL     1       4.030   8.487  -5.524  1.00  0.00     0.029 A 
ATOM     67  N   UNL     1       5.536   6.866  -5.319  1.00  0.00    -0.354 N 
ATOM     68  N   UNL     1       7.987   5.442  -6.017  1.00  0.00    -0.248 NA
ATOM     69  C   UNL     1       9.792   5.065  -7.450  1.00  0.00     0.031 C 
ATOM     70  C   UNL     1       4.926   8.585  -6.588  1.00  0.00     0.029 A 
ATOM     71  C   UNL     1       5.888   7.598  -6.443  1.00  0.00     0.049 A 
ATOM     72  H   UNL     1       6.036   6.093  -4.969  1.00  0.00     0.167 HD
ATOM     73  C   UNL     1       7.948   6.368  -7.051  1.00  0.00     0.074 A 
ATOM     74  C   UNL     1       9.102   6.111  -7.888  1.00  0.00     0.031 C 
ATOM     75  C   UNL     1       7.033   7.340  -7.281  1.00  0.00     0.031 A 
BRANCH  62  76
ATOM     76  C   UNL     1       2.400   7.507  -3.210  1.00  0.00    -0.014 A 
ATOM     77  C   UNL     1       1.296   7.504  -4.079  1.00  0.00     0.009 A 
ATOM     78  C   UNL     1       2.329   8.265  -2.031  1.00  0.00     0.009 A 
ATOM     79  C   UNL     1       0.160   8.264  -3.791  1.00  0.00     0.001 A 
ATOM     80  C   UNL     1       1.179   8.999  -1.729  1.00  0.00     0.001 A 
ATOM     81  C   UNL     1       0.102   9.009  -2.614  1.00  0.00     0.000 A 
ENDBRANCH  62  76
BRANCH  63  82
ATOM     82  C   UNL     1      10.864   2.889  -5.770  1.00  0.00    -0.014 A 
ATOM     83  C   UNL     1      10.869   1.533  -6.142  1.00  0.00     0.009 A 
ATOM     84  C   UNL     1      12.088   3.567  -5.671  1.00  0.00     0.009 A 
ATOM     85  C   UNL     1      12.072   0.863  -6.372  1.00  0.00     0.001 A 
ATOM     86  C   UNL     1      13.288   2.903  -5.938  1.00  0.00     0.001 A 
ATOM     87  C   UNL     1      13.280   1.550  -6.274  1.00  0.00     0.000 A 
ENDBRANCH  63  82
BRANCH  75  88
ATOM     88  C   UNL     1       7.212   8.219  -8.491  1.00  0.00    -0.014 A 
ATOM     89  C   UNL     1       7.470   9.591  -8.327  1.00  0.00     0.009 A 
ATOM     90  C   UNL     1       6.988   7.723  -9.784  1.00  0.00     0.009 A 
ATOM     91  C   UNL     1       7.464  10.452  -9.426  1.00  0.00     0.001 A 
ATOM     92  C   UNL     1       7.018   8.582 -10.886  1.00  0.00     0.001 A 
ATOM     93  C   UNL     1       7.239   9.947 -10.705  1.00  0.00     0.000 A 
ENDBRANCH  75  88
ENDBRANCH  49  50
ENDBRANCH  42  44
ENDBRANCH  41  42
ENDBRANCH  40  41
ENDBRANCH  39  40
ENDBRANCH  38  39
ENDBRANCH   1  38
TORSDOF 18
