REMARK SMILES O=C(OCCOCCOCCOC(=O)[C@H]1[C@@H](C(=O)NN2CCOCC2)[C@H]2C=C[C@@H]1CC2)c1ccc(-c2c3nc(c(-c4ccccc4)c4ccc([nH]4)c(-c4ccccc4)c4nc(c(-c5ccccc5)c5ccc2[nH]5)C=C4)C=C3)cc1
REMARK SMILES IDX 7 1 6 2 5 3 4 4 3 5 2 6 1 7 32 8 33 9 79 10 34 11 78 12
REMARK SMILES IDX 35 13 36 14 37 15 72 16 38 17 77 18 71 19 73 20 39 21 76 22
REMARK SMILES IDX 70 23 69 24 40 26 62 27 47 28 61 29 48 30 51 31 60 32 74 33
REMARK SMILES IDX 49 34 50 35 59 37 75 38 52 39 41 40 42 41 46 42 43 43 45 44
REMARK SMILES IDX 44 45 63 46 64 47 68 48 65 49 67 50 66 51 53 52 54 53 58 54
REMARK SMILES IDX 55 55 57 56 56 57 8 58 9 59 10 60 11 61 12 62 13 63 14 64
REMARK SMILES IDX 15 65 16 66 29 67 26 68 28 69 30 70 27 71 31 72 17 73 18 74
REMARK SMILES IDX 19 75 20 77 21 78 25 79 22 80 24 81 23 82
REMARK H PARENT 73 25 51 36 19 76
REMARK Flexibility Score: inf
ROOT
ATOM      1  C   UNL     1       6.481  -1.114  -7.223  1.00  0.00     0.188 C 
ENDROOT
BRANCH   1   2
ATOM      2  O   UNL     1       5.938   0.216  -7.316  1.00  0.00    -0.376 OA
BRANCH   2   3
ATOM      3  C   UNL     1       6.560   1.004  -8.337  1.00  0.00     0.202 C 
BRANCH   3   4
ATOM      4  C   UNL     1       7.748   1.831  -7.835  1.00  0.00     0.261 C 
BRANCH   4   5
ATOM      5  O   UNL     1       8.369   1.264  -6.675  1.00  0.00    -0.460 OA
BRANCH   5   6
ATOM      6  C   UNL     1       8.192   1.591  -5.375  1.00  0.00     0.338 C 
ATOM      7  O   UNL     1       9.021   1.165  -4.569  1.00  0.00    -0.246 OA
BRANCH   6   8
ATOM      8  C   UNL     1       7.019   2.353  -4.807  1.00  0.00     0.060 A 
ATOM      9  C   UNL     1       5.885   2.795  -5.491  1.00  0.00     0.016 A 
ATOM     10  C   UNL     1       7.022   2.521  -3.403  1.00  0.00     0.016 A 
ATOM     11  C   UNL     1       4.796   3.369  -4.810  1.00  0.00     0.010 A 
ATOM     12  C   UNL     1       5.927   3.057  -2.713  1.00  0.00     0.010 A 
ATOM     13  C   UNL     1       4.810   3.508  -3.420  1.00  0.00    -0.014 A 
BRANCH  13  14
ATOM     14  C   UNL     1       3.846   4.423  -2.762  1.00  0.00     0.031 A 
ATOM     15  C   UNL     1       4.275   5.849  -2.634  1.00  0.00     0.074 A 
ATOM     16  C   UNL     1       2.671   4.038  -2.235  1.00  0.00     0.049 A 
ATOM     17  N   UNL     1       3.667   6.847  -2.054  1.00  0.00    -0.248 NA
ATOM     18  C   UNL     1       5.609   6.168  -3.168  1.00  0.00     0.031 C 
ATOM     19  C   UNL     1       2.194   2.668  -2.179  1.00  0.00     0.029 A 
ATOM     20  N   UNL     1       1.662   4.768  -1.646  1.00  0.00    -0.354 N 
ATOM     21  C   UNL     1       4.582   7.887  -2.077  1.00  0.00     0.074 A 
ATOM     22  C   UNL     1       5.775   7.401  -2.731  1.00  0.00     0.031 C 
ATOM     23  C   UNL     1       0.958   2.666  -1.653  1.00  0.00     0.029 A 
ATOM     24  C   UNL     1       0.546   4.022  -1.340  1.00  0.00     0.049 A 
ATOM     25  H   UNL     1       1.732   5.732  -1.460  1.00  0.00     0.167 HD
ATOM     26  C   UNL     1       4.457   9.127  -1.556  1.00  0.00     0.031 A 
ATOM     27  C   UNL     1      -0.669   4.382  -0.875  1.00  0.00     0.031 A 
ATOM     28  C   UNL     1       3.290   9.584  -0.860  1.00  0.00     0.049 A 
ATOM     29  C   UNL     1      -0.852   5.804  -0.424  1.00  0.00     0.074 A 
ATOM     30  C   UNL     1       3.066  10.812  -0.270  1.00  0.00     0.029 A 
ATOM     31  N   UNL     1       2.152   8.817  -0.647  1.00  0.00    -0.354 N 
ATOM     32  N   UNL     1       0.012   6.789  -0.466  1.00  0.00    -0.248 NA
ATOM     33  C   UNL     1      -2.136   6.153   0.200  1.00  0.00     0.031 C 
ATOM     34  C   UNL     1       1.808  10.774   0.340  1.00  0.00     0.029 A 
ATOM     35  C   UNL     1       1.221   9.547   0.068  1.00  0.00     0.049 A 
ATOM     36  H   UNL     1       2.027   7.892  -0.960  1.00  0.00     0.167 HD
ATOM     37  C   UNL     1      -0.606   7.863   0.155  1.00  0.00     0.074 A 
ATOM     38  C   UNL     1      -1.940   7.426   0.519  1.00  0.00     0.031 C 
ATOM     39  C   UNL     1      -0.099   9.089   0.426  1.00  0.00     0.031 A 
BRANCH  26  40
ATOM     40  C   UNL     1       5.683   9.988  -1.639  1.00  0.00    -0.014 A 
ATOM     41  C   UNL     1       6.183  10.440  -2.872  1.00  0.00     0.009 A 
ATOM     42  C   UNL     1       6.427  10.222  -0.474  1.00  0.00     0.009 A 
ATOM     43  C   UNL     1       7.445  11.030  -2.945  1.00  0.00     0.001 A 
ATOM     44  C   UNL     1       7.669  10.851  -0.545  1.00  0.00     0.001 A 
ATOM     45  C   UNL     1       8.188  11.232  -1.782  1.00  0.00     0.000 A 
ENDBRANCH  26  40
BRANCH  27  46
ATOM     46  C   UNL     1      -1.800   3.404  -0.807  1.00  0.00    -0.014 A 
ATOM     47  C   UNL     1      -2.942   3.580  -1.610  1.00  0.00     0.009 A 
ATOM     48  C   UNL     1      -1.755   2.283   0.037  1.00  0.00     0.009 A 
ATOM     49  C   UNL     1      -4.001   2.665  -1.569  1.00  0.00     0.001 A 
ATOM     50  C   UNL     1      -2.794   1.346   0.046  1.00  0.00     0.001 A 
ATOM     51  C   UNL     1      -3.919   1.540  -0.752  1.00  0.00     0.000 A 
ENDBRANCH  27  46
BRANCH  39  52
ATOM     52  C   UNL     1      -0.992  10.064   1.134  1.00  0.00    -0.014 A 
ATOM     53  C   UNL     1      -1.262   9.944   2.505  1.00  0.00     0.009 A 
ATOM     54  C   UNL     1      -1.488  11.171   0.430  1.00  0.00     0.009 A 
ATOM     55  C   UNL     1      -2.025  10.914   3.156  1.00  0.00     0.001 A 
ATOM     56  C   UNL     1      -2.227  12.152   1.089  1.00  0.00     0.001 A 
ATOM     57  C   UNL     1      -2.498  12.021   2.450  1.00  0.00     0.000 A 
ENDBRANCH  39  52
ENDBRANCH  13  14
ENDBRANCH   6   8
ENDBRANCH   5   6
ENDBRANCH   4   5
ENDBRANCH   3   4
ENDBRANCH   2   3
ENDBRANCH   1   2
BRANCH   1  58
ATOM     58  C   UNL     1       5.374  -2.178  -7.320  1.00  0.00     0.188 C 
BRANCH  58  59
ATOM     59  O   UNL     1       4.902  -2.392  -8.651  1.00  0.00    -0.376 OA
BRANCH  59  60
ATOM     60  C   UNL     1       4.003  -1.402  -9.152  1.00  0.00     0.202 C 
BRANCH  60  61
ATOM     61  C   UNL     1       2.533  -1.594  -8.758  1.00  0.00     0.261 C 
BRANCH  61  62
ATOM     62  O   UNL     1       2.249  -1.208  -7.397  1.00  0.00    -0.463 OA
BRANCH  62  63
ATOM     63  C   UNL     1       1.651  -2.133  -6.614  1.00  0.00     0.310 C 
ATOM     64  O   UNL     1       1.451  -3.300  -6.952  1.00  0.00    -0.252 OA
BRANCH  63  65
ATOM     65  C   UNL     1       1.177  -1.633  -5.258  1.00  0.00     0.119 C 
ATOM     66  C   UNL     1       1.709  -0.304  -4.660  1.00  0.00     0.101 C 
ATOM     67  C   UNL     1      -0.377  -1.655  -5.185  1.00  0.00     0.026 C 
ATOM     68  C   UNL     1       0.507   0.672  -4.466  1.00  0.00     0.025 C 
ATOM     69  C   UNL     1      -0.899  -0.510  -6.017  1.00  0.00    -0.027 C 
ATOM     70  C   UNL     1      -0.770  -1.380  -3.711  1.00  0.00     0.009 C 
ATOM     71  C   UNL     1      -0.412   0.689  -5.667  1.00  0.00    -0.027 C 
ATOM     72  C   UNL     1      -0.327   0.045  -3.312  1.00  0.00     0.009 C 
BRANCH  66  73
ATOM     73  C   UNL     1       2.928   0.323  -5.283  1.00  0.00     0.238 C 
ATOM     74  O   UNL     1       2.821   1.285  -6.051  1.00  0.00    -0.273 OA
ATOM     75  N   UNL     1       4.195  -0.137  -5.001  1.00  0.00    -0.288 N 
ATOM     76  H   UNL     1       4.883   0.365  -5.494  1.00  0.00     0.185 HD
BRANCH  75  77
ATOM     77  N   UNL     1       4.765  -1.144  -4.186  1.00  0.00    -0.217 NA
ATOM     78  C   UNL     1       4.059  -2.240  -3.541  1.00  0.00     0.136 C 
ATOM     79  C   UNL     1       5.827  -0.675  -3.288  1.00  0.00     0.136 C 
ATOM     80  C   UNL     1       3.603  -1.947  -2.098  1.00  0.00     0.177 C 
ATOM     81  C   UNL     1       5.272  -0.287  -1.919  1.00  0.00     0.177 C 
ATOM     82  O   UNL     1       4.670  -1.428  -1.291  1.00  0.00    -0.379 OA
ENDBRANCH  75  77
ENDBRANCH  66  73
ENDBRANCH  63  65
ENDBRANCH  62  63
ENDBRANCH  61  62
ENDBRANCH  60  61
ENDBRANCH  59  60
ENDBRANCH  58  59
ENDBRANCH   1  58
TORSDOF 19
