REMARK SMILES CSc1cccc(N2C[C@@H](C(=O)OCCOCCOCCOC(=O)c3ccc(-c4c5nc(c(-c6ccccc6)c6ccc([nH]6)c(-c6ccccc6)c6nc(c(-c7ccccc7)c7ccc4[nH]7)C=C6)C=C5)cc3)CC2=O)c1
REMARK SMILES IDX 17 1 16 2 15 3 14 4 13 5 11 6 12 7 10 8 8 9 9 10 74 11 73 12
REMARK SMILES IDX 75 13 7 14 3 15 4 16 76 17 5 18 6 19 2 20 1 21 18 22 19 23
REMARK SMILES IDX 20 24 21 25 22 26 23 27 24 28 25 29 26 30 72 31 27 32 71 33
REMARK SMILES IDX 28 34 29 35 30 36 65 37 31 38 70 39 64 40 66 41 32 42 69 43
REMARK SMILES IDX 63 44 62 45 33 47 55 48 40 49 54 50 41 51 44 52 53 53 67 54
REMARK SMILES IDX 42 55 43 56 52 58 68 59 45 60 34 61 35 62 39 63 36 64 38 65
REMARK SMILES IDX 37 66 56 67 57 68 61 69 58 70 60 71 59 72 46 73 47 74 51 75
REMARK SMILES IDX 48 76 50 77 49 78
REMARK H PARENT 66 46 44 57
REMARK Flexibility Score: inf
ROOT
ATOM      1  C   UNL     1       4.086   6.010   9.806  1.00  0.00     0.188 C 
ENDROOT
BRANCH   1   2
ATOM      2  O   UNL     1       5.471   6.337   9.800  1.00  0.00    -0.376 OA
BRANCH   2   3
ATOM      3  C   UNL     1       6.156   6.454   8.557  1.00  0.00     0.202 C 
BRANCH   3   4
ATOM      4  C   UNL     1       6.092   5.276   7.570  1.00  0.00     0.261 C 
BRANCH   4   5
ATOM      5  O   UNL     1       4.758   4.820   7.260  1.00  0.00    -0.463 OA
BRANCH   5   6
ATOM      6  C   UNL     1       4.490   3.513   7.488  1.00  0.00     0.311 C 
ATOM      7  O   UNL     1       5.321   2.688   7.854  1.00  0.00    -0.252 OA
BRANCH   6   8
ATOM      8  C   UNL     1       3.031   3.134   7.322  1.00  0.00     0.128 C 
ATOM      9  N   UNL     1       1.739   2.021   5.701  1.00  0.00    -0.311 N 
ATOM     10  C   UNL     1       2.986   1.922   6.413  1.00  0.00     0.141 C 
ATOM     11  C   UNL     1       1.173   3.283   5.798  1.00  0.00     0.227 C 
ATOM     12  C   UNL     1       2.051   4.114   6.682  1.00  0.00     0.117 C 
ATOM     13  O   UNL     1       0.141   3.700   5.298  1.00  0.00    -0.274 OA
BRANCH   9  14
ATOM     14  C   UNL     1       1.335   1.025   4.793  1.00  0.00     0.045 A 
ATOM     15  C   UNL     1       0.519   0.403   2.590  1.00  0.00     0.009 A 
ATOM     16  C   UNL     1       0.674  -0.944   2.928  1.00  0.00     0.015 A 
ATOM     17  C   UNL     1       0.814   1.380   3.544  1.00  0.00     0.041 A 
ATOM     18  C   UNL     1       1.159  -1.307   4.185  1.00  0.00     0.003 A 
ATOM     19  C   UNL     1       1.510  -0.325   5.107  1.00  0.00     0.026 A 
BRANCH  15  20
ATOM     20  S   UNL     1      -0.053   0.937   0.986  1.00  0.00    -0.130 SA
ATOM     21  C   UNL     1       0.908  -0.151  -0.099  1.00  0.00     0.091 C 
ENDBRANCH  15  20
ENDBRANCH   9  14
ENDBRANCH   6   8
ENDBRANCH   5   6
ENDBRANCH   4   5
ENDBRANCH   3   4
ENDBRANCH   2   3
ENDBRANCH   1   2
BRANCH   1  22
ATOM     22  C   UNL     1       3.160   6.618   8.741  1.00  0.00     0.188 C 
BRANCH  22  23
ATOM     23  O   UNL     1       3.778   7.526   7.861  1.00  0.00    -0.376 OA
BRANCH  23  24
ATOM     24  C   UNL     1       3.283   8.851   7.838  1.00  0.00     0.202 C 
BRANCH  24  25
ATOM     25  C   UNL     1       3.297   9.634   9.162  1.00  0.00     0.261 C 
BRANCH  25  26
ATOM     26  O   UNL     1       2.813   8.936  10.324  1.00  0.00    -0.460 OA
BRANCH  26  27
ATOM     27  C   UNL     1       1.470   8.787  10.431  1.00  0.00     0.338 C 
ATOM     28  O   UNL     1       0.628   9.202   9.660  1.00  0.00    -0.246 OA
BRANCH  27  29
ATOM     29  C   UNL     1       1.195   7.821  11.524  1.00  0.00     0.060 A 
ATOM     30  C   UNL     1       0.482   6.650  11.226  1.00  0.00     0.016 A 
ATOM     31  C   UNL     1       1.610   8.075  12.832  1.00  0.00     0.016 A 
ATOM     32  C   UNL     1       0.132   5.760  12.243  1.00  0.00     0.010 A 
ATOM     33  C   UNL     1       1.240   7.193  13.856  1.00  0.00     0.010 A 
ATOM     34  C   UNL     1       0.457   6.058  13.573  1.00  0.00    -0.014 A 
BRANCH  34  35
ATOM     35  C   UNL     1      -0.225   5.327  14.672  1.00  0.00     0.031 A 
ATOM     36  C   UNL     1      -1.434   5.966  15.306  1.00  0.00     0.074 A 
ATOM     37  C   UNL     1       0.178   4.110  15.081  1.00  0.00     0.049 A 
ATOM     38  N   UNL     1      -2.186   5.537  16.288  1.00  0.00    -0.248 NA
ATOM     39  C   UNL     1      -1.849   7.267  14.755  1.00  0.00     0.031 C 
ATOM     40  C   UNL     1       1.296   3.353  14.525  1.00  0.00     0.029 A 
ATOM     41  N   UNL     1      -0.320   3.299  16.073  1.00  0.00    -0.354 N 
ATOM     42  C   UNL     1      -3.151   6.520  16.479  1.00  0.00     0.074 A 
ATOM     43  C   UNL     1      -2.870   7.580  15.537  1.00  0.00     0.031 C 
ATOM     44  C   UNL     1       1.403   2.186  15.188  1.00  0.00     0.029 A 
ATOM     45  C   UNL     1       0.383   2.130  16.234  1.00  0.00     0.049 A 
ATOM     46  H   UNL     1      -1.106   3.534  16.616  1.00  0.00     0.167 HD
ATOM     47  C   UNL     1      -4.185   6.540  17.354  1.00  0.00     0.031 A 
ATOM     48  C   UNL     1       0.230   1.138  17.133  1.00  0.00     0.031 A 
ATOM     49  C   UNL     1      -4.463   5.497  18.303  1.00  0.00     0.049 A 
ATOM     50  C   UNL     1      -0.882   1.218  18.150  1.00  0.00     0.074 A 
ATOM     51  C   UNL     1      -5.494   5.423  19.224  1.00  0.00     0.029 A 
ATOM     52  N   UNL     1      -3.703   4.349  18.459  1.00  0.00    -0.354 N 
ATOM     53  N   UNL     1      -1.799   2.141  18.306  1.00  0.00    -0.248 NA
ATOM     54  C   UNL     1      -0.984   0.105  19.106  1.00  0.00     0.031 C 
ATOM     55  C   UNL     1      -5.320   4.259  19.980  1.00  0.00     0.029 A 
ATOM     56  C   UNL     1      -4.227   3.572  19.478  1.00  0.00     0.049 A 
ATOM     57  H   UNL     1      -2.909   4.120  17.924  1.00  0.00     0.167 HD
ATOM     58  C   UNL     1      -2.610   1.702  19.348  1.00  0.00     0.074 A 
ATOM     59  C   UNL     1      -2.082   0.423  19.776  1.00  0.00     0.031 C 
ATOM     60  C   UNL     1      -3.697   2.299  19.896  1.00  0.00     0.031 A 
BRANCH  47  61
ATOM     61  C   UNL     1      -5.069   7.758  17.348  1.00  0.00    -0.014 A 
ATOM     62  C   UNL     1      -5.934   8.032  16.277  1.00  0.00     0.009 A 
ATOM     63  C   UNL     1      -5.051   8.632  18.446  1.00  0.00     0.009 A 
ATOM     64  C   UNL     1      -6.735   9.177  16.290  1.00  0.00     0.001 A 
ATOM     65  C   UNL     1      -5.876   9.757  18.471  1.00  0.00     0.001 A 
ATOM     66  C   UNL     1      -6.709  10.035  17.389  1.00  0.00     0.000 A 
ENDBRANCH  47  61
BRANCH  48  67
ATOM     67  C   UNL     1       1.160  -0.024  17.133  1.00  0.00    -0.014 A 
ATOM     68  C   UNL     1       0.707  -1.309  16.794  1.00  0.00     0.009 A 
ATOM     69  C   UNL     1       2.502   0.141  17.511  1.00  0.00     0.009 A 
ATOM     70  C   UNL     1       1.570  -2.406  16.863  1.00  0.00     0.001 A 
ATOM     71  C   UNL     1       3.370  -0.952  17.547  1.00  0.00     0.001 A 
ATOM     72  C   UNL     1       2.901  -2.227  17.235  1.00  0.00     0.000 A 
ENDBRANCH  48  67
BRANCH  60  73
ATOM     73  C   UNL     1      -4.428   1.551  20.980  1.00  0.00    -0.014 A 
ATOM     74  C   UNL     1      -3.867   1.354  22.251  1.00  0.00     0.009 A 
ATOM     75  C   UNL     1      -5.720   1.060  20.727  1.00  0.00     0.009 A 
ATOM     76  C   UNL     1      -4.565   0.641  23.229  1.00  0.00     0.001 A 
ATOM     77  C   UNL     1      -6.429   0.379  21.717  1.00  0.00     0.001 A 
ATOM     78  C   UNL     1      -5.846   0.158  22.963  1.00  0.00     0.000 A 
ENDBRANCH  60  73
ENDBRANCH  34  35
ENDBRANCH  27  29
ENDBRANCH  26  27
ENDBRANCH  25  26
ENDBRANCH  24  25
ENDBRANCH  23  24
ENDBRANCH  22  23
ENDBRANCH   1  22
TORSDOF 19
