REMARK SMILES Cc1c(C(=O)OCCOCCOCCOC(=O)c2ccc(-c3c4nc(c(-c5ccccc5)c5ccc([nH]5)c(-c5ccccc5)c5nc(c(-c6ccccc6)c6ccc3[nH]6)C=C5)C=C4)cc2)oc2c1/C(=N/NC(=O)C(c1ccccc1)c1ccccc1)CCC2
REMARK SMILES IDX 10 1 9 2 8 3 7 4 6 5 4 6 5 7 3 8 1 9 2 10 68 11 66 12 67 13
REMARK SMILES IDX 69 14 89 15 70 16 87 17 88 18 71 19 72 20 73 22 74 23 75 24
REMARK SMILES IDX 76 25 80 26 77 27 79 28 78 29 81 30 82 31 86 32 83 33 85 34
REMARK SMILES IDX 84 35 11 36 12 37 13 38 14 39 15 40 16 41 17 42 18 43 19 44
REMARK SMILES IDX 65 45 20 46 64 47 21 48 22 49 23 50 58 51 24 52 63 53 57 54
REMARK SMILES IDX 59 55 25 56 62 57 56 58 55 59 26 61 48 62 33 63 47 64 34 65
REMARK SMILES IDX 37 66 46 67 60 68 35 69 36 70 45 72 61 73 38 74 27 75 28 76
REMARK SMILES IDX 32 77 29 78 31 79 30 80 49 81 50 82 54 83 51 84 53 85 52 86
REMARK SMILES IDX 39 87 40 88 44 89 41 90 43 91 42 92
REMARK H PARENT 71 21 59 60 37 71
REMARK Flexibility Score: inf
ROOT
ATOM      1  C   UNL     1       2.319  -2.697  -2.924  1.00  0.00     0.188 C 
ENDROOT
BRANCH   1   2
ATOM      2  O   UNL     1       3.632  -2.891  -3.437  1.00  0.00    -0.376 OA
BRANCH   2   3
ATOM      3  C   UNL     1       4.492  -3.906  -2.937  1.00  0.00     0.202 C 
BRANCH   3   4
ATOM      4  C   UNL     1       4.784  -4.064  -1.435  1.00  0.00     0.261 C 
BRANCH   4   5
ATOM      5  O   UNL     1       3.717  -3.739  -0.560  1.00  0.00    -0.457 OA
BRANCH   5   6
ATOM      6  C   UNL     1       3.632  -2.458  -0.087  1.00  0.00     0.374 C 
ATOM      7  O   UNL     1       4.438  -1.576  -0.278  1.00  0.00    -0.242 OA
BRANCH   6   8
ATOM      8  C   UNL     1       2.331  -2.348   0.543  1.00  0.00     0.215 A 
ATOM      9  C   UNL     1       1.523   0.082   0.208  1.00  0.00     0.049 C 
ATOM     10  C   UNL     1       1.398  -1.316   0.694  1.00  0.00     0.012 A 
ATOM     11  C   UNL     1       0.266  -1.918   1.333  1.00  0.00     0.043 A 
ATOM     12  O   UNL     1       1.802  -3.524   0.984  1.00  0.00    -0.453 OA
ATOM     13  C   UNL     1       0.556  -3.269   1.374  1.00  0.00     0.114 A 
ATOM     14  C   UNL     1      -1.016  -1.482   1.889  1.00  0.00     0.072 C 
ATOM     15  C   UNL     1      -0.265  -4.426   1.788  1.00  0.00     0.076 C 
ATOM     16  N   UNL     1      -1.399  -0.250   1.764  1.00  0.00    -0.177 NA
ATOM     17  C   UNL     1      -1.687  -2.590   2.631  1.00  0.00     0.059 C 
ATOM     18  C   UNL     1      -1.696  -3.947   1.950  1.00  0.00     0.014 C 
BRANCH  16  19
ATOM     19  N   UNL     1      -2.500   0.422   2.256  1.00  0.00    -0.246 N 
ATOM     20  C   UNL     1      -3.509   0.365   3.193  1.00  0.00     0.252 C 
ATOM     21  H   UNL     1      -2.604   1.256   1.745  1.00  0.00     0.193 HD
ATOM     22  O   UNL     1      -4.210   1.396   3.247  1.00  0.00    -0.272 OA
BRANCH  20  23
ATOM     23  C   UNL     1      -3.894  -0.802   4.171  1.00  0.00     0.140 C 
BRANCH  23  24
ATOM     24  C   UNL     1      -4.690  -1.887   3.359  1.00  0.00    -0.031 A 
ATOM     25  C   UNL     1      -5.156  -1.569   2.056  1.00  0.00     0.005 A 
ATOM     26  C   UNL     1      -4.873  -3.219   3.764  1.00  0.00     0.005 A 
ATOM     27  C   UNL     1      -5.538  -2.552   1.139  1.00  0.00     0.000 A 
ATOM     28  C   UNL     1      -5.246  -4.212   2.839  1.00  0.00     0.000 A 
ATOM     29  C   UNL     1      -5.535  -3.884   1.518  1.00  0.00     0.000 A 
ENDBRANCH  23  24
BRANCH  23  30
ATOM     30  C   UNL     1      -2.667  -1.086   5.093  1.00  0.00    -0.031 A 
ATOM     31  C   UNL     1      -2.320  -2.319   5.667  1.00  0.00     0.005 A 
ATOM     32  C   UNL     1      -1.767  -0.020   5.345  1.00  0.00     0.005 A 
ATOM     33  C   UNL     1      -1.047  -2.528   6.233  1.00  0.00     0.000 A 
ATOM     34  C   UNL     1      -0.501  -0.224   5.899  1.00  0.00     0.000 A 
ATOM     35  C   UNL     1      -0.121  -1.493   6.302  1.00  0.00     0.000 A 
ENDBRANCH  23  30
ENDBRANCH  20  23
ENDBRANCH  16  19
ENDBRANCH   6   8
ENDBRANCH   5   6
ENDBRANCH   4   5
ENDBRANCH   3   4
ENDBRANCH   2   3
ENDBRANCH   1   2
BRANCH   1  36
ATOM     36  C   UNL     1       1.417  -3.882  -2.505  1.00  0.00     0.188 C 
BRANCH  36  37
ATOM     37  O   UNL     1       2.068  -5.132  -2.537  1.00  0.00    -0.376 OA
BRANCH  37  38
ATOM     38  C   UNL     1       1.759  -6.067  -3.555  1.00  0.00     0.202 C 
BRANCH  38  39
ATOM     39  C   UNL     1       1.566  -5.664  -5.018  1.00  0.00     0.261 C 
BRANCH  39  40
ATOM     40  O   UNL     1       1.495  -4.277  -5.285  1.00  0.00    -0.460 OA
BRANCH  40  41
ATOM     41  C   UNL     1       0.248  -3.771  -5.366  1.00  0.00     0.338 C 
ATOM     42  O   UNL     1      -0.788  -4.305  -5.008  1.00  0.00    -0.246 OA
BRANCH  41  43
ATOM     43  C   UNL     1       0.312  -2.488  -6.074  1.00  0.00     0.060 A 
ATOM     44  C   UNL     1      -0.872  -1.753  -6.151  1.00  0.00     0.016 A 
ATOM     45  C   UNL     1       1.423  -2.204  -6.883  1.00  0.00     0.016 A 
ATOM     46  C   UNL     1      -1.033  -0.903  -7.220  1.00  0.00     0.010 A 
ATOM     47  C   UNL     1       1.254  -1.372  -7.962  1.00  0.00     0.010 A 
ATOM     48  C   UNL     1      -0.006  -0.821  -8.167  1.00  0.00    -0.014 A 
BRANCH  48  49
ATOM     49  C   UNL     1      -0.314  -0.171  -9.418  1.00  0.00     0.031 A 
ATOM     50  C   UNL     1      -0.320   1.300  -9.364  1.00  0.00     0.074 A 
ATOM     51  C   UNL     1      -0.512  -0.868 -10.550  1.00  0.00     0.049 A 
ATOM     52  N   UNL     1      -1.320   2.091  -9.553  1.00  0.00    -0.248 NA
ATOM     53  C   UNL     1       0.922   1.960  -8.938  1.00  0.00     0.031 C 
ATOM     54  C   UNL     1      -0.246  -2.287 -10.803  1.00  0.00     0.029 A 
ATOM     55  N   UNL     1      -0.894  -0.399 -11.766  1.00  0.00    -0.354 N 
ATOM     56  C   UNL     1      -0.803   3.373  -9.427  1.00  0.00     0.074 A 
ATOM     57  C   UNL     1       0.536   3.233  -8.909  1.00  0.00     0.031 C 
ATOM     58  C   UNL     1      -0.252  -2.502 -12.139  1.00  0.00     0.029 A 
ATOM     59  C   UNL     1      -0.649  -1.274 -12.809  1.00  0.00     0.049 A 
ATOM     60  H   UNL     1      -1.309   0.485 -11.893  1.00  0.00     0.167 HD
ATOM     61  C   UNL     1      -1.421   4.453  -9.970  1.00  0.00     0.031 A 
ATOM     62  C   UNL     1      -0.688  -0.970 -14.128  1.00  0.00     0.031 A 
ATOM     63  C   UNL     1      -2.801   4.200 -10.282  1.00  0.00     0.049 A 
ATOM     64  C   UNL     1      -1.465   0.283 -14.284  1.00  0.00     0.074 A 
ATOM     65  C   UNL     1      -3.907   3.836  -9.539  1.00  0.00     0.029 A 
ATOM     66  N   UNL     1      -3.126   3.940 -11.591  1.00  0.00    -0.354 N 
ATOM     67  N   UNL     1      -2.748   0.367 -14.081  1.00  0.00    -0.248 NA
ATOM     68  C   UNL     1      -0.750   1.551 -14.260  1.00  0.00     0.031 C 
ATOM     69  C   UNL     1      -4.644   2.950 -10.378  1.00  0.00     0.029 A 
ATOM     70  C   UNL     1      -3.967   2.855 -11.595  1.00  0.00     0.049 A 
ATOM     71  H   UNL     1      -2.813   4.440 -12.380  1.00  0.00     0.167 HD
ATOM     72  C   UNL     1      -2.936   1.607 -13.486  1.00  0.00     0.074 A 
ATOM     73  C   UNL     1      -1.694   2.334 -13.731  1.00  0.00     0.031 C 
ATOM     74  C   UNL     1      -3.963   1.823 -12.611  1.00  0.00     0.031 A 
BRANCH  61  75
ATOM     75  C   UNL     1      -0.649   5.609 -10.537  1.00  0.00    -0.014 A 
ATOM     76  C   UNL     1      -1.328   6.777 -10.910  1.00  0.00     0.009 A 
ATOM     77  C   UNL     1       0.697   5.493 -10.945  1.00  0.00     0.009 A 
ATOM     78  C   UNL     1      -0.696   7.765 -11.675  1.00  0.00     0.001 A 
ATOM     79  C   UNL     1       1.343   6.495 -11.667  1.00  0.00     0.001 A 
ATOM     80  C   UNL     1       0.638   7.625 -12.050  1.00  0.00     0.000 A 
ENDBRANCH  61  75
BRANCH  62  81
ATOM     81  C   UNL     1       0.141  -1.531 -15.213  1.00  0.00    -0.014 A 
ATOM     82  C   UNL     1      -0.221  -1.355 -16.557  1.00  0.00     0.009 A 
ATOM     83  C   UNL     1       1.431  -2.025 -14.940  1.00  0.00     0.009 A 
ATOM     84  C   UNL     1       0.689  -1.631 -17.586  1.00  0.00     0.001 A 
ATOM     85  C   UNL     1       2.336  -2.306 -15.967  1.00  0.00     0.001 A 
ATOM     86  C   UNL     1       1.969  -2.094 -17.291  1.00  0.00     0.000 A 
ENDBRANCH  62  81
BRANCH  74  87
ATOM     87  C   UNL     1      -5.022   0.751 -12.489  1.00  0.00    -0.014 A 
ATOM     88  C   UNL     1      -4.727  -0.568 -12.096  1.00  0.00     0.009 A 
ATOM     89  C   UNL     1      -6.370   1.113 -12.629  1.00  0.00     0.009 A 
ATOM     90  C   UNL     1      -5.747  -1.502 -11.889  1.00  0.00     0.001 A 
ATOM     91  C   UNL     1      -7.390   0.186 -12.399  1.00  0.00     0.001 A 
ATOM     92  C   UNL     1      -7.078  -1.123 -12.036  1.00  0.00     0.000 A 
ENDBRANCH  74  87
ENDBRANCH  48  49
ENDBRANCH  41  43
ENDBRANCH  40  41
ENDBRANCH  39  40
ENDBRANCH  38  39
ENDBRANCH  37  38
ENDBRANCH  36  37
ENDBRANCH   1  36
TORSDOF 21
