REMARK SMILES NS(=O)(=O)c1ccc(C#Cc2cc(Cl)cc3c2O[C@H](C(F)(F)F)C(C(=O)OCCOCCOCCOC(=O)c2ccc(-c4c5nc(c(-c6ccccc6)c6ccc([nH]6)c(-c6ccccc6)c6nc(c(-c7ccccc7)c7ccc4[nH]7)C=C6)C=C5)cc2)=C3)cc1
REMARK SMILES IDX 31 1 30 2 29 3 28 4 27 5 25 6 26 7 24 8 11 9 12 10 17 11
REMARK SMILES IDX 13 12 16 13 18 14 14 15 15 16 87 17 19 18 10 19 9 20 8 21
REMARK SMILES IDX 5 22 6 23 89 24 7 25 88 26 2 27 3 28 4 29 1 30 20 33 21 34
REMARK SMILES IDX 22 35 23 36 32 37 33 38 34 39 35 40 36 41 37 42 38 43 39 44
REMARK SMILES IDX 40 45 86 46 41 47 85 48 42 49 43 50 44 51 79 52 45 53 84 54
REMARK SMILES IDX 78 55 80 56 46 57 83 58 77 59 76 60 47 62 69 63 54 64 68 65
REMARK SMILES IDX 55 66 58 67 67 68 81 69 56 70 57 71 66 73 82 74 59 75 48 76
REMARK SMILES IDX 49 77 53 78 50 79 52 80 51 81 70 82 71 83 75 84 72 85 74 86
REMARK SMILES IDX 73 87 60 88 61 89 65 90 62 91 64 92 63 93
REMARK H PARENT 1 31 1 32 80 61 58 72
REMARK Flexibility Score: inf
ROOT
ATOM      1  C   UNL     1       0.533  14.642   4.551  1.00  0.00     0.188 C 
ENDROOT
BRANCH   1   2
ATOM      2  O   UNL     1       0.156  15.842   3.920  1.00  0.00    -0.376 OA
BRANCH   2   3
ATOM      3  C   UNL     1       0.289  16.004   2.518  1.00  0.00     0.202 C 
BRANCH   3   4
ATOM      4  C   UNL     1       1.148  15.117   1.594  1.00  0.00     0.261 C 
BRANCH   4   5
ATOM      5  O   UNL     1       1.390  13.768   2.006  1.00  0.00    -0.460 OA
BRANCH   5   6
ATOM      6  C   UNL     1       2.643  13.503   2.448  1.00  0.00     0.338 C 
ATOM      7  O   UNL     1       3.571  14.291   2.521  1.00  0.00    -0.246 OA
BRANCH   6   8
ATOM      8  C   UNL     1       2.689  12.136   3.013  1.00  0.00     0.087 C 
ATOM      9  C   UNL     1       3.135   8.248   4.495  1.00  0.00     0.069 A 
ATOM     10  C   UNL     1       3.888   8.043   5.656  1.00  0.00     0.041 A 
ATOM     11  C   UNL     1       2.897   9.556   4.034  1.00  0.00     0.143 A 
ATOM     12  C   UNL     1       4.371   9.136   6.369  1.00  0.00     0.043 A 
ATOM     13  C   UNL     1       3.422  10.647   4.737  1.00  0.00     0.020 A 
ATOM     14  O   UNL     1       2.145   9.704   2.899  1.00  0.00    -0.474 OA
ATOM     15  Cl  UNL     1       5.295   8.883   7.798  1.00  0.00    -0.084 Cl
ATOM     16  C   UNL     1       4.136  10.435   5.923  1.00  0.00     0.032 A 
ATOM     17  C   UNL     1       3.288  11.992   4.202  1.00  0.00     0.027 C 
ATOM     18  C   UNL     1       2.068  11.001   2.248  1.00  0.00     0.316 C 
BRANCH   9  19
ATOM     19  C   UNL     1       2.657   7.104   3.778  1.00  0.00    -0.058 C 
ATOM     20  C   UNL     1       2.269   6.153   3.147  1.00  0.00    -0.062 C 
BRANCH  20  21
ATOM     21  C   UNL     1       1.813   5.067   2.338  1.00  0.00     0.025 A 
ATOM     22  C   UNL     1       1.003   2.997   0.649  1.00  0.00     0.082 A 
ATOM     23  C   UNL     1       0.475   4.281   0.478  1.00  0.00     0.023 A 
ATOM     24  C   UNL     1       1.907   2.732   1.681  1.00  0.00     0.023 A 
ATOM     25  C   UNL     1       0.884   5.314   1.323  1.00  0.00     0.018 A 
ATOM     26  C   UNL     1       2.312   3.773   2.525  1.00  0.00     0.018 A 
BRANCH  22  27
ATOM     27  S   UNL     1       0.533   1.759  -0.522  1.00  0.00     0.238 S 
ATOM     28  O   UNL     1       1.189   2.053  -1.774  1.00  0.00    -0.207 OA
ATOM     29  O   UNL     1      -0.891   1.547  -0.417  1.00  0.00    -0.207 OA
BRANCH  27  30
ATOM     30  N   UNL     1       1.239   0.336   0.029  1.00  0.00    -0.225 NA
ATOM     31  H   UNL     1       1.006  -0.427  -0.606  1.00  0.00     0.137 HD
ATOM     32  H   UNL     1       0.887   0.122   0.962  1.00  0.00     0.137 HD
ENDBRANCH  27  30
ENDBRANCH  22  27
ENDBRANCH  20  21
ENDBRANCH   9  19
BRANCH  18  33
ATOM     33  C   UNL     1       2.658  10.881   0.838  1.00  0.00     0.430 C 
ATOM     34  F   UNL     1       2.158   9.809   0.180  1.00  0.00    -0.167 F 
ATOM     35  F   UNL     1       2.372  11.969   0.085  1.00  0.00    -0.167 F 
ATOM     36  F   UNL     1       4.004  10.752   0.868  1.00  0.00    -0.167 F 
ENDBRANCH  18  33
ENDBRANCH   6   8
ENDBRANCH   5   6
ENDBRANCH   4   5
ENDBRANCH   3   4
ENDBRANCH   2   3
ENDBRANCH   1   2
BRANCH   1  37
ATOM     37  C   UNL     1      -0.318  13.378   4.310  1.00  0.00     0.188 C 
BRANCH  37  38
ATOM     38  O   UNL     1      -1.266  13.391   3.270  1.00  0.00    -0.376 OA
BRANCH  38  39
ATOM     39  C   UNL     1      -2.444  14.171   3.400  1.00  0.00     0.202 C 
BRANCH  39  40
ATOM     40  C   UNL     1      -3.003  14.747   4.721  1.00  0.00     0.261 C 
BRANCH  40  41
ATOM     41  O   UNL     1      -2.102  14.948   5.816  1.00  0.00    -0.460 OA
BRANCH  41  42
ATOM     42  C   UNL     1      -2.163  14.037   6.823  1.00  0.00     0.338 C 
ATOM     43  O   UNL     1      -2.877  13.053   6.887  1.00  0.00    -0.246 OA
BRANCH  42  44
ATOM     44  C   UNL     1      -1.048  14.312   7.755  1.00  0.00     0.060 A 
ATOM     45  C   UNL     1      -1.019  15.505   8.474  1.00  0.00     0.016 A 
ATOM     46  C   UNL     1      -0.002  13.384   7.878  1.00  0.00     0.016 A 
ATOM     47  C   UNL     1       0.059  15.765   9.324  1.00  0.00     0.010 A 
ATOM     48  C   UNL     1       1.086  13.656   8.716  1.00  0.00     0.010 A 
ATOM     49  C   UNL     1       1.115  14.842   9.461  1.00  0.00    -0.014 A 
BRANCH  49  50
ATOM     50  C   UNL     1       2.144  15.061  10.511  1.00  0.00     0.031 A 
ATOM     51  C   UNL     1       3.540  15.506  10.190  1.00  0.00     0.074 A 
ATOM     52  C   UNL     1       1.781  14.871  11.794  1.00  0.00     0.049 A 
ATOM     53  N   UNL     1       4.493  15.861  11.017  1.00  0.00    -0.248 NA
ATOM     54  C   UNL     1       3.925  15.557   8.773  1.00  0.00     0.031 C 
ATOM     55  C   UNL     1       0.459  14.412  12.224  1.00  0.00     0.029 A 
ATOM     56  N   UNL     1       2.467  15.062  12.968  1.00  0.00    -0.354 N 
ATOM     57  C   UNL     1       5.582  16.199  10.226  1.00  0.00     0.074 A 
ATOM     58  C   UNL     1       5.190  15.957   8.852  1.00  0.00     0.031 C 
ATOM     59  C   UNL     1       0.412  14.408  13.563  1.00  0.00     0.029 A 
ATOM     60  C   UNL     1       1.711  14.818  14.090  1.00  0.00     0.049 A 
ATOM     61  H   UNL     1       3.409  15.345  13.002  1.00  0.00     0.167 HD
ATOM     62  C   UNL     1       6.786  16.686  10.615  1.00  0.00     0.031 A 
ATOM     63  C   UNL     1       2.015  14.919  15.399  1.00  0.00     0.031 A 
ATOM     64  C   UNL     1       7.168  16.910  11.989  1.00  0.00     0.049 A 
ATOM     65  C   UNL     1       3.374  15.423  15.802  1.00  0.00     0.074 A 
ATOM     66  C   UNL     1       8.351  17.446  12.470  1.00  0.00     0.029 A 
ATOM     67  N   UNL     1       6.393  16.604  13.098  1.00  0.00    -0.354 N 
ATOM     68  N   UNL     1       4.359  15.830  15.039  1.00  0.00    -0.248 NA
ATOM     69  C   UNL     1       3.657  15.504  17.242  1.00  0.00     0.031 C 
ATOM     70  C   UNL     1       8.333  17.376  13.862  1.00  0.00     0.029 A 
ATOM     71  C   UNL     1       7.094  16.899  14.258  1.00  0.00     0.049 A 
ATOM     72  H   UNL     1       5.482  16.233  13.067  1.00  0.00     0.167 HD
ATOM     73  C   UNL     1       5.366  16.240  15.904  1.00  0.00     0.074 A 
ATOM     74  C   UNL     1       4.863  16.056  17.249  1.00  0.00     0.031 C 
ATOM     75  C   UNL     1       6.596  16.723  15.602  1.00  0.00     0.031 A 
BRANCH  62  76
ATOM     76  C   UNL     1       7.801  17.038   9.557  1.00  0.00    -0.014 A 
ATOM     77  C   UNL     1       9.036  16.367   9.521  1.00  0.00     0.009 A 
ATOM     78  C   UNL     1       7.609  18.139   8.708  1.00  0.00     0.009 A 
ATOM     79  C   UNL     1      10.065  16.811   8.685  1.00  0.00     0.001 A 
ATOM     80  C   UNL     1       8.626  18.558   7.847  1.00  0.00     0.001 A 
ATOM     81  C   UNL     1       9.858  17.905   7.848  1.00  0.00     0.000 A 
ENDBRANCH  62  76
BRANCH  63  82
ATOM     82  C   UNL     1       0.983  14.568  16.414  1.00  0.00    -0.014 A 
ATOM     83  C   UNL     1       0.495  13.253  16.508  1.00  0.00     0.009 A 
ATOM     84  C   UNL     1       0.434  15.550  17.252  1.00  0.00     0.009 A 
ATOM     85  C   UNL     1      -0.542  12.938  17.387  1.00  0.00     0.001 A 
ATOM     86  C   UNL     1      -0.575  15.222  18.163  1.00  0.00     0.001 A 
ATOM     87  C   UNL     1      -1.072  13.921  18.218  1.00  0.00     0.000 A 
ENDBRANCH  63  82
BRANCH  75  88
ATOM     88  C   UNL     1       7.511  17.117  16.735  1.00  0.00    -0.014 A 
ATOM     89  C   UNL     1       7.928  18.454  16.861  1.00  0.00     0.009 A 
ATOM     90  C   UNL     1       8.060  16.158  17.600  1.00  0.00     0.009 A 
ATOM     91  C   UNL     1       8.893  18.815  17.803  1.00  0.00     0.001 A 
ATOM     92  C   UNL     1       8.995  16.529  18.570  1.00  0.00     0.001 A 
ATOM     93  C   UNL     1       9.423  17.853  18.660  1.00  0.00     0.000 A 
ENDBRANCH  75  88
ENDBRANCH  49  50
ENDBRANCH  42  44
ENDBRANCH  41  42
ENDBRANCH  40  41
ENDBRANCH  39  40
ENDBRANCH  38  39
ENDBRANCH  37  38
ENDBRANCH   1  37
TORSDOF 22
