REMARK SMILES CCOc1cc2nccc(Nc3ccc(C(=O)OCCOCCOCCOC(=O)c4ccc(-c5c6nc(c(-c7ccccc7)c7ccc([nH]7)c(-c7ccccc7)c7nc(c(-c8ccccc8)c8ccc5[nH]8)C=C7)C=C6)cc4)cc3)c2cc1OCC
REMARK SMILES IDX 22 1 21 2 20 3 19 4 18 5 16 6 17 7 15 8 12 9 13 10 79 11
REMARK SMILES IDX 14 12 78 13 11 14 10 16 4 17 5 18 82 19 6 20 81 21 7 22
REMARK SMILES IDX 80 23 8 24 9 25 3 26 2 27 1 28 83 29 84 30 85 31 23 32 24 33
REMARK SMILES IDX 25 34 26 35 27 36 28 37 29 38 30 39 31 40 77 41 32 42 76 43
REMARK SMILES IDX 33 44 34 45 35 46 70 47 36 48 75 49 69 50 71 51 37 52 74 53
REMARK SMILES IDX 68 54 67 55 38 57 60 58 45 59 59 60 46 61 49 62 58 63 72 64
REMARK SMILES IDX 47 65 48 66 57 68 73 69 50 70 39 71 40 72 44 73 41 74 43 75
REMARK SMILES IDX 42 76 61 77 62 78 66 79 63 80 65 81 64 82 51 83 52 84 56 85
REMARK SMILES IDX 53 86 55 87 54 88
REMARK H PARENT 11 15 71 56 49 67
REMARK Flexibility Score: inf
ROOT
ATOM      1  C   UNL     1      14.425   2.364   0.536  1.00  0.00     0.188 C 
ENDROOT
BRANCH   1   2
ATOM      2  O   UNL     1      15.719   2.699   0.986  1.00  0.00    -0.376 OA
BRANCH   2   3
ATOM      3  C   UNL     1      16.003   2.845   2.366  1.00  0.00     0.202 C 
BRANCH   3   4
ATOM      4  C   UNL     1      14.979   3.274   3.430  1.00  0.00     0.261 C 
BRANCH   4   5
ATOM      5  O   UNL     1      13.635   2.824   3.247  1.00  0.00    -0.460 OA
BRANCH   5   6
ATOM      6  C   UNL     1      12.757   3.797   2.902  1.00  0.00     0.338 C 
ATOM      7  O   UNL     1      13.000   4.983   2.748  1.00  0.00    -0.246 OA
BRANCH   6   8
ATOM      8  C   UNL     1      11.452   3.206   2.544  1.00  0.00     0.060 A 
ATOM      9  C   UNL     1       8.865   2.361   1.921  1.00  0.00     0.038 A 
ATOM     10  C   UNL     1       9.515   3.293   1.104  1.00  0.00     0.027 A 
ATOM     11  C   UNL     1       9.564   1.777   2.986  1.00  0.00     0.027 A 
ATOM     12  C   UNL     1      10.798   3.726   1.422  1.00  0.00     0.018 A 
ATOM     13  C   UNL     1      10.862   2.188   3.296  1.00  0.00     0.018 A 
BRANCH   9  14
ATOM     14  N   UNL     1       7.484   2.168   1.747  1.00  0.00    -0.355 N 
ATOM     15  H   UNL     1       7.210   1.807   0.873  1.00  0.00     0.167 HD
BRANCH  14  16
ATOM     16  C   UNL     1       6.428   2.424   2.666  1.00  0.00     0.050 A 
ATOM     17  C   UNL     1       2.376   1.800   1.581  1.00  0.00     0.163 A 
ATOM     18  C   UNL     1       2.721   2.277   2.852  1.00  0.00     0.079 A 
ATOM     19  C   UNL     1       3.389   1.460   0.687  1.00  0.00     0.161 A 
ATOM     20  C   UNL     1       4.054   2.461   3.234  1.00  0.00     0.076 A 
ATOM     21  C   UNL     1       4.719   1.642   1.052  1.00  0.00     0.063 A 
ATOM     22  N   UNL     1       4.323   2.949   4.456  1.00  0.00    -0.256 NA
ATOM     23  C   UNL     1       5.080   2.161   2.307  1.00  0.00     0.028 A 
ATOM     24  C   UNL     1       5.614   3.172   4.784  1.00  0.00     0.114 A 
ATOM     25  C   UNL     1       6.680   2.929   3.940  1.00  0.00     0.047 A 
BRANCH  17  26
ATOM     26  O   UNL     1       1.082   1.819   1.137  1.00  0.00    -0.490 OA
BRANCH  26  27
ATOM     27  C   UNL     1       0.163   0.995   1.860  1.00  0.00     0.226 C 
ATOM     28  C   UNL     1      -0.863   0.472   0.859  1.00  0.00     0.049 C 
ENDBRANCH  26  27
ENDBRANCH  17  26
BRANCH  19  29
ATOM     29  O   UNL     1       3.254   0.969  -0.581  1.00  0.00    -0.490 OA
BRANCH  29  30
ATOM     30  C   UNL     1       2.268  -0.040  -0.784  1.00  0.00     0.226 C 
ATOM     31  C   UNL     1       2.402  -1.238   0.150  1.00  0.00     0.049 C 
ENDBRANCH  29  30
ENDBRANCH  19  29
ENDBRANCH  14  16
ENDBRANCH   9  14
ENDBRANCH   6   8
ENDBRANCH   5   6
ENDBRANCH   4   5
ENDBRANCH   3   4
ENDBRANCH   2   3
ENDBRANCH   1   2
BRANCH   1  32
ATOM     32  C   UNL     1      13.798   1.010   0.927  1.00  0.00     0.188 C 
BRANCH  32  33
ATOM     33  O   UNL     1      14.455   0.192   1.864  1.00  0.00    -0.376 OA
BRANCH  33  34
ATOM     34  C   UNL     1      15.670  -0.454   1.526  1.00  0.00     0.202 C 
BRANCH  34  35
ATOM     35  C   UNL     1      16.184  -0.706   0.094  1.00  0.00     0.261 C 
BRANCH  35  36
ATOM     36  O   UNL     1      15.704   0.138  -0.955  1.00  0.00    -0.460 OA
BRANCH  36  37
ATOM     37  C   UNL     1      14.834  -0.438  -1.825  1.00  0.00     0.338 C 
ATOM     38  O   UNL     1      14.393  -1.569  -1.796  1.00  0.00    -0.246 OA
BRANCH  37  39
ATOM     39  C   UNL     1      14.362   0.600  -2.762  1.00  0.00     0.060 A 
ATOM     40  C   UNL     1      13.054   1.091  -2.640  1.00  0.00     0.016 A 
ATOM     41  C   UNL     1      15.210   1.077  -3.760  1.00  0.00     0.016 A 
ATOM     42  C   UNL     1      12.598   2.086  -3.507  1.00  0.00     0.010 A 
ATOM     43  C   UNL     1      14.740   2.050  -4.645  1.00  0.00     0.010 A 
ATOM     44  C   UNL     1      13.433   2.558  -4.527  1.00  0.00    -0.014 A 
BRANCH  44  45
ATOM     45  C   UNL     1      12.931   3.511  -5.545  1.00  0.00     0.031 A 
ATOM     46  C   UNL     1      12.511   2.985  -6.889  1.00  0.00     0.074 A 
ATOM     47  C   UNL     1      12.901   4.833  -5.296  1.00  0.00     0.049 A 
ATOM     48  N   UNL     1      12.193   3.645  -7.973  1.00  0.00    -0.248 NA
ATOM     49  C   UNL     1      12.444   1.521  -7.030  1.00  0.00     0.031 C 
ATOM     50  C   UNL     1      13.230   5.464  -4.019  1.00  0.00     0.029 A 
ATOM     51  N   UNL     1      12.601   5.887  -6.125  1.00  0.00    -0.354 N 
ATOM     52  C   UNL     1      11.917   2.679  -8.932  1.00  0.00     0.074 A 
ATOM     53  C   UNL     1      12.106   1.389  -8.305  1.00  0.00     0.031 C 
ATOM     54  C   UNL     1      13.139   6.799  -4.156  1.00  0.00     0.029 A 
ATOM     55  C   UNL     1      12.797   7.116  -5.541  1.00  0.00     0.049 A 
ATOM     56  H   UNL     1      12.278   5.773  -7.047  1.00  0.00     0.167 HD
ATOM     57  C   UNL     1      11.551   2.856 -10.223  1.00  0.00     0.031 A 
ATOM     58  C   UNL     1      12.752   8.352  -6.077  1.00  0.00     0.031 A 
ATOM     59  C   UNL     1      11.370   4.140 -10.846  1.00  0.00     0.049 A 
ATOM     60  C   UNL     1      12.442   8.511  -7.546  1.00  0.00     0.074 A 
ATOM     61  C   UNL     1      10.956   4.416 -12.138  1.00  0.00     0.029 A 
ATOM     62  N   UNL     1      11.608   5.357 -10.231  1.00  0.00    -0.354 N 
ATOM     63  N   UNL     1      12.132   7.595  -8.431  1.00  0.00    -0.248 NA
ATOM     64  C   UNL     1      12.485   9.877  -8.090  1.00  0.00     0.031 C 
ATOM     65  C   UNL     1      11.019   5.798 -12.329  1.00  0.00     0.029 A 
ATOM     66  C   UNL     1      11.402   6.386 -11.134  1.00  0.00     0.049 A 
ATOM     67  H   UNL     1      11.883   5.474  -9.293  1.00  0.00     0.167 HD
ATOM     68  C   UNL     1      11.913   8.277  -9.623  1.00  0.00     0.074 A 
ATOM     69  C   UNL     1      12.106   9.684  -9.345  1.00  0.00     0.031 C 
ATOM     70  C   UNL     1      11.587   7.783 -10.842  1.00  0.00     0.031 A 
BRANCH  57  71
ATOM     71  C   UNL     1      11.366   1.634 -11.078  1.00  0.00    -0.014 A 
ATOM     72  C   UNL     1      10.256   0.791 -10.926  1.00  0.00     0.009 A 
ATOM     73  C   UNL     1      12.282   1.375 -12.111  1.00  0.00     0.009 A 
ATOM     74  C   UNL     1      10.075  -0.297 -11.783  1.00  0.00     0.001 A 
ATOM     75  C   UNL     1      12.084   0.304 -12.983  1.00  0.00     0.001 A 
ATOM     76  C   UNL     1      10.983  -0.534 -12.815  1.00  0.00     0.000 A 
ENDBRANCH  57  71
BRANCH  58  77
ATOM     77  C   UNL     1      13.065   9.552  -5.253  1.00  0.00    -0.014 A 
ATOM     78  C   UNL     1      12.087  10.530  -5.013  1.00  0.00     0.009 A 
ATOM     79  C   UNL     1      14.364   9.762  -4.762  1.00  0.00     0.009 A 
ATOM     80  C   UNL     1      12.414  11.710  -4.338  1.00  0.00     0.001 A 
ATOM     81  C   UNL     1      14.678  10.926  -4.056  1.00  0.00     0.001 A 
ATOM     82  C   UNL     1      13.707  11.905  -3.858  1.00  0.00     0.000 A 
ENDBRANCH  58  77
BRANCH  70  83
ATOM     83  C   UNL     1      11.378   8.766 -11.961  1.00  0.00    -0.014 A 
ATOM     84  C   UNL     1      12.457   9.449 -12.543  1.00  0.00     0.009 A 
ATOM     85  C   UNL     1      10.089   8.960 -12.484  1.00  0.00     0.009 A 
ATOM     86  C   UNL     1      12.245  10.327 -13.608  1.00  0.00     0.001 A 
ATOM     87  C   UNL     1       9.885   9.812 -13.570  1.00  0.00     0.001 A 
ATOM     88  C   UNL     1      10.961  10.501 -14.126  1.00  0.00     0.000 A 
ENDBRANCH  70  83
ENDBRANCH  44  45
ENDBRANCH  37  39
ENDBRANCH  36  37
ENDBRANCH  35  36
ENDBRANCH  34  35
ENDBRANCH  33  34
ENDBRANCH  32  33
ENDBRANCH   1  32
TORSDOF 23
