REMARK SMILES COc1ccc(OC)c(/C=C2\S/C(=[NH+]\c3ccc(C(=O)OCCOCCOCCOC(=O)c4ccc(-c5c6nc(c(-c7ccccc7)c7ccc([nH]7)c(-c7ccccc7)c7nc(c(-c8ccccc8)c8ccc5[nH]8)C=C7)C=C6)cc4)cc3)N(C)C2=O)c1
REMARK SMILES IDX 25 1 24 2 23 3 22 4 21 5 19 6 20 7 18 8 15 9 16 10 82 11
REMARK SMILES IDX 17 12 81 13 14 14 10 15 11 16 12 17 85 18 13 19 83 20 86 21
REMARK SMILES IDX 84 22 9 24 3 25 4 26 87 27 5 28 6 29 2 30 1 31 7 32 8 33
REMARK SMILES IDX 26 34 27 35 28 36 29 37 30 38 31 39 32 40 33 41 34 42 80 43
REMARK SMILES IDX 35 44 79 45 36 46 37 47 38 48 73 49 39 50 78 51 72 52 74 53
REMARK SMILES IDX 40 54 77 55 71 56 70 57 41 59 63 60 48 61 62 62 49 63 52 64
REMARK SMILES IDX 61 65 75 66 50 67 51 68 60 70 76 71 53 72 42 73 43 74 47 75
REMARK SMILES IDX 44 76 46 77 45 78 64 79 65 80 69 81 66 82 68 83 67 84 54 85
REMARK SMILES IDX 55 86 59 87 56 88 58 89 57 90
REMARK H PARENT 14 23 74 58 52 69
REMARK Flexibility Score: inf
ROOT
ATOM      1  C   UNL     1      -1.637   8.018  -8.422  1.00  0.00     0.188 C 
ENDROOT
BRANCH   1   2
ATOM      2  O   UNL     1      -3.044   7.887  -8.460  1.00  0.00    -0.376 OA
BRANCH   2   3
ATOM      3  C   UNL     1      -3.787   7.652  -7.272  1.00  0.00     0.202 C 
BRANCH   3   4
ATOM      4  C   UNL     1      -3.216   7.262  -5.886  1.00  0.00     0.261 C 
BRANCH   4   5
ATOM      5  O   UNL     1      -1.823   7.452  -5.635  1.00  0.00    -0.460 OA
BRANCH   5   6
ATOM      6  C   UNL     1      -1.039   6.352  -5.744  1.00  0.00     0.338 C 
ATOM      7  O   UNL     1      -1.405   5.223  -6.021  1.00  0.00    -0.246 OA
BRANCH   6   8
ATOM      8  C   UNL     1       0.387   6.760  -5.673  1.00  0.00     0.060 A 
ATOM      9  C   UNL     1       3.132   7.275  -5.463  1.00  0.00     0.125 A 
ATOM     10  C   UNL     1       2.649   6.484  -6.509  1.00  0.00     0.052 A 
ATOM     11  C   UNL     1       2.215   7.945  -4.639  1.00  0.00     0.052 A 
ATOM     12  C   UNL     1       1.284   6.194  -6.589  1.00  0.00     0.020 A 
ATOM     13  C   UNL     1       0.843   7.692  -4.738  1.00  0.00     0.020 A 
BRANCH   9  14
ATOM     14  N   UNL     1       4.492   7.279  -5.083  1.00  0.00    -0.234 N 
ATOM     15  C   UNL     1       4.227   3.866  -1.771  1.00  0.00     0.036 C 
ATOM     16  C   UNL     1       4.840   4.388  -2.845  1.00  0.00     0.110 C 
ATOM     17  S   UNL     1       4.148   4.644  -4.388  1.00  0.00     0.007 SA
ATOM     18  C   UNL     1       6.109   5.168  -2.766  1.00  0.00     0.348 C 
ATOM     19  C   UNL     1       4.934   6.209  -4.492  1.00  0.00     0.324 C 
ATOM     20  N   UNL     1       6.078   6.166  -3.733  1.00  0.00    -0.189 N 
ATOM     21  O   UNL     1       6.943   5.020  -1.885  1.00  0.00    -0.240 OA
ATOM     22  C   UNL     1       7.046   7.239  -3.732  1.00  0.00     0.301 C 
ATOM     23  H   UNL     1       5.076   8.052  -5.258  1.00  0.00     0.313 HD
BRANCH  15  24
ATOM     24  C   UNL     1       2.803   3.469  -1.753  1.00  0.00     0.022 A 
ATOM     25  C   UNL     1       1.173   1.679  -1.537  1.00  0.00     0.119 A 
ATOM     26  C   UNL     1       0.155   2.529  -1.959  1.00  0.00     0.050 A 
ATOM     27  C   UNL     1       2.495   2.131  -1.463  1.00  0.00     0.058 A 
ATOM     28  C   UNL     1       0.440   3.866  -2.216  1.00  0.00     0.051 A 
ATOM     29  C   UNL     1       1.742   4.351  -2.062  1.00  0.00     0.126 A 
BRANCH  25  30
ATOM     30  O   UNL     1       0.827   0.379  -1.288  1.00  0.00    -0.497 OA
ATOM     31  C   UNL     1       1.167  -0.013   0.041  1.00  0.00     0.278 C 
ENDBRANCH  25  30
BRANCH  29  32
ATOM     32  O   UNL     1       1.868   5.689  -2.338  1.00  0.00    -0.496 OA
ATOM     33  C   UNL     1       2.576   6.450  -1.367  1.00  0.00     0.278 C 
ENDBRANCH  29  32
ENDBRANCH  15  24
ENDBRANCH   9  14
ENDBRANCH   6   8
ENDBRANCH   5   6
ENDBRANCH   4   5
ENDBRANCH   3   4
ENDBRANCH   2   3
ENDBRANCH   1   2
BRANCH   1  34
ATOM     34  C   UNL     1      -1.086   9.263  -7.706  1.00  0.00     0.188 C 
BRANCH  34  35
ATOM     35  O   UNL     1      -2.103   9.986  -7.046  1.00  0.00    -0.376 OA
BRANCH  35  36
ATOM     36  C   UNL     1      -2.628  11.130  -7.699  1.00  0.00     0.202 C 
BRANCH  36  37
ATOM     37  C   UNL     1      -2.869  11.209  -9.225  1.00  0.00     0.261 C 
BRANCH  37  38
ATOM     38  O   UNL     1      -2.068  10.400 -10.099  1.00  0.00    -0.460 OA
BRANCH  38  39
ATOM     39  C   UNL     1      -0.874  10.890 -10.506  1.00  0.00     0.338 C 
ATOM     40  O   UNL     1      -0.357  11.938 -10.180  1.00  0.00    -0.246 OA
BRANCH  39  41
ATOM     41  C   UNL     1      -0.205   9.830 -11.299  1.00  0.00     0.060 A 
ATOM     42  C   UNL     1       0.934   9.199 -10.781  1.00  0.00     0.016 A 
ATOM     43  C   UNL     1      -0.711   9.456 -12.545  1.00  0.00     0.016 A 
ATOM     44  C   UNL     1       1.581   8.203 -11.519  1.00  0.00     0.010 A 
ATOM     45  C   UNL     1      -0.049   8.474 -13.292  1.00  0.00     0.010 A 
ATOM     46  C   UNL     1       1.115   7.860 -12.796  1.00  0.00    -0.014 A 
BRANCH  46  47
ATOM     47  C   UNL     1       1.926   6.981 -13.678  1.00  0.00     0.031 A 
ATOM     48  C   UNL     1       2.772   7.616 -14.749  1.00  0.00     0.074 A 
ATOM     49  C   UNL     1       1.918   5.643 -13.537  1.00  0.00     0.049 A 
ATOM     50  N   UNL     1       3.513   7.050 -15.668  1.00  0.00    -0.248 NA
ATOM     51  C   UNL     1       2.782   9.088 -14.790  1.00  0.00     0.031 C 
ATOM     52  C   UNL     1       1.176   4.900 -12.520  1.00  0.00     0.029 A 
ATOM     53  N   UNL     1       2.554   4.668 -14.269  1.00  0.00    -0.354 N 
ATOM     54  C   UNL     1       4.063   8.093 -16.404  1.00  0.00     0.074 A 
ATOM     55  C   UNL     1       3.553   9.324 -15.841  1.00  0.00     0.031 C 
ATOM     56  C   UNL     1       1.389   3.584 -12.701  1.00  0.00     0.029 A 
ATOM     57  C   UNL     1       2.249   3.390 -13.867  1.00  0.00     0.049 A 
ATOM     58  H   UNL     1       3.169   4.867 -15.011  1.00  0.00     0.167 HD
ATOM     59  C   UNL     1       4.918   8.034 -17.452  1.00  0.00     0.031 A 
ATOM     60  C   UNL     1       2.600   2.200 -14.397  1.00  0.00     0.031 A 
ATOM     61  C   UNL     1       5.419   6.811 -18.022  1.00  0.00     0.049 A 
ATOM     62  C   UNL     1       3.491   2.162 -15.614  1.00  0.00     0.074 A 
ATOM     63  C   UNL     1       6.311   6.654 -19.069  1.00  0.00     0.029 A 
ATOM     64  N   UNL     1       5.063   5.540 -17.604  1.00  0.00    -0.354 N 
ATOM     65  N   UNL     1       4.038   3.155 -16.273  1.00  0.00    -0.248 NA
ATOM     66  C   UNL     1       3.819   0.834 -16.154  1.00  0.00     0.031 C 
ATOM     67  C   UNL     1       6.441   5.287 -19.329  1.00  0.00     0.029 A 
ATOM     68  C   UNL     1       5.690   4.592 -18.395  1.00  0.00     0.049 A 
ATOM     69  H   UNL     1       4.455   5.340 -16.856  1.00  0.00     0.167 HD
ATOM     70  C   UNL     1       4.799   2.571 -17.280  1.00  0.00     0.074 A 
ATOM     71  C   UNL     1       4.658   1.138 -17.134  1.00  0.00     0.031 C 
ATOM     72  C   UNL     1       5.548   3.167 -18.239  1.00  0.00     0.031 A 
BRANCH  59  73
ATOM     73  C   UNL     1       5.341   9.331 -18.083  1.00  0.00    -0.014 A 
ATOM     74  C   UNL     1       6.210  10.217 -17.427  1.00  0.00     0.009 A 
ATOM     75  C   UNL     1       4.907   9.643 -19.381  1.00  0.00     0.009 A 
ATOM     76  C   UNL     1       6.614  11.400 -18.049  1.00  0.00     0.001 A 
ATOM     77  C   UNL     1       5.337  10.812 -20.012  1.00  0.00     0.001 A 
ATOM     78  C   UNL     1       6.184  11.693 -19.343  1.00  0.00     0.000 A 
ENDBRANCH  59  73
BRANCH  60  79
ATOM     79  C   UNL     1       2.084   0.933 -13.810  1.00  0.00    -0.014 A 
ATOM     80  C   UNL     1       2.954   0.012 -13.205  1.00  0.00     0.009 A 
ATOM     81  C   UNL     1       0.720   0.614 -13.898  1.00  0.00     0.009 A 
ATOM     82  C   UNL     1       2.475  -1.215 -12.736  1.00  0.00     0.001 A 
ATOM     83  C   UNL     1       0.238  -0.597 -13.397  1.00  0.00     0.001 A 
ATOM     84  C   UNL     1       1.117  -1.516 -12.829  1.00  0.00     0.000 A 
ENDBRANCH  60  79
BRANCH  72  85
ATOM     85  C   UNL     1       6.316   2.276 -19.178  1.00  0.00    -0.014 A 
ATOM     86  C   UNL     1       5.668   1.499 -20.151  1.00  0.00     0.009 A 
ATOM     87  C   UNL     1       7.719   2.251 -19.115  1.00  0.00     0.009 A 
ATOM     88  C   UNL     1       6.407   0.686 -21.014  1.00  0.00     0.001 A 
ATOM     89  C   UNL     1       8.457   1.465 -20.002  1.00  0.00     0.001 A 
ATOM     90  C   UNL     1       7.800   0.675 -20.943  1.00  0.00     0.000 A 
ENDBRANCH  72  85
ENDBRANCH  46  47
ENDBRANCH  39  41
ENDBRANCH  38  39
ENDBRANCH  37  38
ENDBRANCH  36  37
ENDBRANCH  35  36
ENDBRANCH  34  35
ENDBRANCH   1  34
TORSDOF 21
