REMARK SMILES C[C@@H]1C[N@@H+]2CCC[C@@H]2CN1C(=O)N1CC(C(=O)OCCOCCOCCOC(=O)c2ccc(-c3c4nc(c(-c5ccccc5)c5ccc([nH]5)c(-c5ccccc5)c5nc(c(-c6ccccc6)c6ccc3[nH]6)C=C5)C=C4)cc2)C1
REMARK SMILES IDX 23 1 22 2 21 3 20 4 19 5 18 6 16 7 17 8 15 9 11 10 12 11
REMARK SMILES IDX 13 12 14 13 78 14 10 15 1 16 2 17 3 18 4 19 9 20 5 21 8 22
REMARK SMILES IDX 6 24 7 25 24 26 25 27 26 28 27 29 28 30 29 31 30 32 31 33
REMARK SMILES IDX 77 34 32 35 76 36 33 37 34 38 35 39 70 40 36 41 75 42 69 43
REMARK SMILES IDX 71 44 37 45 74 46 68 47 67 48 38 50 60 51 45 52 59 53 46 54
REMARK SMILES IDX 49 55 58 56 72 57 47 58 48 59 57 61 73 62 50 63 39 64 40 65
REMARK SMILES IDX 44 66 41 67 43 68 42 69 61 70 62 71 66 72 63 73 65 74 64 75
REMARK SMILES IDX 51 76 52 77 56 78 53 79 55 80 54 81
REMARK H PARENT 4 23 71 49 49 60
REMARK Flexibility Score: inf
ROOT
ATOM      1  C   UNL     1       0.016  -4.682   1.599  1.00  0.00     0.188 C 
ENDROOT
BRANCH   1   2
ATOM      2  C   UNL     1      -0.192  -5.917   0.703  1.00  0.00     0.188 C 
BRANCH   2   3
ATOM      3  O   UNL     1       0.779  -6.954   0.710  1.00  0.00    -0.376 OA
BRANCH   3   4
ATOM      4  C   UNL     1       2.152  -6.624   0.518  1.00  0.00     0.202 C 
BRANCH   4   5
ATOM      5  C   UNL     1       2.558  -5.654  -0.603  1.00  0.00     0.261 C 
BRANCH   5   6
ATOM      6  O   UNL     1       1.868  -4.388  -0.569  1.00  0.00    -0.463 OA
BRANCH   6   7
ATOM      7  C   UNL     1       1.259  -3.998  -1.728  1.00  0.00     0.312 C 
ATOM      8  O   UNL     1       1.376  -4.620  -2.785  1.00  0.00    -0.252 OA
BRANCH   7   9
ATOM      9  C   UNL     1       0.360  -2.760  -1.590  1.00  0.00     0.138 C 
ATOM     10  C   UNL     1      -0.319   0.438  -1.551  1.00  0.00     0.320 C 
ATOM     11  O   UNL     1      -0.967   0.656  -2.577  1.00  0.00    -0.248 OA
ATOM     12  N   UNL     1       0.439  -0.696  -1.453  1.00  0.00    -0.323 N 
ATOM     13  C   UNL     1       0.718  -1.619  -2.543  1.00  0.00     0.138 C 
ATOM     14  C   UNL     1       0.473  -1.743  -0.440  1.00  0.00     0.138 C 
BRANCH  10  15
ATOM     15  N   UNL     1      -0.269   1.352  -0.516  1.00  0.00    -0.310 N 
ATOM     16  C   UNL     1      -0.149   1.196   1.937  1.00  0.00     0.037 C 
ATOM     17  C   UNL     1       0.648   1.319   0.632  1.00  0.00     0.139 C 
ATOM     18  C   UNL     1       1.606   2.558   0.687  1.00  0.00     0.287 C 
ATOM     19  N   UNL     1       1.491   3.607  -0.328  1.00  0.00    -0.329 N 
ATOM     20  C   UNL     1      -0.847   2.673  -0.764  1.00  0.00     0.186 C 
ATOM     21  C   UNL     1       1.771   4.954   0.166  1.00  0.00     0.262 C 
ATOM     22  C   UNL     1       0.278   3.637  -1.166  1.00  0.00     0.204 C 
ATOM     23  H   UNL     1       2.237   3.304  -0.954  1.00  0.00     0.348 HD
ATOM     24  C   UNL     1       1.113   5.857  -0.860  1.00  0.00     0.068 C 
ATOM     25  C   UNL     1      -0.160   5.100  -1.194  1.00  0.00     0.073 C 
ENDBRANCH  10  15
ENDBRANCH   7   9
ENDBRANCH   6   7
ENDBRANCH   5   6
ENDBRANCH   4   5
ENDBRANCH   3   4
ENDBRANCH   2   3
ENDBRANCH   1   2
BRANCH   1  26
ATOM     26  O   UNL     1       1.256  -4.600   2.255  1.00  0.00    -0.376 OA
BRANCH  26  27
ATOM     27  C   UNL     1       1.393  -5.065   3.587  1.00  0.00     0.202 C 
BRANCH  27  28
ATOM     28  C   UNL     1       0.447  -6.060   4.292  1.00  0.00     0.261 C 
BRANCH  28  29
ATOM     29  O   UNL     1      -0.814  -6.352   3.685  1.00  0.00    -0.460 OA
BRANCH  29  30
ATOM     30  C   UNL     1      -1.863  -5.593   4.071  1.00  0.00     0.338 C 
ATOM     31  O   UNL     1      -1.848  -4.646   4.850  1.00  0.00    -0.246 OA
BRANCH  30  32
ATOM     32  C   UNL     1      -3.017  -5.954   3.230  1.00  0.00     0.060 A 
ATOM     33  C   UNL     1      -3.523  -5.009   2.326  1.00  0.00     0.016 A 
ATOM     34  C   UNL     1      -3.597  -7.220   3.334  1.00  0.00     0.016 A 
ATOM     35  C   UNL     1      -4.625  -5.323   1.532  1.00  0.00     0.010 A 
ATOM     36  C   UNL     1      -4.717  -7.522   2.557  1.00  0.00     0.010 A 
ATOM     37  C   UNL     1      -5.252  -6.567   1.673  1.00  0.00    -0.014 A 
BRANCH  37  38
ATOM     38  C   UNL     1      -6.570  -6.807   1.044  1.00  0.00     0.031 A 
ATOM     39  C   UNL     1      -7.806  -6.619   1.879  1.00  0.00     0.074 A 
ATOM     40  C   UNL     1      -6.675  -7.184  -0.242  1.00  0.00     0.049 A 
ATOM     41  N   UNL     1      -9.058  -6.838   1.572  1.00  0.00    -0.248 NA
ATOM     42  C   UNL     1      -7.595  -6.118   3.247  1.00  0.00     0.031 C 
ATOM     43  C   UNL     1      -5.561  -7.346  -1.173  1.00  0.00     0.029 A 
ATOM     44  N   UNL     1      -7.785  -7.508  -0.981  1.00  0.00    -0.354 N 
ATOM     45  C   UNL     1      -9.783  -6.516   2.712  1.00  0.00     0.074 A 
ATOM     46  C   UNL     1      -8.830  -6.113   3.724  1.00  0.00     0.031 C 
ATOM     47  C   UNL     1      -6.045  -7.750  -2.361  1.00  0.00     0.029 A 
ATOM     48  C   UNL     1      -7.494  -7.913  -2.260  1.00  0.00     0.049 A 
ATOM     49  H   UNL     1      -8.703  -7.456  -0.627  1.00  0.00     0.167 HD
ATOM     50  C   UNL     1     -11.124  -6.549   2.901  1.00  0.00     0.031 A 
ATOM     51  C   UNL     1      -8.304  -8.385  -3.228  1.00  0.00     0.031 A 
ATOM     52  C   UNL     1     -12.069  -6.974   1.905  1.00  0.00     0.049 A 
ATOM     53  C   UNL     1      -9.781  -8.509  -2.962  1.00  0.00     0.074 A 
ATOM     54  C   UNL     1     -13.448  -7.037   1.996  1.00  0.00     0.029 A 
ATOM     55  N   UNL     1     -11.730  -7.422   0.637  1.00  0.00    -0.354 N 
ATOM     56  N   UNL     1     -10.461  -8.185  -1.889  1.00  0.00    -0.248 NA
ATOM     57  C   UNL     1     -10.604  -9.062  -4.049  1.00  0.00     0.031 C 
ATOM     58  C   UNL     1     -13.939  -7.584   0.805  1.00  0.00     0.029 A 
ATOM     59  C   UNL     1     -12.871  -7.795  -0.053  1.00  0.00     0.049 A 
ATOM     60  H   UNL     1     -10.813  -7.469   0.281  1.00  0.00     0.167 HD
ATOM     61  C   UNL     1     -11.792  -8.463  -2.182  1.00  0.00     0.074 A 
ATOM     62  C   UNL     1     -11.824  -8.973  -3.537  1.00  0.00     0.031 C 
ATOM     63  C   UNL     1     -12.889  -8.304  -1.401  1.00  0.00     0.031 A 
BRANCH  50  64
ATOM     64  C   UNL     1     -11.633  -6.161   4.262  1.00  0.00    -0.014 A 
ATOM     65  C   UNL     1     -11.566  -4.836   4.720  1.00  0.00     0.009 A 
ATOM     66  C   UNL     1     -12.194  -7.140   5.097  1.00  0.00     0.009 A 
ATOM     67  C   UNL     1     -12.009  -4.508   6.004  1.00  0.00     0.001 A 
ATOM     68  C   UNL     1     -12.666  -6.803   6.367  1.00  0.00     0.001 A 
ATOM     69  C   UNL     1     -12.561  -5.491   6.824  1.00  0.00     0.000 A 
ENDBRANCH  50  64
BRANCH  51  70
ATOM     70  C   UNL     1      -7.735  -8.794  -4.539  1.00  0.00    -0.014 A 
ATOM     71  C   UNL     1      -8.009  -8.054  -5.699  1.00  0.00     0.009 A 
ATOM     72  C   UNL     1      -6.924  -9.936  -4.639  1.00  0.00     0.009 A 
ATOM     73  C   UNL     1      -7.501  -8.461  -6.935  1.00  0.00     0.001 A 
ATOM     74  C   UNL     1      -6.393 -10.323  -5.872  1.00  0.00     0.001 A 
ATOM     75  C   UNL     1      -6.689  -9.591  -7.019  1.00  0.00     0.000 A 
ENDBRANCH  51  70
BRANCH  63  76
ATOM     76  C   UNL     1     -14.225  -8.644  -2.004  1.00  0.00    -0.014 A 
ATOM     77  C   UNL     1     -14.603  -9.973  -2.253  1.00  0.00     0.009 A 
ATOM     78  C   UNL     1     -15.140  -7.615  -2.282  1.00  0.00     0.009 A 
ATOM     79  C   UNL     1     -15.856 -10.260  -2.799  1.00  0.00     0.001 A 
ATOM     80  C   UNL     1     -16.404  -7.908  -2.797  1.00  0.00     0.001 A 
ATOM     81  C   UNL     1     -16.757  -9.229  -3.065  1.00  0.00     0.000 A 
ENDBRANCH  63  76
ENDBRANCH  37  38
ENDBRANCH  30  32
ENDBRANCH  29  30
ENDBRANCH  28  29
ENDBRANCH  27  28
ENDBRANCH  26  27
ENDBRANCH   1  26
TORSDOF 18
