REMARK SMILES COc1cccc([C@H]2[NH2+][C@@](CC(C)C)(C(=O)OCCOCCOCCOC(=O)c3ccc(-c4c5nc(c(-c6ccccc6)c6ccc([nH]6)c(-c6ccccc6)c6nc(c(-c7ccccc7)c7ccc4[nH]7)C=C6)C=C5)cc3)[C@H]3C(=O)N(C(C)C)C(=O)[C@H]23)c1O
REMARK SMILES IDX 21 1 20 2 19 3 18 4 17 5 15 6 16 7 10 8 8 9 9 10 86 11 77 14
REMARK SMILES IDX 84 15 78 16 80 17 85 18 79 19 7 20 3 21 4 22 87 23 5 24 6 25
REMARK SMILES IDX 2 26 1 27 88 28 11 30 12 31 13 32 14 33 81 34 82 35 83 36
REMARK SMILES IDX 22 37 23 38 24 39 25 40 26 41 27 42 28 43 29 44 30 45 76 46
REMARK SMILES IDX 31 47 75 48 32 49 33 50 34 51 69 52 35 53 74 54 68 55 70 56
REMARK SMILES IDX 36 57 73 58 67 59 66 60 37 62 59 63 44 64 58 65 45 66 48 67
REMARK SMILES IDX 57 68 71 69 46 70 47 71 56 73 72 74 49 75 38 76 39 77 43 78
REMARK SMILES IDX 40 79 42 80 41 81 60 82 61 83 65 84 62 85 64 86 63 87 50 88
REMARK SMILES IDX 51 89 55 90 52 91 54 92 53 93
REMARK H PARENT 9 12 9 13 88 29 70 61 48 72
REMARK Flexibility Score: inf
ROOT
ATOM      1  C   UNL     1       2.501  -8.750  -0.489  1.00  0.00     0.188 C 
ENDROOT
BRANCH   1   2
ATOM      2  O   UNL     1       3.164  -8.929  -1.735  1.00  0.00    -0.376 OA
BRANCH   2   3
ATOM      3  C   UNL     1       3.304  -7.791  -2.580  1.00  0.00     0.202 C 
BRANCH   3   4
ATOM      4  C   UNL     1       1.993  -7.255  -3.159  1.00  0.00     0.261 C 
BRANCH   4   5
ATOM      5  O   UNL     1       1.367  -6.270  -2.305  1.00  0.00    -0.459 OA
BRANCH   5   6
ATOM      6  C   UNL     1       0.144  -6.552  -1.772  1.00  0.00     0.369 C 
ATOM      7  O   UNL     1      -0.378  -7.660  -1.797  1.00  0.00    -0.245 OA
BRANCH   6   8
ATOM      8  C   UNL     1      -0.559  -5.277  -1.204  1.00  0.00     0.207 C 
ATOM      9  C   UNL     1      -1.239  -3.623  -2.937  1.00  0.00     0.232 C 
ATOM     10  N   UNL     1      -1.594  -4.892  -2.235  1.00  0.00    -0.324 N 
ATOM     11  C   UNL     1       0.240  -3.560  -2.655  1.00  0.00     0.161 C 
ATOM     12  H   UNL     1      -1.667  -5.641  -2.924  1.00  0.00     0.347 HD
ATOM     13  H   UNL     1      -2.482  -4.748  -1.752  1.00  0.00     0.347 HD
ATOM     14  C   UNL     1       0.235  -3.996  -1.185  1.00  0.00     0.171 C 
ATOM     15  C   UNL     1       1.100  -2.327  -2.536  1.00  0.00     0.240 C 
ATOM     16  C   UNL     1       1.659  -3.742  -0.822  1.00  0.00     0.240 C 
ATOM     17  N   UNL     1       2.032  -2.630  -1.548  1.00  0.00    -0.279 N 
ATOM     18  O   UNL     1       1.026  -1.323  -3.206  1.00  0.00    -0.274 OA
ATOM     19  O   UNL     1       2.290  -4.269   0.074  1.00  0.00    -0.274 OA
BRANCH   9  20
ATOM     20  C   UNL     1      -1.855  -3.731  -4.313  1.00  0.00     0.056 A 
ATOM     21  C   UNL     1      -1.857  -4.011  -6.730  1.00  0.00     0.161 A 
ATOM     22  C   UNL     1      -3.247  -4.135  -6.743  1.00  0.00     0.050 A 
ATOM     23  C   UNL     1      -1.167  -3.788  -5.525  1.00  0.00     0.166 A 
ATOM     24  C   UNL     1      -3.958  -4.042  -5.554  1.00  0.00     0.005 A 
ATOM     25  C   UNL     1      -3.269  -3.834  -4.361  1.00  0.00     0.014 A 
BRANCH  21  26
ATOM     26  O   UNL     1      -1.234  -4.013  -7.952  1.00  0.00    -0.493 OA
ATOM     27  C   UNL     1      -0.319  -5.097  -8.117  1.00  0.00     0.278 C 
ENDBRANCH  21  26
BRANCH  23  28
ATOM     28  O   UNL     1       0.182  -3.578  -5.546  1.00  0.00    -0.504 OA
ATOM     29  H   UNL     1       0.649  -3.615  -6.357  1.00  0.00     0.293 HD
ENDBRANCH  23  28
ENDBRANCH   9  20
BRANCH   8  30
ATOM     30  C   UNL     1      -1.416  -5.576   0.059  1.00  0.00     0.085 C 
BRANCH  30  31
ATOM     31  C   UNL     1      -0.818  -6.184   1.335  1.00  0.00    -0.011 C 
ATOM     32  C   UNL     1       0.180  -5.302   2.073  1.00  0.00     0.007 C 
ATOM     33  C   UNL     1      -1.968  -6.503   2.308  1.00  0.00     0.007 C 
ENDBRANCH  30  31
ENDBRANCH   8  30
BRANCH  17  34
ATOM     34  C   UNL     1       3.210  -1.844  -1.177  1.00  0.00     0.087 C 
ATOM     35  C   UNL     1       4.240  -1.785  -2.298  1.00  0.00     0.031 C 
ATOM     36  C   UNL     1       2.830  -0.454  -0.672  1.00  0.00     0.031 C 
ENDBRANCH  17  34
ENDBRANCH   6   8
ENDBRANCH   5   6
ENDBRANCH   4   5
ENDBRANCH   3   4
ENDBRANCH   2   3
ENDBRANCH   1   2
BRANCH   1  37
ATOM     37  C   UNL     1       2.756  -7.441   0.249  1.00  0.00     0.188 C 
BRANCH  37  38
ATOM     38  O   UNL     1       4.142  -7.132   0.330  1.00  0.00    -0.376 OA
BRANCH  38  39
ATOM     39  C   UNL     1       4.478  -6.498   1.565  1.00  0.00     0.202 C 
BRANCH  39  40
ATOM     40  C   UNL     1       4.901  -7.577   2.562  1.00  0.00     0.261 C 
BRANCH  40  41
ATOM     41  O   UNL     1       3.829  -8.509   2.832  1.00  0.00    -0.460 OA
BRANCH  41  42
ATOM     42  C   UNL     1       3.027  -8.202   3.873  1.00  0.00     0.338 C 
ATOM     43  O   UNL     1       3.128  -7.253   4.630  1.00  0.00    -0.246 OA
BRANCH  42  44
ATOM     44  C   UNL     1       1.919  -9.174   3.943  1.00  0.00     0.060 A 
ATOM     45  C   UNL     1       0.801  -8.992   3.131  1.00  0.00     0.016 A 
ATOM     46  C   UNL     1       1.914 -10.172   4.911  1.00  0.00     0.016 A 
ATOM     47  C   UNL     1      -0.351  -9.757   3.314  1.00  0.00     0.010 A 
ATOM     48  C   UNL     1       0.774 -10.974   5.066  1.00  0.00     0.010 A 
ATOM     49  C   UNL     1      -0.386 -10.750   4.296  1.00  0.00    -0.014 A 
BRANCH  49  50
ATOM     50  C   UNL     1      -1.653 -11.466   4.619  1.00  0.00     0.031 A 
ATOM     51  C   UNL     1      -2.215 -11.358   6.013  1.00  0.00     0.074 A 
ATOM     52  C   UNL     1      -2.327 -12.188   3.702  1.00  0.00     0.049 A 
ATOM     53  N   UNL     1      -3.097 -12.112   6.617  1.00  0.00    -0.248 NA
ATOM     54  C   UNL     1      -1.697 -10.255   6.840  1.00  0.00     0.031 C 
ATOM     55  C   UNL     1      -1.996 -12.292   2.281  1.00  0.00     0.029 A 
ATOM     56  N   UNL     1      -3.442 -12.982   3.842  1.00  0.00    -0.354 N 
ATOM     57  C   UNL     1      -3.174 -11.630   7.919  1.00  0.00     0.074 A 
ATOM     58  C   UNL     1      -2.267 -10.506   8.010  1.00  0.00     0.031 C 
ATOM     59  C   UNL     1      -2.893 -13.090   1.679  1.00  0.00     0.029 A 
ATOM     60  C   UNL     1      -3.796 -13.636   2.687  1.00  0.00     0.049 A 
ATOM     61  H   UNL     1      -3.937 -13.072   4.688  1.00  0.00     0.167 HD
ATOM     62  C   UNL     1      -3.920 -12.098   8.948  1.00  0.00     0.031 A 
ATOM     63  C   UNL     1      -4.695 -14.617   2.473  1.00  0.00     0.031 A 
ATOM     64  C   UNL     1      -4.858 -13.183   8.834  1.00  0.00     0.049 A 
ATOM     65  C   UNL     1      -5.468 -15.172   3.637  1.00  0.00     0.074 A 
ATOM     66  C   UNL     1      -5.650 -13.751   9.817  1.00  0.00     0.029 A 
ATOM     67  N   UNL     1      -5.148 -13.847   7.652  1.00  0.00    -0.354 N 
ATOM     68  N   UNL     1      -5.445 -14.804   4.895  1.00  0.00    -0.248 NA
ATOM     69  C   UNL     1      -6.367 -16.301   3.356  1.00  0.00     0.031 C 
ATOM     70  C   UNL     1      -6.393 -14.785   9.236  1.00  0.00     0.029 A 
ATOM     71  C   UNL     1      -6.100 -14.825   7.882  1.00  0.00     0.049 A 
ATOM     72  H   UNL     1      -4.738 -13.652   6.779  1.00  0.00     0.167 HD
ATOM     73  C   UNL     1      -6.330 -15.648   5.554  1.00  0.00     0.074 A 
ATOM     74  C   UNL     1      -6.891 -16.532   4.552  1.00  0.00     0.031 C 
ATOM     75  C   UNL     1      -6.644 -15.694   6.871  1.00  0.00     0.031 A 
BRANCH  62  76
ATOM     76  C   UNL     1      -3.694 -11.485  10.302  1.00  0.00    -0.014 A 
ATOM     77  C   UNL     1      -4.140 -10.194  10.618  1.00  0.00     0.009 A 
ATOM     78  C   UNL     1      -3.026 -12.232  11.286  1.00  0.00     0.009 A 
ATOM     79  C   UNL     1      -3.889  -9.650  11.881  1.00  0.00     0.001 A 
ATOM     80  C   UNL     1      -2.802 -11.698  12.556  1.00  0.00     0.001 A 
ATOM     81  C   UNL     1      -3.224 -10.403  12.849  1.00  0.00     0.000 A 
ENDBRANCH  62  76
BRANCH  63  82
ATOM     82  C   UNL     1      -4.844 -15.205   1.114  1.00  0.00    -0.014 A 
ATOM     83  C   UNL     1      -6.023 -15.021   0.376  1.00  0.00     0.009 A 
ATOM     84  C   UNL     1      -3.802 -15.957   0.546  1.00  0.00     0.009 A 
ATOM     85  C   UNL     1      -6.157 -15.585  -0.896  1.00  0.00     0.001 A 
ATOM     86  C   UNL     1      -3.925 -16.491  -0.737  1.00  0.00     0.001 A 
ATOM     87  C   UNL     1      -5.106 -16.311  -1.455  1.00  0.00     0.000 A 
ENDBRANCH  63  82
BRANCH  75  88
ATOM     88  C   UNL     1      -7.666 -16.709   7.295  1.00  0.00    -0.014 A 
ATOM     89  C   UNL     1      -7.345 -18.073   7.380  1.00  0.00     0.009 A 
ATOM     90  C   UNL     1      -8.958 -16.289   7.646  1.00  0.00     0.009 A 
ATOM     91  C   UNL     1      -8.309 -19.000   7.781  1.00  0.00     0.001 A 
ATOM     92  C   UNL     1      -9.912 -17.215   8.070  1.00  0.00     0.001 A 
ATOM     93  C   UNL     1      -9.590 -18.569   8.129  1.00  0.00     0.000 A 
ENDBRANCH  75  88
ENDBRANCH  49  50
ENDBRANCH  42  44
ENDBRANCH  41  42
ENDBRANCH  40  41
ENDBRANCH  39  40
ENDBRANCH  38  39
ENDBRANCH  37  38
ENDBRANCH   1  37
TORSDOF 23
