REMARK SMILES COc1cccc(-c2nn(-c3cc4c(cc3C(N)=O)OCO4)cc2C(=O)OCCOCCOCCOC(=O)c2ccc(-c3c4nc(c(-c5ccccc5)c5ccc([nH]5)c(-c5ccccc5)c5nc(c(-c6ccccc6)c6ccc3[nH]6)C=C5)C=C4)cc2)c1
REMARK SMILES IDX 31 1 30 2 29 3 28 4 27 5 25 6 26 7 24 8 8 9 9 10 10 11 23 12
REMARK SMILES IDX 7 13 3 14 4 15 87 16 5 17 6 18 2 19 1 20 11 21 12 22 16 23
REMARK SMILES IDX 13 24 15 25 14 26 22 27 20 28 21 29 17 30 18 31 19 32 32 35
REMARK SMILES IDX 33 36 34 37 35 38 36 39 37 40 38 41 39 42 40 43 86 44 41 45
REMARK SMILES IDX 85 46 42 47 43 48 44 49 79 50 45 51 84 52 78 53 80 54 46 55
REMARK SMILES IDX 83 56 77 57 76 58 47 60 69 61 54 62 68 63 55 64 58 65 67 66
REMARK SMILES IDX 81 67 56 68 57 69 66 71 82 72 59 73 48 74 49 75 53 76 50 77
REMARK SMILES IDX 52 78 51 79 70 80 71 81 75 82 72 83 74 84 73 85 60 86 61 87
REMARK SMILES IDX 65 88 62 89 64 90 63 91
REMARK H PARENT 18 33 18 34 80 59 58 70
REMARK Flexibility Score: inf
ROOT
ATOM      1  C   UNL     1       2.314   3.909  -6.081  1.00  0.00     0.188 C 
ENDROOT
BRANCH   1   2
ATOM      2  O   UNL     1       2.189   5.304  -6.218  1.00  0.00    -0.376 OA
BRANCH   2   3
ATOM      3  C   UNL     1       2.514   6.128  -5.111  1.00  0.00     0.202 C 
BRANCH   3   4
ATOM      4  C   UNL     1       3.710   5.864  -4.169  1.00  0.00     0.261 C 
BRANCH   4   5
ATOM      5  O   UNL     1       4.401   4.620  -4.284  1.00  0.00    -0.460 OA
BRANCH   5   6
ATOM      6  C   UNL     1       4.029   3.615  -3.432  1.00  0.00     0.342 C 
ATOM      7  O   UNL     1       3.139   3.712  -2.604  1.00  0.00    -0.246 OA
BRANCH   6   8
ATOM      8  C   UNL     1       4.739   2.385  -3.720  1.00  0.00     0.106 A 
ATOM      9  C   UNL     1       4.265   1.041  -3.736  1.00  0.00     0.107 A 
ATOM     10  N   UNL     1       5.257   0.176  -4.022  1.00  0.00    -0.167 NA
ATOM     11  N   UNL     1       6.370   0.954  -3.989  1.00  0.00    -0.239 N 
ATOM     12  C   UNL     1       6.043   2.276  -4.154  1.00  0.00     0.131 A 
BRANCH   9  13
ATOM     13  C   UNL     1       2.885   0.605  -3.578  1.00  0.00     0.007 A 
ATOM     14  C   UNL     1       1.065  -0.092  -2.146  1.00  0.00     0.119 A 
ATOM     15  C   UNL     1       0.196  -0.052  -3.240  1.00  0.00     0.046 A 
ATOM     16  C   UNL     1       2.412   0.232  -2.317  1.00  0.00     0.056 A 
ATOM     17  C   UNL     1       0.664   0.306  -4.503  1.00  0.00     0.005 A 
ATOM     18  C   UNL     1       2.012   0.618  -4.675  1.00  0.00     0.011 A 
BRANCH  14  19
ATOM     19  O   UNL     1       0.503  -0.508  -0.970  1.00  0.00    -0.497 OA
ATOM     20  C   UNL     1       1.061   0.067   0.206  1.00  0.00     0.278 C 
ENDBRANCH  14  19
ENDBRANCH   9  13
BRANCH  11  21
ATOM     21  C   UNL     1       7.674   0.417  -3.849  1.00  0.00     0.081 A 
ATOM     22  C   UNL     1       7.939  -0.842  -4.426  1.00  0.00     0.079 A 
ATOM     23  C   UNL     1       8.695   1.126  -3.142  1.00  0.00     0.069 A 
ATOM     24  C   UNL     1       9.230  -1.318  -4.348  1.00  0.00     0.167 A 
ATOM     25  C   UNL     1      10.016   0.654  -3.207  1.00  0.00     0.066 A 
ATOM     26  C   UNL     1      10.239  -0.574  -3.787  1.00  0.00     0.166 A 
ATOM     27  O   UNL     1       9.676  -2.532  -4.772  1.00  0.00    -0.454 OA
ATOM     28  O   UNL     1      11.437  -1.220  -3.796  1.00  0.00    -0.454 OA
ATOM     29  C   UNL     1      11.012  -2.530  -4.223  1.00  0.00     0.468 C 
BRANCH  23  30
ATOM     30  C   UNL     1       8.368   2.185  -2.115  1.00  0.00     0.251 C 
ATOM     31  N   UNL     1       9.376   2.721  -1.364  1.00  0.00    -0.366 N 
ATOM     32  O   UNL     1       7.231   2.537  -1.832  1.00  0.00    -0.269 OA
ATOM     33  H   UNL     1      10.311   2.474  -1.546  1.00  0.00     0.159 HD
ATOM     34  H   UNL     1       9.166   3.354  -0.639  1.00  0.00     0.159 HD
ENDBRANCH  23  30
ENDBRANCH  11  21
ENDBRANCH   6   8
ENDBRANCH   5   6
ENDBRANCH   4   5
ENDBRANCH   3   4
ENDBRANCH   2   3
ENDBRANCH   1   2
BRANCH   1  35
ATOM     35  C   UNL     1       3.569   3.327  -6.771  1.00  0.00     0.188 C 
BRANCH  35  36
ATOM     36  O   UNL     1       4.585   4.152  -7.330  1.00  0.00    -0.376 OA
BRANCH  36  37
ATOM     37  C   UNL     1       4.281   5.346  -8.034  1.00  0.00     0.202 C 
BRANCH  37  38
ATOM     38  C   UNL     1       3.298   5.332  -9.201  1.00  0.00     0.261 C 
BRANCH  38  39
ATOM     39  O   UNL     1       2.213   4.446  -9.023  1.00  0.00    -0.460 OA
BRANCH  39  40
ATOM     40  C   UNL     1       2.424   3.208  -9.502  1.00  0.00     0.338 C 
ATOM     41  O   UNL     1       3.455   2.760  -9.995  1.00  0.00    -0.246 OA
BRANCH  40  42
ATOM     42  C   UNL     1       1.162   2.469  -9.430  1.00  0.00     0.060 A 
ATOM     43  C   UNL     1       1.193   1.165  -9.924  1.00  0.00     0.016 A 
ATOM     44  C   UNL     1      -0.025   3.207  -9.314  1.00  0.00     0.016 A 
ATOM     45  C   UNL     1       0.105   0.742 -10.640  1.00  0.00     0.010 A 
ATOM     46  C   UNL     1      -1.095   2.802 -10.060  1.00  0.00     0.010 A 
ATOM     47  C   UNL     1      -0.957   1.636 -10.805  1.00  0.00    -0.014 A 
BRANCH  47  48
ATOM     48  C   UNL     1      -1.964   1.310 -11.778  1.00  0.00     0.031 A 
ATOM     49  C   UNL     1      -2.965   0.374 -11.248  1.00  0.00     0.074 A 
ATOM     50  C   UNL     1      -2.004   1.889 -12.991  1.00  0.00     0.049 A 
ATOM     51  N   UNL     1      -3.082  -0.880 -11.524  1.00  0.00    -0.248 NA
ATOM     52  C   UNL     1      -3.791   0.836 -10.122  1.00  0.00     0.031 C 
ATOM     53  C   UNL     1      -1.245   3.039 -13.490  1.00  0.00     0.029 A 
ATOM     54  N   UNL     1      -2.850   1.617 -14.014  1.00  0.00    -0.354 N 
ATOM     55  C   UNL     1      -4.146  -1.318 -10.751  1.00  0.00     0.074 A 
ATOM     56  C   UNL     1      -4.370  -0.305  -9.752  1.00  0.00     0.031 C 
ATOM     57  C   UNL     1      -1.846   3.510 -14.609  1.00  0.00     0.029 A 
ATOM     58  C   UNL     1      -2.940   2.619 -14.966  1.00  0.00     0.049 A 
ATOM     59  H   UNL     1      -3.359   0.776 -14.075  1.00  0.00     0.167 HD
ATOM     60  C   UNL     1      -4.965  -2.311 -11.187  1.00  0.00     0.031 A 
ATOM     61  C   UNL     1      -3.915   2.734 -15.902  1.00  0.00     0.031 A 
ATOM     62  C   UNL     1      -4.366  -3.063 -12.261  1.00  0.00     0.049 A 
ATOM     63  C   UNL     1      -4.574   1.406 -16.022  1.00  0.00     0.074 A 
ATOM     64  C   UNL     1      -3.203  -3.797 -12.400  1.00  0.00     0.029 A 
ATOM     65  N   UNL     1      -4.786  -2.777 -13.540  1.00  0.00    -0.354 N 
ATOM     66  N   UNL     1      -3.978   0.352 -16.504  1.00  0.00    -0.248 NA
ATOM     67  C   UNL     1      -5.716   1.134 -15.158  1.00  0.00     0.031 C 
ATOM     68  C   UNL     1      -2.737  -3.503 -13.715  1.00  0.00     0.029 A 
ATOM     69  C   UNL     1      -3.670  -2.666 -14.329  1.00  0.00     0.049 A 
ATOM     70  H   UNL     1      -5.719  -2.671 -13.835  1.00  0.00     0.167 HD
ATOM     71  C   UNL     1      -4.374  -0.691 -15.676  1.00  0.00     0.074 A 
ATOM     72  C   UNL     1      -5.511  -0.166 -14.920  1.00  0.00     0.031 C 
ATOM     73  C   UNL     1      -3.566  -1.772 -15.462  1.00  0.00     0.031 A 
BRANCH  60  74
ATOM     74  C   UNL     1      -6.454  -2.279 -10.954  1.00  0.00    -0.014 A 
ATOM     75  C   UNL     1      -7.224  -3.358 -11.412  1.00  0.00     0.009 A 
ATOM     76  C   UNL     1      -7.157  -1.122 -10.559  1.00  0.00     0.009 A 
ATOM     77  C   UNL     1      -8.613  -3.252 -11.541  1.00  0.00     0.001 A 
ATOM     78  C   UNL     1      -8.546  -1.028 -10.642  1.00  0.00     0.001 A 
ATOM     79  C   UNL     1      -9.272  -2.085 -11.163  1.00  0.00     0.000 A 
ENDBRANCH  60  74
BRANCH  61  80
ATOM     80  C   UNL     1      -4.540   3.977 -16.413  1.00  0.00    -0.014 A 
ATOM     81  C   UNL     1      -5.351   3.960 -17.559  1.00  0.00     0.009 A 
ATOM     82  C   UNL     1      -4.559   5.140 -15.620  1.00  0.00     0.009 A 
ATOM     83  C   UNL     1      -6.171   5.053 -17.879  1.00  0.00     0.001 A 
ATOM     84  C   UNL     1      -5.374   6.231 -15.941  1.00  0.00     0.001 A 
ATOM     85  C   UNL     1      -6.191   6.182 -17.064  1.00  0.00     0.000 A 
ENDBRANCH  61  80
BRANCH  73  86
ATOM     86  C   UNL     1      -2.323  -1.911 -16.309  1.00  0.00    -0.014 A 
ATOM     87  C   UNL     1      -1.276  -0.971 -16.297  1.00  0.00     0.009 A 
ATOM     88  C   UNL     1      -2.128  -3.111 -17.006  1.00  0.00     0.009 A 
ATOM     89  C   UNL     1      -0.081  -1.220 -16.983  1.00  0.00     0.001 A 
ATOM     90  C   UNL     1      -0.929  -3.368 -17.674  1.00  0.00     0.001 A 
ATOM     91  C   UNL     1       0.093  -2.421 -17.666  1.00  0.00     0.000 A 
ENDBRANCH  73  86
ENDBRANCH  47  48
ENDBRANCH  40  42
ENDBRANCH  39  40
ENDBRANCH  38  39
ENDBRANCH  37  38
ENDBRANCH  36  37
ENDBRANCH  35  36
ENDBRANCH   1  35
TORSDOF 21
