REMARK SMILES CC1(C)[C@H](C#N)C(SCC(=O)OCCOCCOCCOC(=O)c2ccc(-c3c4nc(c(-c5ccccc5)c5ccc([nH]5)c(-c5ccccc5)c5nc(c(-c6ccccc6)c6ccc3[nH]6)C=C5)C=C4)cc2)=NC(=O)[C@@H]1C#N
REMARK SMILES IDX 16 1 15 2 14 3 13 4 12 5 10 6 11 7 9 8 8 9 7 10 1 11 2 12
REMARK SMILES IDX 3 13 4 14 75 15 73 16 72 17 74 18 5 19 6 20 76 21 77 22
REMARK SMILES IDX 17 23 18 24 19 25 20 26 21 27 22 28 23 29 24 30 25 31 71 32
REMARK SMILES IDX 26 33 70 34 27 35 28 36 29 37 64 38 30 39 69 40 63 41 65 42
REMARK SMILES IDX 31 43 68 44 62 45 61 46 32 48 54 49 39 50 53 51 40 52 43 53
REMARK SMILES IDX 52 54 66 55 41 56 42 57 51 59 67 60 44 61 33 62 34 63 38 64
REMARK SMILES IDX 35 65 37 66 36 67 55 68 56 69 60 70 57 71 59 72 58 73 45 74
REMARK SMILES IDX 46 75 50 76 47 77 49 78 48 79
REMARK H PARENT 65 47 43 58
REMARK Flexibility Score: inf
ROOT
ATOM      1  C   UNL     1       5.379  -1.264  -4.132  1.00  0.00     0.188 C 
ENDROOT
BRANCH   1   2
ATOM      2  O   UNL     1       6.773  -1.246  -3.934  1.00  0.00    -0.376 OA
BRANCH   2   3
ATOM      3  C   UNL     1       7.383   0.009  -3.656  1.00  0.00     0.202 C 
BRANCH   3   4
ATOM      4  C   UNL     1       6.982   1.244  -4.494  1.00  0.00     0.261 C 
BRANCH   4   5
ATOM      5  O   UNL     1       5.579   1.609  -4.401  1.00  0.00    -0.463 OA
BRANCH   5   6
ATOM      6  C   UNL     1       4.893   1.805  -5.563  1.00  0.00     0.316 C 
ATOM      7  O   UNL     1       5.441   1.839  -6.662  1.00  0.00    -0.251 OA
BRANCH   6   8
ATOM      8  C   UNL     1       3.358   1.831  -5.447  1.00  0.00     0.198 C 
BRANCH   8   9
ATOM      9  S   UNL     1       2.652   2.167  -3.812  1.00  0.00    -0.097 SA
BRANCH   9  10
ATOM     10  C   UNL     1       1.640   0.759  -3.330  1.00  0.00     0.095 C 
ATOM     11  C   UNL     1       1.138  -0.462   0.100  1.00  0.00     0.015 C 
ATOM     12  C   UNL     1       0.311  -0.194  -1.169  1.00  0.00     0.012 C 
ATOM     13  C   UNL     1      -1.112   0.205  -0.556  1.00  0.00     0.015 C 
ATOM     14  C   UNL     1       1.005   0.952  -1.982  1.00  0.00     0.156 C 
ATOM     15  C   UNL     1       0.180  -1.401  -2.130  1.00  0.00     0.191 C 
ATOM     16  C   UNL     1       0.186  -0.994  -3.627  1.00  0.00     0.264 C 
ATOM     17  N   UNL     1       1.265  -0.212  -4.099  1.00  0.00    -0.209 NA
ATOM     18  O   UNL     1      -0.690  -1.371  -4.396  1.00  0.00    -0.271 OA
BRANCH  14  19
ATOM     19  C   UNL     1      -0.256   1.599  -2.532  1.00  0.00     0.073 C 
ATOM     20  N   UNL     1      -1.302   2.135  -2.988  1.00  0.00    -0.198 NA
ENDBRANCH  14  19
BRANCH  15  21
ATOM     21  C   UNL     1      -0.956  -2.275  -1.806  1.00  0.00     0.076 C 
ATOM     22  N   UNL     1      -1.850  -2.947  -1.469  1.00  0.00    -0.197 NA
ENDBRANCH  15  21
ENDBRANCH   9  10
ENDBRANCH   8   9
ENDBRANCH   6   8
ENDBRANCH   5   6
ENDBRANCH   4   5
ENDBRANCH   3   4
ENDBRANCH   2   3
ENDBRANCH   1   2
BRANCH   1  23
ATOM     23  C   UNL     1       4.490  -0.567  -3.094  1.00  0.00     0.188 C 
BRANCH  23  24
ATOM     24  O   UNL     1       5.050   0.139  -2.025  1.00  0.00    -0.376 OA
BRANCH  24  25
ATOM     25  C   UNL     1       5.322  -0.567  -0.831  1.00  0.00     0.202 C 
BRANCH  25  26
ATOM     26  C   UNL     1       5.075  -2.084  -0.666  1.00  0.00     0.261 C 
BRANCH  26  27
ATOM     27  O   UNL     1       4.573  -2.818  -1.808  1.00  0.00    -0.460 OA
BRANCH  27  28
ATOM     28  C   UNL     1       3.290  -3.236  -1.715  1.00  0.00     0.338 C 
ATOM     29  O   UNL     1       2.571  -3.079  -0.738  1.00  0.00    -0.246 OA
BRANCH  28  30
ATOM     30  C   UNL     1       2.713  -3.816  -2.965  1.00  0.00     0.060 A 
ATOM     31  C   UNL     1       2.448  -3.064  -4.119  1.00  0.00     0.016 A 
ATOM     32  C   UNL     1       2.082  -5.046  -2.830  1.00  0.00     0.016 A 
ATOM     33  C   UNL     1       1.508  -3.486  -5.066  1.00  0.00     0.010 A 
ATOM     34  C   UNL     1       1.209  -5.509  -3.823  1.00  0.00     0.010 A 
ATOM     35  C   UNL     1       0.887  -4.724  -4.942  1.00  0.00    -0.014 A 
BRANCH  35  36
ATOM     36  C   UNL     1      -0.079  -5.226  -5.956  1.00  0.00     0.031 A 
ATOM     37  C   UNL     1      -1.446  -5.692  -5.535  1.00  0.00     0.074 A 
ATOM     38  C   UNL     1       0.297  -5.355  -7.243  1.00  0.00     0.049 A 
ATOM     39  N   UNL     1      -2.265  -6.518  -6.133  1.00  0.00    -0.248 NA
ATOM     40  C   UNL     1      -1.950  -5.165  -4.261  1.00  0.00     0.031 C 
ATOM     41  C   UNL     1       1.531  -4.835  -7.837  1.00  0.00     0.029 A 
ATOM     42  N   UNL     1      -0.313  -6.019  -8.279  1.00  0.00    -0.354 N 
ATOM     43  C   UNL     1      -3.356  -6.652  -5.279  1.00  0.00     0.074 A 
ATOM     44  C   UNL     1      -3.096  -5.818  -4.126  1.00  0.00     0.031 C 
ATOM     45  C   UNL     1       1.603  -5.225  -9.116  1.00  0.00     0.029 A 
ATOM     46  C   UNL     1       0.484  -6.113  -9.395  1.00  0.00     0.049 A 
ATOM     47  H   UNL     1      -1.224  -6.389  -8.228  1.00  0.00     0.167 HD
ATOM     48  C   UNL     1      -4.459  -7.422  -5.442  1.00  0.00     0.031 A 
ATOM     49  C   UNL     1       0.387  -6.898 -10.484  1.00  0.00     0.031 A 
ATOM     50  C   UNL     1      -4.694  -8.238  -6.606  1.00  0.00     0.049 A 
ATOM     51  C   UNL     1      -0.763  -7.854 -10.589  1.00  0.00     0.074 A 
ATOM     52  C   UNL     1      -5.768  -9.066  -6.880  1.00  0.00     0.029 A 
ATOM     53  N   UNL     1      -3.836  -8.323  -7.694  1.00  0.00    -0.354 N 
ATOM     54  N   UNL     1      -1.752  -8.050  -9.751  1.00  0.00    -0.248 NA
ATOM     55  C   UNL     1      -0.809  -8.703 -11.787  1.00  0.00     0.031 C 
ATOM     56  C   UNL     1      -5.522  -9.712  -8.094  1.00  0.00     0.029 A 
ATOM     57  C   UNL     1      -4.340  -9.216  -8.622  1.00  0.00     0.049 A 
ATOM     58  H   UNL     1      -2.994  -7.822  -7.790  1.00  0.00     0.167 HD
ATOM     59  C   UNL     1      -2.564  -9.008 -10.342  1.00  0.00     0.074 A 
ATOM     60  C   UNL     1      -1.948  -9.357 -11.606  1.00  0.00     0.031 C 
ATOM     61  C   UNL     1      -3.722  -9.541  -9.882  1.00  0.00     0.031 A 
BRANCH  48  62
ATOM     62  C   UNL     1      -5.457  -7.486  -4.315  1.00  0.00    -0.014 A 
ATOM     63  C   UNL     1      -6.266  -6.394  -3.968  1.00  0.00     0.009 A 
ATOM     64  C   UNL     1      -5.625  -8.696  -3.618  1.00  0.00     0.009 A 
ATOM     65  C   UNL     1      -7.196  -6.503  -2.929  1.00  0.00     0.001 A 
ATOM     66  C   UNL     1      -6.578  -8.812  -2.605  1.00  0.00     0.001 A 
ATOM     67  C   UNL     1      -7.356  -7.712  -2.254  1.00  0.00     0.000 A 
ENDBRANCH  48  62
BRANCH  49  68
ATOM     68  C   UNL     1       1.456  -6.857 -11.518  1.00  0.00    -0.014 A 
ATOM     69  C   UNL     1       1.188  -6.357 -12.799  1.00  0.00     0.009 A 
ATOM     70  C   UNL     1       2.758  -7.295 -11.220  1.00  0.00     0.009 A 
ATOM     71  C   UNL     1       2.196  -6.313 -13.766  1.00  0.00     0.001 A 
ATOM     72  C   UNL     1       3.773  -7.213 -12.175  1.00  0.00     0.001 A 
ATOM     73  C   UNL     1       3.488  -6.732 -13.450  1.00  0.00     0.000 A 
ENDBRANCH  49  68
BRANCH  61  74
ATOM     74  C   UNL     1      -4.449 -10.496 -10.785  1.00  0.00    -0.014 A 
ATOM     75  C   UNL     1      -3.977 -11.795 -11.024  1.00  0.00     0.009 A 
ATOM     76  C   UNL     1      -5.671 -10.099 -11.353  1.00  0.00     0.009 A 
ATOM     77  C   UNL     1      -4.705 -12.669 -11.835  1.00  0.00     0.001 A 
ATOM     78  C   UNL     1      -6.413 -10.986 -12.133  1.00  0.00     0.001 A 
ATOM     79  C   UNL     1      -5.925 -12.267 -12.380  1.00  0.00     0.000 A 
ENDBRANCH  61  74
ENDBRANCH  35  36
ENDBRANCH  28  30
ENDBRANCH  27  28
ENDBRANCH  26  27
ENDBRANCH  25  26
ENDBRANCH  24  25
ENDBRANCH  23  24
ENDBRANCH   1  23
TORSDOF 21
