REMARK SMILES CC(C)(C)OC(=O)N1CCC[C@@](CC2CCC2)(C(=O)OCCOCCOCCOC(=O)c2ccc(-c3c4nc(c(-c5ccccc5)c5ccc([nH]5)c(-c5ccccc5)c5nc(c(-c6ccccc6)c6ccc3[nH]6)C=C5)C=C4)cc2)C1
REMARK SMILES IDX 24 1 23 2 22 3 21 4 20 5 18 6 19 7 12 8 8 9 9 10 80 11 10 12
REMARK SMILES IDX 11 13 6 14 7 15 5 16 2 17 1 18 3 19 4 20 13 21 14 22 15 23
REMARK SMILES IDX 17 24 16 25 25 26 26 27 27 28 28 29 29 30 30 31 31 32 32 33
REMARK SMILES IDX 33 34 79 35 34 36 78 37 35 38 36 39 37 40 72 41 38 42 77 43
REMARK SMILES IDX 71 44 73 45 39 46 76 47 70 48 69 49 40 51 62 52 47 53 61 54
REMARK SMILES IDX 48 55 51 56 60 57 74 58 49 59 50 60 59 62 75 63 52 64 41 65
REMARK SMILES IDX 42 66 46 67 43 68 45 69 44 70 63 71 64 72 68 73 65 74 67 75
REMARK SMILES IDX 66 76 53 77 54 78 58 79 55 80 57 81 56 82
REMARK H PARENT 73 50 51 61
REMARK Flexibility Score: inf
ROOT
ATOM      1  C   UNL     1       5.422   6.128   2.076  1.00  0.00     0.188 C 
ENDROOT
BRANCH   1   2
ATOM      2  O   UNL     1       6.816   6.343   1.925  1.00  0.00    -0.376 OA
BRANCH   2   3
ATOM      3  C   UNL     1       7.218   7.214   0.868  1.00  0.00     0.202 C 
BRANCH   3   4
ATOM      4  C   UNL     1       6.609   6.982  -0.526  1.00  0.00     0.261 C 
BRANCH   4   5
ATOM      5  O   UNL     1       5.162   7.112  -0.633  1.00  0.00    -0.463 OA
BRANCH   5   6
ATOM      6  C   UNL     1       4.498   5.985  -0.991  1.00  0.00     0.313 C 
ATOM      7  O   UNL     1       5.055   4.895  -1.117  1.00  0.00    -0.252 OA
BRANCH   6   8
ATOM      8  C   UNL     1       3.007   6.152  -1.321  1.00  0.00     0.086 C 
ATOM      9  N   UNL     1       0.920   4.780  -0.824  1.00  0.00    -0.307 N 
ATOM     10  C   UNL     1       0.134   5.927  -0.416  1.00  0.00     0.123 C 
ATOM     11  C   UNL     1       2.372   4.857  -0.681  1.00  0.00     0.141 C 
ATOM     12  C   UNL     1       0.679   7.207  -1.014  1.00  0.00     0.023 C 
ATOM     13  C   UNL     1       2.187   7.332  -0.731  1.00  0.00     0.022 C 
BRANCH   9  14
ATOM     14  C   UNL     1       0.256   3.623  -1.178  1.00  0.00     0.410 C 
ATOM     15  O   UNL     1      -0.838   3.637  -1.733  1.00  0.00    -0.224 OA
BRANCH  14  16
ATOM     16  O   UNL     1       0.914   2.505  -0.778  1.00  0.00    -0.444 OA
BRANCH  16  17
ATOM     17  C   UNL     1       0.401   1.179  -1.082  1.00  0.00     0.106 C 
ATOM     18  C   UNL     1       1.084   0.225  -0.087  1.00  0.00     0.056 C 
ATOM     19  C   UNL     1       0.840   0.833  -2.505  1.00  0.00     0.056 C 
ATOM     20  C   UNL     1      -1.117   1.014  -0.901  1.00  0.00     0.056 C 
ENDBRANCH  16  17
ENDBRANCH  14  16
ENDBRANCH   9  14
BRANCH   8  21
ATOM     21  C   UNL     1       2.946   6.124  -2.877  1.00  0.00     0.024 C 
BRANCH  21  22
ATOM     22  C   UNL     1       3.632   7.290  -3.635  1.00  0.00    -0.010 C 
ATOM     23  C   UNL     1       3.832   8.744  -3.109  1.00  0.00     0.003 C 
ATOM     24  C   UNL     1       5.164   7.258  -3.900  1.00  0.00     0.003 C 
ATOM     25  C   UNL     1       5.177   8.797  -3.838  1.00  0.00     0.001 C 
ENDBRANCH  21  22
ENDBRANCH   8  21
ENDBRANCH   6   8
ENDBRANCH   5   6
ENDBRANCH   4   5
ENDBRANCH   3   4
ENDBRANCH   2   3
ENDBRANCH   1   2
BRANCH   1  26
ATOM     26  C   UNL     1       4.565   7.378   2.286  1.00  0.00     0.188 C 
BRANCH  26  27
ATOM     27  O   UNL     1       5.046   8.551   1.664  1.00  0.00    -0.376 OA
BRANCH  27  28
ATOM     28  C   UNL     1       4.852   9.819   2.280  1.00  0.00     0.202 C 
BRANCH  28  29
ATOM     29  C   UNL     1       5.139   9.980   3.791  1.00  0.00     0.261 C 
BRANCH  29  30
ATOM     30  O   UNL     1       4.450   9.091   4.694  1.00  0.00    -0.460 OA
BRANCH  30  31
ATOM     31  C   UNL     1       3.108   8.971   4.556  1.00  0.00     0.338 C 
ATOM     32  O   UNL     1       2.373   9.741   3.963  1.00  0.00    -0.246 OA
BRANCH  31  33
ATOM     33  C   UNL     1       2.708   7.595   4.984  1.00  0.00     0.060 A 
ATOM     34  C   UNL     1       1.737   6.930   4.218  1.00  0.00     0.016 A 
ATOM     35  C   UNL     1       3.333   6.918   6.038  1.00  0.00     0.016 A 
ATOM     36  C   UNL     1       1.321   5.638   4.558  1.00  0.00     0.010 A 
ATOM     37  C   UNL     1       2.910   5.626   6.387  1.00  0.00     0.010 A 
ATOM     38  C   UNL     1       1.855   5.009   5.689  1.00  0.00    -0.014 A 
BRANCH  38  39
ATOM     39  C   UNL     1       1.089   3.903   6.329  1.00  0.00     0.031 A 
ATOM     40  C   UNL     1       0.147   4.277   7.448  1.00  0.00     0.074 A 
ATOM     41  C   UNL     1       1.155   2.622   5.923  1.00  0.00     0.049 A 
ATOM     42  N   UNL     1      -0.647   3.523   8.167  1.00  0.00    -0.248 NA
ATOM     43  C   UNL     1       0.100   5.706   7.802  1.00  0.00     0.031 C 
ATOM     44  C   UNL     1       1.960   2.115   4.816  1.00  0.00     0.029 A 
ATOM     45  N   UNL     1       0.508   1.509   6.408  1.00  0.00    -0.354 N 
ATOM     46  C   UNL     1      -1.278   4.386   9.056  1.00  0.00     0.074 A 
ATOM     47  C   UNL     1      -0.737   5.706   8.824  1.00  0.00     0.031 C 
ATOM     48  C   UNL     1       1.751   0.790   4.698  1.00  0.00     0.029 A 
ATOM     49  C   UNL     1       0.822   0.351   5.740  1.00  0.00     0.049 A 
ATOM     50  H   UNL     1      -0.121   1.540   7.164  1.00  0.00     0.167 HD
ATOM     51  C   UNL     1      -2.233   4.121   9.978  1.00  0.00     0.031 A 
ATOM     52  C   UNL     1       0.409  -0.916   5.950  1.00  0.00     0.031 A 
ATOM     53  C   UNL     1      -2.758   2.810  10.243  1.00  0.00     0.049 A 
ATOM     54  C   UNL     1      -0.567  -1.215   7.062  1.00  0.00     0.074 A 
ATOM     55  C   UNL     1      -3.721   2.435  11.163  1.00  0.00     0.029 A 
ATOM     56  N   UNL     1      -2.351   1.655   9.594  1.00  0.00    -0.354 N 
ATOM     57  N   UNL     1      -1.166  -0.390   7.887  1.00  0.00    -0.248 NA
ATOM     58  C   UNL     1      -0.933  -2.627   7.257  1.00  0.00     0.031 C 
ATOM     59  C   UNL     1      -3.850   1.043  11.116  1.00  0.00     0.029 A 
ATOM     60  C   UNL     1      -3.025   0.561  10.112  1.00  0.00     0.049 A 
ATOM     61  H   UNL     1      -1.683   1.617   8.872  1.00  0.00     0.167 HD
ATOM     62  C   UNL     1      -2.014  -1.175   8.664  1.00  0.00     0.074 A 
ATOM     63  C   UNL     1      -1.851  -2.540   8.210  1.00  0.00     0.031 C 
ATOM     64  C   UNL     1      -2.861  -0.796   9.654  1.00  0.00     0.031 A 
BRANCH  51  65
ATOM     65  C   UNL     1      -2.721   5.284  10.800  1.00  0.00    -0.014 A 
ATOM     66  C   UNL     1      -3.455   6.335  10.224  1.00  0.00     0.009 A 
ATOM     67  C   UNL     1      -2.409   5.347  12.167  1.00  0.00     0.009 A 
ATOM     68  C   UNL     1      -3.809   7.452  10.984  1.00  0.00     0.001 A 
ATOM     69  C   UNL     1      -2.799   6.446  12.933  1.00  0.00     0.001 A 
ATOM     70  C   UNL     1      -3.482   7.505  12.338  1.00  0.00     0.000 A 
ENDBRANCH  51  65
BRANCH  52  71
ATOM     71  C   UNL     1       0.901  -2.017   5.076  1.00  0.00    -0.014 A 
ATOM     72  C   UNL     1       0.028  -2.663   4.187  1.00  0.00     0.009 A 
ATOM     73  C   UNL     1       2.235  -2.446   5.144  1.00  0.00     0.009 A 
ATOM     74  C   UNL     1       0.475  -3.728   3.400  1.00  0.00     0.001 A 
ATOM     75  C   UNL     1       2.687  -3.492   4.335  1.00  0.00     0.001 A 
ATOM     76  C   UNL     1       1.805  -4.137   3.470  1.00  0.00     0.000 A 
ENDBRANCH  52  71
BRANCH  64  77
ATOM     77  C   UNL     1      -3.732  -1.857  10.274  1.00  0.00    -0.014 A 
ATOM     78  C   UNL     1      -3.205  -2.868  11.092  1.00  0.00     0.009 A 
ATOM     79  C   UNL     1      -5.121  -1.816  10.061  1.00  0.00     0.009 A 
ATOM     80  C   UNL     1      -4.044  -3.838  11.647  1.00  0.00     0.001 A 
ATOM     81  C   UNL     1      -5.960  -2.766  10.645  1.00  0.00     0.001 A 
ATOM     82  C   UNL     1      -5.420  -3.784  11.427  1.00  0.00     0.000 A 
ENDBRANCH  64  77
ENDBRANCH  38  39
ENDBRANCH  31  33
ENDBRANCH  30  31
ENDBRANCH  29  30
ENDBRANCH  28  29
ENDBRANCH  27  28
ENDBRANCH  26  27
ENDBRANCH   1  26
TORSDOF 22
