REMARK SMILES O=C(OCCOCCOCCOC(=O)[C@@H]1Cc2ccccc2CN1C(=O)COc1ccccc1)c1ccc(-c2c3nc(c(-c4ccccc4)c4ccc([nH]4)c(-c4ccccc4)c4nc(c(-c5ccccc5)c5ccc2[nH]5)C=C4)C=C3)cc1
REMARK SMILES IDX 8 1 7 2 6 3 5 4 4 5 3 6 2 7 1 8 35 9 36 10 82 11 37 12 81 13
REMARK SMILES IDX 38 14 39 15 40 16 75 17 41 18 80 19 74 20 76 21 42 22 79 23
REMARK SMILES IDX 73 24 72 25 43 27 65 28 50 29 64 30 51 31 54 32 63 33 77 34
REMARK SMILES IDX 52 35 53 36 62 38 78 39 55 40 44 41 45 42 49 43 46 44 48 45
REMARK SMILES IDX 47 46 66 47 67 48 71 49 68 50 70 51 69 52 56 53 57 54 61 55
REMARK SMILES IDX 58 56 60 57 59 58 9 59 10 60 11 61 12 62 13 63 14 64 15 65
REMARK SMILES IDX 16 66 24 67 17 68 23 69 18 70 22 71 19 72 21 73 20 74 25 75
REMARK SMILES IDX 26 76 27 77 28 78 29 79 30 80 34 81 31 82 33 83 32 84
REMARK H PARENT 76 26 54 37
REMARK Flexibility Score: inf
ROOT
ATOM      1  C   UNL     1      -0.741  -6.648   1.748  1.00  0.00     0.188 C 
ENDROOT
BRANCH   1   2
ATOM      2  C   UNL     1      -1.610  -6.652   0.489  1.00  0.00     0.188 C 
BRANCH   2   3
ATOM      3  O   UNL     1      -1.798  -5.321  -0.011  1.00  0.00    -0.376 OA
BRANCH   3   4
ATOM      4  C   UNL     1      -3.003  -5.159  -0.761  1.00  0.00     0.202 C 
BRANCH   4   5
ATOM      5  C   UNL     1      -2.845  -5.436  -2.260  1.00  0.00     0.261 C 
BRANCH   5   6
ATOM      6  O   UNL     1      -1.833  -6.413  -2.536  1.00  0.00    -0.460 OA
BRANCH   6   7
ATOM      7  C   UNL     1      -0.515  -6.214  -2.779  1.00  0.00     0.338 C 
ATOM      8  O   UNL     1       0.172  -7.198  -3.054  1.00  0.00    -0.246 OA
BRANCH   7   9
ATOM      9  C   UNL     1       0.167  -4.875  -2.767  1.00  0.00     0.060 A 
ATOM     10  C   UNL     1      -0.311  -3.703  -2.170  1.00  0.00     0.016 A 
ATOM     11  C   UNL     1       1.433  -4.814  -3.372  1.00  0.00     0.016 A 
ATOM     12  C   UNL     1       0.391  -2.496  -2.229  1.00  0.00     0.010 A 
ATOM     13  C   UNL     1       2.163  -3.621  -3.399  1.00  0.00     0.010 A 
ATOM     14  C   UNL     1       1.632  -2.444  -2.848  1.00  0.00    -0.014 A 
BRANCH  14  15
ATOM     15  C   UNL     1       2.350  -1.160  -3.016  1.00  0.00     0.031 A 
ATOM     16  C   UNL     1       2.501  -0.620  -4.402  1.00  0.00     0.074 A 
ATOM     17  C   UNL     1       2.910  -0.523  -1.969  1.00  0.00     0.049 A 
ATOM     18  N   UNL     1       3.236   0.373  -4.819  1.00  0.00    -0.248 NA
ATOM     19  C   UNL     1       1.676  -1.249  -5.450  1.00  0.00     0.031 C 
ATOM     20  C   UNL     1       2.710  -0.843  -0.558  1.00  0.00     0.029 A 
ATOM     21  N   UNL     1       3.877   0.450  -1.940  1.00  0.00    -0.354 N 
ATOM     22  C   UNL     1       2.918   0.528  -6.159  1.00  0.00     0.074 A 
ATOM     23  C   UNL     1       1.995  -0.526  -6.512  1.00  0.00     0.031 C 
ATOM     24  C   UNL     1       3.682  -0.273   0.172  1.00  0.00     0.029 A 
ATOM     25  C   UNL     1       4.513   0.522  -0.718  1.00  0.00     0.049 A 
ATOM     26  H   UNL     1       4.092   1.031  -2.705  1.00  0.00     0.167 HD
ATOM     27  C   UNL     1       3.324   1.505  -6.999  1.00  0.00     0.031 A 
ATOM     28  C   UNL     1       5.661   1.134  -0.377  1.00  0.00     0.031 A 
ATOM     29  C   UNL     1       4.265   2.522  -6.625  1.00  0.00     0.049 A 
ATOM     30  C   UNL     1       6.287   2.046  -1.391  1.00  0.00     0.074 A 
ATOM     31  C   UNL     1       4.719   3.598  -7.363  1.00  0.00     0.029 A 
ATOM     32  N   UNL     1       4.918   2.564  -5.402  1.00  0.00    -0.354 N 
ATOM     33  N   UNL     1       5.920   2.261  -2.631  1.00  0.00    -0.248 NA
ATOM     34  C   UNL     1       7.423   2.859  -0.943  1.00  0.00     0.031 C 
ATOM     35  C   UNL     1       5.695   4.256  -6.606  1.00  0.00     0.029 A 
ATOM     36  C   UNL     1       5.812   3.617  -5.380  1.00  0.00     0.049 A 
ATOM     37  H   UNL     1       4.767   1.935  -4.659  1.00  0.00     0.167 HD
ATOM     38  C   UNL     1       6.721   3.296  -3.086  1.00  0.00     0.074 A 
ATOM     39  C   UNL     1       7.616   3.639  -1.997  1.00  0.00     0.031 C 
ATOM     40  C   UNL     1       6.690   3.932  -4.282  1.00  0.00     0.031 A 
BRANCH  27  41
ATOM     41  C   UNL     1       2.741   1.504  -8.379  1.00  0.00    -0.014 A 
ATOM     42  C   UNL     1       1.400   1.863  -8.595  1.00  0.00     0.009 A 
ATOM     43  C   UNL     1       3.534   1.140  -9.476  1.00  0.00     0.009 A 
ATOM     44  C   UNL     1       0.856   1.828  -9.880  1.00  0.00     0.001 A 
ATOM     45  C   UNL     1       2.993   1.125 -10.763  1.00  0.00     0.001 A 
ATOM     46  C   UNL     1       1.654   1.461 -10.963  1.00  0.00     0.000 A 
ENDBRANCH  27  41
BRANCH  28  47
ATOM     47  C   UNL     1       6.274   0.923   0.960  1.00  0.00    -0.014 A 
ATOM     48  C   UNL     1       6.237   1.922   1.942  1.00  0.00     0.009 A 
ATOM     49  C   UNL     1       6.937  -0.283   1.247  1.00  0.00     0.009 A 
ATOM     50  C   UNL     1       6.886   1.738   3.167  1.00  0.00     0.001 A 
ATOM     51  C   UNL     1       7.569  -0.472   2.480  1.00  0.00     0.001 A 
ATOM     52  C   UNL     1       7.554   0.543   3.434  1.00  0.00     0.000 A 
ENDBRANCH  28  47
BRANCH  40  53
ATOM     53  C   UNL     1       7.618   5.096  -4.449  1.00  0.00    -0.014 A 
ATOM     54  C   UNL     1       8.996   4.907  -4.623  1.00  0.00     0.009 A 
ATOM     55  C   UNL     1       7.092   6.397  -4.471  1.00  0.00     0.009 A 
ATOM     56  C   UNL     1       9.836   6.008  -4.791  1.00  0.00     0.001 A 
ATOM     57  C   UNL     1       7.930   7.492  -4.670  1.00  0.00     0.001 A 
ATOM     58  C   UNL     1       9.302   7.296  -4.822  1.00  0.00     0.000 A 
ENDBRANCH  40  53
ENDBRANCH  14  15
ENDBRANCH   7   9
ENDBRANCH   6   7
ENDBRANCH   5   6
ENDBRANCH   4   5
ENDBRANCH   3   4
ENDBRANCH   2   3
ENDBRANCH   1   2
BRANCH   1  59
ATOM     59  O   UNL     1      -1.274  -5.996   2.903  1.00  0.00    -0.376 OA
BRANCH  59  60
ATOM     60  C   UNL     1      -1.883  -4.720   2.733  1.00  0.00     0.202 C 
BRANCH  60  61
ATOM     61  C   UNL     1      -1.005  -3.542   2.265  1.00  0.00     0.261 C 
BRANCH  61  62
ATOM     62  O   UNL     1       0.268  -3.908   1.705  1.00  0.00    -0.462 OA
BRANCH  62  63
ATOM     63  C   UNL     1       1.243  -4.076   2.647  1.00  0.00     0.329 C 
ATOM     64  O   UNL     1       1.030  -3.860   3.825  1.00  0.00    -0.250 OA
BRANCH  63  65
ATOM     65  C   UNL     1       2.606  -4.578   2.068  1.00  0.00     0.200 C 
ATOM     66  C   UNL     1       2.643  -4.323   0.535  1.00  0.00     0.073 C 
ATOM     67  N   UNL     1       3.050  -5.990   2.351  1.00  0.00    -0.321 N 
ATOM     68  C   UNL     1       4.037  -4.551   0.017  1.00  0.00    -0.040 A 
ATOM     69  C   UNL     1       3.898  -6.650   1.338  1.00  0.00     0.156 C 
ATOM     70  C   UNL     1       4.687  -3.703  -0.880  1.00  0.00     0.004 A 
ATOM     71  C   UNL     1       4.694  -5.687   0.491  1.00  0.00    -0.025 A 
ATOM     72  C   UNL     1       6.008  -3.938  -1.255  1.00  0.00     0.000 A 
ATOM     73  C   UNL     1       6.024  -5.922   0.119  1.00  0.00     0.006 A 
ATOM     74  C   UNL     1       6.683  -5.039  -0.740  1.00  0.00     0.000 A 
BRANCH  67  75
ATOM     75  C   UNL     1       2.989  -6.680   3.552  1.00  0.00     0.261 C 
ATOM     76  O   UNL     1       3.239  -7.894   3.586  1.00  0.00    -0.271 OA
BRANCH  75  77
ATOM     77  C   UNL     1       2.611  -5.992   4.859  1.00  0.00     0.329 C 
BRANCH  77  78
ATOM     78  O   UNL     1       3.040  -4.667   5.087  1.00  0.00    -0.484 OA
BRANCH  78  79
ATOM     79  C   UNL     1       4.321  -4.455   5.480  1.00  0.00     0.120 A 
ATOM     80  C   UNL     1       4.480  -3.417   6.399  1.00  0.00     0.046 A 
ATOM     81  C   UNL     1       5.436  -5.104   4.960  1.00  0.00     0.046 A 
ATOM     82  C   UNL     1       5.752  -3.042   6.822  1.00  0.00     0.004 A 
ATOM     83  C   UNL     1       6.712  -4.717   5.372  1.00  0.00     0.004 A 
ATOM     84  C   UNL     1       6.870  -3.691   6.305  1.00  0.00     0.000 A 
ENDBRANCH  78  79
ENDBRANCH  77  78
ENDBRANCH  75  77
ENDBRANCH  67  75
ENDBRANCH  63  65
ENDBRANCH  62  63
ENDBRANCH  61  62
ENDBRANCH  60  61
ENDBRANCH  59  60
ENDBRANCH   1  59
TORSDOF 21
