REMARK SMILES CS(=O)(=O)c1ccc(NS(=O)(=O)c2ccc(F)c(C(=O)OCCOCCOCCOC(=O)c3ccc(-c4c5nc(c(-c6ccccc6)c6ccc([nH]6)c(-c6ccccc6)c6nc(c(-c7ccccc7)c7ccc4[nH]7)C=C6)C=C5)cc3)c2)cc1
REMARK SMILES IDX 25 1 24 2 23 3 22 4 21 5 19 6 20 7 18 8 13 9 14 10 81 11
REMARK SMILES IDX 15 12 16 13 17 14 10 15 11 16 12 17 9 18 8 20 5 21 6 22
REMARK SMILES IDX 83 23 7 24 82 25 2 26 1 27 3 28 4 29 26 30 27 31 28 32 29 33
REMARK SMILES IDX 30 34 31 35 32 36 33 37 34 38 80 39 35 40 79 41 36 42 37 43
REMARK SMILES IDX 38 44 73 45 39 46 78 47 72 48 74 49 40 50 77 51 71 52 70 53
REMARK SMILES IDX 41 55 63 56 48 57 62 58 49 59 52 60 61 61 75 62 50 63 51 64
REMARK SMILES IDX 60 66 76 67 53 68 42 69 43 70 47 71 44 72 46 73 45 74 64 75
REMARK SMILES IDX 65 76 69 77 66 78 68 79 67 80 54 81 55 82 59 83 56 84 58 85
REMARK SMILES IDX 57 86
REMARK H PARENT 9 19 74 54 52 65
REMARK Flexibility Score: inf
ROOT
ATOM      1  C   UNL     1      -4.762  -8.915   3.461  1.00  0.00     0.188 C 
ENDROOT
BRANCH   1   2
ATOM      2  O   UNL     1      -5.495 -10.108   3.606  1.00  0.00    -0.376 OA
BRANCH   2   3
ATOM      3  C   UNL     1      -5.602 -11.010   2.517  1.00  0.00     0.202 C 
BRANCH   3   4
ATOM      4  C   UNL     1      -4.591 -11.119   1.355  1.00  0.00     0.261 C 
BRANCH   4   5
ATOM      5  O   UNL     1      -3.561 -10.126   1.274  1.00  0.00    -0.460 OA
BRANCH   5   6
ATOM      6  C   UNL     1      -3.688  -9.226   0.273  1.00  0.00     0.341 C 
ATOM      7  O   UNL     1      -4.577  -9.199  -0.564  1.00  0.00    -0.246 OA
BRANCH   6   8
ATOM      8  C   UNL     1      -2.637  -8.189   0.359  1.00  0.00     0.097 A 
ATOM      9  C   UNL     1      -0.325  -7.450   0.466  1.00  0.00     0.088 A 
ATOM     10  C   UNL     1      -0.729  -6.176   0.055  1.00  0.00     0.025 A 
ATOM     11  C   UNL     1      -1.281  -8.478   0.595  1.00  0.00     0.041 A 
ATOM     12  C   UNL     1      -2.083  -5.868  -0.049  1.00  0.00     0.041 A 
ATOM     13  C   UNL     1      -3.028  -6.873   0.107  1.00  0.00     0.137 A 
ATOM     14  F   UNL     1      -4.324  -6.544   0.017  1.00  0.00    -0.206 F 
BRANCH   9  15
ATOM     15  S   UNL     1       1.414  -7.814   0.638  1.00  0.00     0.261 S 
ATOM     16  O   UNL     1       2.017  -7.577  -0.656  1.00  0.00    -0.201 OA
ATOM     17  O   UNL     1       1.517  -9.116   1.266  1.00  0.00    -0.201 OA
BRANCH  15  18
ATOM     18  N   UNL     1       2.159  -6.736   1.733  1.00  0.00    -0.280 N 
ATOM     19  H   UNL     1       2.799  -7.090   2.392  1.00  0.00     0.180 HD
BRANCH  18  20
ATOM     20  C   UNL     1       1.878  -5.333   1.720  1.00  0.00     0.049 A 
ATOM     21  C   UNL     1       1.220  -2.615   1.690  1.00  0.00     0.067 A 
ATOM     22  C   UNL     1       0.412  -3.525   2.381  1.00  0.00     0.022 A 
ATOM     23  C   UNL     1       2.378  -3.053   1.042  1.00  0.00     0.022 A 
ATOM     24  C   UNL     1       0.759  -4.876   2.416  1.00  0.00     0.028 A 
ATOM     25  C   UNL     1       2.697  -4.421   1.043  1.00  0.00     0.028 A 
BRANCH  21  26
ATOM     26  S   UNL     1       0.701  -0.912   1.647  1.00  0.00     0.175 S 
ATOM     27  C   UNL     1       1.242  -0.248   0.097  1.00  0.00     0.163 C 
ATOM     28  O   UNL     1       1.417  -0.236   2.709  1.00  0.00    -0.224 OA
ATOM     29  O   UNL     1      -0.750  -0.931   1.606  1.00  0.00    -0.224 OA
ENDBRANCH  21  26
ENDBRANCH  18  20
ENDBRANCH  15  18
ENDBRANCH   9  15
ENDBRANCH   6   8
ENDBRANCH   5   6
ENDBRANCH   4   5
ENDBRANCH   3   4
ENDBRANCH   2   3
ENDBRANCH   1   2
BRANCH   1  30
ATOM     30  C   UNL     1      -3.296  -9.007   3.937  1.00  0.00     0.188 C 
BRANCH  30  31
ATOM     31  O   UNL     1      -2.742 -10.253   4.335  1.00  0.00    -0.376 OA
BRANCH  31  32
ATOM     32  C   UNL     1      -3.440 -11.070   5.266  1.00  0.00     0.202 C 
BRANCH  32  33
ATOM     33  C   UNL     1      -3.975 -10.491   6.587  1.00  0.00     0.261 C 
BRANCH  33  34
ATOM     34  O   UNL     1      -4.649  -9.228   6.487  1.00  0.00    -0.460 OA
BRANCH  34  35
ATOM     35  C   UNL     1      -3.997  -8.182   7.050  1.00  0.00     0.338 C 
ATOM     36  O   UNL     1      -2.926  -8.195   7.631  1.00  0.00    -0.246 OA
BRANCH  35  37
ATOM     37  C   UNL     1      -4.698  -6.931   6.710  1.00  0.00     0.060 A 
ATOM     38  C   UNL     1      -4.016  -5.974   5.945  1.00  0.00     0.016 A 
ATOM     39  C   UNL     1      -5.982  -6.676   7.191  1.00  0.00     0.016 A 
ATOM     40  C   UNL     1      -4.612  -4.745   5.674  1.00  0.00     0.010 A 
ATOM     41  C   UNL     1      -6.568  -5.432   6.941  1.00  0.00     0.010 A 
ATOM     42  C   UNL     1      -5.874  -4.454   6.205  1.00  0.00    -0.014 A 
BRANCH  42  43
ATOM     43  C   UNL     1      -6.395  -3.070   6.138  1.00  0.00     0.031 A 
ATOM     44  C   UNL     1      -6.185  -2.162   7.317  1.00  0.00     0.074 A 
ATOM     45  C   UNL     1      -7.034  -2.621   5.044  1.00  0.00     0.049 A 
ATOM     46  N   UNL     1      -6.595  -0.933   7.501  1.00  0.00    -0.248 NA
ATOM     47  C   UNL     1      -5.410  -2.716   8.439  1.00  0.00     0.031 C 
ATOM     48  C   UNL     1      -7.257  -3.385   3.818  1.00  0.00     0.029 A 
ATOM     49  N   UNL     1      -7.621  -1.406   4.798  1.00  0.00    -0.354 N 
ATOM     50  C   UNL     1      -6.134  -0.570   8.761  1.00  0.00     0.074 A 
ATOM     51  C   UNL     1      -5.438  -1.715   9.306  1.00  0.00     0.031 C 
ATOM     52  C   UNL     1      -7.946  -2.623   2.951  1.00  0.00     0.029 A 
ATOM     53  C   UNL     1      -8.239  -1.333   3.575  1.00  0.00     0.049 A 
ATOM     54  H   UNL     1      -7.602  -0.658   5.438  1.00  0.00     0.167 HD
ATOM     55  C   UNL     1      -6.276   0.612   9.406  1.00  0.00     0.031 A 
ATOM     56  C   UNL     1      -8.976  -0.345   3.031  1.00  0.00     0.031 A 
ATOM     57  C   UNL     1      -6.986   1.744   8.875  1.00  0.00     0.049 A 
ATOM     58  C   UNL     1      -9.195   0.928   3.805  1.00  0.00     0.074 A 
ATOM     59  C   UNL     1      -7.178   2.988   9.449  1.00  0.00     0.029 A 
ATOM     60  N   UNL     1      -7.631   1.764   7.648  1.00  0.00    -0.354 N 
ATOM     61  N   UNL     1      -8.738   1.269   4.985  1.00  0.00    -0.248 NA
ATOM     62  C   UNL     1     -10.031   1.955   3.165  1.00  0.00     0.031 C 
ATOM     63  C   UNL     1      -7.987   3.743   8.594  1.00  0.00     0.029 A 
ATOM     64  C   UNL     1      -8.247   2.989   7.460  1.00  0.00     0.049 A 
ATOM     65  H   UNL     1      -7.648   1.018   7.006  1.00  0.00     0.167 HD
ATOM     66  C   UNL     1      -9.203   2.559   5.215  1.00  0.00     0.074 A 
ATOM     67  C   UNL     1      -9.970   2.942   4.048  1.00  0.00     0.031 C 
ATOM     68  C   UNL     1      -9.007   3.357   6.293  1.00  0.00     0.031 A 
BRANCH  55  69
ATOM     69  C   UNL     1      -5.683   0.718  10.782  1.00  0.00    -0.014 A 
ATOM     70  C   UNL     1      -4.295   0.781  10.976  1.00  0.00     0.009 A 
ATOM     71  C   UNL     1      -6.530   0.774  11.900  1.00  0.00     0.009 A 
ATOM     72  C   UNL     1      -3.765   0.863  12.266  1.00  0.00     0.001 A 
ATOM     73  C   UNL     1      -5.999   0.884  13.186  1.00  0.00     0.001 A 
ATOM     74  C   UNL     1      -4.617   0.918  13.368  1.00  0.00     0.000 A 
ENDBRANCH  55  69
BRANCH  56  75
ATOM     75  C   UNL     1      -9.585  -0.526   1.688  1.00  0.00    -0.014 A 
ATOM     76  C   UNL     1      -9.123   0.212   0.588  1.00  0.00     0.009 A 
ATOM     77  C   UNL     1     -10.648  -1.424   1.505  1.00  0.00     0.009 A 
ATOM     78  C   UNL     1      -9.729   0.070  -0.663  1.00  0.00     0.001 A 
ATOM     79  C   UNL     1     -11.233  -1.584   0.247  1.00  0.00     0.001 A 
ATOM     80  C   UNL     1     -10.780  -0.830  -0.834  1.00  0.00     0.000 A 
ENDBRANCH  56  75
BRANCH  68  81
ATOM     81  C   UNL     1      -9.597   4.739   6.248  1.00  0.00    -0.014 A 
ATOM     82  C   UNL     1     -10.978   4.950   6.378  1.00  0.00     0.009 A 
ATOM     83  C   UNL     1      -8.747   5.850   6.124  1.00  0.00     0.009 A 
ATOM     84  C   UNL     1     -11.498   6.246   6.353  1.00  0.00     0.001 A 
ATOM     85  C   UNL     1      -9.268   7.145   6.128  1.00  0.00     0.001 A 
ATOM     86  C   UNL     1     -10.643   7.341   6.234  1.00  0.00     0.000 A 
ENDBRANCH  68  81
ENDBRANCH  42  43
ENDBRANCH  35  37
ENDBRANCH  34  35
ENDBRANCH  33  34
ENDBRANCH  32  33
ENDBRANCH  31  32
ENDBRANCH  30  31
ENDBRANCH   1  30
TORSDOF 21
