REMARK SMILES CC(=O)N/N=C/c1ccc(O[C@H](C)C(=O)OCCOCCOCCOC(=O)c2ccc(-c3c4nc(c(-c5ccccc5)c5ccc([nH]5)c(-c5ccccc5)c5nc(c(-c6ccccc6)c6ccc3[nH]6)C=C5)C=C4)cc2)cc1
REMARK SMILES IDX 20 1 19 2 18 3 17 4 16 5 14 6 15 7 12 8 13 9 11 10 10 11
REMARK SMILES IDX 7 12 8 13 77 14 9 15 76 16 6 17 5 18 4 19 1 20 2 21 3 22
REMARK SMILES IDX 21 24 22 25 23 26 24 27 25 28 26 29 27 30 28 31 29 32 75 33
REMARK SMILES IDX 30 34 74 35 31 36 32 37 33 38 68 39 34 40 73 41 67 42 69 43
REMARK SMILES IDX 35 44 72 45 66 46 65 47 36 49 58 50 43 51 57 52 44 53 47 54
REMARK SMILES IDX 56 55 70 56 45 57 46 58 55 60 71 61 48 62 37 63 38 64 42 65
REMARK SMILES IDX 39 66 41 67 40 68 59 69 60 70 64 71 61 72 63 73 62 74 49 75
REMARK SMILES IDX 50 76 54 77 51 78 53 79 52 80
REMARK H PARENT 4 23 69 48 47 59
REMARK Flexibility Score: inf
ROOT
ATOM      1  C   UNL     1       3.500  -9.478  -2.004  1.00  0.00     0.188 C 
ENDROOT
BRANCH   1   2
ATOM      2  O   UNL     1       2.271 -10.102  -1.655  1.00  0.00    -0.376 OA
BRANCH   2   3
ATOM      3  C   UNL     1       1.263  -9.260  -1.093  1.00  0.00     0.202 C 
BRANCH   3   4
ATOM      4  C   UNL     1       1.562  -8.679   0.302  1.00  0.00     0.261 C 
BRANCH   4   5
ATOM      5  O   UNL     1       2.791  -7.930   0.342  1.00  0.00    -0.461 OA
BRANCH   5   6
ATOM      6  C   UNL     1       3.645  -8.180   1.381  1.00  0.00     0.347 C 
ATOM      7  O   UNL     1       3.355  -8.852   2.364  1.00  0.00    -0.248 OA
BRANCH   6   8
ATOM      8  C   UNL     1       5.068  -7.648   1.086  1.00  0.00     0.279 C 
ATOM      9  C   UNL     1       5.117  -6.556   0.016  1.00  0.00     0.066 C 
BRANCH   8  10
ATOM     10  O   UNL     1       5.879  -7.461   2.258  1.00  0.00    -0.479 OA
BRANCH  10  11
ATOM     11  C   UNL     1       5.931  -6.240   2.864  1.00  0.00     0.120 A 
ATOM     12  C   UNL     1       6.258  -3.847   4.261  1.00  0.00    -0.005 A 
ATOM     13  C   UNL     1       6.645  -3.924   2.928  1.00  0.00     0.013 A 
ATOM     14  C   UNL     1       5.749  -4.963   4.925  1.00  0.00     0.013 A 
ATOM     15  C   UNL     1       6.522  -5.135   2.251  1.00  0.00     0.047 A 
ATOM     16  C   UNL     1       5.580  -6.161   4.216  1.00  0.00     0.047 A 
BRANCH  12  17
ATOM     17  C   UNL     1       6.414  -2.550   4.931  1.00  0.00     0.141 C 
ATOM     18  N   UNL     1       7.407  -2.344   5.725  1.00  0.00    -0.181 NA
BRANCH  18  19
ATOM     19  N   UNL     1       7.646  -1.118   6.275  1.00  0.00    -0.247 N 
ATOM     20  C   UNL     1       6.666   0.443   4.576  1.00  0.00     0.116 C 
ATOM     21  C   UNL     1       7.421   0.163   5.842  1.00  0.00     0.236 C 
ATOM     22  O   UNL     1       7.860   1.102   6.514  1.00  0.00    -0.274 OA
ATOM     23  H   UNL     1       8.065  -1.163   7.165  1.00  0.00     0.193 HD
ENDBRANCH  18  19
ENDBRANCH  12  17
ENDBRANCH  10  11
ENDBRANCH   8  10
ENDBRANCH   6   8
ENDBRANCH   5   6
ENDBRANCH   4   5
ENDBRANCH   3   4
ENDBRANCH   2   3
ENDBRANCH   1   2
BRANCH   1  24
ATOM     24  C   UNL     1       3.428  -8.335  -3.022  1.00  0.00     0.188 C 
BRANCH  24  25
ATOM     25  O   UNL     1       2.561  -7.263  -2.669  1.00  0.00    -0.376 OA
BRANCH  25  26
ATOM     26  C   UNL     1       2.659  -6.077  -3.468  1.00  0.00     0.202 C 
BRANCH  26  27
ATOM     27  C   UNL     1       2.699  -6.267  -4.998  1.00  0.00     0.261 C 
BRANCH  27  28
ATOM     28  O   UNL     1       3.834  -7.016  -5.481  1.00  0.00    -0.460 OA
BRANCH  28  29
ATOM     29  C   UNL     1       5.072  -6.565  -5.164  1.00  0.00     0.338 C 
ATOM     30  O   UNL     1       5.351  -5.476  -4.689  1.00  0.00    -0.246 OA
BRANCH  29  31
ATOM     31  C   UNL     1       6.006  -7.721  -5.222  1.00  0.00     0.060 A 
ATOM     32  C   UNL     1       6.973  -7.850  -4.213  1.00  0.00     0.016 A 
ATOM     33  C   UNL     1       5.870  -8.728  -6.184  1.00  0.00     0.016 A 
ATOM     34  C   UNL     1       7.808  -8.972  -4.171  1.00  0.00     0.010 A 
ATOM     35  C   UNL     1       6.713  -9.843  -6.149  1.00  0.00     0.010 A 
ATOM     36  C   UNL     1       7.699  -9.966  -5.153  1.00  0.00    -0.014 A 
BRANCH  36  37
ATOM     37  C   UNL     1       8.700 -11.058  -5.248  1.00  0.00     0.031 A 
ATOM     38  C   UNL     1       9.839 -10.906  -6.218  1.00  0.00     0.074 A 
ATOM     39  C   UNL     1       8.602 -12.179  -4.509  1.00  0.00     0.049 A 
ATOM     40  N   UNL     1      10.769 -11.765  -6.549  1.00  0.00    -0.248 NA
ATOM     41  C   UNL     1       9.939  -9.610  -6.908  1.00  0.00     0.031 C 
ATOM     42  C   UNL     1       7.590 -12.442  -3.489  1.00  0.00     0.029 A 
ATOM     43  N   UNL     1       9.372 -13.319  -4.522  1.00  0.00    -0.354 N 
ATOM     44  C   UNL     1      11.557 -11.119  -7.492  1.00  0.00     0.074 A 
ATOM     45  C   UNL     1      10.987  -9.805  -7.695  1.00  0.00     0.031 C 
ATOM     46  C   UNL     1       7.794 -13.672  -2.981  1.00  0.00     0.029 A 
ATOM     47  C   UNL     1       8.920 -14.300  -3.672  1.00  0.00     0.049 A 
ATOM     48  H   UNL     1      10.171 -13.423  -5.087  1.00  0.00     0.167 HD
ATOM     49  C   UNL     1      12.656 -11.577  -8.137  1.00  0.00     0.031 A 
ATOM     50  C   UNL     1       9.342 -15.569  -3.497  1.00  0.00     0.031 A 
ATOM     51  C   UNL     1      13.221 -12.886  -7.956  1.00  0.00     0.049 A 
ATOM     52  C   UNL     1      10.493 -16.096  -4.317  1.00  0.00     0.074 A 
ATOM     53  C   UNL     1      14.350 -13.424  -8.551  1.00  0.00     0.029 A 
ATOM     54  N   UNL     1      12.694 -13.869  -7.136  1.00  0.00    -0.354 N 
ATOM     55  N   UNL     1      11.249 -15.468  -5.184  1.00  0.00    -0.248 NA
ATOM     56  C   UNL     1      10.842 -17.516  -4.139  1.00  0.00     0.031 C 
ATOM     57  C   UNL     1      14.465 -14.757  -8.143  1.00  0.00     0.029 A 
ATOM     58  C   UNL     1      13.445 -15.026  -7.245  1.00  0.00     0.049 A 
ATOM     59  H   UNL     1      11.902 -13.760  -6.560  1.00  0.00     0.167 HD
ATOM     60  C   UNL     1      12.172 -16.406  -5.636  1.00  0.00     0.074 A 
ATOM     61  C   UNL     1      11.893 -17.642  -4.938  1.00  0.00     0.031 C 
ATOM     62  C   UNL     1      13.160 -16.255  -6.551  1.00  0.00     0.031 A 
BRANCH  49  63
ATOM     63  C   UNL     1      13.297 -10.664  -9.142  1.00  0.00    -0.014 A 
ATOM     64  C   UNL     1      14.029  -9.536  -8.744  1.00  0.00     0.009 A 
ATOM     65  C   UNL     1      13.198 -10.966 -10.510  1.00  0.00     0.009 A 
ATOM     66  C   UNL     1      14.626  -8.710  -9.700  1.00  0.00     0.001 A 
ATOM     67  C   UNL     1      13.818 -10.155 -11.460  1.00  0.00     0.001 A 
ATOM     68  C   UNL     1      14.524  -9.023 -11.055  1.00  0.00     0.000 A 
ENDBRANCH  49  63
BRANCH  50  69
ATOM     69  C   UNL     1       8.643 -16.468  -2.539  1.00  0.00    -0.014 A 
ATOM     70  C   UNL     1       9.291 -16.923  -1.380  1.00  0.00     0.009 A 
ATOM     71  C   UNL     1       7.338 -16.914  -2.803  1.00  0.00     0.009 A 
ATOM     72  C   UNL     1       8.655 -17.823  -0.520  1.00  0.00     0.001 A 
ATOM     73  C   UNL     1       6.694 -17.790  -1.927  1.00  0.00     0.001 A 
ATOM     74  C   UNL     1       7.357 -18.251  -0.791  1.00  0.00     0.000 A 
ENDBRANCH  50  69
BRANCH  62  75
ATOM     75  C   UNL     1      14.033 -17.444  -6.844  1.00  0.00    -0.014 A 
ATOM     76  C   UNL     1      13.557 -18.526  -7.600  1.00  0.00     0.009 A 
ATOM     77  C   UNL     1      15.372 -17.449  -6.421  1.00  0.00     0.009 A 
ATOM     78  C   UNL     1      14.398 -19.598  -7.908  1.00  0.00     0.001 A 
ATOM     79  C   UNL     1      16.218 -18.508  -6.754  1.00  0.00     0.001 A 
ATOM     80  C   UNL     1      15.729 -19.585  -7.491  1.00  0.00     0.000 A 
ENDBRANCH  62  75
ENDBRANCH  36  37
ENDBRANCH  29  31
ENDBRANCH  28  29
ENDBRANCH  27  28
ENDBRANCH  26  27
ENDBRANCH  25  26
ENDBRANCH  24  25
ENDBRANCH   1  24
TORSDOF 21
