REMARK SMILES CC[C@H](C(=O)OCCOCCOCCOC(=O)c1ccc(-c2c3nc(c(-c4ccccc4)c4ccc([nH]4)c(-c4ccccc4)c4nc(c(-c5ccccc5)c5ccc2[nH]5)C=C4)C=C3)cc1)N1C(=O)/C(=C\c2cccs2)SC1=S
REMARK SMILES IDX 10 1 9 2 8 3 7 4 6 5 4 6 5 7 3 8 2 9 1 10 66 11 67 12 77 13
REMARK SMILES IDX 68 14 69 15 76 16 78 17 70 18 71 19 72 20 75 21 73 22 74 23
REMARK SMILES IDX 11 24 12 25 13 26 14 27 15 28 16 29 17 30 18 31 19 32 65 33
REMARK SMILES IDX 20 34 64 35 21 36 22 37 23 38 58 39 24 40 63 41 57 42 59 43
REMARK SMILES IDX 25 44 62 45 56 46 55 47 26 49 48 50 33 51 47 52 34 53 37 54
REMARK SMILES IDX 46 55 60 56 35 57 36 58 45 60 61 61 38 62 27 63 28 64 32 65
REMARK SMILES IDX 29 66 31 67 30 68 49 69 50 70 54 71 51 72 53 73 52 74 39 75
REMARK SMILES IDX 40 76 44 77 41 78 43 79 42 80
REMARK H PARENT 59 48 37 59
REMARK Flexibility Score: inf
ROOT
ATOM      1  C   UNL     1       0.613  -2.983  -0.930  1.00  0.00     0.188 C 
ENDROOT
BRANCH   1   2
ATOM      2  O   UNL     1      -0.188  -2.195  -1.798  1.00  0.00    -0.376 OA
BRANCH   2   3
ATOM      3  C   UNL     1       0.149  -0.834  -1.979  1.00  0.00     0.202 C 
BRANCH   3   4
ATOM      4  C   UNL     1      -0.187   0.093  -0.815  1.00  0.00     0.261 C 
BRANCH   4   5
ATOM      5  O   UNL     1       0.518  -0.205   0.400  1.00  0.00    -0.462 OA
BRANCH   5   6
ATOM      6  C   UNL     1      -0.178  -0.863   1.378  1.00  0.00     0.329 C 
ATOM      7  O   UNL     1      -1.290  -1.357   1.252  1.00  0.00    -0.250 OA
BRANCH   6   8
ATOM      8  C   UNL     1       0.604  -0.804   2.690  1.00  0.00     0.201 C 
BRANCH   8   9
ATOM      9  C   UNL     1       0.323   0.527   3.422  1.00  0.00     0.034 C 
ATOM     10  C   UNL     1      -1.030   1.185   3.136  1.00  0.00     0.007 C 
ENDBRANCH   8   9
BRANCH   8  11
ATOM     11  N   UNL     1       0.527  -2.074   3.478  1.00  0.00    -0.278 N 
ATOM     12  C   UNL     1       1.427  -3.081   3.119  1.00  0.00     0.267 C 
ATOM     13  C   UNL     1      -0.371  -2.422   4.463  1.00  0.00     0.149 C 
ATOM     14  O   UNL     1       2.173  -3.017   2.152  1.00  0.00    -0.268 OA
ATOM     15  C   UNL     1       1.341  -4.266   4.025  1.00  0.00     0.081 C 
ATOM     16  S   UNL     1       0.068  -3.977   5.158  1.00  0.00    -0.054 SA
ATOM     17  S   UNL     1      -1.695  -1.619   5.071  1.00  0.00    -0.052 S 
ATOM     18  C   UNL     1       1.993  -5.442   4.058  1.00  0.00     0.040 C 
BRANCH  18  19
ATOM     19  C   UNL     1       2.965  -5.949   3.145  1.00  0.00     0.028 A 
ATOM     20  C   UNL     1       3.933  -5.356   2.353  1.00  0.00     0.020 A 
ATOM     21  S   UNL     1       3.044  -7.676   2.944  1.00  0.00    -0.144 S 
ATOM     22  C   UNL     1       4.580  -6.272   1.468  1.00  0.00     0.012 A 
ATOM     23  C   UNL     1       4.149  -7.563   1.653  1.00  0.00     0.065 A 
ENDBRANCH  18  19
ENDBRANCH   8  11
ENDBRANCH   6   8
ENDBRANCH   5   6
ENDBRANCH   4   5
ENDBRANCH   3   4
ENDBRANCH   2   3
ENDBRANCH   1   2
BRANCH   1  24
ATOM     24  C   UNL     1       2.137  -2.761  -0.867  1.00  0.00     0.188 C 
BRANCH  24  25
ATOM     25  O   UNL     1       2.838  -2.449  -2.066  1.00  0.00    -0.376 OA
BRANCH  25  26
ATOM     26  C   UNL     1       2.580  -3.252  -3.213  1.00  0.00     0.202 C 
BRANCH  26  27
ATOM     27  C   UNL     1       2.864  -4.744  -3.035  1.00  0.00     0.261 C 
BRANCH  27  28
ATOM     28  O   UNL     1       1.791  -5.348  -2.293  1.00  0.00    -0.460 OA
BRANCH  28  29
ATOM     29  C   UNL     1       2.091  -6.502  -1.665  1.00  0.00     0.338 C 
ATOM     30  O   UNL     1       3.127  -7.139  -1.755  1.00  0.00    -0.246 OA
BRANCH  29  31
ATOM     31  C   UNL     1       0.960  -6.914  -0.808  1.00  0.00     0.060 A 
ATOM     32  C   UNL     1       0.754  -6.295   0.427  1.00  0.00     0.016 A 
ATOM     33  C   UNL     1       0.234  -8.055  -1.147  1.00  0.00     0.016 A 
ATOM     34  C   UNL     1      -0.083  -6.895   1.376  1.00  0.00     0.010 A 
ATOM     35  C   UNL     1      -0.621  -8.638  -0.203  1.00  0.00     0.010 A 
ATOM     36  C   UNL     1      -0.712  -8.115   1.100  1.00  0.00    -0.014 A 
BRANCH  36  37
ATOM     37  C   UNL     1      -1.244  -8.959   2.213  1.00  0.00     0.031 A 
ATOM     38  C   UNL     1      -0.522 -10.244   2.566  1.00  0.00     0.074 A 
ATOM     39  C   UNL     1      -2.290  -8.583   2.973  1.00  0.00     0.049 A 
ATOM     40  N   UNL     1      -0.854 -11.179   3.424  1.00  0.00    -0.248 NA
ATOM     41  C   UNL     1       0.749 -10.501   1.868  1.00  0.00     0.031 C 
ATOM     42  C   UNL     1      -3.022  -7.325   2.857  1.00  0.00     0.029 A 
ATOM     43  N   UNL     1      -2.915  -9.241   4.008  1.00  0.00    -0.354 N 
ATOM     44  C   UNL     1       0.155 -12.134   3.353  1.00  0.00     0.074 A 
ATOM     45  C   UNL     1       1.099 -11.680   2.357  1.00  0.00     0.031 C 
ATOM     46  C   UNL     1      -3.994  -7.299   3.785  1.00  0.00     0.029 A 
ATOM     47  C   UNL     1      -3.998  -8.565   4.516  1.00  0.00     0.049 A 
ATOM     48  H   UNL     1      -2.614 -10.113   4.352  1.00  0.00     0.167 HD
ATOM     49  C   UNL     1       0.295 -13.289   4.048  1.00  0.00     0.031 A 
ATOM     50  C   UNL     1      -4.916  -8.937   5.431  1.00  0.00     0.031 A 
ATOM     51  C   UNL     1      -0.634 -13.772   5.032  1.00  0.00     0.049 A 
ATOM     52  C   UNL     1      -4.835 -10.298   6.073  1.00  0.00     0.074 A 
ATOM     53  C   UNL     1      -0.593 -14.956   5.748  1.00  0.00     0.029 A 
ATOM     54  N   UNL     1      -1.772 -13.098   5.438  1.00  0.00    -0.354 N 
ATOM     55  N   UNL     1      -3.910 -11.218   5.953  1.00  0.00    -0.248 NA
ATOM     56  C   UNL     1      -5.939 -10.674   6.972  1.00  0.00     0.031 C 
ATOM     57  C   UNL     1      -1.740 -15.026   6.546  1.00  0.00     0.029 A 
ATOM     58  C   UNL     1      -2.461 -13.856   6.370  1.00  0.00     0.049 A 
ATOM     59  H   UNL     1      -2.052 -12.212   5.112  1.00  0.00     0.167 HD
ATOM     60  C   UNL     1      -4.308 -12.267   6.776  1.00  0.00     0.074 A 
ATOM     61  C   UNL     1      -5.549 -11.866   7.401  1.00  0.00     0.031 C 
ATOM     62  C   UNL     1      -3.695 -13.456   6.993  1.00  0.00     0.031 A 
BRANCH  49  63
ATOM     63  C   UNL     1       1.482 -14.147   3.717  1.00  0.00    -0.014 A 
ATOM     64  C   UNL     1       2.774 -13.810   4.151  1.00  0.00     0.009 A 
ATOM     65  C   UNL     1       1.297 -15.324   2.975  1.00  0.00     0.009 A 
ATOM     66  C   UNL     1       3.861 -14.622   3.822  1.00  0.00     0.001 A 
ATOM     67  C   UNL     1       2.382 -16.146   2.668  1.00  0.00     0.001 A 
ATOM     68  C   UNL     1       3.664 -15.790   3.084  1.00  0.00     0.000 A 
ENDBRANCH  49  63
BRANCH  50  69
ATOM     69  C   UNL     1      -6.054  -8.033   5.754  1.00  0.00    -0.014 A 
ATOM     70  C   UNL     1      -6.180  -7.460   7.028  1.00  0.00     0.009 A 
ATOM     71  C   UNL     1      -7.046  -7.777   4.794  1.00  0.00     0.009 A 
ATOM     72  C   UNL     1      -7.287  -6.665   7.339  1.00  0.00     0.001 A 
ATOM     73  C   UNL     1      -8.134  -6.957   5.098  1.00  0.00     0.001 A 
ATOM     74  C   UNL     1      -8.259  -6.410   6.373  1.00  0.00     0.000 A 
ENDBRANCH  50  69
BRANCH  62  75
ATOM     75  C   UNL     1      -4.329 -14.399   7.977  1.00  0.00    -0.014 A 
ATOM     76  C   UNL     1      -5.505 -15.098   7.667  1.00  0.00     0.009 A 
ATOM     77  C   UNL     1      -3.713 -14.623   9.220  1.00  0.00     0.009 A 
ATOM     78  C   UNL     1      -6.070 -15.978   8.595  1.00  0.00     0.001 A 
ATOM     79  C   UNL     1      -4.265 -15.523  10.134  1.00  0.00     0.001 A 
ATOM     80  C   UNL     1      -5.447 -16.192   9.825  1.00  0.00     0.000 A 
ENDBRANCH  62  75
ENDBRANCH  36  37
ENDBRANCH  29  31
ENDBRANCH  28  29
ENDBRANCH  27  28
ENDBRANCH  26  27
ENDBRANCH  25  26
ENDBRANCH  24  25
ENDBRANCH   1  24
TORSDOF 20
