REMARK SMILES C[N@H+]1CCO[C@H](c2noc(-c3ccccc3C(=O)OCCOCCOCCOC(=O)c3ccc(-c4c5nc(c(-c6ccccc6)c6ccc([nH]6)c(-c6ccccc6)c6nc(c(-c7ccccc7)c7ccc4[nH]7)C=C6)C=C5)cc3)n2)C1
REMARK SMILES IDX 23 1 22 2 21 3 20 4 19 5 17 6 18 7 16 8 11 9 12 10 13 11
REMARK SMILES IDX 15 12 14 13 10 14 7 15 8 16 79 17 9 18 6 19 1 20 2 21 3 22
REMARK SMILES IDX 80 23 4 25 5 26 24 27 25 28 26 29 27 30 28 31 29 32 30 33
REMARK SMILES IDX 31 34 32 35 78 36 33 37 77 38 34 39 35 40 36 41 71 42 37 43
REMARK SMILES IDX 76 44 70 45 72 46 38 47 75 48 69 49 68 50 39 52 61 53 46 54
REMARK SMILES IDX 60 55 47 56 50 57 59 58 73 59 48 60 49 61 58 63 74 64 51 65
REMARK SMILES IDX 40 66 41 67 45 68 42 69 44 70 43 71 62 72 63 73 67 74 64 75
REMARK SMILES IDX 66 76 65 77 52 78 53 79 57 80 54 81 56 82 55 83
REMARK H PARENT 2 24 72 51 50 62
REMARK Flexibility Score: inf
ROOT
ATOM      1  C   UNL     1      -4.644  -2.075   4.785  1.00  0.00     0.188 C 
ENDROOT
BRANCH   1   2
ATOM      2  O   UNL     1      -3.859  -0.948   5.136  1.00  0.00    -0.376 OA
BRANCH   2   3
ATOM      3  C   UNL     1      -2.514  -0.873   4.675  1.00  0.00     0.202 C 
BRANCH   3   4
ATOM      4  C   UNL     1      -1.650  -2.134   4.560  1.00  0.00     0.261 C 
BRANCH   4   5
ATOM      5  O   UNL     1      -2.299  -3.193   3.847  1.00  0.00    -0.460 OA
BRANCH   5   6
ATOM      6  C   UNL     1      -2.137  -4.439   4.346  1.00  0.00     0.339 C 
ATOM      7  O   UNL     1      -1.480  -4.749   5.326  1.00  0.00    -0.246 OA
BRANCH   6   8
ATOM      8  C   UNL     1      -3.087  -5.383   3.707  1.00  0.00     0.072 A 
ATOM      9  C   UNL     1      -3.158  -5.646   2.325  1.00  0.00     0.054 A 
ATOM     10  C   UNL     1      -4.097  -6.610   1.895  1.00  0.00     0.015 A 
ATOM     11  C   UNL     1      -4.974  -7.234   2.788  1.00  0.00     0.001 A 
ATOM     12  C   UNL     1      -3.982  -6.010   4.600  1.00  0.00     0.016 A 
ATOM     13  C   UNL     1      -4.934  -6.916   4.139  1.00  0.00     0.001 A 
BRANCH   9  14
ATOM     14  C   UNL     1      -2.385  -4.899   1.334  1.00  0.00     0.258 A 
ATOM     15  C   UNL     1      -1.417  -3.377   0.268  1.00  0.00     0.206 A 
ATOM     16  N   UNL     1      -2.155  -3.979  -0.677  1.00  0.00    -0.059 NA
ATOM     17  N   UNL     1      -1.430  -4.013   1.487  1.00  0.00    -0.189 NA
ATOM     18  O   UNL     1      -2.814  -4.984   0.034  1.00  0.00    -0.334 OA
BRANCH  15  19
ATOM     19  C   UNL     1      -0.832  -2.005   0.075  1.00  0.00     0.245 C 
ATOM     20  C   UNL     1       1.668  -0.003  -0.131  1.00  0.00     0.332 C 
ATOM     21  N   UNL     1       0.919  -0.383   1.064  1.00  0.00    -0.333 N 
ATOM     22  C   UNL     1      -0.227   0.514   1.299  1.00  0.00     0.290 C 
ATOM     23  C   UNL     1       0.420  -1.782   0.975  1.00  0.00     0.303 C 
ATOM     24  H   UNL     1       1.571  -0.305   1.844  1.00  0.00     0.348 HD
ATOM     25  C   UNL     1      -1.356   0.317   0.285  1.00  0.00     0.222 C 
ATOM     26  O   UNL     1      -1.855  -1.015   0.344  1.00  0.00    -0.358 OA
ENDBRANCH  15  19
ENDBRANCH   9  14
ENDBRANCH   6   8
ENDBRANCH   5   6
ENDBRANCH   4   5
ENDBRANCH   3   4
ENDBRANCH   2   3
ENDBRANCH   1   2
BRANCH   1  27
ATOM     27  C   UNL     1      -5.007  -2.328   3.306  1.00  0.00     0.188 C 
BRANCH  27  28
ATOM     28  O   UNL     1      -4.327  -1.626   2.300  1.00  0.00    -0.376 OA
BRANCH  28  29
ATOM     29  C   UNL     1      -4.604  -0.264   2.031  1.00  0.00     0.202 C 
BRANCH  29  30
ATOM     30  C   UNL     1      -5.809   0.540   2.554  1.00  0.00     0.261 C 
BRANCH  30  31
ATOM     31  O   UNL     1      -6.527   0.019   3.671  1.00  0.00    -0.460 OA
BRANCH  31  32
ATOM     32  C   UNL     1      -7.721  -0.554   3.385  1.00  0.00     0.338 C 
ATOM     33  O   UNL     1      -8.245  -0.692   2.293  1.00  0.00    -0.246 OA
BRANCH  32  34
ATOM     34  C   UNL     1      -8.215  -1.183   4.621  1.00  0.00     0.060 A 
ATOM     35  C   UNL     1      -8.283  -2.581   4.689  1.00  0.00     0.016 A 
ATOM     36  C   UNL     1      -8.569  -0.393   5.715  1.00  0.00     0.016 A 
ATOM     37  C   UNL     1      -8.690  -3.199   5.869  1.00  0.00     0.010 A 
ATOM     38  C   UNL     1      -9.012  -1.012   6.882  1.00  0.00     0.010 A 
ATOM     39  C   UNL     1      -9.084  -2.415   6.960  1.00  0.00    -0.014 A 
BRANCH  39  40
ATOM     40  C   UNL     1      -9.723  -3.045   8.135  1.00  0.00     0.031 A 
ATOM     41  C   UNL     1     -11.222  -3.066   8.201  1.00  0.00     0.074 A 
ATOM     42  C   UNL     1      -8.983  -3.573   9.125  1.00  0.00     0.049 A 
ATOM     43  N   UNL     1     -12.002  -3.454   9.175  1.00  0.00    -0.248 NA
ATOM     44  C   UNL     1     -11.938  -2.582   7.007  1.00  0.00     0.031 C 
ATOM     45  C   UNL     1      -7.524  -3.663   9.142  1.00  0.00     0.029 A 
ATOM     46  N   UNL     1      -9.370  -4.122  10.322  1.00  0.00    -0.354 N 
ATOM     47  C   UNL     1     -13.298  -3.257   8.716  1.00  0.00     0.074 A 
ATOM     48  C   UNL     1     -13.201  -2.692   7.388  1.00  0.00     0.031 C 
ATOM     49  C   UNL     1      -7.136  -4.217  10.305  1.00  0.00     0.029 A 
ATOM     50  C   UNL     1      -8.316  -4.477  11.129  1.00  0.00     0.049 A 
ATOM     51  H   UNL     1     -10.312  -4.249  10.578  1.00  0.00     0.167 HD
ATOM     52  C   UNL     1     -14.464  -3.527   9.345  1.00  0.00     0.031 A 
ATOM     53  C   UNL     1      -8.310  -4.923  12.400  1.00  0.00     0.031 A 
ATOM     54  C   UNL     1     -14.554  -4.064  10.675  1.00  0.00     0.049 A 
ATOM     55  C   UNL     1      -9.623  -5.097  13.122  1.00  0.00     0.074 A 
ATOM     56  C   UNL     1     -15.689  -4.368  11.406  1.00  0.00     0.029 A 
ATOM     57  N   UNL     1     -13.465  -4.367  11.477  1.00  0.00    -0.354 N 
ATOM     58  N   UNL     1     -10.844  -4.929  12.674  1.00  0.00    -0.248 NA
ATOM     59  C   UNL     1      -9.555  -5.520  14.529  1.00  0.00     0.031 C 
ATOM     60  C   UNL     1     -15.286  -4.800  12.673  1.00  0.00     0.029 A 
ATOM     61  C   UNL     1     -13.901  -4.826  12.707  1.00  0.00     0.049 A 
ATOM     62  H   UNL     1     -12.522  -4.270  11.211  1.00  0.00     0.167 HD
ATOM     63  C   UNL     1     -11.685  -5.255  13.731  1.00  0.00     0.074 A 
ATOM     64  C   UNL     1     -10.837  -5.651  14.835  1.00  0.00     0.031 C 
ATOM     65  C   UNL     1     -13.040  -5.226  13.788  1.00  0.00     0.031 A 
BRANCH  52  66
ATOM     66  C   UNL     1     -15.738  -3.220   8.613  1.00  0.00    -0.014 A 
ATOM     67  C   UNL     1     -16.155  -4.000   7.523  1.00  0.00     0.009 A 
ATOM     68  C   UNL     1     -16.560  -2.170   9.052  1.00  0.00     0.009 A 
ATOM     69  C   UNL     1     -17.360  -3.721   6.875  1.00  0.00     0.001 A 
ATOM     70  C   UNL     1     -17.777  -1.912   8.421  1.00  0.00     0.001 A 
ATOM     71  C   UNL     1     -18.174  -2.684   7.330  1.00  0.00     0.000 A 
ENDBRANCH  52  66
BRANCH  53  72
ATOM     72  C   UNL     1      -7.027  -5.192  13.106  1.00  0.00    -0.014 A 
ATOM     73  C   UNL     1      -6.699  -6.491  13.525  1.00  0.00     0.009 A 
ATOM     74  C   UNL     1      -6.153  -4.140  13.424  1.00  0.00     0.009 A 
ATOM     75  C   UNL     1      -5.546  -6.723  14.280  1.00  0.00     0.001 A 
ATOM     76  C   UNL     1      -4.984  -4.380  14.148  1.00  0.00     0.001 A 
ATOM     77  C   UNL     1      -4.689  -5.668  14.589  1.00  0.00     0.000 A 
ENDBRANCH  53  72
BRANCH  65  78
ATOM     78  C   UNL     1     -13.690  -5.671  15.069  1.00  0.00    -0.014 A 
ATOM     79  C   UNL     1     -13.636  -4.882  16.227  1.00  0.00     0.009 A 
ATOM     80  C   UNL     1     -14.417  -6.872  15.097  1.00  0.00     0.009 A 
ATOM     81  C   UNL     1     -14.273  -5.301  17.397  1.00  0.00     0.001 A 
ATOM     82  C   UNL     1     -15.081  -7.272  16.257  1.00  0.00     0.001 A 
ATOM     83  C   UNL     1     -15.001  -6.491  17.409  1.00  0.00     0.000 A 
ENDBRANCH  65  78
ENDBRANCH  39  40
ENDBRANCH  32  34
ENDBRANCH  31  32
ENDBRANCH  30  31
ENDBRANCH  29  30
ENDBRANCH  28  29
ENDBRANCH  27  28
ENDBRANCH   1  27
TORSDOF 19
