REMARK SMILES Cc1oc2cc(OCC(=O)OCCOCCOCCOC(=O)c3ccc(-c4c5nc(c(-c6ccccc6)c6ccc([nH]6)c(-c6ccccc6)c6nc(c(-c7ccccc7)c7ccc4[nH]7)C=C6)C=C5)cc3)ccc2c(=O)c1Oc1ccc(Cl)cc1Cl
REMARK SMILES IDX 15 1 14 2 13 3 12 4 11 5 9 6 10 7 8 8 7 9 6 10 1 11 2 12
REMARK SMILES IDX 3 13 76 14 4 15 74 16 5 17 73 18 75 19 72 20 71 21 77 22
REMARK SMILES IDX 78 23 79 24 84 25 80 26 83 27 85 28 81 29 82 30 16 31 17 32
REMARK SMILES IDX 18 33 19 34 20 35 21 36 22 37 23 38 24 39 70 40 25 41 69 42
REMARK SMILES IDX 26 43 27 44 28 45 63 46 29 47 68 48 62 49 64 50 30 51 67 52
REMARK SMILES IDX 61 53 60 54 31 56 53 57 38 58 52 59 39 60 42 61 51 62 65 63
REMARK SMILES IDX 40 64 41 65 50 67 66 68 43 69 32 70 33 71 37 72 34 73 36 74
REMARK SMILES IDX 35 75 54 76 55 77 59 78 56 79 58 80 57 81 44 82 45 83 49 84
REMARK SMILES IDX 46 85 48 86 47 87
REMARK H PARENT 64 55 42 66
REMARK Flexibility Score: inf
ROOT
ATOM      1  C   UNL     1       1.451   3.704  -2.388  1.00  0.00     0.188 C 
ENDROOT
BRANCH   1   2
ATOM      2  O   UNL     1       2.044   4.536  -3.376  1.00  0.00    -0.376 OA
BRANCH   2   3
ATOM      3  C   UNL     1       3.413   4.290  -3.687  1.00  0.00     0.202 C 
BRANCH   3   4
ATOM      4  C   UNL     1       4.369   4.449  -2.496  1.00  0.00     0.261 C 
BRANCH   4   5
ATOM      5  O   UNL     1       4.258   3.302  -1.618  1.00  0.00    -0.461 OA
BRANCH   5   6
ATOM      6  C   UNL     1       4.295   3.532  -0.279  1.00  0.00     0.344 C 
ATOM      7  O   UNL     1       4.628   4.600   0.224  1.00  0.00    -0.248 OA
BRANCH   6   8
ATOM      8  C   UNL     1       3.675   2.377   0.546  1.00  0.00     0.351 C 
BRANCH   8   9
ATOM      9  O   UNL     1       3.749   1.053   0.029  1.00  0.00    -0.482 OA
BRANCH   9  10
ATOM     10  C   UNL     1       2.729   0.149   0.214  1.00  0.00     0.123 A 
ATOM     11  C   UNL     1      -3.068  -0.052   0.502  1.00  0.00     0.092 C 
ATOM     12  C   UNL     1      -1.879  -0.940   0.611  1.00  0.00     0.148 A 
ATOM     13  O   UNL     1      -0.786  -0.266   1.173  1.00  0.00    -0.457 OA
ATOM     14  C   UNL     1      -1.833  -2.196   0.124  1.00  0.00     0.213 A 
ATOM     15  C   UNL     1       0.466  -0.597   0.722  1.00  0.00     0.142 A 
ATOM     16  C   UNL     1      -0.449  -2.789   0.024  1.00  0.00     0.235 A 
ATOM     17  C   UNL     1       1.496   0.366   0.829  1.00  0.00     0.094 A 
ATOM     18  C   UNL     1       0.687  -1.827   0.131  1.00  0.00     0.069 A 
ATOM     19  O   UNL     1      -0.255  -3.961  -0.189  1.00  0.00    -0.285 OA
ATOM     20  C   UNL     1       1.954  -2.106  -0.377  1.00  0.00     0.020 A 
ATOM     21  C   UNL     1       2.954  -1.112  -0.357  1.00  0.00     0.047 A 
BRANCH  14  22
ATOM     22  O   UNL     1      -2.889  -2.973  -0.387  1.00  0.00    -0.448 OA
BRANCH  22  23
ATOM     23  C   UNL     1      -4.196  -2.524  -0.297  1.00  0.00     0.146 A 
ATOM     24  C   UNL     1      -4.863  -2.546   0.938  1.00  0.00     0.050 A 
ATOM     25  C   UNL     1      -4.830  -1.957  -1.415  1.00  0.00     0.085 A 
ATOM     26  C   UNL     1      -6.079  -1.861   1.085  1.00  0.00     0.024 A 
ATOM     27  C   UNL     1      -6.048  -1.283  -1.267  1.00  0.00     0.045 A 
ATOM     28  Cl  UNL     1      -4.075  -1.944  -2.967  1.00  0.00    -0.080 Cl
ATOM     29  C   UNL     1      -6.647  -1.208  -0.010  1.00  0.00     0.042 A 
ATOM     30  Cl  UNL     1      -8.063  -0.251   0.203  1.00  0.00    -0.084 Cl
ENDBRANCH  22  23
ENDBRANCH  14  22
ENDBRANCH   9  10
ENDBRANCH   8   9
ENDBRANCH   6   8
ENDBRANCH   5   6
ENDBRANCH   4   5
ENDBRANCH   3   4
ENDBRANCH   2   3
ENDBRANCH   1   2
BRANCH   1  31
ATOM     31  C   UNL     1       1.635   2.182  -2.538  1.00  0.00     0.188 C 
BRANCH  31  32
ATOM     32  O   UNL     1       1.530   1.611  -3.829  1.00  0.00    -0.376 OA
BRANCH  32  33
ATOM     33  C   UNL     1       0.437   1.995  -4.649  1.00  0.00     0.202 C 
BRANCH  33  34
ATOM     34  C   UNL     1      -0.958   1.668  -4.110  1.00  0.00     0.261 C 
BRANCH  34  35
ATOM     35  O   UNL     1      -1.395   2.583  -3.070  1.00  0.00    -0.460 OA
BRANCH  35  36
ATOM     36  C   UNL     1      -1.542   1.990  -1.867  1.00  0.00     0.338 C 
ATOM     37  O   UNL     1      -1.330   0.806  -1.644  1.00  0.00    -0.246 OA
BRANCH  36  38
ATOM     38  C   UNL     1      -1.876   2.885  -0.729  1.00  0.00     0.060 A 
ATOM     39  C   UNL     1      -0.949   2.891   0.326  1.00  0.00     0.016 A 
ATOM     40  C   UNL     1      -3.215   3.180  -0.460  1.00  0.00     0.016 A 
ATOM     41  C   UNL     1      -1.379   2.957   1.657  1.00  0.00     0.010 A 
ATOM     42  C   UNL     1      -3.642   3.289   0.880  1.00  0.00     0.010 A 
ATOM     43  C   UNL     1      -2.746   3.070   1.951  1.00  0.00    -0.014 A 
BRANCH  43  44
ATOM     44  C   UNL     1      -3.230   3.059   3.356  1.00  0.00     0.031 A 
ATOM     45  C   UNL     1      -3.883   1.885   4.043  1.00  0.00     0.074 A 
ATOM     46  C   UNL     1      -3.113   4.209   4.029  1.00  0.00     0.049 A 
ATOM     47  N   UNL     1      -4.787   1.863   4.993  1.00  0.00    -0.248 NA
ATOM     48  C   UNL     1      -3.449   0.550   3.635  1.00  0.00     0.031 C 
ATOM     49  C   UNL     1      -2.384   5.382   3.553  1.00  0.00     0.029 A 
ATOM     50  N   UNL     1      -3.659   4.588   5.223  1.00  0.00    -0.354 N 
ATOM     51  C   UNL     1      -5.111   0.519   5.199  1.00  0.00     0.074 A 
ATOM     52  C   UNL     1      -4.294  -0.245   4.283  1.00  0.00     0.031 C 
ATOM     53  C   UNL     1      -2.596   6.387   4.407  1.00  0.00     0.029 A 
ATOM     54  C   UNL     1      -3.528   5.934   5.434  1.00  0.00     0.049 A 
ATOM     55  H   UNL     1      -4.093   3.969   5.854  1.00  0.00     0.167 HD
ATOM     56  C   UNL     1      -5.982  -0.016   6.093  1.00  0.00     0.031 A 
ATOM     57  C   UNL     1      -4.163   6.741   6.296  1.00  0.00     0.031 A 
ATOM     58  C   UNL     1      -6.615   0.753   7.139  1.00  0.00     0.049 A 
ATOM     59  C   UNL     1      -5.136   6.159   7.264  1.00  0.00     0.074 A 
ATOM     60  C   UNL     1      -7.447   0.317   8.158  1.00  0.00     0.029 A 
ATOM     61  N   UNL     1      -6.429   2.113   7.336  1.00  0.00    -0.354 N 
ATOM     62  N   UNL     1      -5.573   4.927   7.352  1.00  0.00    -0.248 NA
ATOM     63  C   UNL     1      -5.679   7.078   8.267  1.00  0.00     0.031 C 
ATOM     64  C   UNL     1      -7.786   1.419   8.953  1.00  0.00     0.029 A 
ATOM     65  C   UNL     1      -7.127   2.531   8.455  1.00  0.00     0.049 A 
ATOM     66  H   UNL     1      -5.880   2.695   6.763  1.00  0.00     0.167 HD
ATOM     67  C   UNL     1      -6.426   4.912   8.445  1.00  0.00     0.074 A 
ATOM     68  C   UNL     1      -6.434   6.259   8.985  1.00  0.00     0.031 C 
ATOM     69  C   UNL     1      -7.130   3.876   8.964  1.00  0.00     0.031 A 
BRANCH  56  70
ATOM     70  C   UNL     1      -6.333  -1.486   6.014  1.00  0.00    -0.014 A 
ATOM     71  C   UNL     1      -5.447  -2.503   6.395  1.00  0.00     0.009 A 
ATOM     72  C   UNL     1      -7.653  -1.845   5.676  1.00  0.00     0.009 A 
ATOM     73  C   UNL     1      -5.865  -3.841   6.420  1.00  0.00     0.001 A 
ATOM     74  C   UNL     1      -8.077  -3.176   5.731  1.00  0.00     0.001 A 
ATOM     75  C   UNL     1      -7.181  -4.175   6.098  1.00  0.00     0.000 A 
ENDBRANCH  56  70
BRANCH  57  76
ATOM     76  C   UNL     1      -3.877   8.188   6.211  1.00  0.00    -0.014 A 
ATOM     77  C   UNL     1      -2.963   8.770   7.096  1.00  0.00     0.009 A 
ATOM     78  C   UNL     1      -4.376   8.940   5.133  1.00  0.00     0.009 A 
ATOM     79  C   UNL     1      -2.542  10.084   6.898  1.00  0.00     0.001 A 
ATOM     80  C   UNL     1      -3.933  10.245   4.925  1.00  0.00     0.001 A 
ATOM     81  C   UNL     1      -3.016  10.814   5.807  1.00  0.00     0.000 A 
ENDBRANCH  57  76
BRANCH  69  82
ATOM     82  C   UNL     1      -7.927   4.171  10.199  1.00  0.00    -0.014 A 
ATOM     83  C   UNL     1      -9.121   4.905  10.131  1.00  0.00     0.009 A 
ATOM     84  C   UNL     1      -7.460   3.733  11.448  1.00  0.00     0.009 A 
ATOM     85  C   UNL     1      -9.806   5.240  11.299  1.00  0.00     0.001 A 
ATOM     86  C   UNL     1      -8.161   4.049  12.611  1.00  0.00     0.001 A 
ATOM     87  C   UNL     1      -9.325   4.814  12.537  1.00  0.00     0.000 A 
ENDBRANCH  69  82
ENDBRANCH  43  44
ENDBRANCH  36  38
ENDBRANCH  35  36
ENDBRANCH  34  35
ENDBRANCH  33  34
ENDBRANCH  32  33
ENDBRANCH  31  32
ENDBRANCH   1  31
TORSDOF 21
