REMARK SMILES O=C(OCCOCCOCCOC(=O)c1ccc(-c2c3nc(c(-c4ccccc4)c4ccc([nH]4)c(-c4ccccc4)c4nc(c(-c5ccccc5)c5ccc2[nH]5)C=C4)C=C3)cc1)C1=Cc2c(ccc(Cl)c2-c2ccccc2)O[C@H]1C(F)(F)F
REMARK SMILES IDX 8 1 7 2 6 3 5 4 4 5 3 6 2 7 1 8 63 9 64 10 79 11 65 12 78 13
REMARK SMILES IDX 66 14 71 15 67 16 69 17 68 18 70 19 80 20 81 21 82 22 83 23
REMARK SMILES IDX 72 24 73 25 77 26 74 27 76 28 75 29 9 30 10 31 11 32 12 33
REMARK SMILES IDX 13 34 14 35 15 36 16 37 62 38 17 39 61 40 18 41 19 42 20 43
REMARK SMILES IDX 55 44 21 45 60 46 54 47 56 48 22 49 59 50 53 51 52 52 23 54
REMARK SMILES IDX 45 55 30 56 44 57 31 58 34 59 43 60 57 61 32 62 33 63 42 65
REMARK SMILES IDX 58 66 35 67 24 68 25 69 29 70 26 71 28 72 27 73 46 74 47 75
REMARK SMILES IDX 51 76 48 77 50 78 49 79 36 80 37 81 41 82 38 83 40 84 39 85
REMARK H PARENT 56 53 34 64
REMARK Flexibility Score: inf
ROOT
ATOM      1  C   UNL     1       1.957  -0.169  -2.661  1.00  0.00     0.188 C 
ENDROOT
BRANCH   1   2
ATOM      2  C   UNL     1       0.746   0.878  -2.159  1.00  0.00     0.188 C 
BRANCH   2   3
ATOM      3  O   UNL     1       0.963   1.880  -1.176  1.00  0.00    -0.376 OA
BRANCH   3   4
ATOM      4  C   UNL     1       1.649   1.560   0.018  1.00  0.00     0.202 C 
BRANCH   4   5
ATOM      5  C   UNL     1       1.635   0.117   0.536  1.00  0.00     0.261 C 
BRANCH   5   6
ATOM      6  O   UNL     1       1.736   0.075   1.969  1.00  0.00    -0.460 OA
BRANCH   6   7
ATOM      7  C   UNL     1       2.824   0.412   2.693  1.00  0.00     0.338 C 
ATOM      8  O   UNL     1       2.759   0.431   3.911  1.00  0.00    -0.246 OA
BRANCH   7   9
ATOM      9  C   UNL     1       4.113   0.742   2.046  1.00  0.00     0.087 C 
ATOM     10  C   UNL     1       4.382   0.927   0.741  1.00  0.00     0.028 C 
ATOM     11  C   UNL     1       5.273   0.850   2.997  1.00  0.00     0.316 C 
ATOM     12  C   UNL     1       5.343  -0.069   0.244  1.00  0.00     0.027 A 
ATOM     13  O   UNL     1       6.500   0.336   2.387  1.00  0.00    -0.475 OA
ATOM     14  C   UNL     1       6.362  -0.362   1.199  1.00  0.00     0.128 A 
ATOM     15  C   UNL     1       5.255  -0.693  -1.041  1.00  0.00     0.011 A 
ATOM     16  C   UNL     1       7.291  -1.347   0.947  1.00  0.00     0.049 A 
ATOM     17  C   UNL     1       6.275  -1.659  -1.262  1.00  0.00     0.049 A 
ATOM     18  C   UNL     1       7.233  -2.003  -0.276  1.00  0.00     0.025 A 
ATOM     19  Cl  UNL     1       6.539  -2.454  -2.782  1.00  0.00    -0.084 Cl
BRANCH  11  20
ATOM     20  C   UNL     1       5.388   2.316   3.486  1.00  0.00     0.430 C 
ATOM     21  F   UNL     1       4.605   3.160   2.760  1.00  0.00    -0.167 F 
ATOM     22  F   UNL     1       5.006   2.449   4.776  1.00  0.00    -0.167 F 
ATOM     23  F   UNL     1       6.649   2.794   3.388  1.00  0.00    -0.167 F 
ENDBRANCH  11  20
BRANCH  15  24
ATOM     24  C   UNL     1       4.174  -0.397  -2.099  1.00  0.00    -0.016 A 
ATOM     25  C   UNL     1       3.553  -1.758  -3.118  1.00  0.00     0.009 A 
ATOM     26  C   UNL     1       3.524   1.261  -2.441  1.00  0.00     0.009 A 
ATOM     27  C   UNL     1       2.436  -1.498  -4.502  1.00  0.00     0.001 A 
ATOM     28  C   UNL     1       2.357   1.542  -3.847  1.00  0.00     0.001 A 
ATOM     29  C   UNL     1       1.823   0.150  -4.870  1.00  0.00     0.000 A 
ENDBRANCH  15  24
ENDBRANCH   7   9
ENDBRANCH   6   7
ENDBRANCH   5   6
ENDBRANCH   4   5
ENDBRANCH   3   4
ENDBRANCH   2   3
ENDBRANCH   1   2
BRANCH   1  30
ATOM     30  O   UNL     1       3.494   0.010  -3.914  1.00  0.00    -0.376 OA
BRANCH  30  31
ATOM     31  C   UNL     1       4.591   0.854  -4.596  1.00  0.00     0.202 C 
BRANCH  31  32
ATOM     32  C   UNL     1       4.653   2.420  -4.925  1.00  0.00     0.261 C 
BRANCH  32  33
ATOM     33  O   UNL     1       4.453   3.370  -3.829  1.00  0.00    -0.460 OA
BRANCH  33  34
ATOM     34  C   UNL     1       3.630   4.429  -4.092  1.00  0.00     0.338 C 
ATOM     35  O   UNL     1       3.217   4.760  -5.190  1.00  0.00    -0.246 OA
BRANCH  34  36
ATOM     36  C   UNL     1       3.092   5.082  -2.860  1.00  0.00     0.060 A 
ATOM     37  C   UNL     1       1.794   4.767  -2.425  1.00  0.00     0.016 A 
ATOM     38  C   UNL     1       3.733   6.184  -2.294  1.00  0.00     0.016 A 
ATOM     39  C   UNL     1       1.132   5.543  -1.462  1.00  0.00     0.010 A 
ATOM     40  C   UNL     1       3.061   6.978  -1.338  1.00  0.00     0.010 A 
ATOM     41  C   UNL     1       1.739   6.689  -0.944  1.00  0.00    -0.014 A 
BRANCH  41  42
ATOM     42  C   UNL     1       0.927   7.675  -0.167  1.00  0.00     0.031 A 
ATOM     43  C   UNL     1       0.349   8.875  -0.883  1.00  0.00     0.074 A 
ATOM     44  C   UNL     1       0.652   7.509   1.141  1.00  0.00     0.049 A 
ATOM     45  N   UNL     1      -0.331   9.889  -0.404  1.00  0.00    -0.248 NA
ATOM     46  C   UNL     1       0.564   8.933  -2.338  1.00  0.00     0.031 C 
ATOM     47  C   UNL     1       1.063   6.370   1.958  1.00  0.00     0.029 A 
ATOM     48  N   UNL     1      -0.041   8.316   2.017  1.00  0.00    -0.354 N 
ATOM     49  C   UNL     1      -0.620  10.704  -1.493  1.00  0.00     0.074 A 
ATOM     50  C   UNL     1      -0.019  10.081  -2.654  1.00  0.00     0.031 C 
ATOM     51  C   UNL     1       0.638   6.562   3.221  1.00  0.00     0.029 A 
ATOM     52  C   UNL     1      -0.047   7.852   3.312  1.00  0.00     0.049 A 
ATOM     53  H   UNL     1      -0.489   9.148   1.742  1.00  0.00     0.167 HD
ATOM     54  C   UNL     1      -1.321  11.865  -1.534  1.00  0.00     0.031 A 
ATOM     55  C   UNL     1      -0.521   8.410   4.445  1.00  0.00     0.031 A 
ATOM     56  C   UNL     1      -1.905  12.512  -0.387  1.00  0.00     0.049 A 
ATOM     57  C   UNL     1      -1.209   9.754   4.391  1.00  0.00     0.074 A 
ATOM     58  C   UNL     1      -2.616  13.700  -0.335  1.00  0.00     0.029 A 
ATOM     59  N   UNL     1      -1.843  12.030   0.910  1.00  0.00    -0.354 N 
ATOM     60  N   UNL     1      -1.467  10.515   3.355  1.00  0.00    -0.248 NA
ATOM     61  C   UNL     1      -1.680  10.309   5.671  1.00  0.00     0.031 C 
ATOM     62  C   UNL     1      -2.936  13.965   1.001  1.00  0.00     0.029 A 
ATOM     63  C   UNL     1      -2.483  12.908   1.772  1.00  0.00     0.049 A 
ATOM     64  H   UNL     1      -1.410  11.189   1.180  1.00  0.00     0.167 HD
ATOM     65  C   UNL     1      -2.151  11.619   3.854  1.00  0.00     0.074 A 
ATOM     66  C   UNL     1      -2.294  11.416   5.279  1.00  0.00     0.031 C 
ATOM     67  C   UNL     1      -2.617  12.707   3.191  1.00  0.00     0.031 A 
BRANCH  54  68
ATOM     68  C   UNL     1      -1.472  12.539  -2.872  1.00  0.00    -0.014 A 
ATOM     69  C   UNL     1      -2.309  12.008  -3.866  1.00  0.00     0.009 A 
ATOM     70  C   UNL     1      -0.809  13.751  -3.122  1.00  0.00     0.009 A 
ATOM     71  C   UNL     1      -2.456  12.662  -5.092  1.00  0.00     0.001 A 
ATOM     72  C   UNL     1      -0.980  14.418  -4.337  1.00  0.00     0.001 A 
ATOM     73  C   UNL     1      -1.797  13.869  -5.324  1.00  0.00     0.000 A 
ENDBRANCH  54  68
BRANCH  55  74
ATOM     74  C   UNL     1      -0.326   7.733   5.759  1.00  0.00    -0.014 A 
ATOM     75  C   UNL     1      -1.421   7.266   6.505  1.00  0.00     0.009 A 
ATOM     76  C   UNL     1       0.962   7.607   6.305  1.00  0.00     0.009 A 
ATOM     77  C   UNL     1      -1.232   6.721   7.779  1.00  0.00     0.001 A 
ATOM     78  C   UNL     1       1.151   7.029   7.562  1.00  0.00     0.001 A 
ATOM     79  C   UNL     1       0.053   6.598   8.304  1.00  0.00     0.000 A 
ENDBRANCH  55  74
BRANCH  67  80
ATOM     80  C   UNL     1      -3.357  13.743   3.997  1.00  0.00    -0.014 A 
ATOM     81  C   UNL     1      -2.696  14.553   4.936  1.00  0.00     0.009 A 
ATOM     82  C   UNL     1      -4.737  13.918   3.808  1.00  0.00     0.009 A 
ATOM     83  C   UNL     1      -3.411  15.475   5.704  1.00  0.00     0.001 A 
ATOM     84  C   UNL     1      -5.444  14.865   4.553  1.00  0.00     0.001 A 
ATOM     85  C   UNL     1      -4.783  15.632   5.511  1.00  0.00     0.000 A 
ENDBRANCH  67  80
ENDBRANCH  41  42
ENDBRANCH  34  36
ENDBRANCH  33  34
ENDBRANCH  32  33
ENDBRANCH  31  32
ENDBRANCH  30  31
ENDBRANCH   1  30
TORSDOF 19
