REMARK SMILES CC[C@@H](C(=O)OCCOCCOCCOC(=O)c1ccc(-c2c3nc(c(-c4ccccc4)c4ccc([nH]4)c(-c4ccccc4)c4nc(c(-c5ccccc5)c5ccc2[nH]5)C=C4)C=C3)cc1)n1c(SCc2cccc(C(F)(F)F)c2)nc2ccncc21
REMARK SMILES IDX 9 1 8 2 7 3 6 4 4 5 5 6 3 7 2 8 1 9 66 10 67 11 86 12 80 13
REMARK SMILES IDX 81 14 85 15 82 16 84 17 83 18 68 19 69 20 70 21 71 22 79 23
REMARK SMILES IDX 72 24 74 25 73 26 75 27 76 28 77 29 78 30 10 31 11 32 12 33
REMARK SMILES IDX 13 34 14 35 15 36 16 37 17 38 18 39 19 40 65 41 20 42 64 43
REMARK SMILES IDX 21 44 22 45 23 46 58 47 24 48 63 49 57 50 59 51 25 52 62 53
REMARK SMILES IDX 56 54 55 55 26 57 48 58 33 59 47 60 34 61 37 62 46 63 60 64
REMARK SMILES IDX 35 65 36 66 45 68 61 69 38 70 27 71 28 72 32 73 29 74 31 75
REMARK SMILES IDX 30 76 49 77 50 78 54 79 51 80 53 81 52 82 39 83 40 84 44 85
REMARK SMILES IDX 41 86 43 87 42 88
REMARK H PARENT 59 56 37 67
REMARK Flexibility Score: inf
ROOT
ATOM      1  O   UNL     1      -1.461  -1.002   4.776  1.00  0.00    -0.376 OA
ENDROOT
BRANCH   1   2
ATOM      2  C   UNL     1      -0.630   0.158   4.743  1.00  0.00     0.202 C 
BRANCH   2   3
ATOM      3  C   UNL     1       0.814  -0.041   4.263  1.00  0.00     0.261 C 
BRANCH   3   4
ATOM      4  O   UNL     1       0.924  -0.615   2.943  1.00  0.00    -0.462 OA
BRANCH   4   5
ATOM      5  C   UNL     1       1.526  -1.834   2.859  1.00  0.00     0.329 C 
ATOM      6  O   UNL     1       2.010  -2.420   3.820  1.00  0.00    -0.250 OA
BRANCH   5   7
ATOM      7  C   UNL     1       1.609  -2.376   1.430  1.00  0.00     0.199 C 
BRANCH   7   8
ATOM      8  C   UNL     1       0.814  -1.637   0.334  1.00  0.00     0.034 C 
ATOM      9  C   UNL     1       1.240  -0.199   0.059  1.00  0.00     0.007 C 
ENDBRANCH   7   8
BRANCH   7  10
ATOM     10  N   UNL     1       1.415  -3.840   1.425  1.00  0.00    -0.303 N 
ATOM     11  C   UNL     1       2.314  -4.811   1.837  1.00  0.00     0.170 A 
ATOM     12  C   UNL     1       0.222  -4.527   1.203  1.00  0.00     0.088 A 
ATOM     13  N   UNL     1       1.678  -5.862   2.306  1.00  0.00    -0.222 NA
ATOM     14  C   UNL     1       0.411  -5.757   1.830  1.00  0.00     0.093 A 
ATOM     15  C   UNL     1      -0.965  -4.269   0.534  1.00  0.00     0.139 A 
ATOM     16  C   UNL     1      -0.591  -6.724   1.838  1.00  0.00     0.051 A 
ATOM     17  N   UNL     1      -1.905  -5.239   0.466  1.00  0.00    -0.262 NA
ATOM     18  C   UNL     1      -1.707  -6.418   1.093  1.00  0.00     0.113 A 
BRANCH  11  19
ATOM     19  S   UNL     1       4.006  -5.000   1.525  1.00  0.00    -0.083 SA
BRANCH  19  20
ATOM     20  C   UNL     1       4.757  -3.533   0.868  1.00  0.00     0.113 C 
BRANCH  20  21
ATOM     21  C   UNL     1       4.288  -2.938  -0.442  1.00  0.00    -0.037 A 
ATOM     22  C   UNL     1       4.681  -1.610  -0.698  1.00  0.00     0.004 A 
ATOM     23  C   UNL     1       3.480  -3.587  -1.389  1.00  0.00     0.017 A 
ATOM     24  C   UNL     1       4.239  -0.929  -1.829  1.00  0.00     0.001 A 
ATOM     25  C   UNL     1       3.006  -2.898  -2.524  1.00  0.00     0.056 A 
ATOM     26  C   UNL     1       3.393  -1.565  -2.730  1.00  0.00     0.013 A 
BRANCH  25  27
ATOM     27  C   UNL     1       2.035  -3.535  -3.493  1.00  0.00     0.416 C 
ATOM     28  F   UNL     1       0.835  -2.889  -3.501  1.00  0.00    -0.166 F 
ATOM     29  F   UNL     1       2.482  -3.508  -4.778  1.00  0.00    -0.166 F 
ATOM     30  F   UNL     1       1.754  -4.836  -3.214  1.00  0.00    -0.166 F 
ENDBRANCH  25  27
ENDBRANCH  20  21
ENDBRANCH  19  20
ENDBRANCH  11  19
ENDBRANCH   7  10
ENDBRANCH   5   7
ENDBRANCH   4   5
ENDBRANCH   3   4
ENDBRANCH   2   3
ENDBRANCH   1   2
BRANCH   1  31
ATOM     31  C   UNL     1      -1.692  -1.678   3.544  1.00  0.00     0.188 C 
BRANCH  31  32
ATOM     32  C   UNL     1      -2.374  -0.862   2.446  1.00  0.00     0.188 C 
BRANCH  32  33
ATOM     33  O   UNL     1      -1.877   0.456   2.273  1.00  0.00    -0.376 OA
BRANCH  33  34
ATOM     34  C   UNL     1      -2.689   1.353   1.506  1.00  0.00     0.202 C 
BRANCH  34  35
ATOM     35  C   UNL     1      -4.178   1.483   1.906  1.00  0.00     0.261 C 
BRANCH  35  36
ATOM     36  O   UNL     1      -4.966   0.274   1.818  1.00  0.00    -0.460 OA
BRANCH  36  37
ATOM     37  C   UNL     1      -4.931  -0.417   0.649  1.00  0.00     0.338 C 
ATOM     38  O   UNL     1      -4.558   0.015  -0.418  1.00  0.00    -0.246 OA
BRANCH  37  39
ATOM     39  C   UNL     1      -5.176  -1.871   0.933  1.00  0.00     0.060 A 
ATOM     40  C   UNL     1      -4.628  -2.802   0.046  1.00  0.00     0.016 A 
ATOM     41  C   UNL     1      -5.826  -2.337   2.087  1.00  0.00     0.016 A 
ATOM     42  C   UNL     1      -4.747  -4.175   0.299  1.00  0.00     0.010 A 
ATOM     43  C   UNL     1      -5.948  -3.718   2.335  1.00  0.00     0.010 A 
ATOM     44  C   UNL     1      -5.418  -4.655   1.437  1.00  0.00    -0.014 A 
BRANCH  44  45
ATOM     45  C   UNL     1      -5.717  -6.116   1.551  1.00  0.00     0.031 A 
ATOM     46  C   UNL     1      -6.757  -6.695   0.625  1.00  0.00     0.074 A 
ATOM     47  C   UNL     1      -5.086  -6.943   2.409  1.00  0.00     0.049 A 
ATOM     48  N   UNL     1      -7.137  -7.939   0.467  1.00  0.00    -0.248 NA
ATOM     49  C   UNL     1      -7.471  -5.733  -0.230  1.00  0.00     0.031 C 
ATOM     50  C   UNL     1      -4.044  -6.559   3.357  1.00  0.00     0.029 A 
ATOM     51  N   UNL     1      -5.203  -8.308   2.583  1.00  0.00    -0.354 N 
ATOM     52  C   UNL     1      -8.134  -7.905  -0.500  1.00  0.00     0.074 A 
ATOM     53  C   UNL     1      -8.294  -6.523  -0.898  1.00  0.00     0.031 C 
ATOM     54  C   UNL     1      -3.572  -7.666   3.963  1.00  0.00     0.029 A 
ATOM     55  C   UNL     1      -4.311  -8.837   3.489  1.00  0.00     0.049 A 
ATOM     56  H   UNL     1      -5.866  -8.854   2.102  1.00  0.00     0.167 HD
ATOM     57  C   UNL     1      -8.883  -8.918  -0.997  1.00  0.00     0.031 A 
ATOM     58  C   UNL     1      -4.111 -10.113   3.888  1.00  0.00     0.031 A 
ATOM     59  C   UNL     1      -8.809 -10.286  -0.564  1.00  0.00     0.049 A 
ATOM     60  C   UNL     1      -5.000 -11.218   3.359  1.00  0.00     0.074 A 
ATOM     61  C   UNL     1      -9.576 -11.361  -0.980  1.00  0.00     0.029 A 
ATOM     62  N   UNL     1      -7.940 -10.763   0.401  1.00  0.00    -0.354 N 
ATOM     63  N   UNL     1      -5.920 -11.173   2.426  1.00  0.00    -0.248 NA
ATOM     64  C   UNL     1      -4.833 -12.553   3.963  1.00  0.00     0.031 C 
ATOM     65  C   UNL     1      -9.215 -12.476  -0.218  1.00  0.00     0.029 A 
ATOM     66  C   UNL     1      -8.172 -12.111   0.617  1.00  0.00     0.049 A 
ATOM     67  H   UNL     1      -7.258 -10.225   0.864  1.00  0.00     0.167 HD
ATOM     68  C   UNL     1      -6.433 -12.464   2.332  1.00  0.00     0.074 A 
ATOM     69  C   UNL     1      -5.696 -13.282   3.268  1.00  0.00     0.031 C 
ATOM     70  C   UNL     1      -7.440 -12.926   1.550  1.00  0.00     0.031 A 
BRANCH  57  71
ATOM     71  C   UNL     1      -9.923  -8.549  -2.015  1.00  0.00    -0.014 A 
ATOM     72  C   UNL     1      -9.569  -8.191  -3.325  1.00  0.00     0.009 A 
ATOM     73  C   UNL     1     -11.278  -8.553  -1.649  1.00  0.00     0.009 A 
ATOM     74  C   UNL     1     -10.552  -7.807  -4.238  1.00  0.00     0.001 A 
ATOM     75  C   UNL     1     -12.260  -8.197  -2.572  1.00  0.00     0.001 A 
ATOM     76  C   UNL     1     -11.896  -7.813  -3.862  1.00  0.00     0.000 A 
ENDBRANCH  57  71
BRANCH  58  77
ATOM     77  C   UNL     1      -3.045 -10.458   4.876  1.00  0.00    -0.014 A 
ATOM     78  C   UNL     1      -1.992 -11.321   4.520  1.00  0.00     0.009 A 
ATOM     79  C   UNL     1      -3.120 -10.008   6.203  1.00  0.00     0.009 A 
ATOM     80  C   UNL     1      -1.067 -11.752   5.477  1.00  0.00     0.001 A 
ATOM     81  C   UNL     1      -2.172 -10.410   7.148  1.00  0.00     0.001 A 
ATOM     82  C   UNL     1      -1.156 -11.293   6.789  1.00  0.00     0.000 A 
ENDBRANCH  58  77
BRANCH  70  83
ATOM     83  C   UNL     1      -7.805 -14.384   1.653  1.00  0.00    -0.014 A 
ATOM     84  C   UNL     1      -8.444 -14.901   2.791  1.00  0.00     0.009 A 
ATOM     85  C   UNL     1      -7.569 -15.240   0.564  1.00  0.00     0.009 A 
ATOM     86  C   UNL     1      -8.810 -16.249   2.849  1.00  0.00     0.001 A 
ATOM     87  C   UNL     1      -7.964 -16.579   0.613  1.00  0.00     0.001 A 
ATOM     88  C   UNL     1      -8.576 -17.084   1.758  1.00  0.00     0.000 A 
ENDBRANCH  70  83
ENDBRANCH  44  45
ENDBRANCH  37  39
ENDBRANCH  36  37
ENDBRANCH  35  36
ENDBRANCH  34  35
ENDBRANCH  33  34
ENDBRANCH  32  33
ENDBRANCH  31  32
ENDBRANCH   1  31
TORSDOF 23
