REMARK SMILES C[NH+](C)Cc1ccccc1[C@H]1[NH2+][C@@H](C(=O)OCCOCCOCCOC(=O)c2ccc(-c3c4nc(c(-c5ccccc5)c5ccc([nH]5)c(-c5ccccc5)c5nc(c(-c6ccccc6)c6ccc3[nH]6)C=C5)C=C4)cc2)C(C)(C)S1
REMARK SMILES IDX 20 1 19 2 18 3 17 4 16 5 14 6 15 7 13 8 11 9 12 10 79 11
REMARK SMILES IDX 76 14 77 15 78 16 10 17 5 18 6 19 7 20 9 21 8 22 4 23 2 24
REMARK SMILES IDX 1 25 3 26 21 28 22 29 23 30 24 31 25 32 26 33 27 34 28 35
REMARK SMILES IDX 29 36 75 37 30 38 74 39 31 40 32 41 33 42 68 43 34 44 73 45
REMARK SMILES IDX 67 46 69 47 35 48 72 49 66 50 65 51 36 53 58 54 43 55 57 56
REMARK SMILES IDX 44 57 47 58 56 59 70 60 45 61 46 62 55 64 71 65 48 66 37 67
REMARK SMILES IDX 38 68 42 69 39 70 41 71 40 72 59 73 60 74 64 75 61 76 63 77
REMARK SMILES IDX 62 78 49 79 50 80 54 81 51 82 53 83 52 84
REMARK H PARENT 12 12 12 13 2 27 69 52 47 63
REMARK Flexibility Score: inf
ROOT
ATOM      1  C   UNL     1       6.211  -4.266   4.054  1.00  0.00     0.188 C 
ENDROOT
BRANCH   1   2
ATOM      2  O   UNL     1       7.144  -3.410   3.403  1.00  0.00    -0.376 OA
BRANCH   2   3
ATOM      3  C   UNL     1       6.735  -2.155   2.875  1.00  0.00     0.202 C 
BRANCH   3   4
ATOM      4  C   UNL     1       5.807  -2.145   1.646  1.00  0.00     0.261 C 
BRANCH   4   5
ATOM      5  O   UNL     1       4.516  -2.795   1.759  1.00  0.00    -0.459 OA
BRANCH   5   6
ATOM      6  C   UNL     1       4.455  -4.068   1.281  1.00  0.00     0.366 C 
ATOM      7  O   UNL     1       5.431  -4.662   0.828  1.00  0.00    -0.245 OA
BRANCH   6   8
ATOM      8  C   UNL     1       3.031  -4.687   1.206  1.00  0.00     0.310 C 
ATOM      9  C   UNL     1       1.144  -4.813  -0.276  1.00  0.00     0.275 C 
ATOM     10  N   UNL     1       2.530  -4.398  -0.157  1.00  0.00    -0.319 N 
ATOM     11  S   UNL     1       0.382  -4.925   1.351  1.00  0.00    -0.081 SA
ATOM     12  H   UNL     1       2.599  -3.397  -0.336  1.00  0.00     0.348 HD
ATOM     13  H   UNL     1       3.092  -4.912  -0.835  1.00  0.00     0.348 HD
ATOM     14  C   UNL     1       1.917  -4.499   2.286  1.00  0.00     0.079 C 
ATOM     15  C   UNL     1       1.710  -3.142   2.974  1.00  0.00     0.030 C 
ATOM     16  C   UNL     1       1.961  -5.578   3.381  1.00  0.00     0.030 C 
BRANCH   9  17
ATOM     17  C   UNL     1       0.389  -3.962  -1.298  1.00  0.00     0.029 A 
ATOM     18  C   UNL     1       0.110  -2.563  -1.151  1.00  0.00     0.016 A 
ATOM     19  C   UNL     1      -0.531  -1.897  -2.204  1.00  0.00     0.010 A 
ATOM     20  C   UNL     1      -0.899  -2.567  -3.372  1.00  0.00     0.001 A 
ATOM     21  C   UNL     1       0.007  -4.611  -2.491  1.00  0.00     0.011 A 
ATOM     22  C   UNL     1      -0.634  -3.921  -3.515  1.00  0.00     0.001 A 
BRANCH  18  23
ATOM     23  C   UNL     1       0.496  -1.849   0.128  1.00  0.00     0.299 C 
BRANCH  23  24
ATOM     24  N   UNL     1       0.163  -0.469   0.448  1.00  0.00    -0.336 N 
ATOM     25  C   UNL     1       0.898   0.556  -0.251  1.00  0.00     0.332 C 
ATOM     26  C   UNL     1      -1.235  -0.224   0.722  1.00  0.00     0.332 C 
ATOM     27  H   UNL     1       0.575  -0.348   1.374  1.00  0.00     0.347 HD
ENDBRANCH  23  24
ENDBRANCH  18  23
ENDBRANCH   9  17
ENDBRANCH   6   8
ENDBRANCH   5   6
ENDBRANCH   4   5
ENDBRANCH   3   4
ENDBRANCH   2   3
ENDBRANCH   1   2
BRANCH   1  28
ATOM     28  C   UNL     1       4.880  -3.698   4.540  1.00  0.00     0.188 C 
BRANCH  28  29
ATOM     29  O   UNL     1       4.935  -2.340   4.898  1.00  0.00    -0.376 OA
BRANCH  29  30
ATOM     30  C   UNL     1       4.643  -1.969   6.227  1.00  0.00     0.202 C 
BRANCH  30  31
ATOM     31  C   UNL     1       5.455  -2.626   7.353  1.00  0.00     0.261 C 
BRANCH  31  32
ATOM     32  O   UNL     1       5.677  -4.044   7.258  1.00  0.00    -0.460 OA
BRANCH  32  33
ATOM     33  C   UNL     1       4.635  -4.862   7.522  1.00  0.00     0.338 C 
ATOM     34  O   UNL     1       3.493  -4.526   7.812  1.00  0.00    -0.246 OA
BRANCH  33  35
ATOM     35  C   UNL     1       5.041  -6.239   7.165  1.00  0.00     0.060 A 
ATOM     36  C   UNL     1       4.315  -6.938   6.191  1.00  0.00     0.016 A 
ATOM     37  C   UNL     1       6.139  -6.837   7.781  1.00  0.00     0.016 A 
ATOM     38  C   UNL     1       4.673  -8.238   5.834  1.00  0.00     0.010 A 
ATOM     39  C   UNL     1       6.479  -8.151   7.450  1.00  0.00     0.010 A 
ATOM     40  C   UNL     1       5.733  -8.867   6.494  1.00  0.00    -0.014 A 
BRANCH  40  41
ATOM     41  C   UNL     1       5.948 -10.325   6.338  1.00  0.00     0.031 A 
ATOM     42  C   UNL     1       5.459 -11.236   7.430  1.00  0.00     0.074 A 
ATOM     43  C   UNL     1       6.561 -10.835   5.256  1.00  0.00     0.049 A 
ATOM     44  N   UNL     1       5.649 -12.520   7.591  1.00  0.00    -0.248 NA
ATOM     45  C   UNL     1       4.652 -10.607   8.489  1.00  0.00     0.031 C 
ATOM     46  C   UNL     1       7.012 -10.071   4.095  1.00  0.00     0.029 A 
ATOM     47  N   UNL     1       6.922 -12.129   4.970  1.00  0.00    -0.354 N 
ATOM     48  C   UNL     1       5.011 -12.846   8.781  1.00  0.00     0.074 A 
ATOM     49  C   UNL     1       4.446 -11.624   9.311  1.00  0.00     0.031 C 
ATOM     50  C   UNL     1       7.604 -10.909   3.226  1.00  0.00     0.029 A 
ATOM     51  C   UNL     1       7.620 -12.256   3.795  1.00  0.00     0.049 A 
ATOM     52  H   UNL     1       6.701 -12.892   5.552  1.00  0.00     0.167 HD
ATOM     53  C   UNL     1       4.907 -14.055   9.381  1.00  0.00     0.031 A 
ATOM     54  C   UNL     1       8.235 -13.329   3.260  1.00  0.00     0.031 A 
ATOM     55  C   UNL     1       5.478 -15.265   8.854  1.00  0.00     0.049 A 
ATOM     56  C   UNL     1       8.189 -14.645   3.992  1.00  0.00     0.074 A 
ATOM     57  C   UNL     1       5.426 -16.543   9.381  1.00  0.00     0.029 A 
ATOM     58  N   UNL     1       6.211 -15.343   7.680  1.00  0.00    -0.354 N 
ATOM     59  N   UNL     1       7.590 -14.945   5.120  1.00  0.00    -0.248 NA
ATOM     60  C   UNL     1       8.905 -15.771   3.376  1.00  0.00     0.031 C 
ATOM     61  C   UNL     1       6.184 -17.383   8.559  1.00  0.00     0.029 A 
ATOM     62  C   UNL     1       6.643 -16.643   7.480  1.00  0.00     0.049 A 
ATOM     63  H   UNL     1       6.397 -14.587   7.078  1.00  0.00     0.167 HD
ATOM     64  C   UNL     1       7.825 -16.300   5.328  1.00  0.00     0.074 A 
ATOM     65  C   UNL     1       8.613 -16.764   4.205  1.00  0.00     0.031 C 
ATOM     66  C   UNL     1       7.422 -17.090   6.353  1.00  0.00     0.031 A 
BRANCH  53  67
ATOM     67  C   UNL     1       4.193 -14.112  10.704  1.00  0.00    -0.014 A 
ATOM     68  C   UNL     1       2.806 -13.915  10.803  1.00  0.00     0.009 A 
ATOM     69  C   UNL     1       4.923 -14.388  11.871  1.00  0.00     0.009 A 
ATOM     70  C   UNL     1       2.174 -13.953  12.048  1.00  0.00     0.001 A 
ATOM     71  C   UNL     1       4.283 -14.459  13.109  1.00  0.00     0.001 A 
ATOM     72  C   UNL     1       2.911 -14.230  13.198  1.00  0.00     0.000 A 
ENDBRANCH  53  67
BRANCH  54  73
ATOM     73  C   UNL     1       8.980 -13.203   1.978  1.00  0.00    -0.014 A 
ATOM     74  C   UNL     1       8.532 -13.856   0.820  1.00  0.00     0.009 A 
ATOM     75  C   UNL     1      10.160 -12.443   1.911  1.00  0.00     0.009 A 
ATOM     76  C   UNL     1       9.261 -13.772  -0.369  1.00  0.00     0.001 A 
ATOM     77  C   UNL     1      10.868 -12.333   0.712  1.00  0.00     0.001 A 
ATOM     78  C   UNL     1      10.424 -13.007  -0.424  1.00  0.00     0.000 A 
ENDBRANCH  54  73
BRANCH  66  79
ATOM     79  C   UNL     1       7.775 -18.551   6.285  1.00  0.00    -0.014 A 
ATOM     80  C   UNL     1       9.092 -19.000   6.465  1.00  0.00     0.009 A 
ATOM     81  C   UNL     1       6.756 -19.497   6.091  1.00  0.00     0.009 A 
ATOM     82  C   UNL     1       9.385 -20.365   6.416  1.00  0.00     0.001 A 
ATOM     83  C   UNL     1       7.046 -20.862   6.077  1.00  0.00     0.001 A 
ATOM     84  C   UNL     1       8.362 -21.294   6.230  1.00  0.00     0.000 A 
ENDBRANCH  66  79
ENDBRANCH  40  41
ENDBRANCH  33  35
ENDBRANCH  32  33
ENDBRANCH  31  32
ENDBRANCH  30  31
ENDBRANCH  29  30
ENDBRANCH  28  29
ENDBRANCH   1  28
TORSDOF 20
