REMARK SMILES O=C(OCCOCCOCCOC(=O)[C@H]1CC2(CC[NH+](C(=O)C3CC3)CC2)CN1C(=O)CCn1cccn1)c1ccc(-c2c3nc(c(-c4ccccc4)c4ccc([nH]4)c(-c4ccccc4)c4nc(c(-c5ccccc5)c5ccc2[nH]5)C=C4)C=C3)cc1
REMARK SMILES IDX 8 1 7 2 6 3 5 4 4 5 3 6 2 7 1 8 39 9 40 10 86 11 41 12 85 13
REMARK SMILES IDX 42 14 43 15 44 16 79 17 45 18 84 19 78 20 80 21 46 22 83 23
REMARK SMILES IDX 77 24 76 25 47 27 69 28 54 29 68 30 55 31 58 32 67 33 81 34
REMARK SMILES IDX 56 35 57 36 66 38 82 39 59 40 48 41 49 42 53 43 50 44 52 45
REMARK SMILES IDX 51 46 70 47 71 48 75 49 72 50 74 51 73 52 60 53 61 54 65 55
REMARK SMILES IDX 62 56 64 57 63 58 9 59 10 60 11 61 12 62 13 63 14 64 15 65
REMARK SMILES IDX 16 66 29 67 17 68 28 69 18 70 27 71 19 72 26 73 20 74 30 76
REMARK SMILES IDX 31 77 32 78 33 79 34 80 35 81 38 82 36 83 37 84 21 85 22 86
REMARK SMILES IDX 23 87 24 88 25 89
REMARK H PARENT 80 26 58 37 20 75
REMARK Flexibility Score: inf
ROOT
ATOM      1  C   UNL     1       3.019  -2.603  -0.386  1.00  0.00     0.188 C 
ENDROOT
BRANCH   1   2
ATOM      2  C   UNL     1       4.077  -1.905   0.477  1.00  0.00     0.188 C 
BRANCH   2   3
ATOM      3  O   UNL     1       4.602  -0.638   0.087  1.00  0.00    -0.376 OA
BRANCH   3   4
ATOM      4  C   UNL     1       4.518  -0.260  -1.275  1.00  0.00     0.202 C 
BRANCH   4   5
ATOM      5  C   UNL     1       5.426  -1.017  -2.244  1.00  0.00     0.261 C 
BRANCH   5   6
ATOM      6  O   UNL     1       5.631  -2.416  -1.980  1.00  0.00    -0.460 OA
BRANCH   6   7
ATOM      7  C   UNL     1       6.396  -3.063  -1.077  1.00  0.00     0.338 C 
ATOM      8  O   UNL     1       6.325  -4.293  -1.038  1.00  0.00    -0.246 OA
BRANCH   7   9
ATOM      9  C   UNL     1       7.272  -2.405  -0.063  1.00  0.00     0.060 A 
ATOM     10  C   UNL     1       7.682  -1.075  -0.083  1.00  0.00     0.016 A 
ATOM     11  C   UNL     1       7.753  -3.245   0.966  1.00  0.00     0.016 A 
ATOM     12  C   UNL     1       8.715  -0.663   0.738  1.00  0.00     0.010 A 
ATOM     13  C   UNL     1       8.771  -2.833   1.808  1.00  0.00     0.010 A 
ATOM     14  C   UNL     1       9.319  -1.579   1.601  1.00  0.00    -0.014 A 
BRANCH  14  15
ATOM     15  C   UNL     1      10.569  -1.179   2.219  1.00  0.00     0.031 A 
ATOM     16  C   UNL     1      10.475  -0.007   3.117  1.00  0.00     0.074 A 
ATOM     17  C   UNL     1      11.733  -1.795   1.929  1.00  0.00     0.049 A 
ATOM     18  N   UNL     1      10.902   1.189   2.885  1.00  0.00    -0.248 NA
ATOM     19  C   UNL     1       9.691  -0.142   4.351  1.00  0.00     0.031 C 
ATOM     20  C   UNL     1      11.958  -3.071   1.242  1.00  0.00     0.029 A 
ATOM     21  N   UNL     1      12.992  -1.411   2.266  1.00  0.00    -0.354 N 
ATOM     22  C   UNL     1      10.600   1.933   4.021  1.00  0.00     0.074 A 
ATOM     23  C   UNL     1       9.745   1.102   4.833  1.00  0.00     0.031 C 
ATOM     24  C   UNL     1      13.240  -3.462   1.432  1.00  0.00     0.029 A 
ATOM     25  C   UNL     1      13.959  -2.393   2.103  1.00  0.00     0.049 A 
ATOM     26  H   UNL     1      13.202  -0.509   2.599  1.00  0.00     0.167 HD
ATOM     27  C   UNL     1      11.250   3.095   4.299  1.00  0.00     0.031 A 
ATOM     28  C   UNL     1      15.244  -2.336   2.533  1.00  0.00     0.031 A 
ATOM     29  C   UNL     1      11.925   3.621   3.143  1.00  0.00     0.049 A 
ATOM     30  C   UNL     1      15.582  -0.906   2.725  1.00  0.00     0.074 A 
ATOM     31  C   UNL     1      11.520   4.090   1.910  1.00  0.00     0.029 A 
ATOM     32  N   UNL     1      13.268   3.354   3.025  1.00  0.00    -0.354 N 
ATOM     33  N   UNL     1      15.683  -0.061   1.739  1.00  0.00    -0.248 NA
ATOM     34  C   UNL     1      15.334  -0.317   4.032  1.00  0.00     0.031 C 
ATOM     35  C   UNL     1      12.509   3.620   0.998  1.00  0.00     0.029 A 
ATOM     36  C   UNL     1      13.494   2.958   1.734  1.00  0.00     0.049 A 
ATOM     37  H   UNL     1      13.943   3.434   3.737  1.00  0.00     0.167 HD
ATOM     38  C   UNL     1      15.084   1.099   2.206  1.00  0.00     0.074 A 
ATOM     39  C   UNL     1      14.962   0.909   3.652  1.00  0.00     0.031 C 
ATOM     40  C   UNL     1      14.488   1.980   1.351  1.00  0.00     0.031 A 
BRANCH  27  41
ATOM     41  C   UNL     1      11.625   3.519   5.695  1.00  0.00    -0.014 A 
ATOM     42  C   UNL     1      12.309   4.737   5.869  1.00  0.00     0.009 A 
ATOM     43  C   UNL     1      11.610   2.638   6.792  1.00  0.00     0.009 A 
ATOM     44  C   UNL     1      13.017   5.011   7.044  1.00  0.00     0.001 A 
ATOM     45  C   UNL     1      12.284   2.926   7.980  1.00  0.00     0.001 A 
ATOM     46  C   UNL     1      13.015   4.099   8.093  1.00  0.00     0.000 A 
ENDBRANCH  27  41
BRANCH  28  47
ATOM     47  C   UNL     1      16.054  -3.426   3.122  1.00  0.00    -0.014 A 
ATOM     48  C   UNL     1      17.445  -3.303   3.260  1.00  0.00     0.009 A 
ATOM     49  C   UNL     1      15.419  -4.475   3.815  1.00  0.00     0.009 A 
ATOM     50  C   UNL     1      18.168  -4.175   4.089  1.00  0.00     0.001 A 
ATOM     51  C   UNL     1      16.140  -5.343   4.643  1.00  0.00     0.001 A 
ATOM     52  C   UNL     1      17.513  -5.184   4.791  1.00  0.00     0.000 A 
ENDBRANCH  28  47
BRANCH  40  53
ATOM     53  C   UNL     1      14.674   1.776  -0.131  1.00  0.00    -0.014 A 
ATOM     54  C   UNL     1      14.184   0.651  -0.820  1.00  0.00     0.009 A 
ATOM     55  C   UNL     1      15.192   2.843  -0.879  1.00  0.00     0.009 A 
ATOM     56  C   UNL     1      14.223   0.599  -2.218  1.00  0.00     0.001 A 
ATOM     57  C   UNL     1      15.213   2.798  -2.274  1.00  0.00     0.001 A 
ATOM     58  C   UNL     1      14.730   1.676  -2.943  1.00  0.00     0.000 A 
ENDBRANCH  40  53
ENDBRANCH  14  15
ENDBRANCH   7   9
ENDBRANCH   6   7
ENDBRANCH   5   6
ENDBRANCH   4   5
ENDBRANCH   3   4
ENDBRANCH   2   3
ENDBRANCH   1   2
BRANCH   1  59
ATOM     59  O   UNL     1       2.076  -1.703  -0.945  1.00  0.00    -0.376 OA
BRANCH  59  60
ATOM     60  C   UNL     1       0.885  -1.494  -0.203  1.00  0.00     0.202 C 
BRANCH  60  61
ATOM     61  C   UNL     1       0.945  -0.420   0.920  1.00  0.00     0.261 C 
BRANCH  61  62
ATOM     62  O   UNL     1       1.726  -0.575   2.144  1.00  0.00    -0.462 OA
BRANCH  62  63
ATOM     63  C   UNL     1       1.871  -1.826   2.635  1.00  0.00     0.328 C 
ATOM     64  O   UNL     1       1.450  -2.784   2.043  1.00  0.00    -0.250 OA
BRANCH  63  65
ATOM     65  C   UNL     1       2.729  -1.963   3.886  1.00  0.00     0.195 C 
ATOM     66  C   UNL     1       1.998  -1.715   5.200  1.00  0.00     0.046 C 
ATOM     67  N   UNL     1       3.516  -3.188   4.205  1.00  0.00    -0.328 N 
ATOM     68  C   UNL     1       2.949  -2.287   6.304  1.00  0.00     0.001 C 
ATOM     69  C   UNL     1       4.126  -2.891   5.501  1.00  0.00     0.128 C 
ATOM     70  C   UNL     1       2.275  -3.405   7.126  1.00  0.00     0.071 C 
ATOM     71  C   UNL     1       3.401  -1.197   7.287  1.00  0.00     0.071 C 
ATOM     72  C   UNL     1       1.130  -2.894   7.989  1.00  0.00     0.270 C 
ATOM     73  C   UNL     1       2.237  -0.702   8.154  1.00  0.00     0.270 C 
ATOM     74  N   UNL     1       1.561  -1.803   8.851  1.00  0.00    -0.272 N 
ATOM     75  H   UNL     1       0.975  -2.391   9.380  1.00  0.00     0.356 HD
BRANCH  67  76
ATOM     76  C   UNL     1       3.195  -4.535   3.976  1.00  0.00     0.225 C 
ATOM     77  O   UNL     1       3.479  -5.406   4.808  1.00  0.00    -0.275 OA
BRANCH  76  78
ATOM     78  C   UNL     1       2.679  -5.016   2.634  1.00  0.00     0.124 C 
BRANCH  78  79
ATOM     79  C   UNL     1       1.219  -5.516   2.507  1.00  0.00     0.154 C 
BRANCH  79  80
ATOM     80  N   UNL     1       0.115  -4.723   3.021  1.00  0.00    -0.272 N 
ATOM     81  C   UNL     1      -0.225  -4.521   4.330  1.00  0.00     0.108 A 
ATOM     82  N   UNL     1      -0.753  -4.104   2.178  1.00  0.00    -0.182 NA
ATOM     83  C   UNL     1      -1.144  -3.494   4.328  1.00  0.00     0.042 A 
ATOM     84  C   UNL     1      -1.395  -3.240   2.969  1.00  0.00     0.135 A 
ENDBRANCH  79  80
ENDBRANCH  78  79
ENDBRANCH  76  78
ENDBRANCH  67  76
BRANCH  74  85
ATOM     85  C   UNL     1       1.295  -1.632  10.213  1.00  0.00     0.315 C 
ATOM     86  O   UNL     1       1.682  -0.620  10.799  1.00  0.00    -0.231 OA
BRANCH  85  87
ATOM     87  C   UNL     1       0.571  -2.615  11.076  1.00  0.00     0.119 C 
ATOM     88  C   UNL     1      -0.426  -3.681  10.727  1.00  0.00     0.019 C 
ATOM     89  C   UNL     1       0.975  -4.067  11.130  1.00  0.00     0.019 C 
ENDBRANCH  85  87
ENDBRANCH  74  85
ENDBRANCH  63  65
ENDBRANCH  62  63
ENDBRANCH  61  62
ENDBRANCH  60  61
ENDBRANCH  59  60
ENDBRANCH   1  59
TORSDOF 23
