REMARK SMILES Cc1c[nH]c(C[N@H+]2C[C@@H]3CN(S(C)(=O)=O)C[C@@]3(C(=O)OCCOCCOCCOC(=O)c3ccc(-c4c5nc(c(-c6ccccc6)c6ccc([nH]6)c(-c6ccccc6)c6nc(c(-c7ccccc7)c7ccc4[nH]7)C=C6)C=C5)cc3)C2)n1
REMARK SMILES IDX 24 1 23 2 22 3 21 4 20 5 18 6 19 7 17 8 7 9 8 10 80 11 9 13
REMARK SMILES IDX 10 14 16 15 11 16 6 17 5 18 1 19 2 20 3 21 81 22 4 23 12 25
REMARK SMILES IDX 13 26 14 27 15 28 25 29 26 30 27 31 28 32 29 33 30 34 31 35
REMARK SMILES IDX 32 36 33 37 79 38 34 39 78 40 35 41 36 42 37 43 72 44 38 45
REMARK SMILES IDX 77 46 71 47 73 48 39 49 76 50 70 51 69 52 40 54 62 55 47 56
REMARK SMILES IDX 61 57 48 58 51 59 60 60 74 61 49 62 50 63 59 65 75 66 52 67
REMARK SMILES IDX 41 68 42 69 46 70 43 71 45 72 44 73 63 74 64 75 68 76 65 77
REMARK SMILES IDX 67 78 66 79 53 80 54 81 58 82 55 83 57 84 56 85
REMARK H PARENT 7 12 4 24 73 53 51 64
REMARK Flexibility Score: inf
ROOT
ATOM      1  C   UNL     1       1.820   5.679   1.158  1.00  0.00     0.188 C 
ENDROOT
BRANCH   1   2
ATOM      2  O   UNL     1       1.712   7.036   0.761  1.00  0.00    -0.376 OA
BRANCH   2   3
ATOM      3  C   UNL     1       0.660   7.859   1.268  1.00  0.00     0.202 C 
BRANCH   3   4
ATOM      4  C   UNL     1      -0.732   7.286   1.616  1.00  0.00     0.261 C 
BRANCH   4   5
ATOM      5  O   UNL     1      -0.585   5.999   2.212  1.00  0.00    -0.463 OA
BRANCH   5   6
ATOM      6  C   UNL     1      -1.615   5.109   2.361  1.00  0.00     0.319 C 
ATOM      7  O   UNL     1      -2.797   5.365   2.216  1.00  0.00    -0.251 OA
BRANCH   6   8
ATOM      8  C   UNL     1      -0.908   3.769   2.754  1.00  0.00     0.140 C 
ATOM      9  N   UNL     1      -2.366   2.379   1.238  1.00  0.00    -0.327 N 
ATOM     10  C   UNL     1      -2.435   1.754   2.536  1.00  0.00     0.268 C 
ATOM     11  C   UNL     1      -1.224   3.305   1.275  1.00  0.00     0.283 C 
ATOM     12  H   UNL     1      -3.223   2.903   1.059  1.00  0.00     0.348 HD
ATOM     13  C   UNL     1      -1.207   2.300   3.221  1.00  0.00     0.084 C 
ATOM     14  C   UNL     1      -1.238   2.080   4.711  1.00  0.00     0.113 C 
ATOM     15  C   UNL     1      -0.887   4.368   4.206  1.00  0.00     0.127 C 
ATOM     16  N   UNL     1      -1.230   3.404   5.246  1.00  0.00    -0.200 NA
BRANCH   9  17
ATOM     17  C   UNL     1      -2.391   1.452   0.098  1.00  0.00     0.338 C 
BRANCH  17  18
ATOM     18  C   UNL     1      -1.309   0.404   0.060  1.00  0.00     0.161 A 
ATOM     19  C   UNL     1       2.028  -0.842  -0.002  1.00  0.00     0.068 C 
ATOM     20  C   UNL     1       0.562  -0.667   0.005  1.00  0.00     0.056 A 
ATOM     21  C   UNL     1      -0.420  -1.627  -0.051  1.00  0.00     0.107 A 
ATOM     22  N   UNL     1      -0.000   0.586   0.080  1.00  0.00    -0.233 NA
ATOM     23  N   UNL     1      -1.599  -0.939  -0.025  1.00  0.00    -0.344 N 
ATOM     24  H   UNL     1      -2.500  -1.334  -0.062  1.00  0.00     0.167 HD
ENDBRANCH  17  18
ENDBRANCH   9  17
BRANCH  16  25
ATOM     25  S   UNL     1      -2.220   3.865   6.508  1.00  0.00     0.211 S 
ATOM     26  C   UNL     1      -3.767   4.144   5.670  1.00  0.00     0.176 C 
ATOM     27  O   UNL     1      -2.377   2.724   7.389  1.00  0.00    -0.213 OA
ATOM     28  O   UNL     1      -1.745   5.137   7.000  1.00  0.00    -0.213 OA
ENDBRANCH  16  25
ENDBRANCH   6   8
ENDBRANCH   5   6
ENDBRANCH   4   5
ENDBRANCH   3   4
ENDBRANCH   2   3
ENDBRANCH   1   2
BRANCH   1  29
ATOM     29  C   UNL     1       2.106   5.322   2.629  1.00  0.00     0.188 C 
BRANCH  29  30
ATOM     30  O   UNL     1       1.929   6.286   3.635  1.00  0.00    -0.376 OA
BRANCH  30  31
ATOM     31  C   UNL     1       2.938   7.271   3.825  1.00  0.00     0.202 C 
BRANCH  31  32
ATOM     32  C   UNL     1       4.415   7.127   3.380  1.00  0.00     0.261 C 
BRANCH  32  33
ATOM     33  O   UNL     1       4.703   6.250   2.280  1.00  0.00    -0.460 OA
BRANCH  33  34
ATOM     34  C   UNL     1       5.379   5.109   2.594  1.00  0.00     0.338 C 
ATOM     35  O   UNL     1       5.815   4.781   3.683  1.00  0.00    -0.246 OA
BRANCH  34  36
ATOM     36  C   UNL     1       5.308   4.186   1.442  1.00  0.00     0.060 A 
ATOM     37  C   UNL     1       4.401   3.117   1.480  1.00  0.00     0.016 A 
ATOM     38  C   UNL     1       6.132   4.365   0.334  1.00  0.00     0.016 A 
ATOM     39  C   UNL     1       4.268   2.267   0.385  1.00  0.00     0.010 A 
ATOM     40  C   UNL     1       6.040   3.470  -0.738  1.00  0.00     0.010 A 
ATOM     41  C   UNL     1       5.107   2.416  -0.721  1.00  0.00    -0.014 A 
BRANCH  41  42
ATOM     42  C   UNL     1       5.130   1.385  -1.788  1.00  0.00     0.031 A 
ATOM     43  C   UNL     1       6.227   0.359  -1.772  1.00  0.00     0.074 A 
ATOM     44  C   UNL     1       4.191   1.335  -2.750  1.00  0.00     0.049 A 
ATOM     45  N   UNL     1       6.559  -0.517  -2.684  1.00  0.00    -0.248 NA
ATOM     46  C   UNL     1       7.056   0.315  -0.557  1.00  0.00     0.031 C 
ATOM     47  C   UNL     1       2.994   2.170  -2.817  1.00  0.00     0.029 A 
ATOM     48  N   UNL     1       4.109   0.535  -3.865  1.00  0.00    -0.354 N 
ATOM     49  C   UNL     1       7.659  -1.192  -2.171  1.00  0.00     0.074 A 
ATOM     50  C   UNL     1       7.937  -0.624  -0.869  1.00  0.00     0.031 C 
ATOM     51  C   UNL     1       2.306   1.852  -3.928  1.00  0.00     0.029 A 
ATOM     52  C   UNL     1       3.048   0.843  -4.682  1.00  0.00     0.049 A 
ATOM     53  H   UNL     1       4.749  -0.187  -4.060  1.00  0.00     0.167 HD
ATOM     54  C   UNL     1       8.382  -2.186  -2.740  1.00  0.00     0.031 A 
ATOM     55  C   UNL     1       2.740   0.400  -5.917  1.00  0.00     0.031 A 
ATOM     56  C   UNL     1       8.113  -2.742  -4.039  1.00  0.00     0.049 A 
ATOM     57  C   UNL     1       3.645  -0.598  -6.596  1.00  0.00     0.074 A 
ATOM     58  C   UNL     1       8.798  -3.744  -4.705  1.00  0.00     0.029 A 
ATOM     59  N   UNL     1       7.084  -2.338  -4.874  1.00  0.00    -0.354 N 
ATOM     60  N   UNL     1       4.704  -1.211  -6.125  1.00  0.00    -0.248 NA
ATOM     61  C   UNL     1       3.318  -0.952  -7.987  1.00  0.00     0.031 C 
ATOM     62  C   UNL     1       8.226  -3.896  -5.972  1.00  0.00     0.029 A 
ATOM     63  C   UNL     1       7.141  -3.040  -6.066  1.00  0.00     0.049 A 
ATOM     64  H   UNL     1       6.412  -1.654  -4.652  1.00  0.00     0.167 HD
ATOM     65  C   UNL     1       5.155  -2.035  -7.151  1.00  0.00     0.074 A 
ATOM     66  C   UNL     1       4.244  -1.861  -8.262  1.00  0.00     0.031 C 
ATOM     67  C   UNL     1       6.231  -2.861  -7.169  1.00  0.00     0.031 A 
BRANCH  54  68
ATOM     68  C   UNL     1       9.582  -2.685  -1.985  1.00  0.00    -0.014 A 
ATOM     69  C   UNL     1       9.454  -3.445  -0.812  1.00  0.00     0.009 A 
ATOM     70  C   UNL     1      10.867  -2.405  -2.476  1.00  0.00     0.009 A 
ATOM     71  C   UNL     1      10.590  -3.881  -0.127  1.00  0.00     0.001 A 
ATOM     72  C   UNL     1      12.000  -2.870  -1.808  1.00  0.00     0.001 A 
ATOM     73  C   UNL     1      11.861  -3.598  -0.628  1.00  0.00     0.000 A 
ENDBRANCH  54  68
BRANCH  55  74
ATOM     74  C   UNL     1       1.557   0.948  -6.637  1.00  0.00    -0.014 A 
ATOM     75  C   UNL     1       0.469   0.124  -6.961  1.00  0.00     0.009 A 
ATOM     76  C   UNL     1       1.528   2.293  -7.039  1.00  0.00     0.009 A 
ATOM     77  C   UNL     1      -0.612   0.630  -7.689  1.00  0.00     0.001 A 
ATOM     78  C   UNL     1       0.432   2.805  -7.737  1.00  0.00     0.001 A 
ATOM     79  C   UNL     1      -0.632   1.971  -8.070  1.00  0.00     0.000 A 
ENDBRANCH  55  74
BRANCH  67  80
ATOM     80  C   UNL     1       6.476  -3.665  -8.417  1.00  0.00    -0.014 A 
ATOM     81  C   UNL     1       6.943  -3.060  -9.594  1.00  0.00     0.009 A 
ATOM     82  C   UNL     1       6.305  -5.059  -8.393  1.00  0.00     0.009 A 
ATOM     83  C   UNL     1       7.211  -3.832 -10.728  1.00  0.00     0.001 A 
ATOM     84  C   UNL     1       6.603  -5.831  -9.517  1.00  0.00     0.001 A 
ATOM     85  C   UNL     1       7.049  -5.217 -10.685  1.00  0.00     0.000 A 
ENDBRANCH  67  80
ENDBRANCH  41  42
ENDBRANCH  34  36
ENDBRANCH  33  34
ENDBRANCH  32  33
ENDBRANCH  31  32
ENDBRANCH  30  31
ENDBRANCH  29  30
ENDBRANCH   1  29
TORSDOF 20
