REMARK SMILES Cc1cccc(N2C(=O)/C(=C/c3ccc(C(=O)OCCOCCOCCOC(=O)c4ccc(-c5c6nc(c(-c7ccccc7)c7ccc([nH]7)c(-c7ccccc7)c7nc(c(-c8ccccc8)c8ccc5[nH]8)C=C7)C=C6)cc4)cc3)c3ccccc3C2=O)c1
REMARK SMILES IDX 22 1 21 2 20 3 19 4 18 5 16 6 17 7 15 8 12 9 13 10 79 11
REMARK SMILES IDX 14 12 78 13 11 14 7 15 8 16 86 17 9 18 10 19 85 20 87 21
REMARK SMILES IDX 80 22 84 23 81 24 83 25 82 26 6 27 1 28 2 29 3 30 88 31 4 32
REMARK SMILES IDX 5 33 23 34 24 35 25 36 26 37 27 38 28 39 29 40 30 41 31 42
REMARK SMILES IDX 77 43 32 44 76 45 33 46 34 47 35 48 70 49 36 50 75 51 69 52
REMARK SMILES IDX 71 53 37 54 74 55 68 56 67 57 38 59 60 60 45 61 59 62 46 63
REMARK SMILES IDX 49 64 58 65 72 66 47 67 48 68 57 70 73 71 50 72 39 73 40 74
REMARK SMILES IDX 44 75 41 76 43 77 42 78 61 79 62 80 66 81 63 82 65 83 64 84
REMARK SMILES IDX 51 85 52 86 56 87 53 88 55 89 54 90
REMARK H PARENT 71 58 49 69
REMARK Flexibility Score: inf
ROOT
ATOM      1  C   UNL     1      -4.273  15.076   0.767  1.00  0.00     0.188 C 
ENDROOT
BRANCH   1   2
ATOM      2  O   UNL     1      -5.266  14.037   0.671  1.00  0.00    -0.376 OA
BRANCH   2   3
ATOM      3  C   UNL     1      -5.904  13.405   1.768  1.00  0.00     0.202 C 
BRANCH   3   4
ATOM      4  C   UNL     1      -6.141  11.753   1.974  1.00  0.00     0.261 C 
BRANCH   4   5
ATOM      5  O   UNL     1      -5.327  10.323   1.524  1.00  0.00    -0.460 OA
BRANCH   5   6
ATOM      6  C   UNL     1      -4.941   9.612   0.377  1.00  0.00     0.338 C 
ATOM      7  O   UNL     1      -5.194   9.801  -0.807  1.00  0.00    -0.246 OA
BRANCH   6   8
ATOM      8  C   UNL     1      -4.033   8.477   0.287  1.00  0.00     0.060 A 
ATOM      9  C   UNL     1      -2.455   6.441  -0.775  1.00  0.00    -0.025 A 
ATOM     10  C   UNL     1      -1.911   7.711  -0.653  1.00  0.00     0.009 A 
ATOM     11  C   UNL     1      -3.837   6.244  -0.647  1.00  0.00     0.009 A 
ATOM     12  C   UNL     1      -2.712   8.726  -0.146  1.00  0.00     0.016 A 
ATOM     13  C   UNL     1      -4.620   7.260  -0.101  1.00  0.00     0.016 A 
BRANCH   9  14
ATOM     14  C   UNL     1      -1.534   5.321  -0.630  1.00  0.00     0.022 C 
ATOM     15  N   UNL     1      -1.470   2.266   0.752  1.00  0.00    -0.242 N 
ATOM     16  C   UNL     1      -0.691   3.423   0.540  1.00  0.00     0.265 C 
ATOM     17  C   UNL     1      -2.829   2.372   1.177  1.00  0.00     0.265 C 
ATOM     18  O   UNL     1       0.508   3.552   0.317  1.00  0.00    -0.268 OA
ATOM     19  C   UNL     1      -1.505   4.647   0.542  1.00  0.00     0.049 C 
ATOM     20  C   UNL     1      -3.251   3.651   1.823  1.00  0.00     0.048 A 
ATOM     21  O   UNL     1      -3.714   1.525   1.083  1.00  0.00    -0.268 OA
ATOM     22  C   UNL     1      -2.473   4.783   1.626  1.00  0.00    -0.000 A 
ATOM     23  C   UNL     1      -4.431   3.747   2.571  1.00  0.00     0.014 A 
ATOM     24  C   UNL     1      -2.774   5.973   2.301  1.00  0.00     0.010 A 
ATOM     25  C   UNL     1      -4.792   4.964   3.157  1.00  0.00     0.001 A 
ATOM     26  C   UNL     1      -3.950   6.069   3.046  1.00  0.00     0.001 A 
BRANCH  15  27
ATOM     27  C   UNL     1      -0.881   0.963   0.461  1.00  0.00     0.053 A 
ATOM     28  C   UNL     1       2.602  -0.539  -0.103  1.00  0.00     0.044 C 
ATOM     29  C   UNL     1       1.110  -0.437   0.018  1.00  0.00    -0.049 A 
ATOM     30  C   UNL     1       0.305  -1.559  -0.136  1.00  0.00     0.003 A 
ATOM     31  C   UNL     1       0.512   0.794   0.332  1.00  0.00     0.030 A 
ATOM     32  C   UNL     1      -1.072  -1.438  -0.000  1.00  0.00     0.002 A 
ATOM     33  C   UNL     1      -1.652  -0.196   0.289  1.00  0.00     0.027 A 
ENDBRANCH  15  27
ENDBRANCH   9  14
ENDBRANCH   6   8
ENDBRANCH   5   6
ENDBRANCH   4   5
ENDBRANCH   3   4
ENDBRANCH   2   3
ENDBRANCH   1   2
BRANCH   1  34
ATOM     34  C   UNL     1      -3.557  15.364   2.084  1.00  0.00     0.188 C 
BRANCH  34  35
ATOM     35  O   UNL     1      -3.399  14.152   2.796  1.00  0.00    -0.376 OA
BRANCH  35  36
ATOM     36  C   UNL     1      -2.817  14.269   4.080  1.00  0.00     0.202 C 
BRANCH  36  37
ATOM     37  C   UNL     1      -1.285  14.223   4.004  1.00  0.00     0.261 C 
BRANCH  37  38
ATOM     38  O   UNL     1      -0.861  13.090   3.203  1.00  0.00    -0.460 OA
BRANCH  38  39
ATOM     39  C   UNL     1      -0.433  13.352   1.924  1.00  0.00     0.338 C 
ATOM     40  O   UNL     1       0.364  14.230   1.626  1.00  0.00    -0.246 OA
BRANCH  39  41
ATOM     41  C   UNL     1      -1.267  12.591   0.925  1.00  0.00     0.060 A 
ATOM     42  C   UNL     1      -1.398  12.908  -0.434  1.00  0.00     0.016 A 
ATOM     43  C   UNL     1      -2.256  11.820   1.434  1.00  0.00     0.016 A 
ATOM     44  C   UNL     1      -2.619  12.610  -1.188  1.00  0.00     0.010 A 
ATOM     45  C   UNL     1      -3.475  11.860   0.738  1.00  0.00     0.010 A 
ATOM     46  C   UNL     1      -3.812  12.156  -0.601  1.00  0.00    -0.014 A 
BRANCH  46  47
ATOM     47  C   UNL     1      -5.359  12.294  -1.268  1.00  0.00     0.031 A 
ATOM     48  C   UNL     1      -6.739  11.331  -1.318  1.00  0.00     0.074 A 
ATOM     49  C   UNL     1      -5.561  13.342  -2.101  1.00  0.00     0.049 A 
ATOM     50  N   UNL     1      -7.334  10.945  -2.442  1.00  0.00    -0.248 NA
ATOM     51  C   UNL     1      -7.469  10.648  -0.207  1.00  0.00     0.031 C 
ATOM     52  C   UNL     1      -6.806  13.737  -2.756  1.00  0.00     0.029 A 
ATOM     53  N   UNL     1      -4.607  14.183  -2.662  1.00  0.00    -0.354 N 
ATOM     54  C   UNL     1      -8.396  10.078  -2.133  1.00  0.00     0.074 A 
ATOM     55  C   UNL     1      -8.329   9.810  -0.758  1.00  0.00     0.031 C 
ATOM     56  C   UNL     1      -6.505  14.502  -3.816  1.00  0.00     0.029 A 
ATOM     57  C   UNL     1      -5.059  14.560  -3.924  1.00  0.00     0.049 A 
ATOM     58  H   UNL     1      -3.762  14.463  -2.241  1.00  0.00     0.167 HD
ATOM     59  C   UNL     1      -9.432   9.706  -2.928  1.00  0.00     0.031 A 
ATOM     60  C   UNL     1      -4.319  14.330  -5.043  1.00  0.00     0.031 A 
ATOM     61  C   UNL     1      -9.443  10.504  -4.108  1.00  0.00     0.049 A 
ATOM     62  C   UNL     1      -5.045  13.530  -6.096  1.00  0.00     0.074 A 
ATOM     63  C   UNL     1      -9.993  11.749  -4.348  1.00  0.00     0.029 A 
ATOM     64  N   UNL     1      -8.486  10.273  -5.066  1.00  0.00    -0.354 N 
ATOM     65  N   UNL     1      -6.140  12.857  -5.884  1.00  0.00    -0.248 NA
ATOM     66  C   UNL     1      -4.563  13.387  -7.468  1.00  0.00     0.031 C 
ATOM     67  C   UNL     1      -9.313  12.301  -5.455  1.00  0.00     0.029 A 
ATOM     68  C   UNL     1      -8.410  11.357  -5.908  1.00  0.00     0.049 A 
ATOM     69  H   UNL     1      -7.939   9.457  -5.138  1.00  0.00     0.167 HD
ATOM     70  C   UNL     1      -6.471  12.158  -7.016  1.00  0.00     0.074 A 
ATOM     71  C   UNL     1      -5.474  12.548  -7.990  1.00  0.00     0.031 C 
ATOM     72  C   UNL     1      -7.519  11.289  -7.043  1.00  0.00     0.031 A 
BRANCH  59  73
ATOM     73  C   UNL     1     -10.618   8.944  -2.359  1.00  0.00    -0.014 A 
ATOM     74  C   UNL     1     -11.915   9.453  -2.525  1.00  0.00     0.009 A 
ATOM     75  C   UNL     1     -10.492   7.797  -1.544  1.00  0.00     0.009 A 
ATOM     76  C   UNL     1     -13.005   8.940  -1.806  1.00  0.00     0.001 A 
ATOM     77  C   UNL     1     -11.571   7.311  -0.785  1.00  0.00     0.001 A 
ATOM     78  C   UNL     1     -12.825   7.899  -0.902  1.00  0.00     0.000 A 
ENDBRANCH  59  73
BRANCH  60  79
ATOM     79  C   UNL     1      -2.841  14.328  -4.832  1.00  0.00    -0.014 A 
ATOM     80  C   UNL     1      -2.230  15.518  -4.382  1.00  0.00     0.009 A 
ATOM     81  C   UNL     1      -2.097  13.140  -4.773  1.00  0.00     0.009 A 
ATOM     82  C   UNL     1      -0.952  15.509  -3.813  1.00  0.00     0.001 A 
ATOM     83  C   UNL     1      -0.807  13.137  -4.214  1.00  0.00     0.001 A 
ATOM     84  C   UNL     1      -0.247  14.314  -3.716  1.00  0.00     0.000 A 
ENDBRANCH  60  79
BRANCH  72  85
ATOM     85  C   UNL     1      -7.853  10.272  -8.106  1.00  0.00    -0.014 A 
ATOM     86  C   UNL     1      -6.933   9.765  -9.026  1.00  0.00     0.009 A 
ATOM     87  C   UNL     1      -9.129   9.651  -8.074  1.00  0.00     0.009 A 
ATOM     88  C   UNL     1      -7.277   8.711  -9.885  1.00  0.00     0.001 A 
ATOM     89  C   UNL     1      -9.456   8.567  -8.888  1.00  0.00     0.001 A 
ATOM     90  C   UNL     1      -8.528   8.103  -9.805  1.00  0.00     0.000 A 
ENDBRANCH  72  85
ENDBRANCH  46  47
ENDBRANCH  39  41
ENDBRANCH  38  39
ENDBRANCH  37  38
ENDBRANCH  36  37
ENDBRANCH  35  36
ENDBRANCH  34  35
ENDBRANCH   1  34
TORSDOF 19
