REMARK SMILES O=C(CSc1ccc(NC(=O)c2cccc3ccccc23)cc1)OCCOCCOCCOC(=O)c1ccc(-c2c3nc(c(-c4ccccc4)c4ccc([nH]4)c(-c4ccccc4)c4nc(c(-c5ccccc5)c5ccc2[nH]5)C=C4)C=C3)cc1
REMARK SMILES IDX 28 1 27 2 26 3 25 4 24 5 2 6 1 7 3 8 4 9 5 10 6 11 23 12
REMARK SMILES IDX 7 13 22 14 8 15 9 16 10 17 11 19 12 20 13 21 21 22 14 23
REMARK SMILES IDX 16 24 20 25 15 26 17 27 19 28 18 29 29 30 30 31 31 32 32 33
REMARK SMILES IDX 33 34 34 35 35 36 36 37 37 38 83 39 38 40 82 41 39 42 40 43
REMARK SMILES IDX 41 44 76 45 42 46 81 47 75 48 77 49 43 50 80 51 74 52 73 53
REMARK SMILES IDX 44 55 66 56 51 57 65 58 52 59 55 60 64 61 78 62 53 63 54 64
REMARK SMILES IDX 63 66 79 67 56 68 45 69 46 70 50 71 47 72 49 73 48 74 67 75
REMARK SMILES IDX 68 76 72 77 69 78 71 79 70 80 57 81 58 82 62 83 59 84 61 85
REMARK SMILES IDX 60 86
REMARK H PARENT 9 18 77 54 55 65
REMARK Flexibility Score: inf
ROOT
ATOM      1  C   UNL     1       3.138  -0.750  -1.949  1.00  0.00     0.188 C 
ENDROOT
BRANCH   1   2
ATOM      2  O   UNL     1       4.483  -0.984  -1.602  1.00  0.00    -0.376 OA
BRANCH   2   3
ATOM      3  C   UNL     1       4.998  -0.393  -0.432  1.00  0.00     0.202 C 
BRANCH   3   4
ATOM      4  C   UNL     1       4.272  -0.766   0.860  1.00  0.00     0.261 C 
BRANCH   4   5
ATOM      5  O   UNL     1       2.879  -0.381   0.979  1.00  0.00    -0.463 OA
BRANCH   5   6
ATOM      6  C   UNL     1       2.279   0.815   0.801  1.00  0.00     0.316 C 
ATOM      7  O   UNL     1       1.053   0.881   0.912  1.00  0.00    -0.251 OA
BRANCH   6   8
ATOM      8  C   UNL     1       3.060   2.030   0.356  1.00  0.00     0.197 C 
BRANCH   8   9
ATOM      9  S   UNL     1       4.571   2.375   1.313  1.00  0.00    -0.114 SA
BRANCH   9  10
ATOM     10  C   UNL     1       3.824   2.925   2.809  1.00  0.00     0.008 A 
ATOM     11  C   UNL     1       4.093   4.226   3.203  1.00  0.00     0.017 A 
ATOM     12  C   UNL     1       2.883   2.163   3.502  1.00  0.00     0.017 A 
ATOM     13  C   UNL     1       3.291   4.820   4.163  1.00  0.00     0.027 A 
ATOM     14  C   UNL     1       2.035   2.782   4.409  1.00  0.00     0.027 A 
ATOM     15  C   UNL     1       2.170   4.148   4.646  1.00  0.00     0.041 A 
BRANCH  15  16
ATOM     16  N   UNL     1       1.088   4.787   5.262  1.00  0.00    -0.322 N 
ATOM     17  C   UNL     1       0.669   6.096   5.192  1.00  0.00     0.256 C 
ATOM     18  H   UNL     1       0.538   4.207   5.837  1.00  0.00     0.170 HD
ATOM     19  O   UNL     1      -0.319   6.453   5.833  1.00  0.00    -0.269 OA
BRANCH  17  20
ATOM     20  C   UNL     1       1.366   7.106   4.367  1.00  0.00     0.048 A 
ATOM     21  C   UNL     1       1.996   8.123   5.104  1.00  0.00     0.014 A 
ATOM     22  C   UNL     1       1.435   7.066   2.944  1.00  0.00    -0.006 A 
ATOM     23  C   UNL     1       2.697   9.126   4.450  1.00  0.00     0.001 A 
ATOM     24  C   UNL     1       2.133   8.121   2.307  1.00  0.00    -0.018 A 
ATOM     25  C   UNL     1       0.905   6.042   2.112  1.00  0.00     0.009 A 
ATOM     26  C   UNL     1       2.744   9.136   3.060  1.00  0.00     0.009 A 
ATOM     27  C   UNL     1       2.243   8.148   0.914  1.00  0.00     0.009 A 
ATOM     28  C   UNL     1       1.075   6.058   0.724  1.00  0.00     0.001 A 
ATOM     29  C   UNL     1       1.724   7.127   0.127  1.00  0.00     0.001 A 
ENDBRANCH  17  20
ENDBRANCH  15  16
ENDBRANCH   9  10
ENDBRANCH   8   9
ENDBRANCH   6   8
ENDBRANCH   5   6
ENDBRANCH   4   5
ENDBRANCH   3   4
ENDBRANCH   2   3
ENDBRANCH   1   2
BRANCH   1  30
ATOM     30  C   UNL     1       2.291  -2.029  -2.006  1.00  0.00     0.188 C 
BRANCH  30  31
ATOM     31  O   UNL     1       2.925  -3.300  -2.003  1.00  0.00    -0.376 OA
BRANCH  31  32
ATOM     32  C   UNL     1       4.189  -3.461  -2.631  1.00  0.00     0.202 C 
BRANCH  32  33
ATOM     33  C   UNL     1       4.329  -3.102  -4.122  1.00  0.00     0.261 C 
BRANCH  33  34
ATOM     34  O   UNL     1       3.944  -1.763  -4.505  1.00  0.00    -0.460 OA
BRANCH  34  35
ATOM     35  C   UNL     1       2.819  -1.643  -5.248  1.00  0.00     0.338 C 
ATOM     36  O   UNL     1       2.088  -2.555  -5.630  1.00  0.00    -0.246 OA
BRANCH  35  37
ATOM     37  C   UNL     1       2.461  -0.220  -5.456  1.00  0.00     0.060 A 
ATOM     38  C   UNL     1       1.276   0.275  -4.889  1.00  0.00     0.016 A 
ATOM     39  C   UNL     1       3.239   0.610  -6.264  1.00  0.00     0.016 A 
ATOM     40  C   UNL     1       0.863   1.592  -5.133  1.00  0.00     0.010 A 
ATOM     41  C   UNL     1       2.809   1.921  -6.530  1.00  0.00     0.010 A 
ATOM     42  C   UNL     1       1.610   2.417  -5.984  1.00  0.00    -0.014 A 
BRANCH  42  43
ATOM     43  C   UNL     1       1.102   3.759  -6.387  1.00  0.00     0.031 A 
ATOM     44  C   UNL     1       0.411   3.924  -7.715  1.00  0.00     0.074 A 
ATOM     45  C   UNL     1       1.285   4.839  -5.604  1.00  0.00     0.049 A 
ATOM     46  N   UNL     1       0.003   5.019  -8.306  1.00  0.00    -0.248 NA
ATOM     47  C   UNL     1       0.157   2.694  -8.481  1.00  0.00     0.031 C 
ATOM     48  C   UNL     1       1.922   4.830  -4.291  1.00  0.00     0.029 A 
ATOM     49  N   UNL     1       0.979   6.164  -5.820  1.00  0.00    -0.354 N 
ATOM     50  C   UNL     1      -0.538   4.615  -9.520  1.00  0.00     0.074 A 
ATOM     51  C   UNL     1      -0.398   3.176  -9.585  1.00  0.00     0.031 C 
ATOM     52  C   UNL     1       1.994   6.093  -3.835  1.00  0.00     0.029 A 
ATOM     53  C   UNL     1       1.422   7.003  -4.825  1.00  0.00     0.049 A 
ATOM     54  H   UNL     1       0.489   6.481  -6.613  1.00  0.00     0.167 HD
ATOM     55  C   UNL     1      -1.093   5.372 -10.497  1.00  0.00     0.031 A 
ATOM     56  C   UNL     1       1.404   8.349  -4.737  1.00  0.00     0.031 A 
ATOM     57  C   UNL     1      -1.232   6.804 -10.450  1.00  0.00     0.049 A 
ATOM     58  C   UNL     1       0.839   9.168  -5.873  1.00  0.00     0.074 A 
ATOM     59  C   UNL     1      -1.819   7.641 -11.386  1.00  0.00     0.029 A 
ATOM     60  N   UNL     1      -0.768   7.612  -9.428  1.00  0.00    -0.354 N 
ATOM     61  N   UNL     1       0.281   8.767  -6.988  1.00  0.00    -0.248 NA
ATOM     62  C   UNL     1       0.914  10.634  -5.738  1.00  0.00     0.031 C 
ATOM     63  C   UNL     1      -1.647   8.962 -10.962  1.00  0.00     0.029 A 
ATOM     64  C   UNL     1      -1.014   8.942  -9.731  1.00  0.00     0.049 A 
ATOM     65  H   UNL     1      -0.329   7.291  -8.607  1.00  0.00     0.167 HD
ATOM     66  C   UNL     1      -0.073   9.925  -7.673  1.00  0.00     0.074 A 
ATOM     67  C   UNL     1       0.298  11.043  -6.837  1.00  0.00     0.031 C 
ATOM     68  C   UNL     1      -0.644  10.051  -8.895  1.00  0.00     0.031 A 
BRANCH  55  69
ATOM     69  C   UNL     1      -1.569   4.674 -11.740  1.00  0.00    -0.014 A 
ATOM     70  C   UNL     1      -2.741   3.903 -11.742  1.00  0.00     0.009 A 
ATOM     71  C   UNL     1      -0.877   4.867 -12.947  1.00  0.00     0.009 A 
ATOM     72  C   UNL     1      -3.200   3.324 -12.927  1.00  0.00     0.001 A 
ATOM     73  C   UNL     1      -1.354   4.309 -14.134  1.00  0.00     0.001 A 
ATOM     74  C   UNL     1      -2.512   3.535 -14.122  1.00  0.00     0.000 A 
ENDBRANCH  55  69
BRANCH  56  75
ATOM     75  C   UNL     1       2.002   9.054  -3.568  1.00  0.00    -0.014 A 
ATOM     76  C   UNL     1       1.204   9.844  -2.724  1.00  0.00     0.009 A 
ATOM     77  C   UNL     1       3.390   9.037  -3.364  1.00  0.00     0.009 A 
ATOM     78  C   UNL     1       1.791  10.657  -1.752  1.00  0.00     0.001 A 
ATOM     79  C   UNL     1       3.970   9.818  -2.362  1.00  0.00     0.001 A 
ATOM     80  C   UNL     1       3.174  10.651  -1.579  1.00  0.00     0.000 A 
ENDBRANCH  56  75
BRANCH  68  81
ATOM     81  C   UNL     1      -0.924  11.443  -9.392  1.00  0.00    -0.014 A 
ATOM     82  C   UNL     1       0.117  12.298  -9.789  1.00  0.00     0.009 A 
ATOM     83  C   UNL     1      -2.249  11.892  -9.504  1.00  0.00     0.009 A 
ATOM     84  C   UNL     1      -0.163  13.584 -10.257  1.00  0.00     0.001 A 
ATOM     85  C   UNL     1      -2.528  13.166 -10.001  1.00  0.00     0.001 A 
ATOM     86  C   UNL     1      -1.485  14.014 -10.368  1.00  0.00     0.000 A 
ENDBRANCH  68  81
ENDBRANCH  42  43
ENDBRANCH  35  37
ENDBRANCH  34  35
ENDBRANCH  33  34
ENDBRANCH  32  33
ENDBRANCH  31  32
ENDBRANCH  30  31
ENDBRANCH   1  30
TORSDOF 21
