REMARK SMILES CCCN(C(=O)Cc1c(C(=O)OCCOCCOCCOC(=O)c2ccc(-c3c4nc(c(-c5ccccc5)c5ccc([nH]5)c(-c5ccccc5)c5nc(c(-c6ccccc6)c6ccc3[nH]6)C=C5)C=C4)cc2)c(C)cn1CC)c1cccc(Cl)c1
REMARK SMILES IDX 15 1 14 2 13 3 12 4 10 5 11 6 9 7 8 8 75 9 72 10 74 11 73 12
REMARK SMILES IDX 7 13 5 14 6 15 4 16 3 17 2 18 1 19 78 20 79 21 84 22 80 23
REMARK SMILES IDX 82 24 81 25 83 26 76 27 77 28 16 29 17 30 18 31 19 32 20 33
REMARK SMILES IDX 21 34 22 35 23 36 24 37 25 38 71 39 26 40 70 41 27 42 28 43
REMARK SMILES IDX 29 44 64 45 30 46 69 47 63 48 65 49 31 50 68 51 62 52 61 53
REMARK SMILES IDX 32 55 54 56 39 57 53 58 40 59 43 60 52 61 66 62 41 63 42 64
REMARK SMILES IDX 51 66 67 67 44 68 33 69 34 70 38 71 35 72 37 73 36 74 55 75
REMARK SMILES IDX 56 76 60 77 57 78 59 79 58 80 45 81 46 82 50 83 47 84 49 85
REMARK SMILES IDX 48 86
REMARK H PARENT 65 54 43 65
REMARK Flexibility Score: inf
ROOT
ATOM      1  O   UNL     1       2.700  -1.780   6.143  1.00  0.00    -0.376 OA
ENDROOT
BRANCH   1   2
ATOM      2  C   UNL     1       2.351  -2.943   6.870  1.00  0.00     0.202 C 
BRANCH   2   3
ATOM      3  C   UNL     1       0.877  -3.138   7.245  1.00  0.00     0.261 C 
BRANCH   3   4
ATOM      4  O   UNL     1      -0.062  -2.909   6.183  1.00  0.00    -0.460 OA
BRANCH   4   5
ATOM      5  C   UNL     1      -0.640  -1.671   6.166  1.00  0.00     0.340 C 
ATOM      6  O   UNL     1      -0.427  -0.803   7.003  1.00  0.00    -0.246 OA
BRANCH   5   7
ATOM      7  C   UNL     1      -1.496  -1.437   4.992  1.00  0.00     0.084 A 
ATOM      8  C   UNL     1      -1.708  -0.173   4.420  1.00  0.00     0.042 A 
ATOM      9  N   UNL     1      -2.780  -0.292   3.564  1.00  0.00    -0.350 N 
ATOM     10  C   UNL     1      -2.189  -2.371   4.150  1.00  0.00    -0.019 A 
ATOM     11  C   UNL     1      -2.973  -1.622   3.293  1.00  0.00     0.090 A 
ATOM     12  C   UNL     1      -2.123  -3.858   4.177  1.00  0.00     0.047 C 
BRANCH   8  13
ATOM     13  C   UNL     1      -0.936   1.097   4.675  1.00  0.00     0.155 C 
BRANCH  13  14
ATOM     14  C   UNL     1      -0.752   2.018   3.464  1.00  0.00     0.232 C 
ATOM     15  O   UNL     1      -1.183   3.175   3.555  1.00  0.00    -0.274 OA
BRANCH  14  16
ATOM     16  N   UNL     1      -0.098   1.559   2.307  1.00  0.00    -0.312 N 
BRANCH  16  17
ATOM     17  C   UNL     1       0.481   0.208   2.145  1.00  0.00     0.125 C 
BRANCH  17  18
ATOM     18  C   UNL     1      -0.072  -0.661   1.008  1.00  0.00     0.019 C 
ATOM     19  C   UNL     1       0.905  -0.806  -0.155  1.00  0.00     0.006 C 
ENDBRANCH  17  18
ENDBRANCH  16  17
BRANCH  16  20
ATOM     20  C   UNL     1       0.295   2.527   1.322  1.00  0.00     0.045 A 
ATOM     21  C   UNL     1       1.069   3.634   1.699  1.00  0.00     0.026 A 
ATOM     22  C   UNL     1      -0.024   2.362  -0.028  1.00  0.00     0.046 A 
ATOM     23  C   UNL     1       1.568   4.516   0.735  1.00  0.00     0.004 A 
ATOM     24  C   UNL     1       0.480   3.240  -0.987  1.00  0.00     0.043 A 
ATOM     25  C   UNL     1       1.286   4.310  -0.614  1.00  0.00     0.020 A 
ATOM     26  Cl  UNL     1       0.117   2.979  -2.650  1.00  0.00    -0.084 Cl
ENDBRANCH  16  20
ENDBRANCH  14  16
ENDBRANCH  13  14
ENDBRANCH   8  13
BRANCH   9  27
ATOM     27  C   UNL     1      -3.597   0.773   2.999  1.00  0.00     0.118 C 
ATOM     28  C   UNL     1      -4.288   1.623   4.055  1.00  0.00     0.027 C 
ENDBRANCH   9  27
ENDBRANCH   5   7
ENDBRANCH   4   5
ENDBRANCH   3   4
ENDBRANCH   2   3
ENDBRANCH   1   2
BRANCH   1  29
ATOM     29  C   UNL     1       2.259  -1.629   4.801  1.00  0.00     0.188 C 
BRANCH  29  30
ATOM     30  C   UNL     1       1.898  -2.839   3.915  1.00  0.00     0.188 C 
BRANCH  30  31
ATOM     31  O   UNL     1       2.591  -4.033   4.248  1.00  0.00    -0.376 OA
BRANCH  31  32
ATOM     32  C   UNL     1       3.353  -4.607   3.198  1.00  0.00     0.202 C 
BRANCH  32  33
ATOM     33  C   UNL     1       4.785  -4.083   3.185  1.00  0.00     0.261 C 
BRANCH  33  34
ATOM     34  O   UNL     1       4.894  -2.663   3.275  1.00  0.00    -0.460 OA
BRANCH  34  35
ATOM     35  C   UNL     1       4.475  -1.978   2.194  1.00  0.00     0.338 C 
ATOM     36  O   UNL     1       3.860  -2.420   1.240  1.00  0.00    -0.246 OA
BRANCH  35  37
ATOM     37  C   UNL     1       4.950  -0.589   2.286  1.00  0.00     0.060 A 
ATOM     38  C   UNL     1       4.404   0.334   1.390  1.00  0.00     0.016 A 
ATOM     39  C   UNL     1       6.085  -0.287   3.049  1.00  0.00     0.016 A 
ATOM     40  C   UNL     1       5.115   1.475   1.092  1.00  0.00     0.010 A 
ATOM     41  C   UNL     1       6.810   0.845   2.737  1.00  0.00     0.010 A 
ATOM     42  C   UNL     1       6.370   1.644   1.678  1.00  0.00    -0.014 A 
BRANCH  42  43
ATOM     43  C   UNL     1       7.298   2.522   0.984  1.00  0.00     0.031 A 
ATOM     44  C   UNL     1       7.146   3.978   1.187  1.00  0.00     0.074 A 
ATOM     45  C   UNL     1       8.295   1.989   0.247  1.00  0.00     0.049 A 
ATOM     46  N   UNL     1       7.113   4.911   0.292  1.00  0.00    -0.248 NA
ATOM     47  C   UNL     1       6.987   4.450   2.571  1.00  0.00     0.031 C 
ATOM     48  C   UNL     1       8.692   0.575   0.189  1.00  0.00     0.029 A 
ATOM     49  N   UNL     1       9.255   2.614  -0.492  1.00  0.00    -0.354 N 
ATOM     50  C   UNL     1       7.093   6.106   1.000  1.00  0.00     0.074 A 
ATOM     51  C   UNL     1       6.926   5.768   2.392  1.00  0.00     0.031 C 
ATOM     52  C   UNL     1       9.937   0.489  -0.320  1.00  0.00     0.029 A 
ATOM     53  C   UNL     1      10.365   1.817  -0.726  1.00  0.00     0.049 A 
ATOM     54  H   UNL     1       9.170   3.537  -0.825  1.00  0.00     0.167 HD
ATOM     55  C   UNL     1       7.422   7.298   0.439  1.00  0.00     0.031 A 
ATOM     56  C   UNL     1      11.593   2.224  -1.118  1.00  0.00     0.031 A 
ATOM     57  C   UNL     1       7.305   7.307  -0.989  1.00  0.00     0.049 A 
ATOM     58  C   UNL     1      11.476   3.581  -1.691  1.00  0.00     0.074 A 
ATOM     59  C   UNL     1       6.268   7.131  -1.883  1.00  0.00     0.029 A 
ATOM     60  N   UNL     1       8.457   7.254  -1.731  1.00  0.00    -0.354 N 
ATOM     61  N   UNL     1      10.896   3.851  -2.824  1.00  0.00    -0.248 NA
ATOM     62  C   UNL     1      11.712   4.727  -0.825  1.00  0.00     0.031 C 
ATOM     63  C   UNL     1       6.861   6.560  -3.045  1.00  0.00     0.029 A 
ATOM     64  C   UNL     1       8.225   6.412  -2.788  1.00  0.00     0.049 A 
ATOM     65  H   UNL     1       9.296   7.732  -1.540  1.00  0.00     0.167 HD
ATOM     66  C   UNL     1      10.334   5.106  -2.647  1.00  0.00     0.074 A 
ATOM     67  C   UNL     1      10.988   5.649  -1.463  1.00  0.00     0.031 C 
ATOM     68  C   UNL     1       9.192   5.466  -3.304  1.00  0.00     0.031 A 
BRANCH  55  69
ATOM     69  C   UNL     1       8.175   8.351   1.201  1.00  0.00    -0.014 A 
ATOM     70  C   UNL     1       8.277   9.650   0.683  1.00  0.00     0.009 A 
ATOM     71  C   UNL     1       9.002   8.030   2.298  1.00  0.00     0.009 A 
ATOM     72  C   UNL     1       9.173  10.577   1.230  1.00  0.00     0.001 A 
ATOM     73  C   UNL     1       9.865   8.964   2.872  1.00  0.00     0.001 A 
ATOM     74  C   UNL     1       9.963  10.235   2.325  1.00  0.00     0.000 A 
ENDBRANCH  55  69
BRANCH  56  75
ATOM     75  C   UNL     1      12.889   1.610  -0.761  1.00  0.00    -0.014 A 
ATOM     76  C   UNL     1      14.045   1.875  -1.505  1.00  0.00     0.009 A 
ATOM     77  C   UNL     1      13.038   0.921   0.460  1.00  0.00     0.009 A 
ATOM     78  C   UNL     1      15.305   1.474  -1.038  1.00  0.00     0.001 A 
ATOM     79  C   UNL     1      14.291   0.510   0.919  1.00  0.00     0.001 A 
ATOM     80  C   UNL     1      15.427   0.797   0.174  1.00  0.00     0.000 A 
ENDBRANCH  56  75
BRANCH  68  81
ATOM     81  C   UNL     1       8.733   4.591  -4.443  1.00  0.00    -0.014 A 
ATOM     82  C   UNL     1       8.356   3.250  -4.252  1.00  0.00     0.009 A 
ATOM     83  C   UNL     1       8.525   5.169  -5.705  1.00  0.00     0.009 A 
ATOM     84  C   UNL     1       7.819   2.500  -5.302  1.00  0.00     0.001 A 
ATOM     85  C   UNL     1       7.969   4.424  -6.748  1.00  0.00     0.001 A 
ATOM     86  C   UNL     1       7.621   3.089  -6.548  1.00  0.00     0.000 A 
ENDBRANCH  68  81
ENDBRANCH  42  43
ENDBRANCH  35  37
ENDBRANCH  34  35
ENDBRANCH  33  34
ENDBRANCH  32  33
ENDBRANCH  31  32
ENDBRANCH  30  31
ENDBRANCH  29  30
ENDBRANCH   1  29
TORSDOF 24
