REMARK SMILES C[C@H](NC(=O)c1c(C(=O)OCCOCCOCCOC(=O)c2ccc(-c3c4nc(c(-c5ccccc5)c5ccc([nH]5)c(-c5ccccc5)c5nc(c(-c6ccccc6)c6ccc3[nH]6)C=C5)C=C4)cc2)cnn1C)[C@]12C[C@H]3C[C@H](C[C@H](C3)C1)C2
REMARK SMILES IDX 14 1 13 2 12 3 11 4 10 5 8 6 9 7 7 8 6 9 72 10 70 11 71 12
REMARK SMILES IDX 73 13 4 14 3 15 5 17 2 18 1 19 74 20 75 21 82 22 83 23 76 24
REMARK SMILES IDX 80 25 78 26 77 27 81 28 79 29 15 30 16 31 17 32 18 33 19 34
REMARK SMILES IDX 20 35 21 36 22 37 23 38 69 39 24 40 68 41 25 42 26 43 27 44
REMARK SMILES IDX 62 45 28 46 67 47 61 48 63 49 29 50 66 51 60 52 59 53 30 55
REMARK SMILES IDX 52 56 37 57 51 58 38 59 41 60 50 61 64 62 39 63 40 64 49 66
REMARK SMILES IDX 65 67 42 68 31 69 32 70 36 71 33 72 35 73 34 74 53 75 54 76
REMARK SMILES IDX 58 77 55 78 57 79 56 80 43 81 44 82 48 83 45 84 47 85 46 86
REMARK H PARENT 3 16 63 54 41 65
REMARK Flexibility Score: inf
ROOT
ATOM      1  C   UNL     1       4.942   3.537   2.292  1.00  0.00     0.188 C 
ENDROOT
BRANCH   1   2
ATOM      2  O   UNL     1       6.143   2.811   2.061  1.00  0.00    -0.376 OA
BRANCH   2   3
ATOM      3  C   UNL     1       6.367   1.676   2.888  1.00  0.00     0.202 C 
BRANCH   3   4
ATOM      4  C   UNL     1       5.646   0.421   2.379  1.00  0.00     0.261 C 
BRANCH   4   5
ATOM      5  O   UNL     1       4.214   0.526   2.419  1.00  0.00    -0.460 OA
BRANCH   5   6
ATOM      6  C   UNL     1       3.676   0.657   3.658  1.00  0.00     0.342 C 
ATOM      7  O   UNL     1       4.313   0.572   4.702  1.00  0.00    -0.246 OA
BRANCH   6   8
ATOM      8  C   UNL     1       2.304   1.102   3.631  1.00  0.00     0.111 A 
ATOM      9  C   UNL     1       1.256   0.730   2.786  1.00  0.00     0.140 A 
ATOM     10  N   UNL     1       0.153   1.207   3.466  1.00  0.00    -0.262 N 
ATOM     11  C   UNL     1       1.752   2.065   4.503  1.00  0.00     0.151 A 
ATOM     12  N   UNL     1       0.447   2.224   4.304  1.00  0.00    -0.180 NA
ATOM     13  C   UNL     1      -1.088   0.506   3.720  1.00  0.00     0.174 C 
BRANCH   9  14
ATOM     14  C   UNL     1       1.263  -0.235   1.712  1.00  0.00     0.270 C 
ATOM     15  N   UNL     1       0.777   0.080   0.460  1.00  0.00    -0.348 N 
ATOM     16  H   UNL     1       0.731  -0.687  -0.155  1.00  0.00     0.164 HD
ATOM     17  O   UNL     1       1.709  -1.369   1.877  1.00  0.00    -0.267 OA
BRANCH  15  18
ATOM     18  C   UNL     1       0.312   1.348  -0.130  1.00  0.00     0.085 C 
ATOM     19  C   UNL     1       1.200   1.688  -1.335  1.00  0.00     0.031 C 
BRANCH  18  20
ATOM     20  C   UNL     1      -1.227   1.345  -0.499  1.00  0.00    -0.009 C 
ATOM     21  C   UNL     1      -2.012   0.405   0.442  1.00  0.00     0.012 C 
ATOM     22  C   UNL     1      -1.575   0.906  -1.952  1.00  0.00     0.012 C 
ATOM     23  C   UNL     1      -1.779   2.791  -0.316  1.00  0.00     0.012 C 
ATOM     24  C   UNL     1      -3.524   0.464   0.221  1.00  0.00    -0.010 C 
ATOM     25  C   UNL     1      -3.103   0.958  -2.199  1.00  0.00    -0.010 C 
ATOM     26  C   UNL     1      -3.299   2.846  -0.544  1.00  0.00    -0.010 C 
ATOM     27  C   UNL     1      -3.998   1.905   0.449  1.00  0.00     0.007 C 
ATOM     28  C   UNL     1      -3.824   0.025  -1.215  1.00  0.00     0.007 C 
ATOM     29  C   UNL     1      -3.613   2.393  -1.978  1.00  0.00     0.007 C 
ENDBRANCH  18  20
ENDBRANCH  15  18
ENDBRANCH   9  14
ENDBRANCH   6   8
ENDBRANCH   5   6
ENDBRANCH   4   5
ENDBRANCH   3   4
ENDBRANCH   2   3
ENDBRANCH   1   2
BRANCH   1  30
ATOM     30  C   UNL     1       3.865   3.365   1.203  1.00  0.00     0.188 C 
BRANCH  30  31
ATOM     31  O   UNL     1       4.215   3.123  -0.154  1.00  0.00    -0.376 OA
BRANCH  31  32
ATOM     32  C   UNL     1       5.454   3.580  -0.664  1.00  0.00     0.202 C 
BRANCH  32  33
ATOM     33  C   UNL     1       5.585   5.084  -0.903  1.00  0.00     0.261 C 
BRANCH  33  34
ATOM     34  O   UNL     1       5.259   5.880   0.246  1.00  0.00    -0.460 OA
BRANCH  34  35
ATOM     35  C   UNL     1       4.051   6.491   0.195  1.00  0.00     0.338 C 
ATOM     36  O   UNL     1       3.246   6.468  -0.721  1.00  0.00    -0.246 OA
BRANCH  35  37
ATOM     37  C   UNL     1       3.749   7.108   1.503  1.00  0.00     0.060 A 
ATOM     38  C   UNL     1       2.480   6.888   2.053  1.00  0.00     0.016 A 
ATOM     39  C   UNL     1       4.668   7.937   2.152  1.00  0.00     0.016 A 
ATOM     40  C   UNL     1       2.110   7.527   3.235  1.00  0.00     0.010 A 
ATOM     41  C   UNL     1       4.288   8.594   3.327  1.00  0.00     0.010 A 
ATOM     42  C   UNL     1       2.997   8.417   3.854  1.00  0.00    -0.014 A 
BRANCH  42  43
ATOM     43  C   UNL     1       2.511   9.291   4.945  1.00  0.00     0.031 A 
ATOM     44  C   UNL     1       1.958  10.645   4.594  1.00  0.00     0.074 A 
ATOM     45  C   UNL     1       2.541   8.889   6.227  1.00  0.00     0.049 A 
ATOM     46  N   UNL     1       1.470  11.571   5.380  1.00  0.00    -0.248 NA
ATOM     47  C   UNL     1       1.953  10.999   3.165  1.00  0.00     0.031 C 
ATOM     48  C   UNL     1       3.008   7.587   6.698  1.00  0.00     0.029 A 
ATOM     49  N   UNL     1       2.164   9.549   7.370  1.00  0.00    -0.354 N 
ATOM     50  C   UNL     1       1.100  12.615   4.543  1.00  0.00     0.074 A 
ATOM     51  C   UNL     1       1.440  12.220   3.193  1.00  0.00     0.031 C 
ATOM     52  C   UNL     1       2.890   7.543   8.037  1.00  0.00     0.029 A 
ATOM     53  C   UNL     1       2.363   8.820   8.515  1.00  0.00     0.049 A 
ATOM     54  H   UNL     1       1.786  10.458   7.367  1.00  0.00     0.167 HD
ATOM     55  C   UNL     1       0.525  13.797   4.864  1.00  0.00     0.031 A 
ATOM     56  C   UNL     1       2.153   9.153   9.803  1.00  0.00     0.031 A 
ATOM     57  C   UNL     1       0.203  14.208   6.203  1.00  0.00     0.049 A 
ATOM     58  C   UNL     1       1.604  10.512  10.143  1.00  0.00     0.074 A 
ATOM     59  C   UNL     1      -0.407  15.377   6.625  1.00  0.00     0.029 A 
ATOM     60  N   UNL     1       0.484  13.469   7.340  1.00  0.00    -0.354 N 
ATOM     61  N   UNL     1       1.220  11.474   9.340  1.00  0.00    -0.248 NA
ATOM     62  C   UNL     1       1.462  10.828  11.572  1.00  0.00     0.031 C 
ATOM     63  C   UNL     1      -0.450  15.366   8.024  1.00  0.00     0.029 A 
ATOM     64  C   UNL     1       0.093  14.171   8.467  1.00  0.00     0.049 A 
ATOM     65  H   UNL     1       0.899  12.576   7.346  1.00  0.00     0.167 HD
ATOM     66  C   UNL     1       0.764  12.496  10.164  1.00  0.00     0.074 A 
ATOM     67  C   UNL     1       0.917  12.036  11.529  1.00  0.00     0.031 C 
ATOM     68  C   UNL     1       0.256  13.704   9.819  1.00  0.00     0.031 A 
BRANCH  55  69
ATOM     69  C   UNL     1       0.246  14.747   3.736  1.00  0.00    -0.014 A 
ATOM     70  C   UNL     1      -0.814  14.524   2.844  1.00  0.00     0.009 A 
ATOM     71  C   UNL     1       1.055  15.880   3.567  1.00  0.00     0.009 A 
ATOM     72  C   UNL     1      -1.036  15.401   1.781  1.00  0.00     0.001 A 
ATOM     73  C   UNL     1       0.818  16.766   2.515  1.00  0.00     0.001 A 
ATOM     74  C   UNL     1      -0.221  16.521   1.618  1.00  0.00     0.000 A 
ENDBRANCH  55  69
BRANCH  56  75
ATOM     75  C   UNL     1       2.469   8.183  10.881  1.00  0.00    -0.014 A 
ATOM     76  C   UNL     1       1.437   7.541  11.582  1.00  0.00     0.009 A 
ATOM     77  C   UNL     1       3.801   7.910  11.227  1.00  0.00     0.009 A 
ATOM     78  C   UNL     1       1.734   6.657  12.622  1.00  0.00     0.001 A 
ATOM     79  C   UNL     1       4.095   7.011  12.254  1.00  0.00     0.001 A 
ATOM     80  C   UNL     1       3.061   6.391  12.955  1.00  0.00     0.000 A 
ENDBRANCH  56  75
BRANCH  68  81
ATOM     81  C   UNL     1      -0.198  14.603  10.932  1.00  0.00    -0.014 A 
ATOM     82  C   UNL     1       0.725  15.300  11.726  1.00  0.00     0.009 A 
ATOM     83  C   UNL     1      -1.571  14.790  11.159  1.00  0.00     0.009 A 
ATOM     84  C   UNL     1       0.282  16.147  12.744  1.00  0.00     0.001 A 
ATOM     85  C   UNL     1      -2.011  15.655  12.162  1.00  0.00     0.001 A 
ATOM     86  C   UNL     1      -1.085  16.327  12.958  1.00  0.00     0.000 A 
ENDBRANCH  68  81
ENDBRANCH  42  43
ENDBRANCH  35  37
ENDBRANCH  34  35
ENDBRANCH  33  34
ENDBRANCH  32  33
ENDBRANCH  31  32
ENDBRANCH  30  31
ENDBRANCH   1  30
TORSDOF 20
