REMARK SMILES CC(=O)O[C@@H](C)c1nc2ccc(C(=O)OCCOCCOCCOC(=O)c3ccc(-c4c5nc(c(-c6ccccc6)c6ccc([nH]6)c(-c6ccccc6)c6nc(c(-c7ccccc7)c7ccc4[nH]7)C=C6)C=C5)cc3)cc2[nH]1
REMARK SMILES IDX 19 1 18 2 17 3 16 4 15 5 13 6 14 7 12 8 7 9 8 10 77 11 9 12
REMARK SMILES IDX 76 13 10 15 75 16 11 17 5 18 6 19 4 20 2 21 1 22 3 23 20 24
REMARK SMILES IDX 21 25 22 26 23 27 24 28 25 29 26 30 27 31 28 32 74 33 29 34
REMARK SMILES IDX 73 35 30 36 31 37 32 38 67 39 33 40 72 41 66 42 68 43 34 44
REMARK SMILES IDX 71 45 65 46 64 47 35 49 57 50 42 51 56 52 43 53 46 54 55 55
REMARK SMILES IDX 69 56 44 57 45 58 54 60 70 61 47 62 36 63 37 64 41 65 38 66
REMARK SMILES IDX 40 67 39 68 58 69 59 70 63 71 60 72 62 73 61 74 48 75 49 76
REMARK SMILES IDX 53 77 50 78 52 79 51 80
REMARK H PARENT 77 14 68 48 46 59
REMARK Flexibility Score: inf
ROOT
ATOM      1  C   UNL     1      -7.374   6.117   3.085  1.00  0.00     0.188 C 
ENDROOT
BRANCH   1   2
ATOM      2  O   UNL     1      -8.625   6.650   2.667  1.00  0.00    -0.376 OA
BRANCH   2   3
ATOM      3  C   UNL     1      -9.550   5.818   1.975  1.00  0.00     0.202 C 
BRANCH   3   4
ATOM      4  C   UNL     1      -9.097   5.094   0.702  1.00  0.00     0.261 C 
BRANCH   4   5
ATOM      5  O   UNL     1      -7.947   4.256   0.896  1.00  0.00    -0.460 OA
BRANCH   5   6
ATOM      6  C   UNL     1      -6.872   4.567   0.131  1.00  0.00     0.338 C 
ATOM      7  O   UNL     1      -6.814   5.420  -0.740  1.00  0.00    -0.246 OA
BRANCH   6   8
ATOM      8  C   UNL     1      -5.669   3.860   0.628  1.00  0.00     0.062 A 
ATOM      9  C   UNL     1      -1.275   3.258   1.575  1.00  0.00     0.148 A 
ATOM     10  N   UNL     1      -2.059   2.230   1.859  1.00  0.00    -0.229 NA
ATOM     11  N   UNL     1      -2.031   4.346   1.211  1.00  0.00    -0.339 N 
ATOM     12  C   UNL     1      -3.330   2.622   1.521  1.00  0.00     0.089 A 
ATOM     13  C   UNL     1      -3.336   3.945   1.102  1.00  0.00     0.066 A 
ATOM     14  H   UNL     1      -1.693   5.257   1.055  1.00  0.00     0.168 HD
ATOM     15  C   UNL     1      -4.534   1.899   1.522  1.00  0.00     0.031 A 
ATOM     16  C   UNL     1      -4.478   4.605   0.655  1.00  0.00     0.044 A 
ATOM     17  C   UNL     1      -5.705   2.529   1.065  1.00  0.00     0.018 A 
BRANCH   9  18
ATOM     18  C   UNL     1       0.229   3.286   1.597  1.00  0.00     0.239 C 
ATOM     19  C   UNL     1       0.872   4.321   0.674  1.00  0.00     0.062 C 
BRANCH  18  20
ATOM     20  O   UNL     1       0.731   1.954   1.348  1.00  0.00    -0.455 OA
BRANCH  20  21
ATOM     21  C   UNL     1       0.480   1.382   0.139  1.00  0.00     0.303 C 
ATOM     22  C   UNL     1       0.967  -0.035   0.143  1.00  0.00     0.139 C 
ATOM     23  O   UNL     1      -0.018   1.932  -0.833  1.00  0.00    -0.253 OA
ENDBRANCH  20  21
ENDBRANCH  18  20
ENDBRANCH   9  18
ENDBRANCH   6   8
ENDBRANCH   5   6
ENDBRANCH   4   5
ENDBRANCH   3   4
ENDBRANCH   2   3
ENDBRANCH   1   2
BRANCH   1  24
ATOM     24  C   UNL     1      -7.316   4.767   3.831  1.00  0.00     0.188 C 
BRANCH  24  25
ATOM     25  O   UNL     1      -8.552   4.131   4.035  1.00  0.00    -0.376 OA
BRANCH  25  26
ATOM     26  C   UNL     1      -9.300   4.338   5.219  1.00  0.00     0.202 C 
BRANCH  26  27
ATOM     27  C   UNL     1      -9.121   5.500   6.215  1.00  0.00     0.261 C 
BRANCH  27  28
ATOM     28  O   UNL     1      -8.036   6.405   6.014  1.00  0.00    -0.460 OA
BRANCH  28  29
ATOM     29  C   UNL     1      -6.943   6.200   6.787  1.00  0.00     0.338 C 
ATOM     30  O   UNL     1      -6.751   5.301   7.582  1.00  0.00    -0.246 OA
BRANCH  29  31
ATOM     31  C   UNL     1      -5.918   7.185   6.397  1.00  0.00     0.060 A 
ATOM     32  C   UNL     1      -4.732   6.724   5.815  1.00  0.00     0.016 A 
ATOM     33  C   UNL     1      -6.117   8.547   6.633  1.00  0.00     0.016 A 
ATOM     34  C   UNL     1      -3.723   7.630   5.489  1.00  0.00     0.010 A 
ATOM     35  C   UNL     1      -5.099   9.450   6.321  1.00  0.00     0.010 A 
ATOM     36  C   UNL     1      -3.888   8.993   5.773  1.00  0.00    -0.014 A 
BRANCH  36  37
ATOM     37  C   UNL     1      -2.736   9.917   5.654  1.00  0.00     0.031 A 
ATOM     38  C   UNL     1      -1.926  10.222   6.882  1.00  0.00     0.074 A 
ATOM     39  C   UNL     1      -2.410  10.474   4.475  1.00  0.00     0.049 A 
ATOM     40  N   UNL     1      -0.901  11.024   7.022  1.00  0.00    -0.248 NA
ATOM     41  C   UNL     1      -2.326   9.529   8.117  1.00  0.00     0.031 C 
ATOM     42  C   UNL     1      -3.091  10.233   3.204  1.00  0.00     0.029 A 
ATOM     43  N   UNL     1      -1.420  11.372   4.164  1.00  0.00    -0.354 N 
ATOM     44  C   UNL     1      -0.538  10.937   8.360  1.00  0.00     0.074 A 
ATOM     45  C   UNL     1      -1.467  10.026   8.994  1.00  0.00     0.031 C 
ATOM     46  C   UNL     1      -2.502  10.974   2.249  1.00  0.00     0.029 A 
ATOM     47  C   UNL     1      -1.428  11.764   2.848  1.00  0.00     0.049 A 
ATOM     48  H   UNL     1      -0.766  11.703   4.821  1.00  0.00     0.167 HD
ATOM     49  C   UNL     1       0.477  11.558   9.005  1.00  0.00     0.031 A 
ATOM     50  C   UNL     1      -0.669  12.674   2.208  1.00  0.00     0.031 A 
ATOM     51  C   UNL     1       1.384  12.486   8.386  1.00  0.00     0.049 A 
ATOM     52  C   UNL     1       0.396  13.421   2.967  1.00  0.00     0.074 A 
ATOM     53  C   UNL     1       2.455  13.155   8.953  1.00  0.00     0.029 A 
ATOM     54  N   UNL     1       1.315  12.890   7.062  1.00  0.00    -0.354 N 
ATOM     55  N   UNL     1       0.755  13.303   4.222  1.00  0.00    -0.248 NA
ATOM     56  C   UNL     1       1.164  14.425   2.214  1.00  0.00     0.031 C 
ATOM     57  C   UNL     1       2.999  14.006   7.986  1.00  0.00     0.029 A 
ATOM     58  C   UNL     1       2.305  13.822   6.801  1.00  0.00     0.049 A 
ATOM     59  H   UNL     1       0.659  12.562   6.405  1.00  0.00     0.167 HD
ATOM     60  C   UNL     1       1.806  14.195   4.403  1.00  0.00     0.074 A 
ATOM     61  C   UNL     1       2.034  14.838   3.125  1.00  0.00     0.031 C 
ATOM     62  C   UNL     1       2.520  14.456   5.526  1.00  0.00     0.031 A 
BRANCH  49  63
ATOM     63  C   UNL     1       0.628  11.277  10.473  1.00  0.00    -0.014 A 
ATOM     64  C   UNL     1       1.087  10.034  10.935  1.00  0.00     0.009 A 
ATOM     65  C   UNL     1       0.315  12.277  11.408  1.00  0.00     0.009 A 
ATOM     66  C   UNL     1       1.193   9.784  12.306  1.00  0.00     0.001 A 
ATOM     67  C   UNL     1       0.448  12.034  12.775  1.00  0.00     0.001 A 
ATOM     68  C   UNL     1       0.877  10.785  13.223  1.00  0.00     0.000 A 
ENDBRANCH  49  63
BRANCH  50  69
ATOM     69  C   UNL     1      -0.896  12.949   0.765  1.00  0.00    -0.014 A 
ATOM     70  C   UNL     1       0.049  12.553  -0.194  1.00  0.00     0.009 A 
ATOM     71  C   UNL     1      -2.052  13.624   0.342  1.00  0.00     0.009 A 
ATOM     72  C   UNL     1      -0.150  12.847  -1.545  1.00  0.00     0.001 A 
ATOM     73  C   UNL     1      -2.260  13.893  -1.012  1.00  0.00     0.001 A 
ATOM     74  C   UNL     1      -1.306  13.511  -1.954  1.00  0.00     0.000 A 
ENDBRANCH  50  69
BRANCH  62  75
ATOM     75  C   UNL     1       3.642  15.451   5.416  1.00  0.00    -0.014 A 
ATOM     76  C   UNL     1       3.391  16.826   5.290  1.00  0.00     0.009 A 
ATOM     77  C   UNL     1       4.973  15.007   5.489  1.00  0.00     0.009 A 
ATOM     78  C   UNL     1       4.451  17.732   5.206  1.00  0.00     0.001 A 
ATOM     79  C   UNL     1       6.029  15.917   5.434  1.00  0.00     0.001 A 
ATOM     80  C   UNL     1       5.767  17.278   5.283  1.00  0.00     0.000 A 
ENDBRANCH  62  75
ENDBRANCH  36  37
ENDBRANCH  29  31
ENDBRANCH  28  29
ENDBRANCH  27  28
ENDBRANCH  26  27
ENDBRANCH  25  26
ENDBRANCH  24  25
ENDBRANCH   1  24
TORSDOF 20
