REMARK SMILES C[C@H](C(=O)OCCOCCOCCOC(=O)c1ccc(-c2c3nc(c(-c4ccccc4)c4ccc([nH]4)c(-c4ccccc4)c4nc(c(-c5ccccc5)c5ccc2[nH]5)C=C4)C=C3)cc1)c1ccc2c(c1)[nH]c1ccc(Cl)cc12
REMARK SMILES IDX 10 1 9 2 8 3 7 4 6 5 5 6 3 7 4 8 2 9 1 10 65 11 66 12 70 13
REMARK SMILES IDX 67 14 69 15 68 16 71 17 78 18 72 19 77 21 73 22 75 23 74 24
REMARK SMILES IDX 76 25 11 26 12 27 13 28 14 29 15 30 16 31 17 32 18 33 64 34
REMARK SMILES IDX 19 35 63 36 20 37 21 38 22 39 57 40 23 41 62 42 56 43 58 44
REMARK SMILES IDX 24 45 61 46 55 47 54 48 25 50 47 51 32 52 46 53 33 54 36 55
REMARK SMILES IDX 45 56 59 57 34 58 35 59 44 61 60 62 37 63 26 64 27 65 31 66
REMARK SMILES IDX 28 67 30 68 29 69 48 70 49 71 53 72 50 73 52 74 51 75 38 76
REMARK SMILES IDX 39 77 43 78 40 79 42 80 41 81
REMARK H PARENT 71 20 58 49 36 60
REMARK Flexibility Score: inf
ROOT
ATOM      1  C   UNL     1       0.275   2.090  -0.273  1.00  0.00     0.188 C 
ENDROOT
BRANCH   1   2
ATOM      2  C   UNL     1       1.781   2.111  -0.552  1.00  0.00     0.188 C 
BRANCH   2   3
ATOM      3  O   UNL     1       2.223   1.967  -1.893  1.00  0.00    -0.376 OA
BRANCH   3   4
ATOM      4  C   UNL     1       1.583   1.003  -2.727  1.00  0.00     0.202 C 
BRANCH   4   5
ATOM      5  C   UNL     1       1.441  -0.444  -2.217  1.00  0.00     0.261 C 
BRANCH   5   6
ATOM      6  O   UNL     1       0.628  -0.617  -1.030  1.00  0.00    -0.463 OA
BRANCH   6   7
ATOM      7  C   UNL     1       1.234  -1.183   0.047  1.00  0.00     0.313 C 
ATOM      8  O   UNL     1       2.408  -1.551   0.049  1.00  0.00    -0.252 OA
BRANCH   7   9
ATOM      9  C   UNL     1       0.401  -1.248   1.327  1.00  0.00     0.126 C 
ATOM     10  C   UNL     1       0.879  -0.238   2.384  1.00  0.00     0.025 C 
BRANCH   9  11
ATOM     11  C   UNL     1      -1.121  -1.380   1.236  1.00  0.00    -0.032 A 
ATOM     12  C   UNL     1      -2.030  -0.310   1.151  1.00  0.00     0.005 A 
ATOM     13  C   UNL     1      -1.637  -2.673   1.409  1.00  0.00     0.031 A 
ATOM     14  C   UNL     1      -3.427  -0.503   1.216  1.00  0.00     0.011 A 
ATOM     15  C   UNL     1      -3.009  -2.825   1.615  1.00  0.00     0.047 A 
ATOM     16  C   UNL     1      -3.928  -1.790   1.490  1.00  0.00     0.007 A 
ATOM     17  N   UNL     1      -3.696  -3.936   2.026  1.00  0.00    -0.355 N 
ATOM     18  C   UNL     1      -5.227  -2.349   1.737  1.00  0.00     0.009 A 
ATOM     19  C   UNL     1      -5.022  -3.645   2.213  1.00  0.00     0.047 A 
ATOM     20  H   UNL     1      -3.292  -4.823   2.167  1.00  0.00     0.167 HD
ATOM     21  C   UNL     1      -6.553  -1.870   1.672  1.00  0.00     0.031 A 
ATOM     22  C   UNL     1      -6.034  -4.436   2.761  1.00  0.00     0.028 A 
ATOM     23  C   UNL     1      -7.590  -2.686   2.146  1.00  0.00     0.041 A 
ATOM     24  C   UNL     1      -7.331  -3.927   2.724  1.00  0.00     0.022 A 
ATOM     25  Cl  UNL     1      -9.222  -2.147   2.018  1.00  0.00    -0.084 Cl
ENDBRANCH   9  11
ENDBRANCH   7   9
ENDBRANCH   6   7
ENDBRANCH   5   6
ENDBRANCH   4   5
ENDBRANCH   3   4
ENDBRANCH   2   3
ENDBRANCH   1   2
BRANCH   1  26
ATOM     26  O   UNL     1      -0.533   2.099  -1.427  1.00  0.00    -0.376 OA
BRANCH  26  27
ATOM     27  C   UNL     1      -1.510   3.115  -1.544  1.00  0.00     0.202 C 
BRANCH  27  28
ATOM     28  C   UNL     1      -0.964   4.547  -1.626  1.00  0.00     0.261 C 
BRANCH  28  29
ATOM     29  O   UNL     1      -0.103   4.954  -0.545  1.00  0.00    -0.460 OA
BRANCH  29  30
ATOM     30  C   UNL     1      -0.658   5.050   0.689  1.00  0.00     0.338 C 
ATOM     31  O   UNL     1      -1.821   4.873   0.983  1.00  0.00    -0.246 OA
BRANCH  30  32
ATOM     32  C   UNL     1       0.455   5.151   1.667  1.00  0.00     0.060 A 
ATOM     33  C   UNL     1       0.539   4.208   2.704  1.00  0.00     0.016 A 
ATOM     34  C   UNL     1       1.427   6.145   1.544  1.00  0.00     0.016 A 
ATOM     35  C   UNL     1       1.580   4.275   3.634  1.00  0.00     0.010 A 
ATOM     36  C   UNL     1       2.454   6.225   2.489  1.00  0.00     0.010 A 
ATOM     37  C   UNL     1       2.521   5.310   3.556  1.00  0.00    -0.014 A 
BRANCH  37  38
ATOM     38  C   UNL     1       3.458   5.562   4.681  1.00  0.00     0.031 A 
ATOM     39  C   UNL     1       3.109   6.642   5.670  1.00  0.00     0.074 A 
ATOM     40  C   UNL     1       4.595   4.859   4.833  1.00  0.00     0.049 A 
ATOM     41  N   UNL     1       3.803   7.102   6.680  1.00  0.00    -0.248 NA
ATOM     42  C   UNL     1       1.800   7.292   5.490  1.00  0.00     0.031 C 
ATOM     43  C   UNL     1       5.032   3.755   3.983  1.00  0.00     0.029 A 
ATOM     44  N   UNL     1       5.600   4.990   5.762  1.00  0.00    -0.354 N 
ATOM     45  C   UNL     1       3.021   8.101   7.247  1.00  0.00     0.074 A 
ATOM     46  C   UNL     1       1.817   8.201   6.452  1.00  0.00     0.031 C 
ATOM     47  C   UNL     1       6.227   3.317   4.421  1.00  0.00     0.029 A 
ATOM     48  C   UNL     1       6.655   4.135   5.555  1.00  0.00     0.049 A 
ATOM     49  H   UNL     1       5.566   5.635   6.505  1.00  0.00     0.167 HD
ATOM     50  C   UNL     1       3.277   8.865   8.336  1.00  0.00     0.031 A 
ATOM     51  C   UNL     1       7.842   4.045   6.188  1.00  0.00     0.031 A 
ATOM     52  C   UNL     1       4.482   8.787   9.116  1.00  0.00     0.049 A 
ATOM     53  C   UNL     1       8.148   4.973   7.337  1.00  0.00     0.074 A 
ATOM     54  C   UNL     1       4.830   9.518  10.239  1.00  0.00     0.029 A 
ATOM     55  N   UNL     1       5.542   7.934   8.850  1.00  0.00    -0.354 N 
ATOM     56  N   UNL     1       7.394   5.900   7.878  1.00  0.00    -0.248 NA
ATOM     57  C   UNL     1       9.470   4.836   7.967  1.00  0.00     0.031 C 
ATOM     58  C   UNL     1       6.127   9.153  10.613  1.00  0.00     0.029 A 
ATOM     59  C   UNL     1       6.557   8.142   9.769  1.00  0.00     0.049 A 
ATOM     60  H   UNL     1       5.569   7.279   8.116  1.00  0.00     0.167 HD
ATOM     61  C   UNL     1       8.135   6.430   8.929  1.00  0.00     0.074 A 
ATOM     62  C   UNL     1       9.391   5.711   8.960  1.00  0.00     0.031 C 
ATOM     63  C   UNL     1       7.803   7.420   9.793  1.00  0.00     0.031 A 
BRANCH  50  64
ATOM     64  C   UNL     1       2.242   9.886   8.720  1.00  0.00    -0.014 A 
ATOM     65  C   UNL     1       0.997   9.504   9.245  1.00  0.00     0.009 A 
ATOM     66  C   UNL     1       2.528  11.253   8.580  1.00  0.00     0.009 A 
ATOM     67  C   UNL     1       0.047  10.469   9.586  1.00  0.00     0.001 A 
ATOM     68  C   UNL     1       1.589  12.216   8.953  1.00  0.00     0.001 A 
ATOM     69  C   UNL     1       0.346  11.824   9.446  1.00  0.00     0.000 A 
ENDBRANCH  50  64
BRANCH  51  70
ATOM     70  C   UNL     1       8.860   3.057   5.734  1.00  0.00    -0.014 A 
ATOM     71  C   UNL     1       9.232   1.979   6.552  1.00  0.00     0.009 A 
ATOM     72  C   UNL     1       9.495   3.211   4.491  1.00  0.00     0.009 A 
ATOM     73  C   UNL     1      10.236   1.095   6.148  1.00  0.00     0.001 A 
ATOM     74  C   UNL     1      10.474   2.307   4.074  1.00  0.00     0.001 A 
ATOM     75  C   UNL     1      10.852   1.256   4.908  1.00  0.00     0.000 A 
ENDBRANCH  51  70
BRANCH  63  76
ATOM     76  C   UNL     1       8.789   7.758  10.880  1.00  0.00    -0.014 A 
ATOM     77  C   UNL     1      10.005   8.401  10.599  1.00  0.00     0.009 A 
ATOM     78  C   UNL     1       8.471   7.468  12.217  1.00  0.00     0.009 A 
ATOM     79  C   UNL     1      10.895   8.713  11.630  1.00  0.00     0.001 A 
ATOM     80  C   UNL     1       9.346   7.812  13.248  1.00  0.00     0.001 A 
ATOM     81  C   UNL     1      10.562   8.424  12.953  1.00  0.00     0.000 A 
ENDBRANCH  63  76
ENDBRANCH  37  38
ENDBRANCH  30  32
ENDBRANCH  29  30
ENDBRANCH  28  29
ENDBRANCH  27  28
ENDBRANCH  26  27
ENDBRANCH   1  26
TORSDOF 18
