REMARK SMILES CN(CCO)C(=O)N[C@H]1C=C[C@@H](C(=O)OCCOCCOCCOC(=O)c2ccc(-c3c4nc(c(-c5ccccc5)c5ccc([nH]5)c(-c5ccccc5)c5nc(c(-c6ccccc6)c6ccc3[nH]6)C=C5)C=C4)cc2)C1
REMARK SMILES IDX 18 1 17 2 16 3 15 4 13 5 14 6 12 7 9 8 10 9 75 10 11 11 8 12
REMARK SMILES IDX 6 13 7 14 2 16 1 17 3 18 4 19 5 20 19 22 20 23 21 24 22 25
REMARK SMILES IDX 23 26 24 27 25 28 26 29 27 30 28 31 74 32 29 33 73 34 30 35
REMARK SMILES IDX 31 36 32 37 67 38 33 39 72 40 66 41 68 42 34 43 71 44 65 45
REMARK SMILES IDX 64 46 35 48 57 49 42 50 56 51 43 52 46 53 55 54 69 55 44 56
REMARK SMILES IDX 45 57 54 59 70 60 47 61 36 62 37 63 41 64 38 65 40 66 39 67
REMARK SMILES IDX 58 68 59 69 63 70 60 71 62 72 61 73 48 74 49 75 53 76 50 77
REMARK SMILES IDX 52 78 51 79
REMARK H PARENT 8 15 5 21 68 47 46 58
REMARK Flexibility Score: inf
ROOT
ATOM      1  O   UNL     1       2.786  -2.207   6.509  1.00  0.00    -0.376 OA
ENDROOT
BRANCH   1   2
ATOM      2  C   UNL     1       3.876  -2.865   5.866  1.00  0.00     0.202 C 
BRANCH   2   3
ATOM      3  C   UNL     1       3.610  -4.220   5.189  1.00  0.00     0.261 C 
BRANCH   3   4
ATOM      4  O   UNL     1       2.495  -4.229   4.274  1.00  0.00    -0.463 OA
BRANCH   4   5
ATOM      5  C   UNL     1       1.641  -5.286   4.361  1.00  0.00     0.312 C 
ATOM      6  O   UNL     1       1.773  -6.218   5.148  1.00  0.00    -0.252 OA
BRANCH   5   7
ATOM      7  C   UNL     1       0.433  -5.188   3.422  1.00  0.00     0.124 C 
ATOM      8  C   UNL     1      -0.193  -4.366   1.163  1.00  0.00     0.107 C 
ATOM      9  C   UNL     1       0.021  -5.852   1.205  1.00  0.00    -0.006 C 
ATOM     10  C   UNL     1       0.336  -3.955   2.532  1.00  0.00     0.048 C 
ATOM     11  C   UNL     1       0.372  -6.294   2.420  1.00  0.00    -0.014 C 
BRANCH   8  12
ATOM     12  N   UNL     1       0.586  -3.819   0.067  1.00  0.00    -0.332 N 
ATOM     13  C   UNL     1       0.904  -2.610  -0.422  1.00  0.00     0.317 C 
ATOM     14  O   UNL     1       1.705  -2.634  -1.365  1.00  0.00    -0.249 OA
ATOM     15  H   UNL     1       0.997  -4.537  -0.468  1.00  0.00     0.165 HD
BRANCH  13  16
ATOM     16  N   UNL     1       0.404  -1.424   0.042  1.00  0.00    -0.326 N 
ATOM     17  C   UNL     1       1.067  -0.218  -0.456  1.00  0.00     0.148 C 
BRANCH  16  18
ATOM     18  C   UNL     1      -0.712  -1.178   0.955  1.00  0.00     0.149 C 
BRANCH  18  19
ATOM     19  C   UNL     1      -2.123  -1.469   0.434  1.00  0.00     0.177 C 
BRANCH  19  20
ATOM     20  O   UNL     1      -2.190  -2.527  -0.506  1.00  0.00    -0.395 OA
ATOM     21  H   UNL     1      -1.673  -2.293  -1.292  1.00  0.00     0.210 HD
ENDBRANCH  19  20
ENDBRANCH  18  19
ENDBRANCH  16  18
ENDBRANCH  13  16
ENDBRANCH   8  12
ENDBRANCH   5   7
ENDBRANCH   4   5
ENDBRANCH   3   4
ENDBRANCH   2   3
ENDBRANCH   1   2
BRANCH   1  22
ATOM     22  C   UNL     1       1.601  -1.985   5.759  1.00  0.00     0.188 C 
BRANCH  22  23
ATOM     23  C   UNL     1       1.717  -1.384   4.353  1.00  0.00     0.188 C 
BRANCH  23  24
ATOM     24  O   UNL     1       3.028  -1.242   3.859  1.00  0.00    -0.376 OA
BRANCH  24  25
ATOM     25  C   UNL     1       3.342  -0.008   3.231  1.00  0.00     0.202 C 
BRANCH  25  26
ATOM     26  C   UNL     1       3.373   1.210   4.175  1.00  0.00     0.261 C 
BRANCH  26  27
ATOM     27  O   UNL     1       2.167   1.466   4.928  1.00  0.00    -0.460 OA
BRANCH  27  28
ATOM     28  C   UNL     1       1.057   1.814   4.231  1.00  0.00     0.338 C 
ATOM     29  O   UNL     1       0.974   1.994   3.032  1.00  0.00    -0.246 OA
BRANCH  28  30
ATOM     30  C   UNL     1      -0.117   1.648   5.131  1.00  0.00     0.060 A 
ATOM     31  C   UNL     1      -1.159   0.796   4.728  1.00  0.00     0.016 A 
ATOM     32  C   UNL     1      -0.184   2.292   6.367  1.00  0.00     0.016 A 
ATOM     33  C   UNL     1      -2.280   0.611   5.542  1.00  0.00     0.010 A 
ATOM     34  C   UNL     1      -1.318   2.125   7.171  1.00  0.00     0.010 A 
ATOM     35  C   UNL     1      -2.386   1.308   6.752  1.00  0.00    -0.014 A 
BRANCH  35  36
ATOM     36  C   UNL     1      -3.677   1.339   7.487  1.00  0.00     0.031 A 
ATOM     37  C   UNL     1      -4.569   2.541   7.313  1.00  0.00     0.074 A 
ATOM     38  C   UNL     1      -4.072   0.328   8.283  1.00  0.00     0.049 A 
ATOM     39  N   UNL     1      -5.694   2.837   7.911  1.00  0.00    -0.248 NA
ATOM     40  C   UNL     1      -4.127   3.544   6.329  1.00  0.00     0.031 C 
ATOM     41  C   UNL     1      -3.341  -0.918   8.502  1.00  0.00     0.029 A 
ATOM     42  N   UNL     1      -5.192   0.203   9.070  1.00  0.00    -0.354 N 
ATOM     43  C   UNL     1      -6.092   4.059   7.380  1.00  0.00     0.074 A 
ATOM     44  C   UNL     1      -5.071   4.465   6.439  1.00  0.00     0.031 C 
ATOM     45  C   UNL     1      -4.022  -1.674   9.382  1.00  0.00     0.029 A 
ATOM     46  C   UNL     1      -5.215  -0.950   9.818  1.00  0.00     0.049 A 
ATOM     47  H   UNL     1      -5.910   0.876   9.096  1.00  0.00     0.167 HD
ATOM     48  C   UNL     1      -7.210   4.777   7.642  1.00  0.00     0.031 A 
ATOM     49  C   UNL     1      -6.081  -1.357  10.769  1.00  0.00     0.031 A 
ATOM     50  C   UNL     1      -8.216   4.394   8.594  1.00  0.00     0.049 A 
ATOM     51  C   UNL     1      -7.263  -0.487  11.123  1.00  0.00     0.074 A 
ATOM     52  C   UNL     1      -9.376   5.066   8.940  1.00  0.00     0.029 A 
ATOM     53  N   UNL     1      -8.182   3.237   9.355  1.00  0.00    -0.354 N 
ATOM     54  N   UNL     1      -7.631   0.661  10.608  1.00  0.00    -0.248 NA
ATOM     55  C   UNL     1      -8.153  -0.977  12.187  1.00  0.00     0.031 C 
ATOM     56  C   UNL     1     -10.016   4.343   9.951  1.00  0.00     0.029 A 
ATOM     57  C   UNL     1      -9.290   3.186  10.184  1.00  0.00     0.049 A 
ATOM     58  H   UNL     1      -7.475   2.553   9.313  1.00  0.00     0.167 HD
ATOM     59  C   UNL     1      -8.811   1.010  11.259  1.00  0.00     0.074 A 
ATOM     60  C   UNL     1      -9.106  -0.056  12.192  1.00  0.00     0.031 C 
ATOM     61  C   UNL     1      -9.581   2.114  11.100  1.00  0.00     0.031 A 
BRANCH  48  62
ATOM     62  C   UNL     1      -7.388   6.072   6.899  1.00  0.00    -0.014 A 
ATOM     63  C   UNL     1      -7.685   6.086   5.526  1.00  0.00     0.009 A 
ATOM     64  C   UNL     1      -7.301   7.292   7.587  1.00  0.00     0.009 A 
ATOM     65  C   UNL     1      -7.861   7.296   4.853  1.00  0.00     0.001 A 
ATOM     66  C   UNL     1      -7.508   8.499   6.918  1.00  0.00     0.001 A 
ATOM     67  C   UNL     1      -7.779   8.501   5.551  1.00  0.00     0.000 A 
ENDBRANCH  48  62
BRANCH  49  68
ATOM     68  C   UNL     1      -5.854  -2.634  11.503  1.00  0.00    -0.014 A 
ATOM     69  C   UNL     1      -6.753  -3.706  11.384  1.00  0.00     0.009 A 
ATOM     70  C   UNL     1      -4.765  -2.762  12.381  1.00  0.00     0.009 A 
ATOM     71  C   UNL     1      -6.590  -4.858  12.158  1.00  0.00     0.001 A 
ATOM     72  C   UNL     1      -4.584  -3.929  13.126  1.00  0.00     0.001 A 
ATOM     73  C   UNL     1      -5.505  -4.970  13.025  1.00  0.00     0.000 A 
ENDBRANCH  49  68
BRANCH  61  74
ATOM     74  C   UNL     1     -10.848   2.203  11.908  1.00  0.00    -0.014 A 
ATOM     75  C   UNL     1     -10.823   2.414  13.295  1.00  0.00     0.009 A 
ATOM     76  C   UNL     1     -12.090   2.115  11.258  1.00  0.00     0.009 A 
ATOM     77  C   UNL     1     -12.015   2.497  14.019  1.00  0.00     0.001 A 
ATOM     78  C   UNL     1     -13.279   2.232  11.978  1.00  0.00     0.001 A 
ATOM     79  C   UNL     1     -13.241   2.412  13.360  1.00  0.00     0.000 A 
ENDBRANCH  61  74
ENDBRANCH  35  36
ENDBRANCH  28  30
ENDBRANCH  27  28
ENDBRANCH  26  27
ENDBRANCH  25  26
ENDBRANCH  24  25
ENDBRANCH  23  24
ENDBRANCH  22  23
ENDBRANCH   1  22
TORSDOF 22
