REMARK SMILES COc1cccc(CC2(CO)CCN(c3nc(C)ccc3C(=O)OCCOCCOCCOC(=O)c3ccc(-c4c5nc(c(-c6ccccc6)c6ccc([nH]6)c(-c6ccccc6)c6nc(c(-c7ccccc7)c7ccc4[nH]7)C=C6)C=C5)cc3)CC2)c1
REMARK SMILES IDX 28 1 27 2 26 3 25 4 24 5 22 6 23 7 21 8 15 9 16 10 17 11
REMARK SMILES IDX 20 12 18 13 19 14 14 15 9 16 12 17 85 18 13 19 84 20 8 21
REMARK SMILES IDX 7 22 3 23 4 24 86 25 5 26 6 27 2 28 1 29 10 30 11 31 29 33
REMARK SMILES IDX 30 34 31 35 32 36 33 37 34 38 35 39 36 40 37 41 83 42 38 43
REMARK SMILES IDX 82 44 39 45 40 46 41 47 76 48 42 49 81 50 75 51 77 52 43 53
REMARK SMILES IDX 80 54 74 55 73 56 44 58 66 59 51 60 65 61 52 62 55 63 64 64
REMARK SMILES IDX 78 65 53 66 54 67 63 69 79 70 56 71 45 72 46 73 50 74 47 75
REMARK SMILES IDX 49 76 48 77 67 78 68 79 72 80 69 81 71 82 70 83 57 84 58 85
REMARK SMILES IDX 62 86 59 87 61 88 60 89
REMARK H PARENT 11 32 77 57 55 68
REMARK Flexibility Score: inf
ROOT
ATOM      1  C   UNL     1       0.128   3.126   1.649  1.00  0.00     0.188 C 
ENDROOT
BRANCH   1   2
ATOM      2  O   UNL     1      -1.043   2.757   0.958  1.00  0.00    -0.376 OA
BRANCH   2   3
ATOM      3  C   UNL     1      -2.135   2.265   1.701  1.00  0.00     0.202 C 
BRANCH   3   4
ATOM      4  C   UNL     1      -2.680   3.055   2.905  1.00  0.00     0.261 C 
BRANCH   4   5
ATOM      5  O   UNL     1      -1.826   4.070   3.455  1.00  0.00    -0.460 OA
BRANCH   5   6
ATOM      6  C   UNL     1      -1.308   3.841   4.695  1.00  0.00     0.341 C 
ATOM      7  O   UNL     1      -1.488   2.850   5.369  1.00  0.00    -0.246 OA
BRANCH   6   8
ATOM      8  C   UNL     1      -0.493   5.011   5.114  1.00  0.00     0.102 A 
ATOM      9  C   UNL     1       0.775   4.849   5.674  1.00  0.00     0.143 A 
ATOM     10  N   UNL     1       1.464   5.892   6.192  1.00  0.00    -0.235 NA
ATOM     11  C   UNL     1       0.930   7.127   6.141  1.00  0.00     0.040 A 
ATOM     12  C   UNL     1      -1.015   6.304   5.016  1.00  0.00     0.021 A 
ATOM     13  C   UNL     1       1.741   8.203   6.791  1.00  0.00     0.067 C 
ATOM     14  C   UNL     1      -0.288   7.380   5.528  1.00  0.00     0.024 A 
BRANCH   9  15
ATOM     15  N   UNL     1       1.482   3.681   5.654  1.00  0.00    -0.356 N 
ATOM     16  C   UNL     1       3.761   1.928   5.868  1.00  0.00     0.001 C 
ATOM     17  C   UNL     1       2.957   2.390   7.108  1.00  0.00     0.031 C 
ATOM     18  C   UNL     1       3.575   2.904   4.694  1.00  0.00     0.031 C 
ATOM     19  C   UNL     1       1.542   2.887   6.854  1.00  0.00     0.119 C 
ATOM     20  C   UNL     1       2.135   3.285   4.437  1.00  0.00     0.119 C 
BRANCH  16  21
ATOM     21  C   UNL     1       3.443   0.450   5.443  1.00  0.00     0.045 C 
BRANCH  21  22
ATOM     22  C   UNL     1       2.134   0.068   4.784  1.00  0.00    -0.044 A 
ATOM     23  C   UNL     1       0.745  -0.286   2.803  1.00  0.00     0.119 A 
ATOM     24  C   UNL     1      -0.362  -0.443   3.639  1.00  0.00     0.046 A 
ATOM     25  C   UNL     1       1.997  -0.041   3.376  1.00  0.00     0.050 A 
ATOM     26  C   UNL     1      -0.229  -0.395   5.022  1.00  0.00     0.004 A 
ATOM     27  C   UNL     1       1.020  -0.175   5.589  1.00  0.00     0.004 A 
BRANCH  23  28
ATOM     28  O   UNL     1       0.424  -0.303   1.476  1.00  0.00    -0.497 OA
ATOM     29  C   UNL     1       1.438  -0.500   0.505  1.00  0.00     0.278 C 
ENDBRANCH  23  28
ENDBRANCH  21  22
ENDBRANCH  16  21
BRANCH  16  30
ATOM     30  C   UNL     1       5.263   2.038   6.271  1.00  0.00     0.163 C 
BRANCH  30  31
ATOM     31  O   UNL     1       5.567   1.259   7.416  1.00  0.00    -0.396 OA
ATOM     32  H   UNL     1       5.045   1.576   8.170  1.00  0.00     0.210 HD
ENDBRANCH  30  31
ENDBRANCH  16  30
ENDBRANCH   9  15
ENDBRANCH   6   8
ENDBRANCH   5   6
ENDBRANCH   4   5
ENDBRANCH   3   4
ENDBRANCH   2   3
ENDBRANCH   1   2
BRANCH   1  33
ATOM     33  C   UNL     1       0.435   4.630   1.501  1.00  0.00     0.188 C 
BRANCH  33  34
ATOM     34  O   UNL     1      -0.010   5.367   0.366  1.00  0.00    -0.376 OA
BRANCH  34  35
ATOM     35  C   UNL     1      -0.359   4.689  -0.826  1.00  0.00     0.202 C 
BRANCH  35  36
ATOM     36  C   UNL     1       0.753   3.962  -1.597  1.00  0.00     0.261 C 
BRANCH  36  37
ATOM     37  O   UNL     1       1.824   3.392  -0.823  1.00  0.00    -0.460 OA
BRANCH  37  38
ATOM     38  C   UNL     1       2.886   4.208  -0.616  1.00  0.00     0.338 C 
ATOM     39  O   UNL     1       2.998   5.370  -0.973  1.00  0.00    -0.246 OA
BRANCH  38  40
ATOM     40  C   UNL     1       3.925   3.520   0.191  1.00  0.00     0.060 A 
ATOM     41  C   UNL     1       4.519   4.218   1.247  1.00  0.00     0.016 A 
ATOM     42  C   UNL     1       4.396   2.244  -0.140  1.00  0.00     0.016 A 
ATOM     43  C   UNL     1       5.587   3.649   1.955  1.00  0.00     0.010 A 
ATOM     44  C   UNL     1       5.481   1.684   0.560  1.00  0.00     0.010 A 
ATOM     45  C   UNL     1       6.097   2.381   1.611  1.00  0.00    -0.014 A 
BRANCH  45  46
ATOM     46  C   UNL     1       7.341   1.891   2.285  1.00  0.00     0.031 A 
ATOM     47  C   UNL     1       8.643   2.576   1.989  1.00  0.00     0.074 A 
ATOM     48  C   UNL     1       7.359   0.852   3.146  1.00  0.00     0.049 A 
ATOM     49  N   UNL     1       9.806   2.418   2.565  1.00  0.00    -0.248 NA
ATOM     50  C   UNL     1       8.649   3.495   0.841  1.00  0.00     0.031 C 
ATOM     51  C   UNL     1       6.241  -0.040   3.394  1.00  0.00     0.029 A 
ATOM     52  N   UNL     1       8.324   0.414   4.035  1.00  0.00    -0.354 N 
ATOM     53  C   UNL     1      10.703   3.139   1.790  1.00  0.00     0.074 A 
ATOM     54  C   UNL     1       9.936   3.795   0.752  1.00  0.00     0.031 C 
ATOM     55  C   UNL     1       6.505  -0.786   4.483  1.00  0.00     0.029 A 
ATOM     56  C   UNL     1       7.828  -0.455   4.992  1.00  0.00     0.049 A 
ATOM     57  H   UNL     1       9.267   0.693   3.992  1.00  0.00     0.167 HD
ATOM     58  C   UNL     1      12.053   3.176   1.884  1.00  0.00     0.031 A 
ATOM     59  C   UNL     1       8.359  -0.876   6.163  1.00  0.00     0.031 A 
ATOM     60  C   UNL     1      12.823   2.481   2.880  1.00  0.00     0.049 A 
ATOM     61  C   UNL     1       9.824  -0.608   6.402  1.00  0.00     0.074 A 
ATOM     62  C   UNL     1      14.199   2.436   3.027  1.00  0.00     0.029 A 
ATOM     63  N   UNL     1      12.289   1.701   3.893  1.00  0.00    -0.354 N 
ATOM     64  N   UNL     1      10.653   0.121   5.698  1.00  0.00    -0.248 NA
ATOM     65  C   UNL     1      10.449  -1.296   7.545  1.00  0.00     0.031 C 
ATOM     66  C   UNL     1      14.499   1.586   4.096  1.00  0.00     0.029 A 
ATOM     67  C   UNL     1      13.308   1.161   4.659  1.00  0.00     0.049 A 
ATOM     68  H   UNL     1      11.327   1.553   4.045  1.00  0.00     0.167 HD
ATOM     69  C   UNL     1      11.901  -0.073   6.272  1.00  0.00     0.074 A 
ATOM     70  C   UNL     1      11.707  -0.894   7.447  1.00  0.00     0.031 C 
ATOM     71  C   UNL     1      13.111   0.334   5.820  1.00  0.00     0.031 A 
BRANCH  58  72
ATOM     72  C   UNL     1      12.787   3.900   0.793  1.00  0.00    -0.014 A 
ATOM     73  C   UNL     1      12.780   5.298   0.696  1.00  0.00     0.009 A 
ATOM     74  C   UNL     1      13.503   3.151  -0.156  1.00  0.00     0.009 A 
ATOM     75  C   UNL     1      13.451   5.931  -0.352  1.00  0.00     0.001 A 
ATOM     76  C   UNL     1      14.198   3.788  -1.183  1.00  0.00     0.001 A 
ATOM     77  C   UNL     1      14.164   5.177  -1.286  1.00  0.00     0.000 A 
ENDBRANCH  58  72
BRANCH  59  78
ATOM     78  C   UNL     1       7.564  -1.581   7.223  1.00  0.00    -0.014 A 
ATOM     79  C   UNL     1       7.529  -1.054   8.533  1.00  0.00     0.009 A 
ATOM     80  C   UNL     1       6.887  -2.785   6.992  1.00  0.00     0.009 A 
ATOM     81  C   UNL     1       6.884  -1.728   9.575  1.00  0.00     0.001 A 
ATOM     82  C   UNL     1       6.194  -3.432   8.023  1.00  0.00     0.001 A 
ATOM     83  C   UNL     1       6.209  -2.916   9.317  1.00  0.00     0.000 A 
ENDBRANCH  59  78
BRANCH  71  84
ATOM     84  C   UNL     1      14.321  -0.133   6.578  1.00  0.00    -0.014 A 
ATOM     85  C   UNL     1      14.710  -1.483   6.558  1.00  0.00     0.009 A 
ATOM     86  C   UNL     1      15.108   0.790   7.281  1.00  0.00     0.009 A 
ATOM     87  C   UNL     1      15.843  -1.905   7.257  1.00  0.00     0.001 A 
ATOM     88  C   UNL     1      16.257   0.371   7.954  1.00  0.00     0.001 A 
ATOM     89  C   UNL     1      16.618  -0.976   7.950  1.00  0.00     0.000 A 
ENDBRANCH  71  84
ENDBRANCH  45  46
ENDBRANCH  38  40
ENDBRANCH  37  38
ENDBRANCH  36  37
ENDBRANCH  35  36
ENDBRANCH  34  35
ENDBRANCH  33  34
ENDBRANCH   1  33
TORSDOF 23
