REMARK SMILES COc1cccc(NC(=O)[C@@H]2[C@@H](C(=O)OCCOCCOCCOC(=O)c3ccc(-c4c5nc(c(-c6ccccc6)c6ccc([nH]6)c(-c6ccccc6)c6nc(c(-c7ccccc7)c7ccc4[nH]7)C=C6)C=C5)cc3)[C@H]3C=C[C@@H]2C3)c1
REMARK SMILES IDX 19 1 18 2 17 3 16 4 15 5 13 6 14 7 12 8 11 9 78 10 75 11
REMARK SMILES IDX 77 12 79 13 76 14 9 15 8 16 10 18 7 19 3 20 4 21 80 22 5 23
REMARK SMILES IDX 6 24 2 25 1 26 20 27 21 28 22 29 23 30 24 31 25 32 26 33
REMARK SMILES IDX 27 34 28 35 74 36 29 37 73 38 30 39 31 40 32 41 67 42 33 43
REMARK SMILES IDX 72 44 66 45 68 46 34 47 71 48 65 49 64 50 35 52 57 53 42 54
REMARK SMILES IDX 56 55 43 56 46 57 55 58 69 59 44 60 45 61 54 63 70 64 47 65
REMARK SMILES IDX 36 66 37 67 41 68 38 69 40 70 39 71 58 72 59 73 63 74 60 75
REMARK SMILES IDX 62 76 61 77 48 78 49 79 53 80 50 81 52 82 51 83
REMARK H PARENT 8 17 68 51 46 62
REMARK Flexibility Score: inf
ROOT
ATOM      1  C   UNL     1       1.104  -4.188   4.682  1.00  0.00     0.188 C 
ENDROOT
BRANCH   1   2
ATOM      2  O   UNL     1      -0.284  -4.377   5.035  1.00  0.00    -0.376 OA
BRANCH   2   3
ATOM      3  C   UNL     1      -0.738  -4.046   6.383  1.00  0.00     0.202 C 
BRANCH   3   4
ATOM      4  C   UNL     1      -0.270  -2.790   7.195  1.00  0.00     0.261 C 
BRANCH   4   5
ATOM      5  O   UNL     1       1.156  -2.586   7.322  1.00  0.00    -0.463 OA
BRANCH   5   6
ATOM      6  C   UNL     1       1.885  -3.580   7.868  1.00  0.00     0.310 C 
ATOM      7  O   UNL     1       1.358  -4.456   8.537  1.00  0.00    -0.252 OA
BRANCH   6   8
ATOM      8  C   UNL     1       3.388  -3.434   7.508  1.00  0.00     0.119 C 
ATOM      9  C   UNL     1       3.879  -3.797   6.047  1.00  0.00     0.100 C 
ATOM     10  C   UNL     1       4.759  -5.071   6.327  1.00  0.00     0.025 C 
ATOM     11  C   UNL     1       4.200  -4.444   8.390  1.00  0.00     0.027 C 
ATOM     12  C   UNL     1       3.895  -6.180   6.921  1.00  0.00    -0.027 C 
ATOM     13  C   UNL     1       5.489  -4.648   7.598  1.00  0.00     0.017 C 
ATOM     14  C   UNL     1       3.634  -5.834   8.189  1.00  0.00    -0.027 C 
BRANCH   9  15
ATOM     15  C   UNL     1       4.640  -2.678   5.269  1.00  0.00     0.228 C 
ATOM     16  N   UNL     1       4.130  -1.546   4.640  1.00  0.00    -0.326 N 
ATOM     17  H   UNL     1       4.758  -0.787   4.630  1.00  0.00     0.169 HD
ATOM     18  O   UNL     1       5.862  -2.836   5.097  1.00  0.00    -0.274 OA
BRANCH  16  19
ATOM     19  C   UNL     1       2.860  -1.254   3.994  1.00  0.00     0.044 A 
ATOM     20  C   UNL     1       1.703  -1.992   1.229  1.00  0.00     0.120 A 
ATOM     21  C   UNL     1       0.246  -2.639   2.016  1.00  0.00     0.046 A 
ATOM     22  C   UNL     1       2.983  -1.380   2.240  1.00  0.00     0.072 A 
ATOM     23  C   UNL     1      -0.005  -2.362   3.878  1.00  0.00     0.006 A 
ATOM     24  C   UNL     1       1.367  -1.603   4.806  1.00  0.00     0.026 A 
BRANCH  20  25
ATOM     25  O   UNL     1       1.167  -0.936   0.377  1.00  0.00    -0.497 OA
ATOM     26  C   UNL     1       1.706  -0.796  -0.913  1.00  0.00     0.278 C 
ENDBRANCH  20  25
ENDBRANCH  16  19
ENDBRANCH   9  15
ENDBRANCH   6   8
ENDBRANCH   5   6
ENDBRANCH   4   5
ENDBRANCH   3   4
ENDBRANCH   2   3
ENDBRANCH   1   2
BRANCH   1  27
ATOM     27  C   UNL     1       1.744  -3.113   3.310  1.00  0.00     0.188 C 
BRANCH  27  28
ATOM     28  O   UNL     1       1.076  -1.221   2.939  1.00  0.00    -0.376 OA
BRANCH  28  29
ATOM     29  C   UNL     1      -0.662  -0.736   2.655  1.00  0.00     0.202 C 
BRANCH  29  30
ATOM     30  C   UNL     1      -2.061  -1.980   2.489  1.00  0.00     0.261 C 
BRANCH  30  31
ATOM     31  O   UNL     1      -1.853  -3.626   2.760  1.00  0.00    -0.460 OA
BRANCH  31  32
ATOM     32  C   UNL     1      -1.657  -4.660   1.825  1.00  0.00     0.338 C 
ATOM     33  O   UNL     1      -1.946  -4.505   0.640  1.00  0.00    -0.246 OA
BRANCH  32  34
ATOM     34  C   UNL     1      -0.938  -6.021   2.218  1.00  0.00     0.060 A 
ATOM     35  C   UNL     1       0.446  -6.188   2.430  1.00  0.00     0.016 A 
ATOM     36  C   UNL     1      -1.575  -7.252   2.028  1.00  0.00     0.016 A 
ATOM     37  C   UNL     1       1.126  -7.434   2.668  1.00  0.00     0.010 A 
ATOM     38  C   UNL     1      -0.902  -8.524   2.196  1.00  0.00     0.010 A 
ATOM     39  C   UNL     1       0.453  -8.643   2.564  1.00  0.00    -0.014 A 
BRANCH  39  40
ATOM     40  C   UNL     1       1.137  -9.987   2.750  1.00  0.00     0.031 A 
ATOM     41  C   UNL     1       1.624 -10.791   1.558  1.00  0.00     0.074 A 
ATOM     42  C   UNL     1       1.330 -10.541   3.971  1.00  0.00     0.049 A 
ATOM     43  N   UNL     1       1.999 -12.050   1.488  1.00  0.00    -0.248 NA
ATOM     44  C   UNL     1       1.716 -10.074   0.281  1.00  0.00     0.031 C 
ATOM     45  C   UNL     1       1.079  -9.884   5.251  1.00  0.00     0.029 A 
ATOM     46  N   UNL     1       1.761 -11.808   4.335  1.00  0.00    -0.354 N 
ATOM     47  C   UNL     1       2.320 -12.289   0.153  1.00  0.00     0.074 A 
ATOM     48  C   UNL     1       2.119 -11.034  -0.544  1.00  0.00     0.031 C 
ATOM     49  C   UNL     1       1.306 -10.759   6.250  1.00  0.00     0.029 A 
ATOM     50  C   UNL     1       1.665 -12.062   5.689  1.00  0.00     0.049 A 
ATOM     51  H   UNL     1       2.104 -12.465   3.688  1.00  0.00     0.167 HD
ATOM     52  C   UNL     1       2.720 -13.441  -0.447  1.00  0.00     0.031 A 
ATOM     53  C   UNL     1       1.791 -13.209   6.396  1.00  0.00     0.031 A 
ATOM     54  C   UNL     1       2.928 -14.702   0.226  1.00  0.00     0.049 A 
ATOM     55  C   UNL     1       2.097 -14.512   5.691  1.00  0.00     0.074 A 
ATOM     56  C   UNL     1       3.321 -15.916  -0.319  1.00  0.00     0.029 A 
ATOM     57  N   UNL     1       2.757 -14.917   1.582  1.00  0.00    -0.354 N 
ATOM     58  N   UNL     1       2.350 -14.731   4.424  1.00  0.00    -0.248 NA
ATOM     59  C   UNL     1       2.129 -15.733   6.519  1.00  0.00     0.031 C 
ATOM     60  C   UNL     1       3.319 -16.879   0.696  1.00  0.00     0.029 A 
ATOM     61  C   UNL     1       3.002 -16.248   1.885  1.00  0.00     0.049 A 
ATOM     62  H   UNL     1       2.501 -14.227   2.236  1.00  0.00     0.167 HD
ATOM     63  C   UNL     1       2.610 -16.095   4.314  1.00  0.00     0.074 A 
ATOM     64  C   UNL     1       2.499 -16.655   5.641  1.00  0.00     0.031 C 
ATOM     65  C   UNL     1       2.913 -16.814   3.207  1.00  0.00     0.031 A 
BRANCH  52  66
ATOM     66  C   UNL     1       2.897 -13.432  -1.945  1.00  0.00    -0.014 A 
ATOM     67  C   UNL     1       3.990 -12.804  -2.560  1.00  0.00     0.009 A 
ATOM     68  C   UNL     1       1.986 -14.142  -2.749  1.00  0.00     0.009 A 
ATOM     69  C   UNL     1       4.146 -12.857  -3.949  1.00  0.00     0.001 A 
ATOM     70  C   UNL     1       2.161 -14.219  -4.132  1.00  0.00     0.001 A 
ATOM     71  C   UNL     1       3.237 -13.568  -4.732  1.00  0.00     0.000 A 
ENDBRANCH  52  66
BRANCH  53  72
ATOM     72  C   UNL     1       1.549 -13.232   7.873  1.00  0.00    -0.014 A 
ATOM     73  C   UNL     1       2.573 -13.584   8.770  1.00  0.00     0.009 A 
ATOM     74  C   UNL     1       0.264 -12.995   8.389  1.00  0.00     0.009 A 
ATOM     75  C   UNL     1       2.308 -13.733  10.135  1.00  0.00     0.001 A 
ATOM     76  C   UNL     1       0.010 -13.107   9.760  1.00  0.00     0.001 A 
ATOM     77  C   UNL     1       1.028 -13.490  10.630  1.00  0.00     0.000 A 
ENDBRANCH  53  72
BRANCH  65  78
ATOM     78  C   UNL     1       3.220 -18.280   3.377  1.00  0.00    -0.014 A 
ATOM     79  C   UNL     1       2.224 -19.212   3.709  1.00  0.00     0.009 A 
ATOM     80  C   UNL     1       4.529 -18.743   3.157  1.00  0.00     0.009 A 
ATOM     81  C   UNL     1       2.540 -20.568   3.850  1.00  0.00     0.001 A 
ATOM     82  C   UNL     1       4.835 -20.102   3.267  1.00  0.00     0.001 A 
ATOM     83  C   UNL     1       3.842 -21.012   3.623  1.00  0.00     0.000 A 
ENDBRANCH  65  78
ENDBRANCH  39  40
ENDBRANCH  32  34
ENDBRANCH  31  32
ENDBRANCH  30  31
ENDBRANCH  29  30
ENDBRANCH  28  29
ENDBRANCH  27  28
ENDBRANCH   1  27
TORSDOF 20
