REMARK SMILES C[C@@H]1CN(c2ccc(N)cc2C(=O)OCCOCCOCCOC(=O)c2ccc(-c3c4nc(c(-c5ccccc5)c5ccc([nH]5)c(-c5ccccc5)c5nc(c(-c6ccccc6)c6ccc3[nH]6)C=C5)C=C4)cc2)C[C@H]1C
REMARK SMILES IDX 19 1 18 2 17 3 16 4 15 5 14 6 12 7 13 8 11 9 5 10 6 11 7 12
REMARK SMILES IDX 10 13 8 14 4 15 1 16 2 17 3 18 75 19 74 20 76 21 9 22 20 25
REMARK SMILES IDX 21 26 22 27 23 28 24 29 25 30 26 31 27 32 73 33 28 34 72 35
REMARK SMILES IDX 29 36 30 37 31 38 66 39 32 40 71 41 65 42 67 43 33 44 70 45
REMARK SMILES IDX 64 46 63 47 34 49 56 50 41 51 55 52 42 53 45 54 54 55 68 56
REMARK SMILES IDX 43 57 44 58 53 60 69 61 46 62 35 63 36 64 40 65 37 66 39 67
REMARK SMILES IDX 38 68 57 69 58 70 62 71 59 72 61 73 60 74 47 75 48 76 52 77
REMARK SMILES IDX 49 78 51 79 50 80
REMARK H PARENT 9 23 9 24 67 48 45 59
REMARK Flexibility Score: inf
ROOT
ATOM      1  C   UNL     1      -2.226   3.831   0.685  1.00  0.00     0.188 C 
ENDROOT
BRANCH   1   2
ATOM      2  C   UNL     1      -3.746   4.077   0.560  1.00  0.00     0.188 C 
BRANCH   2   3
ATOM      3  O   UNL     1      -4.655   3.109   1.067  1.00  0.00    -0.376 OA
BRANCH   3   4
ATOM      4  C   UNL     1      -4.578   1.774   0.575  1.00  0.00     0.202 C 
BRANCH   4   5
ATOM      5  C   UNL     1      -4.407   1.531  -0.930  1.00  0.00     0.261 C 
BRANCH   5   6
ATOM      6  O   UNL     1      -3.274   2.218  -1.484  1.00  0.00    -0.460 OA
BRANCH   6   7
ATOM      7  C   UNL     1      -3.483   2.908  -2.632  1.00  0.00     0.340 C 
ATOM      8  O   UNL     1      -4.533   2.959  -3.256  1.00  0.00    -0.246 OA
BRANCH   7   9
ATOM      9  C   UNL     1      -2.327   3.785  -2.945  1.00  0.00     0.085 A 
ATOM     10  C   UNL     1      -0.974   3.388  -2.989  1.00  0.00     0.051 A 
ATOM     11  C   UNL     1      -0.044   4.415  -3.259  1.00  0.00     0.029 A 
ATOM     12  C   UNL     1      -0.414   5.756  -3.428  1.00  0.00     0.027 A 
ATOM     13  C   UNL     1      -2.691   5.146  -3.101  1.00  0.00     0.043 A 
ATOM     14  C   UNL     1      -1.745   6.136  -3.350  1.00  0.00     0.032 A 
BRANCH  10  15
ATOM     15  N   UNL     1      -0.471   2.124  -2.755  1.00  0.00    -0.370 N 
ATOM     16  C   UNL     1       1.090   0.112  -0.061  1.00  0.00     0.010 C 
ATOM     17  C   UNL     1       0.622   0.444  -1.470  1.00  0.00     0.010 C 
ATOM     18  C   UNL     1       0.590   1.957  -1.746  1.00  0.00     0.120 C 
ATOM     19  C   UNL     1      -0.826   0.031  -1.766  1.00  0.00     0.010 C 
ATOM     20  C   UNL     1      -1.125   0.851  -3.028  1.00  0.00     0.120 C 
ATOM     21  C   UNL     1      -1.033  -1.458  -1.975  1.00  0.00     0.010 C 
ENDBRANCH  10  15
BRANCH  14  22
ATOM     22  N   UNL     1      -2.102   7.474  -3.366  1.00  0.00    -0.399 N 
ATOM     23  H   UNL     1      -1.421   8.163  -3.543  1.00  0.00     0.156 HD
ATOM     24  H   UNL     1      -3.036   7.736  -3.199  1.00  0.00     0.156 HD
ENDBRANCH  14  22
ENDBRANCH   7   9
ENDBRANCH   6   7
ENDBRANCH   5   6
ENDBRANCH   4   5
ENDBRANCH   3   4
ENDBRANCH   2   3
ENDBRANCH   1   2
BRANCH   1  25
ATOM     25  O   UNL     1      -1.831   2.547   1.105  1.00  0.00    -0.376 OA
BRANCH  25  26
ATOM     26  C   UNL     1      -1.704   2.244   2.482  1.00  0.00     0.202 C 
BRANCH  26  27
ATOM     27  C   UNL     1      -2.145   3.137   3.660  1.00  0.00     0.261 C 
BRANCH  27  28
ATOM     28  O   UNL     1      -2.792   4.378   3.376  1.00  0.00    -0.460 OA
BRANCH  28  29
ATOM     29  C   UNL     1      -2.014   5.485   3.461  1.00  0.00     0.338 C 
ATOM     30  O   UNL     1      -0.826   5.540   3.712  1.00  0.00    -0.246 OA
BRANCH  29  31
ATOM     31  C   UNL     1      -2.812   6.642   3.013  1.00  0.00     0.060 A 
ATOM     32  C   UNL     1      -2.450   7.296   1.827  1.00  0.00     0.016 A 
ATOM     33  C   UNL     1      -3.904   7.080   3.763  1.00  0.00     0.016 A 
ATOM     34  C   UNL     1      -3.171   8.409   1.397  1.00  0.00     0.010 A 
ATOM     35  C   UNL     1      -4.611   8.209   3.343  1.00  0.00     0.010 A 
ATOM     36  C   UNL     1      -4.231   8.894   2.174  1.00  0.00    -0.014 A 
BRANCH  36  37
ATOM     37  C   UNL     1      -4.838  10.209   1.863  1.00  0.00     0.031 A 
ATOM     38  C   UNL     1      -4.389  11.412   2.644  1.00  0.00     0.074 A 
ATOM     39  C   UNL     1      -5.777  10.337   0.909  1.00  0.00     0.049 A 
ATOM     40  N   UNL     1      -4.820  12.646   2.592  1.00  0.00    -0.248 NA
ATOM     41  C   UNL     1      -3.312  11.188   3.622  1.00  0.00     0.031 C 
ATOM     42  C   UNL     1      -6.271   9.259   0.056  1.00  0.00     0.029 A 
ATOM     43  N   UNL     1      -6.492  11.440   0.512  1.00  0.00    -0.354 N 
ATOM     44  C   UNL     1      -4.080  13.342   3.539  1.00  0.00     0.074 A 
ATOM     45  C   UNL     1      -3.193  12.388   4.169  1.00  0.00     0.031 C 
ATOM     46  C   UNL     1      -7.222   9.751  -0.757  1.00  0.00     0.029 A 
ATOM     47  C   UNL     1      -7.428  11.167  -0.454  1.00  0.00     0.049 A 
ATOM     48  H   UNL     1      -6.346  12.339   0.884  1.00  0.00     0.167 HD
ATOM     49  C   UNL     1      -4.132  14.657   3.857  1.00  0.00     0.031 A 
ATOM     50  C   UNL     1      -8.363  11.962  -1.009  1.00  0.00     0.031 A 
ATOM     51  C   UNL     1      -5.031  15.600   3.247  1.00  0.00     0.049 A 
ATOM     52  C   UNL     1      -8.458  13.405  -0.586  1.00  0.00     0.074 A 
ATOM     53  C   UNL     1      -5.142  16.960   3.481  1.00  0.00     0.029 A 
ATOM     54  N   UNL     1      -5.985  15.279   2.293  1.00  0.00    -0.354 N 
ATOM     55  N   UNL     1      -7.727  14.063   0.282  1.00  0.00    -0.248 NA
ATOM     56  C   UNL     1      -9.504  14.215  -1.226  1.00  0.00     0.031 C 
ATOM     57  C   UNL     1      -6.211  17.447   2.722  1.00  0.00     0.029 A 
ATOM     58  C   UNL     1      -6.715  16.407   1.957  1.00  0.00     0.049 A 
ATOM     59  H   UNL     1      -6.123  14.382   1.912  1.00  0.00     0.167 HD
ATOM     60  C   UNL     1      -8.204  15.369   0.269  1.00  0.00     0.074 A 
ATOM     61  C   UNL     1      -9.278  15.412  -0.702  1.00  0.00     0.031 C 
ATOM     62  C   UNL     1      -7.787  16.437   0.994  1.00  0.00     0.031 A 
BRANCH  49  63
ATOM     63  C   UNL     1      -3.223  15.136   4.955  1.00  0.00    -0.014 A 
ATOM     64  C   UNL     1      -1.830  15.191   4.787  1.00  0.00     0.009 A 
ATOM     65  C   UNL     1      -3.774  15.553   6.177  1.00  0.00     0.009 A 
ATOM     66  C   UNL     1      -1.006  15.608   5.835  1.00  0.00     0.001 A 
ATOM     67  C   UNL     1      -2.951  16.002   7.211  1.00  0.00     0.001 A 
ATOM     68  C   UNL     1      -1.568  16.018   7.044  1.00  0.00     0.000 A 
ENDBRANCH  49  63
BRANCH  50  69
ATOM     69  C   UNL     1      -9.304  11.405  -2.017  1.00  0.00    -0.014 A 
ATOM     70  C   UNL     1      -9.233  11.798  -3.361  1.00  0.00     0.009 A 
ATOM     71  C   UNL     1     -10.285  10.475  -1.634  1.00  0.00     0.009 A 
ATOM     72  C   UNL     1     -10.135  11.287  -4.298  1.00  0.00     0.001 A 
ATOM     73  C   UNL     1     -11.165   9.942  -2.578  1.00  0.00     0.001 A 
ATOM     74  C   UNL     1     -11.095  10.354  -3.907  1.00  0.00     0.000 A 
ENDBRANCH  50  69
BRANCH  62  75
ATOM     75  C   UNL     1      -8.464  17.757   0.739  1.00  0.00    -0.014 A 
ATOM     76  C   UNL     1      -9.788  17.995   1.141  1.00  0.00     0.009 A 
ATOM     77  C   UNL     1      -7.746  18.797   0.127  1.00  0.00     0.009 A 
ATOM     78  C   UNL     1     -10.388  19.234   0.903  1.00  0.00     0.001 A 
ATOM     79  C   UNL     1      -8.336  20.045  -0.079  1.00  0.00     0.001 A 
ATOM     80  C   UNL     1      -9.660  20.259   0.299  1.00  0.00     0.000 A 
ENDBRANCH  62  75
ENDBRANCH  36  37
ENDBRANCH  29  31
ENDBRANCH  28  29
ENDBRANCH  27  28
ENDBRANCH  26  27
ENDBRANCH  25  26
ENDBRANCH   1  25
TORSDOF 19
