REMARK SMILES CC[C@H]1CN(C(=O)N(CC(=O)OCCOCCOCCOC(=O)c2ccc(-c3c4nc(c(-c5ccccc5)c5ccc([nH]5)c(-c5ccccc5)c5nc(c(-c6ccccc6)c6ccc3[nH]6)C=C5)C=C4)cc2)C(C)(C)C)CC[N@@H+]1C
REMARK SMILES IDX 16 1 15 2 14 3 13 4 12 5 10 6 11 7 9 8 8 9 6 10 7 11 5 12
REMARK SMILES IDX 3 13 4 14 78 15 77 16 79 17 76 19 2 20 1 21 72 22 73 23
REMARK SMILES IDX 74 24 75 25 17 26 18 27 19 28 20 29 21 30 22 31 23 32 24 33
REMARK SMILES IDX 25 34 71 35 26 36 70 37 27 38 28 39 29 40 64 41 30 42 69 43
REMARK SMILES IDX 63 44 65 45 31 46 68 47 62 48 61 49 32 51 54 52 39 53 53 54
REMARK SMILES IDX 40 55 43 56 52 57 66 58 41 59 42 60 51 62 67 63 44 64 33 65
REMARK SMILES IDX 34 66 38 67 35 68 37 69 36 70 55 71 56 72 60 73 57 74 59 75
REMARK SMILES IDX 58 76 45 77 46 78 50 79 47 80 49 81 48 82
REMARK H PARENT 78 18 65 50 43 61
REMARK Flexibility Score: inf
ROOT
ATOM      1  C   UNL     1       8.667   2.022  -0.135  1.00  0.00     0.188 C 
ENDROOT
BRANCH   1   2
ATOM      2  O   UNL     1       8.436   1.924  -1.538  1.00  0.00    -0.376 OA
BRANCH   2   3
ATOM      3  C   UNL     1       7.755   2.991  -2.184  1.00  0.00     0.202 C 
BRANCH   3   4
ATOM      4  C   UNL     1       6.231   2.982  -2.040  1.00  0.00     0.261 C 
BRANCH   4   5
ATOM      5  O   UNL     1       5.747   3.140  -0.689  1.00  0.00    -0.462 OA
BRANCH   5   6
ATOM      6  C   UNL     1       5.306   1.994  -0.108  1.00  0.00     0.325 C 
ATOM      7  O   UNL     1       5.483   0.871  -0.573  1.00  0.00    -0.250 OA
BRANCH   6   8
ATOM      8  C   UNL     1       4.309   2.218   1.024  1.00  0.00     0.244 C 
BRANCH   8   9
ATOM      9  N   UNL     1       4.313   3.308   2.018  1.00  0.00    -0.309 N 
BRANCH   9  10
ATOM     10  C   UNL     1       3.421   4.365   1.945  1.00  0.00     0.321 C 
ATOM     11  O   UNL     1       3.792   5.520   2.161  1.00  0.00    -0.248 OA
BRANCH  10  12
ATOM     12  N   UNL     1       2.079   4.078   1.768  1.00  0.00    -0.313 N 
ATOM     13  C   UNL     1       0.322   2.620   0.772  1.00  0.00     0.203 C 
ATOM     14  C   UNL     1       1.411   2.772   1.872  1.00  0.00     0.186 C 
ATOM     15  N   UNL     1      -0.697   3.695   0.857  1.00  0.00    -0.332 N 
ATOM     16  C   UNL     1      -0.055   5.028   0.855  1.00  0.00     0.284 C 
ATOM     17  C   UNL     1      -1.565   3.521   2.023  1.00  0.00     0.333 C 
ATOM     18  H   UNL     1      -1.290   3.630   0.029  1.00  0.00     0.348 HD
ATOM     19  C   UNL     1       1.137   5.203   1.815  1.00  0.00     0.183 C 
BRANCH  13  20
ATOM     20  C   UNL     1       0.974   2.558  -0.636  1.00  0.00     0.063 C 
ATOM     21  C   UNL     1      -0.014   2.578  -1.795  1.00  0.00     0.010 C 
ENDBRANCH  13  20
ENDBRANCH  10  12
ENDBRANCH   9  10
BRANCH   9  22
ATOM     22  C   UNL     1       5.292   3.314   3.150  1.00  0.00     0.037 C 
ATOM     23  C   UNL     1       6.295   4.484   3.050  1.00  0.00     0.034 C 
ATOM     24  C   UNL     1       4.530   3.444   4.495  1.00  0.00     0.034 C 
ATOM     25  C   UNL     1       6.077   1.996   3.252  1.00  0.00     0.034 C 
ENDBRANCH   9  22
ENDBRANCH   8   9
ENDBRANCH   6   8
ENDBRANCH   5   6
ENDBRANCH   4   5
ENDBRANCH   3   4
ENDBRANCH   2   3
ENDBRANCH   1   2
BRANCH   1  26
ATOM     26  C   UNL     1       8.677   3.409   0.507  1.00  0.00     0.188 C 
BRANCH  26  27
ATOM     27  O   UNL     1       9.751   4.196  -0.005  1.00  0.00    -0.376 OA
BRANCH  27  28
ATOM     28  C   UNL     1      10.234   5.136   0.955  1.00  0.00     0.202 C 
BRANCH  28  29
ATOM     29  C   UNL     1      11.570   4.641   1.516  1.00  0.00     0.261 C 
BRANCH  29  30
ATOM     30  O   UNL     1      11.510   3.293   2.031  1.00  0.00    -0.460 OA
BRANCH  30  31
ATOM     31  C   UNL     1      10.957   3.167   3.252  1.00  0.00     0.338 C 
ATOM     32  O   UNL     1      10.493   4.062   3.945  1.00  0.00    -0.246 OA
BRANCH  31  33
ATOM     33  C   UNL     1      10.837   1.742   3.606  1.00  0.00     0.060 A 
ATOM     34  C   UNL     1       9.551   1.217   3.728  1.00  0.00     0.016 A 
ATOM     35  C   UNL     1      11.941   0.968   3.954  1.00  0.00     0.016 A 
ATOM     36  C   UNL     1       9.344  -0.050   4.272  1.00  0.00     0.010 A 
ATOM     37  C   UNL     1      11.738  -0.316   4.482  1.00  0.00     0.010 A 
ATOM     38  C   UNL     1      10.436  -0.817   4.693  1.00  0.00    -0.014 A 
BRANCH  38  39
ATOM     39  C   UNL     1      10.220  -2.054   5.497  1.00  0.00     0.031 A 
ATOM     40  C   UNL     1      10.639  -2.071   6.945  1.00  0.00     0.074 A 
ATOM     41  C   UNL     1       9.618  -3.143   4.982  1.00  0.00     0.049 A 
ATOM     42  N   UNL     1      10.704  -3.076   7.782  1.00  0.00    -0.248 NA
ATOM     43  C   UNL     1      11.045  -0.780   7.524  1.00  0.00     0.031 C 
ATOM     44  C   UNL     1       9.077  -3.258   3.629  1.00  0.00     0.029 A 
ATOM     45  N   UNL     1       9.360  -4.368   5.551  1.00  0.00    -0.354 N 
ATOM     46  C   UNL     1      11.225  -2.553   8.960  1.00  0.00     0.074 A 
ATOM     47  C   UNL     1      11.446  -1.141   8.733  1.00  0.00     0.031 C 
ATOM     48  C   UNL     1       8.537  -4.480   3.478  1.00  0.00     0.029 A 
ATOM     49  C   UNL     1       8.754  -5.256   4.697  1.00  0.00     0.049 A 
ATOM     50  H   UNL     1       9.588  -4.588   6.484  1.00  0.00     0.167 HD
ATOM     51  C   UNL     1      11.506  -3.188  10.123  1.00  0.00     0.031 A 
ATOM     52  C   UNL     1       8.442  -6.557   4.858  1.00  0.00     0.031 A 
ATOM     53  C   UNL     1      11.244  -4.579  10.376  1.00  0.00     0.049 A 
ATOM     54  C   UNL     1       8.784  -7.255   6.146  1.00  0.00     0.074 A 
ATOM     55  C   UNL     1      11.492  -5.310  11.525  1.00  0.00     0.029 A 
ATOM     56  N   UNL     1      10.656  -5.446   9.469  1.00  0.00    -0.354 N 
ATOM     57  N   UNL     1       9.344  -6.767   7.226  1.00  0.00    -0.248 NA
ATOM     58  C   UNL     1       8.464  -8.688   6.228  1.00  0.00     0.031 C 
ATOM     59  C   UNL     1      11.082  -6.630  11.302  1.00  0.00     0.029 A 
ATOM     60  C   UNL     1      10.543  -6.708  10.028  1.00  0.00     0.049 A 
ATOM     61  H   UNL     1      10.363  -5.202   8.562  1.00  0.00     0.167 HD
ATOM     62  C   UNL     1       9.440  -7.830   8.116  1.00  0.00     0.074 A 
ATOM     63  C   UNL     1       8.861  -8.983   7.459  1.00  0.00     0.031 C 
ATOM     64  C   UNL     1       9.969  -7.848   9.363  1.00  0.00     0.031 A 
BRANCH  51  65
ATOM     65  C   UNL     1      12.193  -2.385  11.191  1.00  0.00    -0.014 A 
ATOM     66  C   UNL     1      11.509  -1.422  11.947  1.00  0.00     0.009 A 
ATOM     67  C   UNL     1      13.558  -2.603  11.438  1.00  0.00     0.009 A 
ATOM     68  C   UNL     1      12.190  -0.663  12.902  1.00  0.00     0.001 A 
ATOM     69  C   UNL     1      14.230  -1.861  12.409  1.00  0.00     0.001 A 
ATOM     70  C   UNL     1      13.549  -0.883  13.132  1.00  0.00     0.000 A 
ENDBRANCH  51  65
BRANCH  52  71
ATOM     71  C   UNL     1       7.810  -7.304   3.740  1.00  0.00    -0.014 A 
ATOM     72  C   UNL     1       6.463  -7.689   3.806  1.00  0.00     0.009 A 
ATOM     73  C   UNL     1       8.553  -7.626   2.592  1.00  0.00     0.009 A 
ATOM     74  C   UNL     1       5.874  -8.384   2.747  1.00  0.00     0.001 A 
ATOM     75  C   UNL     1       7.955  -8.298   1.525  1.00  0.00     0.001 A 
ATOM     76  C   UNL     1       6.617  -8.680   1.605  1.00  0.00     0.000 A 
ENDBRANCH  52  71
BRANCH  64  77
ATOM     77  C   UNL     1       9.928  -9.151  10.109  1.00  0.00    -0.014 A 
ATOM     78  C   UNL     1      10.822 -10.188   9.803  1.00  0.00     0.009 A 
ATOM     79  C   UNL     1       9.013  -9.325  11.159  1.00  0.00     0.009 A 
ATOM     80  C   UNL     1      10.782 -11.387  10.518  1.00  0.00     0.001 A 
ATOM     81  C   UNL     1       8.989 -10.517  11.885  1.00  0.00     0.001 A 
ATOM     82  C   UNL     1       9.868 -11.549  11.560  1.00  0.00     0.000 A 
ENDBRANCH  64  77
ENDBRANCH  38  39
ENDBRANCH  31  33
ENDBRANCH  30  31
ENDBRANCH  29  30
ENDBRANCH  28  29
ENDBRANCH  27  28
ENDBRANCH  26  27
ENDBRANCH   1  26
TORSDOF 22
