REMARK SMILES O=C(OCCOCCOCCOC(=O)c1cn(-c2cc(F)cc(F)c2F)c(=O)[nH]c1=O)c1ccc(-c2c3nc(c(-c4ccccc4)c4ccc([nH]4)c(-c4ccccc4)c4nc(c(-c5ccccc5)c5ccc2[nH]5)C=C4)C=C3)cc1
REMARK SMILES IDX 7 1 6 2 5 3 4 4 3 5 2 6 1 7 32 8 33 9 79 10 34 11 78 12
REMARK SMILES IDX 35 13 36 14 37 15 72 16 38 17 77 18 71 19 73 20 39 21 76 22
REMARK SMILES IDX 70 23 69 24 40 26 62 27 47 28 61 29 48 30 51 31 60 32 74 33
REMARK SMILES IDX 49 34 50 35 59 37 75 38 52 39 41 40 42 41 46 42 43 43 45 44
REMARK SMILES IDX 44 45 63 46 64 47 68 48 65 49 67 50 66 51 53 52 54 53 58 54
REMARK SMILES IDX 55 55 57 56 56 57 8 58 9 59 10 60 11 61 12 62 13 63 14 64
REMARK SMILES IDX 15 65 16 66 30 67 17 68 29 69 31 70 27 71 28 73 18 74 19 75
REMARK SMILES IDX 25 76 20 77 23 78 26 79 21 80 22 81 24 82
REMARK H PARENT 73 25 51 36 29 72
REMARK Flexibility Score: inf
ROOT
ATOM      1  C   UNL     1       2.634  -1.660  -0.764  1.00  0.00     0.188 C 
ENDROOT
BRANCH   1   2
ATOM      2  O   UNL     1       3.895  -1.065  -1.116  1.00  0.00    -0.376 OA
BRANCH   2   3
ATOM      3  C   UNL     1       4.887  -1.222  -0.096  1.00  0.00     0.202 C 
BRANCH   3   4
ATOM      4  C   UNL     1       4.725  -0.324   1.138  1.00  0.00     0.261 C 
BRANCH   4   5
ATOM      5  O   UNL     1       3.368   0.051   1.405  1.00  0.00    -0.460 OA
BRANCH   5   6
ATOM      6  C   UNL     1       2.682   1.149   1.012  1.00  0.00     0.338 C 
ATOM      7  O   UNL     1       1.563   1.318   1.498  1.00  0.00    -0.246 OA
BRANCH   6   8
ATOM      8  C   UNL     1       3.160   2.167   0.012  1.00  0.00     0.060 A 
ATOM      9  C   UNL     1       2.353   3.315  -0.134  1.00  0.00     0.016 A 
ATOM     10  C   UNL     1       4.287   2.076  -0.808  1.00  0.00     0.016 A 
ATOM     11  C   UNL     1       2.670   4.333  -1.042  1.00  0.00     0.010 A 
ATOM     12  C   UNL     1       4.619   3.097  -1.712  1.00  0.00     0.010 A 
ATOM     13  C   UNL     1       3.816   4.235  -1.832  1.00  0.00    -0.014 A 
BRANCH  13  14
ATOM     14  C   UNL     1       4.265   5.354  -2.692  1.00  0.00     0.031 A 
ATOM     15  C   UNL     1       3.922   5.415  -4.149  1.00  0.00     0.074 A 
ATOM     16  C   UNL     1       5.002   6.325  -2.129  1.00  0.00     0.049 A 
ATOM     17  N   UNL     1       4.405   6.185  -5.093  1.00  0.00    -0.248 NA
ATOM     18  C   UNL     1       2.869   4.501  -4.599  1.00  0.00     0.031 C 
ATOM     19  C   UNL     1       5.276   6.445  -0.696  1.00  0.00     0.029 A 
ATOM     20  N   UNL     1       5.633   7.403  -2.687  1.00  0.00    -0.354 N 
ATOM     21  C   UNL     1       3.765   5.802  -6.273  1.00  0.00     0.074 A 
ATOM     22  C   UNL     1       2.799   4.808  -5.888  1.00  0.00     0.031 C 
ATOM     23  C   UNL     1       5.995   7.557  -0.485  1.00  0.00     0.029 A 
ATOM     24  C   UNL     1       6.291   8.184  -1.771  1.00  0.00     0.049 A 
ATOM     25  H   UNL     1       5.617   7.600  -3.652  1.00  0.00     0.167 HD
ATOM     26  C   UNL     1       4.017   6.219  -7.544  1.00  0.00     0.031 A 
ATOM     27  C   UNL     1       7.059   9.274  -1.952  1.00  0.00     0.031 A 
ATOM     28  C   UNL     1       4.935   7.300  -7.821  1.00  0.00     0.049 A 
ATOM     29  C   UNL     1       7.297   9.769  -3.349  1.00  0.00     0.074 A 
ATOM     30  C   UNL     1       5.250   7.873  -9.042  1.00  0.00     0.029 A 
ATOM     31  N   UNL     1       5.659   7.992  -6.862  1.00  0.00    -0.354 N 
ATOM     32  N   UNL     1       6.878   9.253  -4.479  1.00  0.00    -0.248 NA
ATOM     33  C   UNL     1       8.106  10.986  -3.508  1.00  0.00     0.031 C 
ATOM     34  C   UNL     1       6.295   8.766  -8.844  1.00  0.00     0.029 A 
ATOM     35  C   UNL     1       6.440   8.949  -7.479  1.00  0.00     0.049 A 
ATOM     36  H   UNL     1       5.623   7.826  -5.893  1.00  0.00     0.167 HD
ATOM     37  C   UNL     1       7.359  10.086  -5.479  1.00  0.00     0.074 A 
ATOM     38  C   UNL     1       8.093  11.148  -4.826  1.00  0.00     0.031 C 
ATOM     39  C   UNL     1       7.193   9.980  -6.816  1.00  0.00     0.031 A 
BRANCH  26  40
ATOM     40  C   UNL     1       3.432   5.495  -8.756  1.00  0.00    -0.014 A 
ATOM     41  C   UNL     1       4.312   5.104  -9.791  1.00  0.00     0.009 A 
ATOM     42  C   UNL     1       2.071   5.264  -8.975  1.00  0.00     0.009 A 
ATOM     43  C   UNL     1       3.864   4.530 -10.985  1.00  0.00     0.001 A 
ATOM     44  C   UNL     1       1.625   4.607 -10.135  1.00  0.00     0.001 A 
ATOM     45  C   UNL     1       2.518   4.249 -11.142  1.00  0.00     0.000 A 
ENDBRANCH  26  40
BRANCH  27  46
ATOM     46  C   UNL     1       7.603   9.973  -0.762  1.00  0.00    -0.014 A 
ATOM     47  C   UNL     1       8.585   9.373   0.043  1.00  0.00     0.009 A 
ATOM     48  C   UNL     1       7.052  11.199  -0.361  1.00  0.00     0.009 A 
ATOM     49  C   UNL     1       8.976   9.968   1.244  1.00  0.00     0.001 A 
ATOM     50  C   UNL     1       7.468  11.806   0.825  1.00  0.00     0.001 A 
ATOM     51  C   UNL     1       8.418  11.184   1.633  1.00  0.00     0.000 A 
ENDBRANCH  27  46
BRANCH  39  52
ATOM     52  C   UNL     1       7.775  11.031  -7.718  1.00  0.00    -0.014 A 
ATOM     53  C   UNL     1       6.897  11.844  -8.460  1.00  0.00     0.009 A 
ATOM     54  C   UNL     1       9.142  11.043  -8.025  1.00  0.00     0.009 A 
ATOM     55  C   UNL     1       7.368  12.601  -9.531  1.00  0.00     0.001 A 
ATOM     56  C   UNL     1       9.614  11.830  -9.077  1.00  0.00     0.001 A 
ATOM     57  C   UNL     1       8.726  12.590  -9.841  1.00  0.00     0.000 A 
ENDBRANCH  39  52
ENDBRANCH  13  14
ENDBRANCH   6   8
ENDBRANCH   5   6
ENDBRANCH   4   5
ENDBRANCH   3   4
ENDBRANCH   2   3
ENDBRANCH   1   2
BRANCH   1  58
ATOM     58  C   UNL     1       2.023  -2.486  -1.895  1.00  0.00     0.188 C 
BRANCH  58  59
ATOM     59  O   UNL     1       2.674  -3.706  -2.248  1.00  0.00    -0.376 OA
BRANCH  59  60
ATOM     60  C   UNL     1       4.061  -3.679  -2.549  1.00  0.00     0.202 C 
BRANCH  60  61
ATOM     61  C   UNL     1       4.506  -3.052  -3.873  1.00  0.00     0.261 C 
BRANCH  61  62
ATOM     62  O   UNL     1       3.964  -1.759  -4.140  1.00  0.00    -0.459 OA
BRANCH  62  63
ATOM     63  C   UNL     1       2.843  -1.777  -4.900  1.00  0.00     0.345 C 
ATOM     64  O   UNL     1       2.242  -2.763  -5.314  1.00  0.00    -0.246 OA
BRANCH  63  65
ATOM     65  C   UNL     1       2.501  -0.428  -5.305  1.00  0.00     0.141 A 
ATOM     66  C   UNL     1       3.323   0.123  -6.195  1.00  0.00     0.118 A 
ATOM     67  C   UNL     1       1.267   0.278  -4.942  1.00  0.00     0.268 A 
ATOM     68  N   UNL     1       2.990   1.264  -6.889  1.00  0.00    -0.265 N 
ATOM     69  N   UNL     1       0.915   1.282  -5.810  1.00  0.00    -0.273 N 
ATOM     70  O   UNL     1       0.635   0.037  -3.932  1.00  0.00    -0.268 OA
ATOM     71  C   UNL     1       1.684   1.764  -6.850  1.00  0.00     0.333 A 
ATOM     72  H   UNL     1       0.033   1.698  -5.677  1.00  0.00     0.175 HD
ATOM     73  O   UNL     1       1.204   2.606  -7.604  1.00  0.00    -0.247 OA
BRANCH  68  74
ATOM     74  C   UNL     1       3.999   1.861  -7.684  1.00  0.00     0.092 A 
ATOM     75  C   UNL     1       5.064   2.489  -7.018  1.00  0.00     0.069 A 
ATOM     76  C   UNL     1       4.111   1.579  -9.044  1.00  0.00     0.183 A 
ATOM     77  C   UNL     1       6.207   2.850  -7.718  1.00  0.00     0.128 A 
ATOM     78  C   UNL     1       5.285   1.913  -9.719  1.00  0.00     0.163 A 
ATOM     79  F   UNL     1       3.147   0.896  -9.678  1.00  0.00    -0.201 F 
ATOM     80  F   UNL     1       7.211   3.452  -7.069  1.00  0.00    -0.207 F 
ATOM     81  C   UNL     1       6.336   2.554  -9.066  1.00  0.00     0.081 A 
ATOM     82  F   UNL     1       5.420   1.610 -11.018  1.00  0.00    -0.204 F 
ENDBRANCH  68  74
ENDBRANCH  63  65
ENDBRANCH  62  63
ENDBRANCH  61  62
ENDBRANCH  60  61
ENDBRANCH  59  60
ENDBRANCH  58  59
ENDBRANCH   1  58
TORSDOF 18
