REMARK SMILES Cc1nccnc1N1CCC2(CCC(=O)N([C@@H](C)C(=O)OCCOCCOCCOC(=O)c3ccc(-c4c5nc(c(-c6ccccc6)c6ccc([nH]6)c(-c6ccccc6)c6nc(c(-c7ccccc7)c7ccc4[nH]7)C=C6)C=C5)cc3)C2)CC1
REMARK SMILES IDX 25 1 24 2 23 3 22 4 21 5 19 6 20 7 17 8 18 9 16 10 8 11 9 12
REMARK SMILES IDX 83 13 10 14 82 15 11 16 12 17 81 18 13 19 14 20 15 21 7 22
REMARK SMILES IDX 1 23 2 24 3 25 4 26 6 27 5 28 26 29 27 30 28 31 29 32 30 33
REMARK SMILES IDX 31 34 32 35 33 36 34 37 80 38 35 39 79 40 36 41 37 42 38 43
REMARK SMILES IDX 73 44 39 45 78 46 72 47 74 48 40 49 77 50 71 51 70 52 41 54
REMARK SMILES IDX 63 55 48 56 62 57 49 58 52 59 61 60 75 61 50 62 51 63 60 65
REMARK SMILES IDX 76 66 53 67 42 68 43 69 47 70 44 71 46 72 45 73 64 74 65 75
REMARK SMILES IDX 69 76 66 77 68 78 67 79 54 80 55 81 59 82 56 83 58 84 57 85
REMARK H PARENT 74 53 52 64
REMARK Flexibility Score: inf
ROOT
ATOM      1  C   UNL     1       1.468   5.534   5.143  1.00  0.00     0.188 C 
ENDROOT
BRANCH   1   2
ATOM      2  O   UNL     1       1.057   6.529   6.068  1.00  0.00    -0.376 OA
BRANCH   2   3
ATOM      3  C   UNL     1       1.226   7.896   5.701  1.00  0.00     0.202 C 
BRANCH   3   4
ATOM      4  C   UNL     1       2.649   8.328   5.331  1.00  0.00     0.261 C 
BRANCH   4   5
ATOM      5  O   UNL     1       3.112   7.745   4.091  1.00  0.00    -0.462 OA
BRANCH   5   6
ATOM      6  C   UNL     1       4.382   7.273   4.082  1.00  0.00     0.328 C 
ATOM      7  O   UNL     1       5.128   7.327   5.060  1.00  0.00    -0.250 OA
BRANCH   6   8
ATOM      8  C   UNL     1       4.848   6.591   2.757  1.00  0.00     0.192 C 
ATOM      9  C   UNL     1       6.181   7.233   2.360  1.00  0.00     0.044 C 
BRANCH   8  10
ATOM     10  N   UNL     1       3.976   6.370   1.562  1.00  0.00    -0.329 N 
ATOM     11  N   UNL     1       1.444   2.423  -0.832  1.00  0.00    -0.355 N 
ATOM     12  C   UNL     1       0.790   3.573  -0.231  1.00  0.00     0.119 C 
ATOM     13  C   UNL     1       2.469   2.762  -1.809  1.00  0.00     0.119 C 
ATOM     14  C   UNL     1       1.856   4.296   0.580  1.00  0.00     0.030 C 
ATOM     15  C   UNL     1       3.587   3.544  -1.091  1.00  0.00     0.030 C 
ATOM     16  C   UNL     1       3.095   4.742  -0.214  1.00  0.00    -0.008 C 
ATOM     17  C   UNL     1       2.805   5.981  -1.072  1.00  0.00     0.019 C 
ATOM     18  C   UNL     1       4.214   5.142   0.784  1.00  0.00     0.127 C 
ATOM     19  C   UNL     1       2.460   7.200  -0.221  1.00  0.00     0.101 C 
ATOM     20  C   UNL     1       3.405   7.474   0.941  1.00  0.00     0.223 C 
ATOM     21  O   UNL     1       3.557   8.620   1.361  1.00  0.00    -0.275 OA
BRANCH  11  22
ATOM     22  C   UNL     1       0.707   1.253  -0.897  1.00  0.00     0.150 A 
ATOM     23  C   UNL     1       2.756  -0.240  -0.614  1.00  0.00     0.071 C 
ATOM     24  C   UNL     1       1.282  -0.032  -0.789  1.00  0.00     0.080 A 
ATOM     25  N   UNL     1       0.534  -1.176  -0.744  1.00  0.00    -0.256 NA
ATOM     26  C   UNL     1      -0.802  -1.012  -0.755  1.00  0.00     0.131 A 
ATOM     27  N   UNL     1      -0.644   1.368  -0.923  1.00  0.00    -0.236 NA
ATOM     28  C   UNL     1      -1.378   0.235  -0.837  1.00  0.00     0.133 A 
ENDBRANCH  11  22
ENDBRANCH   8  10
ENDBRANCH   6   8
ENDBRANCH   5   6
ENDBRANCH   4   5
ENDBRANCH   3   4
ENDBRANCH   2   3
ENDBRANCH   1   2
BRANCH   1  29
ATOM     29  C   UNL     1       1.139   5.733   3.659  1.00  0.00     0.188 C 
BRANCH  29  30
ATOM     30  O   UNL     1       0.085   6.633   3.371  1.00  0.00    -0.376 OA
BRANCH  30  31
ATOM     31  C   UNL     1      -1.049   6.046   2.740  1.00  0.00     0.202 C 
BRANCH  31  32
ATOM     32  C   UNL     1      -1.805   5.110   3.682  1.00  0.00     0.261 C 
BRANCH  32  33
ATOM     33  O   UNL     1      -1.032   3.920   3.964  1.00  0.00    -0.460 OA
BRANCH  33  34
ATOM     34  C   UNL     1      -1.222   2.865   3.139  1.00  0.00     0.338 C 
ATOM     35  O   UNL     1      -2.048   2.775   2.252  1.00  0.00    -0.246 OA
BRANCH  34  36
ATOM     36  C   UNL     1      -0.253   1.797   3.482  1.00  0.00     0.060 A 
ATOM     37  C   UNL     1       1.125   1.996   3.364  1.00  0.00     0.016 A 
ATOM     38  C   UNL     1      -0.728   0.544   3.852  1.00  0.00     0.016 A 
ATOM     39  C   UNL     1       2.027   0.952   3.549  1.00  0.00     0.010 A 
ATOM     40  C   UNL     1       0.181  -0.488   4.120  1.00  0.00     0.010 A 
ATOM     41  C   UNL     1       1.566  -0.303   3.948  1.00  0.00    -0.014 A 
BRANCH  41  42
ATOM     42  C   UNL     1       2.514  -1.431   4.142  1.00  0.00     0.031 A 
ATOM     43  C   UNL     1       2.395  -2.663   3.287  1.00  0.00     0.074 A 
ATOM     44  C   UNL     1       3.482  -1.368   5.078  1.00  0.00     0.049 A 
ATOM     45  N   UNL     1       3.002  -3.817   3.401  1.00  0.00    -0.248 NA
ATOM     46  C   UNL     1       1.477  -2.578   2.144  1.00  0.00     0.031 C 
ATOM     47  C   UNL     1       3.778  -0.215   5.931  1.00  0.00     0.029 A 
ATOM     48  N   UNL     1       4.383  -2.322   5.486  1.00  0.00    -0.354 N 
ATOM     49  C   UNL     1       2.521  -4.598   2.356  1.00  0.00     0.074 A 
ATOM     50  C   UNL     1       1.575  -3.791   1.620  1.00  0.00     0.031 C 
ATOM     51  C   UNL     1       4.772  -0.536   6.773  1.00  0.00     0.029 A 
ATOM     52  C   UNL     1       5.128  -1.937   6.574  1.00  0.00     0.049 A 
ATOM     53  H   UNL     1       4.485  -3.195   5.043  1.00  0.00     0.167 HD
ATOM     54  C   UNL     1       2.832  -5.877   2.043  1.00  0.00     0.031 A 
ATOM     55  C   UNL     1       5.950  -2.647   7.370  1.00  0.00     0.031 A 
ATOM     56  C   UNL     1       3.755  -6.693   2.783  1.00  0.00     0.049 A 
ATOM     57  C   UNL     1       6.164  -4.109   7.096  1.00  0.00     0.074 A 
ATOM     58  C   UNL     1       4.126  -8.005   2.548  1.00  0.00     0.029 A 
ATOM     59  N   UNL     1       4.440  -6.277   3.911  1.00  0.00    -0.354 N 
ATOM     60  N   UNL     1       5.699  -4.844   6.115  1.00  0.00    -0.248 NA
ATOM     61  C   UNL     1       7.008  -4.843   8.050  1.00  0.00     0.031 C 
ATOM     62  C   UNL     1       4.986  -8.405   3.575  1.00  0.00     0.029 A 
ATOM     63  C   UNL     1       5.197  -7.322   4.413  1.00  0.00     0.049 A 
ATOM     64  H   UNL     1       4.396  -5.373   4.300  1.00  0.00     0.167 HD
ATOM     65  C   UNL     1       6.210  -6.119   6.323  1.00  0.00     0.074 A 
ATOM     66  C   UNL     1       7.035  -6.053   7.511  1.00  0.00     0.031 C 
ATOM     67  C   UNL     1       6.012  -7.245   5.595  1.00  0.00     0.031 A 
BRANCH  54  68
ATOM     68  C   UNL     1       2.118  -6.500   0.879  1.00  0.00    -0.014 A 
ATOM     69  C   UNL     1       2.468  -6.194  -0.444  1.00  0.00     0.009 A 
ATOM     70  C   UNL     1       1.115  -7.453   1.117  1.00  0.00     0.009 A 
ATOM     71  C   UNL     1       1.816  -6.822  -1.508  1.00  0.00     0.001 A 
ATOM     72  C   UNL     1       0.479  -8.093   0.053  1.00  0.00     0.001 A 
ATOM     73  C   UNL     1       0.828  -7.775  -1.258  1.00  0.00     0.000 A 
ENDBRANCH  54  68
BRANCH  55  74
ATOM     74  C   UNL     1       6.560  -2.011   8.568  1.00  0.00    -0.014 A 
ATOM     75  C   UNL     1       7.945  -1.812   8.651  1.00  0.00     0.009 A 
ATOM     76  C   UNL     1       5.753  -1.635   9.655  1.00  0.00     0.009 A 
ATOM     77  C   UNL     1       8.512  -1.273   9.809  1.00  0.00     0.001 A 
ATOM     78  C   UNL     1       6.319  -1.068  10.797  1.00  0.00     0.001 A 
ATOM     79  C   UNL     1       7.699  -0.898  10.878  1.00  0.00     0.000 A 
ENDBRANCH  55  74
BRANCH  67  80
ATOM     80  C   UNL     1       6.728  -8.486   6.043  1.00  0.00    -0.014 A 
ATOM     81  C   UNL     1       6.324  -9.186   7.190  1.00  0.00     0.009 A 
ATOM     82  C   UNL     1       7.803  -8.979   5.286  1.00  0.00     0.009 A 
ATOM     83  C   UNL     1       7.006 -10.336   7.590  1.00  0.00     0.001 A 
ATOM     84  C   UNL     1       8.464 -10.146   5.672  1.00  0.00     0.001 A 
ATOM     85  C   UNL     1       8.072 -10.817   6.829  1.00  0.00     0.000 A 
ENDBRANCH  67  80
ENDBRANCH  41  42
ENDBRANCH  34  36
ENDBRANCH  33  34
ENDBRANCH  32  33
ENDBRANCH  31  32
ENDBRANCH  30  31
ENDBRANCH  29  30
ENDBRANCH   1  29
TORSDOF 19
