REMARK SMILES COc1ccc(C2=NN=C[C@@H]2C(=O)OCCOCCOCCOC(=O)c2ccc(-c3c4nc(c(-c5ccccc5)c5ccc([nH]5)c(-c5ccccc5)c5nc(c(-c6ccccc6)c6ccc3[nH]6)C=C5)C=C4)cc2)cc1OC
REMARK SMILES IDX 18 1 17 2 16 3 15 4 14 5 12 6 13 7 11 8 7 9 8 10 9 11 10 12
REMARK SMILES IDX 6 13 3 14 4 15 75 16 5 17 74 18 2 19 1 20 76 21 77 22 19 23
REMARK SMILES IDX 20 24 21 25 22 26 23 27 24 28 25 29 26 30 27 31 73 32 28 33
REMARK SMILES IDX 72 34 29 35 30 36 31 37 66 38 32 39 71 40 65 41 67 42 33 43
REMARK SMILES IDX 70 44 64 45 63 46 34 48 56 49 41 50 55 51 42 52 45 53 54 54
REMARK SMILES IDX 68 55 43 56 44 57 53 59 69 60 46 61 35 62 36 63 40 64 37 65
REMARK SMILES IDX 39 66 38 67 57 68 58 69 62 70 59 71 61 72 60 73 47 74 48 75
REMARK SMILES IDX 52 76 49 77 51 78 50 79
REMARK H PARENT 67 47 45 58
REMARK Flexibility Score: inf
ROOT
ATOM      1  C   UNL     1       0.360   7.156   4.796  1.00  0.00     0.188 C 
ENDROOT
BRANCH   1   2
ATOM      2  O   UNL     1       0.913   6.788   6.042  1.00  0.00    -0.376 OA
BRANCH   2   3
ATOM      3  C   UNL     1       1.712   5.610   6.068  1.00  0.00     0.202 C 
BRANCH   3   4
ATOM      4  C   UNL     1       2.895   5.445   5.083  1.00  0.00     0.261 C 
BRANCH   4   5
ATOM      5  O   UNL     1       2.830   6.212   3.868  1.00  0.00    -0.462 OA
BRANCH   5   6
ATOM      6  C   UNL     1       2.375   5.577   2.758  1.00  0.00     0.320 C 
ATOM      7  O   UNL     1       2.012   4.407   2.763  1.00  0.00    -0.251 OA
BRANCH   6   8
ATOM      8  C   UNL     1       2.165   6.518   1.605  1.00  0.00     0.194 C 
ATOM      9  C   UNL     1       2.457   5.957   0.258  1.00  0.00     0.090 C 
ATOM     10  N   UNL     1       3.260   6.690  -0.449  1.00  0.00    -0.154 NA
ATOM     11  N   UNL     1       3.641   7.809   0.344  1.00  0.00    -0.162 NA
ATOM     12  C   UNL     1       3.076   7.691   1.502  1.00  0.00     0.130 C 
BRANCH   9  13
ATOM     13  C   UNL     1       1.960   4.649  -0.152  1.00  0.00     0.003 A 
ATOM     14  C   UNL     1       1.154   2.034  -0.597  1.00  0.00     0.160 A 
ATOM     15  C   UNL     1       0.202   3.068  -0.553  1.00  0.00     0.051 A 
ATOM     16  C   UNL     1       2.517   2.317  -0.431  1.00  0.00     0.161 A 
ATOM     17  C   UNL     1       0.601   4.384  -0.305  1.00  0.00     0.014 A 
ATOM     18  C   UNL     1       2.913   3.636  -0.234  1.00  0.00     0.060 A 
BRANCH  14  19
ATOM     19  O   UNL     1       0.746   0.768  -0.920  1.00  0.00    -0.493 OA
ATOM     20  C   UNL     1      -0.053   0.175   0.103  1.00  0.00     0.278 C 
ENDBRANCH  14  19
BRANCH  16  21
ATOM     21  O   UNL     1       3.566   1.441  -0.451  1.00  0.00    -0.493 OA
ATOM     22  C   UNL     1       3.307   0.125   0.012  1.00  0.00     0.278 C 
ENDBRANCH  16  21
ENDBRANCH   9  13
ENDBRANCH   6   8
ENDBRANCH   5   6
ENDBRANCH   4   5
ENDBRANCH   3   4
ENDBRANCH   2   3
ENDBRANCH   1   2
BRANCH   1  23
ATOM     23  C   UNL     1       0.944   8.473   4.244  1.00  0.00     0.188 C 
BRANCH  23  24
ATOM     24  O   UNL     1       2.242   8.936   4.603  1.00  0.00    -0.376 OA
BRANCH  24  25
ATOM     25  C   UNL     1       2.732   8.904   5.943  1.00  0.00     0.202 C 
BRANCH  25  26
ATOM     26  C   UNL     1       1.991   9.604   7.084  1.00  0.00     0.261 C 
BRANCH  26  27
ATOM     27  O   UNL     1       0.594   9.400   7.045  1.00  0.00    -0.460 OA
BRANCH  27  28
ATOM     28  C   UNL     1      -0.057  10.347   6.341  1.00  0.00     0.338 C 
ATOM     29  O   UNL     1       0.411  11.347   5.830  1.00  0.00    -0.246 OA
BRANCH  28  30
ATOM     30  C   UNL     1      -1.474   9.971   6.249  1.00  0.00     0.060 A 
ATOM     31  C   UNL     1      -2.275  10.824   5.488  1.00  0.00     0.016 A 
ATOM     32  C   UNL     1      -2.009   8.996   7.102  1.00  0.00     0.016 A 
ATOM     33  C   UNL     1      -3.588  10.952   5.855  1.00  0.00     0.010 A 
ATOM     34  C   UNL     1      -3.323   9.123   7.472  1.00  0.00     0.010 A 
ATOM     35  C   UNL     1      -4.028  10.203   6.948  1.00  0.00    -0.014 A 
BRANCH  35  36
ATOM     36  C   UNL     1      -5.132  10.761   7.693  1.00  0.00     0.031 A 
ATOM     37  C   UNL     1      -6.467  10.460   7.168  1.00  0.00     0.074 A 
ATOM     38  C   UNL     1      -4.907  11.471   8.815  1.00  0.00     0.049 A 
ATOM     39  N   UNL     1      -7.342  11.289   6.709  1.00  0.00    -0.248 NA
ATOM     40  C   UNL     1      -6.828   9.042   7.053  1.00  0.00     0.031 C 
ATOM     41  C   UNL     1      -3.656  11.588   9.575  1.00  0.00     0.029 A 
ATOM     42  N   UNL     1      -5.803  12.140   9.584  1.00  0.00    -0.354 N 
ATOM     43  C   UNL     1      -8.447  10.511   6.399  1.00  0.00     0.074 A 
ATOM     44  C   UNL     1      -8.027   9.133   6.484  1.00  0.00     0.031 C 
ATOM     45  C   UNL     1      -3.936  12.067  10.807  1.00  0.00     0.029 A 
ATOM     46  C   UNL     1      -5.348  12.406  10.864  1.00  0.00     0.049 A 
ATOM     47  H   UNL     1      -6.694  12.410   9.262  1.00  0.00     0.167 HD
ATOM     48  C   UNL     1      -9.697  11.035   6.337  1.00  0.00     0.031 A 
ATOM     49  C   UNL     1      -6.110  12.777  11.919  1.00  0.00     0.031 A 
ATOM     50  C   UNL     1      -9.699  12.464   6.198  1.00  0.00     0.049 A 
ATOM     51  C   UNL     1      -7.399  13.287  11.395  1.00  0.00     0.074 A 
ATOM     52  C   UNL     1      -9.209  13.350   5.260  1.00  0.00     0.029 A 
ATOM     53  N   UNL     1      -9.974  13.214   7.317  1.00  0.00    -0.354 N 
ATOM     54  N   UNL     1      -7.519  14.398  10.726  1.00  0.00    -0.248 NA
ATOM     55  C   UNL     1      -8.509  12.357  11.253  1.00  0.00     0.031 C 
ATOM     56  C   UNL     1      -8.795  14.494   6.003  1.00  0.00     0.029 A 
ATOM     57  C   UNL     1      -9.072  14.247   7.349  1.00  0.00     0.049 A 
ATOM     58  H   UNL     1     -10.687  13.041   7.973  1.00  0.00     0.167 HD
ATOM     59  C   UNL     1      -8.490  14.138   9.769  1.00  0.00     0.074 A 
ATOM     60  C   UNL     1      -9.148  12.916  10.221  1.00  0.00     0.031 C 
ATOM     61  C   UNL     1      -8.478  14.774   8.560  1.00  0.00     0.031 A 
BRANCH  48  62
ATOM     62  C   UNL     1     -10.899  10.256   6.787  1.00  0.00    -0.014 A 
ATOM     63  C   UNL     1     -12.181  10.740   6.498  1.00  0.00     0.009 A 
ATOM     64  C   UNL     1     -10.806   9.187   7.704  1.00  0.00     0.009 A 
ATOM     65  C   UNL     1     -13.312  10.193   7.115  1.00  0.00     0.001 A 
ATOM     66  C   UNL     1     -11.934   8.608   8.283  1.00  0.00     0.001 A 
ATOM     67  C   UNL     1     -13.188   9.127   8.003  1.00  0.00     0.000 A 
ENDBRANCH  48  62
BRANCH  49  68
ATOM     68  C   UNL     1      -5.904  12.413  13.335  1.00  0.00    -0.014 A 
ATOM     69  C   UNL     1      -6.550  13.116  14.361  1.00  0.00     0.009 A 
ATOM     70  C   UNL     1      -5.250  11.211  13.673  1.00  0.00     0.009 A 
ATOM     71  C   UNL     1      -6.562  12.619  15.671  1.00  0.00     0.001 A 
ATOM     72  C   UNL     1      -5.254  10.720  14.981  1.00  0.00     0.001 A 
ATOM     73  C   UNL     1      -5.923  11.419  15.978  1.00  0.00     0.000 A 
ENDBRANCH  49  68
BRANCH  61  74
ATOM     74  C   UNL     1      -7.527  15.935   8.392  1.00  0.00    -0.014 A 
ATOM     75  C   UNL     1      -6.131  15.782   8.485  1.00  0.00     0.009 A 
ATOM     76  C   UNL     1      -8.033  17.176   7.981  1.00  0.00     0.009 A 
ATOM     77  C   UNL     1      -5.271  16.850   8.211  1.00  0.00     0.001 A 
ATOM     78  C   UNL     1      -7.172  18.238   7.688  1.00  0.00     0.001 A 
ATOM     79  C   UNL     1      -5.792  18.076   7.809  1.00  0.00     0.000 A 
ENDBRANCH  61  74
ENDBRANCH  35  36
ENDBRANCH  28  30
ENDBRANCH  27  28
ENDBRANCH  26  27
ENDBRANCH  25  26
ENDBRANCH  24  25
ENDBRANCH  23  24
ENDBRANCH   1  23
TORSDOF 20
