REMARK SMILES O=C1CC[C@@H](CC(=O)N2CCC(Oc3ccccc3)(C(=O)OCCOCCOCCOC(=O)c3ccc(-c4c5nc(c(-c6ccccc6)c6ccc([nH]6)c(-c6ccccc6)c6nc(c(-c7ccccc7)c7ccc4[nH]7)C=C6)C=C5)cc3)CC2)N1
REMARK SMILES IDX 26 1 25 2 24 3 23 4 22 5 20 6 21 7 12 8 7 9 8 10 9 11 10 12
REMARK SMILES IDX 83 13 11 14 82 15 6 16 5 17 1 18 2 19 3 20 84 21 4 22 13 24
REMARK SMILES IDX 14 25 15 26 19 27 16 28 18 29 17 30 27 31 28 32 29 33 30 34
REMARK SMILES IDX 31 35 32 36 33 37 34 38 35 39 81 40 36 41 80 42 37 43 38 44
REMARK SMILES IDX 39 45 74 46 40 47 79 48 73 49 75 50 41 51 78 52 72 53 71 54
REMARK SMILES IDX 42 56 64 57 49 58 63 59 50 60 53 61 62 62 76 63 51 64 52 65
REMARK SMILES IDX 61 67 77 68 54 69 43 70 44 71 48 72 45 73 47 74 46 75 65 76
REMARK SMILES IDX 66 77 70 78 67 79 69 80 68 81 55 82 56 83 60 84 57 85 59 86
REMARK SMILES IDX 58 87
REMARK H PARENT 84 23 75 55 53 66
REMARK Flexibility Score: inf
ROOT
ATOM      1  C   UNL     1      -1.190   3.107  -3.596  1.00  0.00     0.188 C 
ENDROOT
BRANCH   1   2
ATOM      2  O   UNL     1      -0.892   4.409  -4.072  1.00  0.00    -0.376 OA
BRANCH   2   3
ATOM      3  C   UNL     1      -0.088   4.568  -5.238  1.00  0.00     0.202 C 
BRANCH   3   4
ATOM      4  C   UNL     1       1.282   3.869  -5.326  1.00  0.00     0.261 C 
BRANCH   4   5
ATOM      5  O   UNL     1       1.289   2.418  -5.371  1.00  0.00    -0.460 OA
BRANCH   5   6
ATOM      6  C   UNL     1       1.909   1.792  -4.330  1.00  0.00     0.350 C 
ATOM      7  O   UNL     1       2.315   2.407  -3.344  1.00  0.00    -0.247 OA
BRANCH   6   8
ATOM      8  C   UNL     1       2.074   0.240  -4.469  1.00  0.00     0.209 C 
ATOM      9  C   UNL     1      -0.888  -2.115  -2.298  1.00  0.00     0.224 C 
ATOM     10  O   UNL     1      -1.650  -2.863  -2.933  1.00  0.00    -0.275 OA
ATOM     11  N   UNL     1      -0.080  -1.242  -3.002  1.00  0.00    -0.342 N 
ATOM     12  C   UNL     1      -0.168  -1.218  -4.466  1.00  0.00     0.124 C 
ATOM     13  C   UNL     1       0.792  -0.281  -2.408  1.00  0.00     0.124 C 
ATOM     14  C   UNL     1       0.963  -0.504  -5.255  1.00  0.00     0.082 C 
ATOM     15  C   UNL     1       2.147  -0.298  -3.035  1.00  0.00     0.082 C 
BRANCH   9  16
ATOM     16  C   UNL     1      -0.930  -2.282  -0.759  1.00  0.00     0.125 C 
BRANCH  16  17
ATOM     17  C   UNL     1      -0.363  -1.430   0.386  1.00  0.00     0.091 C 
ATOM     18  O   UNL     1       2.897  -0.459   1.272  1.00  0.00    -0.275 OA
ATOM     19  C   UNL     1       1.726  -0.496   0.966  1.00  0.00     0.220 C 
ATOM     20  C   UNL     1       0.810   0.688   0.795  1.00  0.00     0.102 C 
ATOM     21  N   UNL     1       1.026  -1.645   0.666  1.00  0.00    -0.353 N 
ATOM     22  C   UNL     1      -0.528   0.084   0.362  1.00  0.00     0.035 C 
ATOM     23  H   UNL     1       1.444  -2.536   0.647  1.00  0.00     0.163 HD
ENDBRANCH  16  17
ENDBRANCH   9  16
BRANCH   8  24
ATOM     24  O   UNL     1       3.351   0.142  -5.185  1.00  0.00    -0.475 OA
BRANCH  24  25
ATOM     25  C   UNL     1       4.078  -0.983  -4.885  1.00  0.00     0.121 A 
ATOM     26  C   UNL     1       4.964  -0.972  -3.804  1.00  0.00     0.046 A 
ATOM     27  C   UNL     1       3.888  -2.149  -5.622  1.00  0.00     0.046 A 
ATOM     28  C   UNL     1       5.551  -2.165  -3.380  1.00  0.00     0.004 A 
ATOM     29  C   UNL     1       4.479  -3.339  -5.200  1.00  0.00     0.004 A 
ATOM     30  C   UNL     1       5.293  -3.351  -4.067  1.00  0.00     0.000 A 
ENDBRANCH  24  25
ENDBRANCH   8  24
ENDBRANCH   6   8
ENDBRANCH   5   6
ENDBRANCH   4   5
ENDBRANCH   3   4
ENDBRANCH   2   3
ENDBRANCH   1   2
BRANCH   1  31
ATOM     31  C   UNL     1      -1.527   2.005  -4.606  1.00  0.00     0.188 C 
BRANCH  31  32
ATOM     32  O   UNL     1      -1.621   2.438  -5.938  1.00  0.00    -0.376 OA
BRANCH  32  33
ATOM     33  C   UNL     1      -2.886   2.494  -6.564  1.00  0.00     0.202 C 
BRANCH  33  34
ATOM     34  C   UNL     1      -4.135   3.004  -5.819  1.00  0.00     0.261 C 
BRANCH  34  35
ATOM     35  O   UNL     1      -4.236   2.725  -4.410  1.00  0.00    -0.460 OA
BRANCH  35  36
ATOM     36  C   UNL     1      -4.816   1.554  -4.051  1.00  0.00     0.338 C 
ATOM     37  O   UNL     1      -5.221   0.684  -4.797  1.00  0.00    -0.246 OA
BRANCH  36  38
ATOM     38  C   UNL     1      -4.697   1.399  -2.578  1.00  0.00     0.060 A 
ATOM     39  C   UNL     1      -3.821   0.433  -2.092  1.00  0.00     0.016 A 
ATOM     40  C   UNL     1      -5.459   2.153  -1.676  1.00  0.00     0.016 A 
ATOM     41  C   UNL     1      -3.696   0.245  -0.713  1.00  0.00     0.010 A 
ATOM     42  C   UNL     1      -5.327   1.948  -0.283  1.00  0.00     0.010 A 
ATOM     43  C   UNL     1      -4.428   0.997   0.217  1.00  0.00    -0.014 A 
BRANCH  43  44
ATOM     44  C   UNL     1      -4.278   0.656   1.668  1.00  0.00     0.031 A 
ATOM     45  C   UNL     1      -5.007  -0.539   2.224  1.00  0.00     0.074 A 
ATOM     46  C   UNL     1      -3.363   1.258   2.459  1.00  0.00     0.049 A 
ATOM     47  N   UNL     1      -5.005  -1.014   3.445  1.00  0.00    -0.248 NA
ATOM     48  C   UNL     1      -5.840  -1.299   1.281  1.00  0.00     0.031 C 
ATOM     49  C   UNL     1      -2.466   2.333   2.043  1.00  0.00     0.029 A 
ATOM     50  N   UNL     1      -2.953   0.966   3.746  1.00  0.00    -0.354 N 
ATOM     51  C   UNL     1      -5.907  -2.070   3.440  1.00  0.00     0.074 A 
ATOM     52  C   UNL     1      -6.370  -2.217   2.075  1.00  0.00     0.031 C 
ATOM     53  C   UNL     1      -1.535   2.517   2.999  1.00  0.00     0.029 A 
ATOM     54  C   UNL     1      -1.833   1.663   4.150  1.00  0.00     0.049 A 
ATOM     55  H   UNL     1      -3.418   0.319   4.323  1.00  0.00     0.167 HD
ATOM     56  C   UNL     1      -6.361  -2.803   4.485  1.00  0.00     0.031 A 
ATOM     57  C   UNL     1      -1.140   1.637   5.313  1.00  0.00     0.031 A 
ATOM     58  C   UNL     1      -5.917  -2.661   5.848  1.00  0.00     0.049 A 
ATOM     59  C   UNL     1      -1.685   0.841   6.478  1.00  0.00     0.074 A 
ATOM     60  C   UNL     1      -6.399  -3.296   6.982  1.00  0.00     0.029 A 
ATOM     61  N   UNL     1      -4.885  -1.838   6.265  1.00  0.00    -0.354 N 
ATOM     62  N   UNL     1      -2.651  -0.044   6.501  1.00  0.00    -0.248 NA
ATOM     63  C   UNL     1      -1.091   1.108   7.801  1.00  0.00     0.031 C 
ATOM     64  C   UNL     1      -5.700  -2.809   8.091  1.00  0.00     0.029 A 
ATOM     65  C   UNL     1      -4.733  -1.928   7.640  1.00  0.00     0.049 A 
ATOM     66  H   UNL     1      -4.340  -1.272   5.672  1.00  0.00     0.167 HD
ATOM     67  C   UNL     1      -2.806  -0.403   7.838  1.00  0.00     0.074 A 
ATOM     68  C   UNL     1      -1.789   0.300   8.587  1.00  0.00     0.031 C 
ATOM     69  C   UNL     1      -3.739  -1.212   8.396  1.00  0.00     0.031 A 
BRANCH  56  70
ATOM     70  C   UNL     1      -7.516  -3.725   4.215  1.00  0.00    -0.014 A 
ATOM     71  C   UNL     1      -7.369  -4.933   3.522  1.00  0.00     0.009 A 
ATOM     72  C   UNL     1      -8.788  -3.359   4.689  1.00  0.00     0.009 A 
ATOM     73  C   UNL     1      -8.483  -5.740   3.278  1.00  0.00     0.001 A 
ATOM     74  C   UNL     1      -9.891  -4.182   4.474  1.00  0.00     0.001 A 
ATOM     75  C   UNL     1      -9.740  -5.367   3.758  1.00  0.00     0.000 A 
ENDBRANCH  56  70
BRANCH  57  76
ATOM     76  C   UNL     1       0.080   2.479   5.517  1.00  0.00    -0.014 A 
ATOM     77  C   UNL     1       1.304   1.906   5.910  1.00  0.00     0.009 A 
ATOM     78  C   UNL     1       0.011   3.877   5.406  1.00  0.00     0.009 A 
ATOM     79  C   UNL     1       2.412   2.711   6.198  1.00  0.00     0.001 A 
ATOM     80  C   UNL     1       1.132   4.676   5.643  1.00  0.00     0.001 A 
ATOM     81  C   UNL     1       2.328   4.094   6.053  1.00  0.00     0.000 A 
ENDBRANCH  57  76
BRANCH  69  82
ATOM     82  C   UNL     1      -3.728  -1.371   9.894  1.00  0.00    -0.014 A 
ATOM     83  C   UNL     1      -4.114  -0.316  10.738  1.00  0.00     0.009 A 
ATOM     84  C   UNL     1      -3.379  -2.602  10.473  1.00  0.00     0.009 A 
ATOM     85  C   UNL     1      -4.120  -0.480  12.126  1.00  0.00     0.001 A 
ATOM     86  C   UNL     1      -3.414  -2.772  11.859  1.00  0.00     0.001 A 
ATOM     87  C   UNL     1      -3.776  -1.710  12.685  1.00  0.00     0.000 A 
ENDBRANCH  69  82
ENDBRANCH  43  44
ENDBRANCH  36  38
ENDBRANCH  35  36
ENDBRANCH  34  35
ENDBRANCH  33  34
ENDBRANCH  32  33
ENDBRANCH  31  32
ENDBRANCH   1  31
TORSDOF 21
