REMARK SMILES O=C(NCC(=O)OCCOCCOCCOC(=O)c1ccc(-c2c3nc(c(-c4ccccc4)c4ccc([nH]4)c(-c4ccccc4)c4nc(c(-c5ccccc5)c5ccc2[nH]5)C=C4)C=C3)cc1)NCc1ccc(Cl)cc1
REMARK SMILES IDX 11 1 10 2 9 3 8 4 7 5 5 6 6 7 4 8 3 9 1 10 2 11 67 12 68 15
REMARK SMILES IDX 69 16 70 17 75 18 71 19 74 20 72 21 73 22 12 23 13 24 14 25
REMARK SMILES IDX 15 26 16 27 17 28 18 29 19 30 20 31 66 32 21 33 65 34 22 35
REMARK SMILES IDX 23 36 24 37 59 38 25 39 64 40 58 41 60 42 26 43 63 44 57 45
REMARK SMILES IDX 56 46 27 48 49 49 34 50 48 51 35 52 38 53 47 54 61 55 36 56
REMARK SMILES IDX 37 57 46 59 62 60 39 61 28 62 29 63 33 64 30 65 32 66 31 67
REMARK SMILES IDX 50 68 51 69 55 70 52 71 54 72 53 73 40 74 41 75 45 76 42 77
REMARK SMILES IDX 44 78 43 79
REMARK H PARENT 3 13 67 14 60 47 38 58
REMARK Flexibility Score: inf
ROOT
ATOM      1  C   UNL     1       4.976  -0.537  -4.327  1.00  0.00     0.188 C 
ENDROOT
BRANCH   1   2
ATOM      2  O   UNL     1       5.737  -1.653  -4.775  1.00  0.00    -0.376 OA
BRANCH   2   3
ATOM      3  C   UNL     1       5.668  -2.870  -4.036  1.00  0.00     0.202 C 
BRANCH   3   4
ATOM      4  C   UNL     1       5.928  -2.823  -2.518  1.00  0.00     0.261 C 
BRANCH   4   5
ATOM      5  O   UNL     1       5.132  -1.861  -1.785  1.00  0.00    -0.462 OA
BRANCH   5   6
ATOM      6  C   UNL     1       5.808  -1.024  -0.952  1.00  0.00     0.325 C 
ATOM      7  O   UNL     1       7.011  -1.106  -0.721  1.00  0.00    -0.250 OA
BRANCH   6   8
ATOM      8  C   UNL     1       4.989   0.182  -0.457  1.00  0.00     0.240 C 
BRANCH   8   9
ATOM      9  N   UNL     1       3.533   0.186  -0.471  1.00  0.00    -0.327 N 
ATOM     10  O   UNL     1       1.443   0.047   0.257  1.00  0.00    -0.249 OA
ATOM     11  C   UNL     1       2.638  -0.097   0.497  1.00  0.00     0.315 C 
ATOM     12  N   UNL     1       3.127  -0.495   1.690  1.00  0.00    -0.334 N 
ATOM     13  H   UNL     1       3.134   0.439  -1.335  1.00  0.00     0.166 HD
ATOM     14  H   UNL     1       4.102  -0.570   1.805  1.00  0.00     0.165 HD
BRANCH  12  15
ATOM     15  C   UNL     1       2.263  -0.812   2.802  1.00  0.00     0.153 C 
BRANCH  15  16
ATOM     16  C   UNL     1       2.507  -2.231   3.243  1.00  0.00    -0.029 A 
ATOM     17  C   UNL     1       2.271  -3.292   2.353  1.00  0.00     0.007 A 
ATOM     18  C   UNL     1       2.984  -2.509   4.529  1.00  0.00     0.007 A 
ATOM     19  C   UNL     1       2.523  -4.608   2.739  1.00  0.00     0.021 A 
ATOM     20  C   UNL     1       3.230  -3.827   4.917  1.00  0.00     0.021 A 
ATOM     21  C   UNL     1       3.001  -4.870   4.020  1.00  0.00     0.041 A 
ATOM     22  Cl  UNL     1       3.314  -6.492   4.500  1.00  0.00    -0.084 Cl
ENDBRANCH  15  16
ENDBRANCH  12  15
ENDBRANCH   8   9
ENDBRANCH   6   8
ENDBRANCH   5   6
ENDBRANCH   4   5
ENDBRANCH   3   4
ENDBRANCH   2   3
ENDBRANCH   1   2
BRANCH   1  23
ATOM     23  C   UNL     1       3.533  -0.763  -3.844  1.00  0.00     0.188 C 
BRANCH  23  24
ATOM     24  O   UNL     1       3.100  -2.100  -3.925  1.00  0.00    -0.376 OA
BRANCH  24  25
ATOM     25  C   UNL     1       1.950  -2.384  -4.694  1.00  0.00     0.202 C 
BRANCH  25  26
ATOM     26  C   UNL     1       1.968  -1.999  -6.182  1.00  0.00     0.261 C 
BRANCH  26  27
ATOM     27  O   UNL     1       2.501  -0.703  -6.506  1.00  0.00    -0.460 OA
BRANCH  27  28
ATOM     28  C   UNL     1       1.711   0.367  -6.277  1.00  0.00     0.338 C 
ATOM     29  O   UNL     1       0.575   0.362  -5.819  1.00  0.00    -0.246 OA
BRANCH  28  30
ATOM     30  C   UNL     1       2.534   1.582  -6.458  1.00  0.00     0.060 A 
ATOM     31  C   UNL     1       2.745   2.442  -5.368  1.00  0.00     0.016 A 
ATOM     32  C   UNL     1       3.102   1.868  -7.700  1.00  0.00     0.016 A 
ATOM     33  C   UNL     1       3.504   3.605  -5.525  1.00  0.00     0.010 A 
ATOM     34  C   UNL     1       3.837   3.045  -7.863  1.00  0.00     0.010 A 
ATOM     35  C   UNL     1       4.014   3.934  -6.787  1.00  0.00    -0.014 A 
BRANCH  35  36
ATOM     36  C   UNL     1       4.524   5.300  -7.062  1.00  0.00     0.031 A 
ATOM     37  C   UNL     1       3.580   6.284  -7.699  1.00  0.00     0.074 A 
ATOM     38  C   UNL     1       5.790   5.661  -6.790  1.00  0.00     0.049 A 
ATOM     39  N   UNL     1       3.819   7.477  -8.178  1.00  0.00    -0.248 NA
ATOM     40  C   UNL     1       2.176   5.855  -7.817  1.00  0.00     0.031 C 
ATOM     41  C   UNL     1       6.787   4.832  -6.116  1.00  0.00     0.029 A 
ATOM     42  N   UNL     1       6.457   6.828  -7.074  1.00  0.00    -0.354 N 
ATOM     43  C   UNL     1       2.604   7.928  -8.677  1.00  0.00     0.074 A 
ATOM     44  C   UNL     1       1.635   6.877  -8.461  1.00  0.00     0.031 C 
ATOM     45  C   UNL     1       7.947   5.510  -6.058  1.00  0.00     0.029 A 
ATOM     46  C   UNL     1       7.787   6.798  -6.732  1.00  0.00     0.049 A 
ATOM     47  H   UNL     1       6.023   7.612  -7.483  1.00  0.00     0.167 HD
ATOM     48  C   UNL     1       2.318   9.112  -9.267  1.00  0.00     0.031 A 
ATOM     49  C   UNL     1       8.768   7.692  -6.971  1.00  0.00     0.031 A 
ATOM     50  C   UNL     1       3.284  10.151  -9.499  1.00  0.00     0.049 A 
ATOM     51  C   UNL     1       8.448   8.964  -7.717  1.00  0.00     0.074 A 
ATOM     52  C   UNL     1       3.092  11.389 -10.086  1.00  0.00     0.029 A 
ATOM     53  N   UNL     1       4.625  10.068  -9.160  1.00  0.00    -0.354 N 
ATOM     54  N   UNL     1       7.297   9.386  -8.181  1.00  0.00    -0.248 NA
ATOM     55  C   UNL     1       9.568   9.886  -7.970  1.00  0.00     0.031 C 
ATOM     56  C   UNL     1       4.331  12.031 -10.159  1.00  0.00     0.029 A 
ATOM     57  C   UNL     1       5.278  11.225  -9.548  1.00  0.00     0.049 A 
ATOM     58  H   UNL     1       5.049   9.302  -8.711  1.00  0.00     0.167 HD
ATOM     59  C   UNL     1       7.544  10.638  -8.737  1.00  0.00     0.074 A 
ATOM     60  C   UNL     1       8.954  10.908  -8.552  1.00  0.00     0.031 C 
ATOM     61  C   UNL     1       6.678  11.490  -9.338  1.00  0.00     0.031 A 
BRANCH  48  62
ATOM     62  C   UNL     1       0.909   9.324  -9.747  1.00  0.00    -0.014 A 
ATOM     63  C   UNL     1      -0.155   9.490  -8.848  1.00  0.00     0.009 A 
ATOM     64  C   UNL     1       0.649   9.383 -11.126  1.00  0.00     0.009 A 
ATOM     65  C   UNL     1      -1.457   9.675  -9.320  1.00  0.00     0.001 A 
ATOM     66  C   UNL     1      -0.647   9.601 -11.594  1.00  0.00     0.001 A 
ATOM     67  C   UNL     1      -1.700   9.736 -10.691  1.00  0.00     0.000 A 
ENDBRANCH  48  62
BRANCH  49  68
ATOM     68  C   UNL     1      10.162   7.413  -6.531  1.00  0.00    -0.014 A 
ATOM     69  C   UNL     1      10.765   8.189  -5.528  1.00  0.00     0.009 A 
ATOM     70  C   UNL     1      10.911   6.391  -7.135  1.00  0.00     0.009 A 
ATOM     71  C   UNL     1      12.095   7.966  -5.162  1.00  0.00     0.001 A 
ATOM     72  C   UNL     1      12.230   6.149  -6.744  1.00  0.00     0.001 A 
ATOM     73  C   UNL     1      12.825   6.944  -5.766  1.00  0.00     0.000 A 
ENDBRANCH  49  68
BRANCH  61  74
ATOM     74  C   UNL     1       7.200  12.832  -9.774  1.00  0.00    -0.014 A 
ATOM     75  C   UNL     1       8.047  12.972 -10.884  1.00  0.00     0.009 A 
ATOM     76  C   UNL     1       6.765  13.987  -9.102  1.00  0.00     0.009 A 
ATOM     77  C   UNL     1       8.466  14.240 -11.295  1.00  0.00     0.001 A 
ATOM     78  C   UNL     1       7.160  15.253  -9.534  1.00  0.00     0.001 A 
ATOM     79  C   UNL     1       8.016  15.378 -10.626  1.00  0.00     0.000 A 
ENDBRANCH  61  74
ENDBRANCH  35  36
ENDBRANCH  28  30
ENDBRANCH  27  28
ENDBRANCH  26  27
ENDBRANCH  25  26
ENDBRANCH  24  25
ENDBRANCH  23  24
ENDBRANCH   1  23
TORSDOF 20
