REMARK SMILES C[C@@H](C(=O)OCCOCCOCCOC(=O)c1ccc(-c2c3nc(c(-c4ccccc4)c4ccc([nH]4)c(-c4ccccc4)c4nc(c(-c5ccccc5)c5ccc2[nH]5)C=C4)C=C3)cc1)c1cccn(C(F)F)c1=O
REMARK SMILES IDX 9 1 8 2 7 3 6 4 5 5 3 6 4 7 2 8 1 9 65 10 66 11 73 12 67 13
REMARK SMILES IDX 69 14 74 15 68 16 70 17 71 18 72 19 10 20 11 21 12 22 13 23
REMARK SMILES IDX 14 24 15 25 16 26 17 27 18 28 64 29 19 30 63 31 20 32 21 33
REMARK SMILES IDX 22 34 57 35 23 36 62 37 56 38 58 39 24 40 61 41 55 42 54 43
REMARK SMILES IDX 25 45 47 46 32 47 46 48 33 49 36 50 45 51 59 52 34 53 35 54
REMARK SMILES IDX 44 56 60 57 37 58 26 59 27 60 31 61 28 62 30 63 29 64 48 65
REMARK SMILES IDX 49 66 53 67 50 68 52 69 51 70 38 71 39 72 43 73 40 74 42 75
REMARK SMILES IDX 41 76
REMARK H PARENT 58 44 36 55
REMARK Flexibility Score: inf
ROOT
ATOM      1  C   UNL     1       0.521   3.743  -0.046  1.00  0.00     0.188 C 
ENDROOT
BRANCH   1   2
ATOM      2  O   UNL     1       1.357   4.811   0.339  1.00  0.00    -0.376 OA
BRANCH   2   3
ATOM      3  C   UNL     1       2.431   4.556   1.234  1.00  0.00     0.202 C 
BRANCH   3   4
ATOM      4  C   UNL     1       2.439   3.389   2.240  1.00  0.00     0.261 C 
BRANCH   4   5
ATOM      5  O   UNL     1       1.929   2.135   1.758  1.00  0.00    -0.463 OA
BRANCH   5   6
ATOM      6  C   UNL     1       1.329   1.345   2.695  1.00  0.00     0.313 C 
ATOM      7  O   UNL     1       1.287   1.609   3.893  1.00  0.00    -0.252 OA
BRANCH   6   8
ATOM      8  C   UNL     1       0.711   0.054   2.121  1.00  0.00     0.132 C 
ATOM      9  C   UNL     1       1.363  -0.475   0.831  1.00  0.00     0.025 C 
BRANCH   8  10
ATOM     10  C   UNL     1      -0.808  -0.002   2.041  1.00  0.00     0.032 A 
ATOM     11  C   UNL     1      -1.445  -1.174   1.833  1.00  0.00     0.012 A 
ATOM     12  C   UNL     1      -1.660   1.235   2.143  1.00  0.00     0.259 A 
ATOM     13  C   UNL     1      -2.874  -1.266   1.696  1.00  0.00     0.019 A 
ATOM     14  N   UNL     1      -3.009   1.075   1.885  1.00  0.00    -0.258 N 
ATOM     15  O   UNL     1      -1.169   2.328   2.395  1.00  0.00    -0.269 OA
ATOM     16  C   UNL     1      -3.608  -0.153   1.710  1.00  0.00     0.095 A 
BRANCH  14  17
ATOM     17  C   UNL     1      -3.823   2.257   1.814  1.00  0.00     0.451 C 
ATOM     18  F   UNL     1      -4.750   2.069   0.840  1.00  0.00    -0.185 F 
ATOM     19  F   UNL     1      -4.508   2.429   2.972  1.00  0.00    -0.185 F 
ENDBRANCH  14  17
ENDBRANCH   8  10
ENDBRANCH   6   8
ENDBRANCH   5   6
ENDBRANCH   4   5
ENDBRANCH   3   4
ENDBRANCH   2   3
ENDBRANCH   1   2
BRANCH   1  20
ATOM     20  C   UNL     1       1.098   2.623  -0.923  1.00  0.00     0.188 C 
BRANCH  20  21
ATOM     21  O   UNL     1       2.441   2.639  -1.351  1.00  0.00    -0.376 OA
BRANCH  21  22
ATOM     22  C   UNL     1       2.922   3.759  -2.075  1.00  0.00     0.202 C 
BRANCH  22  23
ATOM     23  C   UNL     1       2.094   4.458  -3.167  1.00  0.00     0.261 C 
BRANCH  23  24
ATOM     24  O   UNL     1       0.677   4.541  -2.959  1.00  0.00    -0.460 OA
BRANCH  24  25
ATOM     25  C   UNL     1      -0.071   3.703  -3.715  1.00  0.00     0.338 C 
ATOM     26  O   UNL     1       0.330   2.886  -4.538  1.00  0.00    -0.246 OA
BRANCH  25  27
ATOM     27  C   UNL     1      -1.479   3.772  -3.283  1.00  0.00     0.060 A 
ATOM     28  C   UNL     1      -2.076   2.635  -2.717  1.00  0.00     0.016 A 
ATOM     29  C   UNL     1      -2.226   4.930  -3.495  1.00  0.00     0.016 A 
ATOM     30  C   UNL     1      -3.430   2.652  -2.378  1.00  0.00     0.010 A 
ATOM     31  C   UNL     1      -3.591   4.934  -3.188  1.00  0.00     0.010 A 
ATOM     32  C   UNL     1      -4.204   3.788  -2.654  1.00  0.00    -0.014 A 
BRANCH  32  33
ATOM     33  C   UNL     1      -5.682   3.709  -2.549  1.00  0.00     0.031 A 
ATOM     34  C   UNL     1      -6.469   3.304  -3.761  1.00  0.00     0.074 A 
ATOM     35  C   UNL     1      -6.317   3.975  -1.395  1.00  0.00     0.049 A 
ATOM     36  N   UNL     1      -7.764   3.183  -3.902  1.00  0.00    -0.248 NA
ATOM     37  C   UNL     1      -5.699   3.045  -4.988  1.00  0.00     0.031 C 
ATOM     38  C   UNL     1      -5.664   4.406  -0.165  1.00  0.00     0.029 A 
ATOM     39  N   UNL     1      -7.643   3.873  -1.054  1.00  0.00    -0.354 N 
ATOM     40  C   UNL     1      -7.969   2.907  -5.247  1.00  0.00     0.074 A 
ATOM     41  C   UNL     1      -6.665   2.848  -5.873  1.00  0.00     0.031 C 
ATOM     42  C   UNL     1      -6.568   4.403   0.831  1.00  0.00     0.029 A 
ATOM     43  C   UNL     1      -7.881   4.064   0.288  1.00  0.00     0.049 A 
ATOM     44  H   UNL     1      -8.355   3.682  -1.706  1.00  0.00     0.167 HD
ATOM     45  C   UNL     1      -9.143   2.760  -5.905  1.00  0.00     0.031 A 
ATOM     46  C   UNL     1      -9.028   3.975   0.991  1.00  0.00     0.031 A 
ATOM     47  C   UNL     1     -10.436   2.833  -5.278  1.00  0.00     0.049 A 
ATOM     48  C   UNL     1     -10.317   3.749   0.242  1.00  0.00     0.074 A 
ATOM     49  C   UNL     1     -11.684   2.709  -5.862  1.00  0.00     0.029 A 
ATOM     50  N   UNL     1     -10.647   3.052  -3.925  1.00  0.00    -0.354 N 
ATOM     51  N   UNL     1     -10.504   3.500  -1.032  1.00  0.00    -0.248 NA
ATOM     52  C   UNL     1     -11.561   3.845   1.022  1.00  0.00     0.031 C 
ATOM     53  C   UNL     1     -12.652   2.910  -4.873  1.00  0.00     0.029 A 
ATOM     54  C   UNL     1     -12.006   3.085  -3.659  1.00  0.00     0.049 A 
ATOM     55  H   UNL     1      -9.937   3.167  -3.253  1.00  0.00     0.167 HD
ATOM     56  C   UNL     1     -11.880   3.429  -1.208  1.00  0.00     0.074 A 
ATOM     57  C   UNL     1     -12.480   3.601   0.098  1.00  0.00     0.031 C 
ATOM     58  C   UNL     1     -12.587   3.266  -2.354  1.00  0.00     0.031 A 
BRANCH  45  59
ATOM     59  C   UNL     1      -9.079   2.593  -7.397  1.00  0.00    -0.014 A 
ATOM     60  C   UNL     1      -8.598   1.417  -7.993  1.00  0.00     0.009 A 
ATOM     61  C   UNL     1      -9.532   3.636  -8.222  1.00  0.00     0.009 A 
ATOM     62  C   UNL     1      -8.541   1.304  -9.384  1.00  0.00     0.001 A 
ATOM     63  C   UNL     1      -9.505   3.507  -9.611  1.00  0.00     0.001 A 
ATOM     64  C   UNL     1      -9.000   2.345 -10.191  1.00  0.00     0.000 A 
ENDBRANCH  45  59
BRANCH  46  65
ATOM     65  C   UNL     1      -9.041   4.137   2.474  1.00  0.00    -0.014 A 
ATOM     66  C   UNL     1      -9.485   3.090   3.301  1.00  0.00     0.009 A 
ATOM     67  C   UNL     1      -8.651   5.343   3.076  1.00  0.00     0.009 A 
ATOM     68  C   UNL     1      -9.561   3.258   4.688  1.00  0.00     0.001 A 
ATOM     69  C   UNL     1      -8.684   5.493   4.465  1.00  0.00     0.001 A 
ATOM     70  C   UNL     1      -9.151   4.456   5.269  1.00  0.00     0.000 A 
ENDBRANCH  46  65
BRANCH  58  71
ATOM     71  C   UNL     1     -14.087   3.255  -2.242  1.00  0.00    -0.014 A 
ATOM     72  C   UNL     1     -14.806   4.424  -1.945  1.00  0.00     0.009 A 
ATOM     73  C   UNL     1     -14.794   2.066  -2.481  1.00  0.00     0.009 A 
ATOM     74  C   UNL     1     -16.199   4.393  -1.852  1.00  0.00     0.001 A 
ATOM     75  C   UNL     1     -16.188   2.045  -2.418  1.00  0.00     0.001 A 
ATOM     76  C   UNL     1     -16.889   3.205  -2.093  1.00  0.00     0.000 A 
ENDBRANCH  58  71
ENDBRANCH  32  33
ENDBRANCH  25  27
ENDBRANCH  24  25
ENDBRANCH  23  24
ENDBRANCH  22  23
ENDBRANCH  21  22
ENDBRANCH  20  21
ENDBRANCH   1  20
TORSDOF 19
