REMARK SMILES Cc1sc(C(=O)OCCOCCOCCOC(=O)c2ccc(-c3c4nc(c(-c5ccccc5)c5ccc([nH]5)c(-c5ccccc5)c5nc(c(-c6ccccc6)c6ccc3[nH]6)C=C5)C=C4)cc2)cc1Br
REMARK SMILES IDX 12 1 11 2 10 3 9 4 8 5 7 6 5 7 6 8 4 9 1 10 2 11 3 12 68 13
REMARK SMILES IDX 67 14 69 15 13 16 14 17 15 18 16 19 17 20 18 21 19 22 20 23
REMARK SMILES IDX 66 24 21 25 65 26 22 27 23 28 24 29 59 30 25 31 64 32 58 33
REMARK SMILES IDX 60 34 26 35 63 36 57 37 56 38 27 40 49 41 34 42 48 43 35 44
REMARK SMILES IDX 38 45 47 46 61 47 36 48 37 49 46 51 62 52 39 53 28 54 29 55
REMARK SMILES IDX 33 56 30 57 32 58 31 59 50 60 51 61 55 62 52 63 54 64 53 65
REMARK SMILES IDX 40 66 41 67 45 68 42 69 44 70 43 71
REMARK H PARENT 60 39 38 50
REMARK Flexibility Score: inf
ROOT
ATOM      1  C   UNL     1      -3.047   3.193  -2.020  1.00  0.00     0.188 C 
ENDROOT
BRANCH   1   2
ATOM      2  C   UNL     1      -4.359   2.895  -1.269  1.00  0.00     0.188 C 
BRANCH   2   3
ATOM      3  O   UNL     1      -5.118   3.954  -0.695  1.00  0.00    -0.376 OA
BRANCH   3   4
ATOM      4  C   UNL     1      -4.457   5.038  -0.056  1.00  0.00     0.202 C 
BRANCH   4   5
ATOM      5  C   UNL     1      -3.640   4.725   1.201  1.00  0.00     0.261 C 
BRANCH   5   6
ATOM      6  O   UNL     1      -2.619   3.738   0.987  1.00  0.00    -0.459 OA
BRANCH   6   7
ATOM      7  C   UNL     1      -2.755   2.579   1.704  1.00  0.00     0.348 C 
ATOM      8  O   UNL     1      -3.600   2.392   2.563  1.00  0.00    -0.245 OA
BRANCH   7   9
ATOM      9  C   UNL     1      -1.818   1.587   1.206  1.00  0.00     0.114 A 
ATOM     10  C   UNL     1      -0.676  -2.027   0.161  1.00  0.00     0.057 C 
ATOM     11  C   UNL     1      -0.852  -0.579   0.472  1.00  0.00     0.017 A 
ATOM     12  S   UNL     1      -2.259  -0.067   1.304  1.00  0.00    -0.132 S 
ATOM     13  C   UNL     1      -0.044   0.496   0.181  1.00  0.00     0.032 A 
ATOM     14  C   UNL     1      -0.588   1.742   0.594  1.00  0.00     0.043 A 
ATOM     15  Br  UNL     1       1.620   0.416  -0.712  1.00  0.00    -0.050 Br
ENDBRANCH   7   9
ENDBRANCH   6   7
ENDBRANCH   5   6
ENDBRANCH   4   5
ENDBRANCH   3   4
ENDBRANCH   2   3
ENDBRANCH   1   2
BRANCH   1  16
ATOM     16  O   UNL     1      -2.868   4.558  -2.360  1.00  0.00    -0.376 OA
BRANCH  16  17
ATOM     17  C   UNL     1      -2.858   4.864  -3.746  1.00  0.00     0.202 C 
BRANCH  17  18
ATOM     18  C   UNL     1      -4.239   4.834  -4.409  1.00  0.00     0.261 C 
BRANCH  18  19
ATOM     19  O   UNL     1      -4.938   3.583  -4.306  1.00  0.00    -0.460 OA
BRANCH  19  20
ATOM     20  C   UNL     1      -4.450   2.549  -5.026  1.00  0.00     0.338 C 
ATOM     21  O   UNL     1      -3.465   2.546  -5.740  1.00  0.00    -0.246 OA
BRANCH  20  22
ATOM     22  C   UNL     1      -5.239   1.349  -4.679  1.00  0.00     0.060 A 
ATOM     23  C   UNL     1      -4.583   0.233  -4.146  1.00  0.00     0.016 A 
ATOM     24  C   UNL     1      -6.622   1.327  -4.881  1.00  0.00     0.016 A 
ATOM     25  C   UNL     1      -5.310  -0.918  -3.833  1.00  0.00     0.010 A 
ATOM     26  C   UNL     1      -7.345   0.168  -4.583  1.00  0.00     0.010 A 
ATOM     27  C   UNL     1      -6.690  -0.969  -4.080  1.00  0.00    -0.014 A 
BRANCH  27  28
ATOM     28  C   UNL     1      -7.424  -2.252  -3.961  1.00  0.00     0.031 A 
ATOM     29  C   UNL     1      -7.620  -3.091  -5.194  1.00  0.00     0.074 A 
ATOM     30  C   UNL     1      -7.914  -2.672  -2.780  1.00  0.00     0.049 A 
ATOM     31  N   UNL     1      -8.254  -4.228  -5.333  1.00  0.00    -0.248 NA
ATOM     32  C   UNL     1      -7.017  -2.580  -6.436  1.00  0.00     0.031 C 
ATOM     33  C   UNL     1      -7.769  -1.975  -1.504  1.00  0.00     0.029 A 
ATOM     34  N   UNL     1      -8.644  -3.794  -2.471  1.00  0.00    -0.354 N 
ATOM     35  C   UNL     1      -8.126  -4.568  -6.673  1.00  0.00     0.074 A 
ATOM     36  C   UNL     1      -7.377  -3.507  -7.312  1.00  0.00     0.031 C 
ATOM     37  C   UNL     1      -8.400  -2.681  -0.549  1.00  0.00     0.029 A 
ATOM     38  C   UNL     1      -9.016  -3.863  -1.151  1.00  0.00     0.049 A 
ATOM     39  H   UNL     1      -8.879  -4.483  -3.134  1.00  0.00     0.167 HD
ATOM     40  C   UNL     1      -8.584  -5.667  -7.318  1.00  0.00     0.031 A 
ATOM     41  C   UNL     1      -9.781  -4.766  -0.508  1.00  0.00     0.031 A 
ATOM     42  C   UNL     1      -9.351  -6.713  -6.700  1.00  0.00     0.049 A 
ATOM     43  C   UNL     1     -10.354  -5.934  -1.267  1.00  0.00     0.074 A 
ATOM     44  C   UNL     1      -9.852  -7.869  -7.274  1.00  0.00     0.029 A 
ATOM     45  N   UNL     1      -9.737  -6.725  -5.370  1.00  0.00    -0.354 N 
ATOM     46  N   UNL     1     -10.196  -6.262  -2.526  1.00  0.00    -0.248 NA
ATOM     47  C   UNL     1     -11.209  -6.862  -0.509  1.00  0.00     0.031 C 
ATOM     48  C   UNL     1     -10.584  -8.558  -6.300  1.00  0.00     0.029 A 
ATOM     49  C   UNL     1     -10.493  -7.855  -5.110  1.00  0.00     0.049 A 
ATOM     50  H   UNL     1      -9.509  -6.033  -4.708  1.00  0.00     0.167 HD
ATOM     51  C   UNL     1     -10.906  -7.444  -2.704  1.00  0.00     0.074 A 
ATOM     52  C   UNL     1     -11.486  -7.783  -1.421  1.00  0.00     0.031 C 
ATOM     53  C   UNL     1     -11.062  -8.183  -3.829  1.00  0.00     0.031 A 
BRANCH  40  54
ATOM     54  C   UNL     1      -8.289  -5.774  -8.786  1.00  0.00    -0.014 A 
ATOM     55  C   UNL     1      -6.999  -6.087  -9.244  1.00  0.00     0.009 A 
ATOM     56  C   UNL     1      -9.319  -5.590  -9.721  1.00  0.00     0.009 A 
ATOM     57  C   UNL     1      -6.742  -6.185 -10.613  1.00  0.00     0.001 A 
ATOM     58  C   UNL     1      -9.063  -5.712 -11.087  1.00  0.00     0.001 A 
ATOM     59  C   UNL     1      -7.774  -6.002 -11.533  1.00  0.00     0.000 A 
ENDBRANCH  40  54
BRANCH  41  60
ATOM     60  C   UNL     1     -10.083  -4.598   0.939  1.00  0.00    -0.014 A 
ATOM     61  C   UNL     1      -9.539  -5.475   1.889  1.00  0.00     0.009 A 
ATOM     62  C   UNL     1     -10.951  -3.583   1.369  1.00  0.00     0.009 A 
ATOM     63  C   UNL     1      -9.881  -5.355   3.239  1.00  0.00     0.001 A 
ATOM     64  C   UNL     1     -11.269  -3.449   2.723  1.00  0.00     0.001 A 
ATOM     65  C   UNL     1     -10.742  -4.341   3.655  1.00  0.00     0.000 A 
ENDBRANCH  41  60
BRANCH  53  66
ATOM     66  C   UNL     1     -11.860  -9.451  -3.718  1.00  0.00    -0.014 A 
ATOM     67  C   UNL     1     -13.258  -9.425  -3.597  1.00  0.00     0.009 A 
ATOM     68  C   UNL     1     -11.205 -10.691  -3.784  1.00  0.00     0.009 A 
ATOM     69  C   UNL     1     -13.981 -10.617  -3.514  1.00  0.00     0.001 A 
ATOM     70  C   UNL     1     -11.933 -11.881  -3.726  1.00  0.00     0.001 A 
ATOM     71  C   UNL     1     -13.319 -11.843  -3.584  1.00  0.00     0.000 A 
ENDBRANCH  53  66
ENDBRANCH  27  28
ENDBRANCH  20  22
ENDBRANCH  19  20
ENDBRANCH  18  19
ENDBRANCH  17  18
ENDBRANCH  16  17
ENDBRANCH   1  16
TORSDOF 17
