REMARK SMILES CCn1ccc([C@@H](C)NC(=O)c2cnn(CCC(=O)OCCOCCOCCOC(=O)c3ccc(-c4c5nc(c(-c6ccccc6)c6ccc([nH]6)c(-c6ccccc6)c6nc(c(-c7ccccc7)c7ccc4[nH]7)C=C6)C=C5)cc3)c2)n1
REMARK SMILES IDX 22 1 21 2 20 3 18 4 19 5 17 6 16 7 15 8 12 9 13 10 80 11
REMARK SMILES IDX 14 12 10 13 9 14 11 16 7 17 8 18 6 19 3 20 4 21 81 22 5 23
REMARK SMILES IDX 2 24 1 25 23 26 24 27 25 28 26 29 27 30 28 31 29 32 30 33
REMARK SMILES IDX 31 34 32 35 33 36 79 37 34 38 78 39 35 40 36 41 37 42 72 43
REMARK SMILES IDX 38 44 77 45 71 46 73 47 39 48 76 49 70 50 69 51 40 53 62 54
REMARK SMILES IDX 47 55 61 56 48 57 51 58 60 59 74 60 49 61 50 62 59 64 75 65
REMARK SMILES IDX 52 66 41 67 42 68 46 69 43 70 45 71 44 72 63 73 64 74 68 75
REMARK SMILES IDX 65 76 67 77 66 78 53 79 54 80 58 81 55 82 57 83 56 84
REMARK H PARENT 9 15 73 52 51 63
REMARK Flexibility Score: inf
ROOT
ATOM      1  C   UNL     1      -2.533  -7.454  -2.642  1.00  0.00     0.202 C 
ENDROOT
BRANCH   1   2
ATOM      2  C   UNL     1      -1.982  -6.180  -1.994  1.00  0.00     0.261 C 
BRANCH   2   3
ATOM      3  O   UNL     1      -0.552  -6.236  -1.841  1.00  0.00    -0.463 OA
BRANCH   3   4
ATOM      4  C   UNL     1      -0.040  -5.652  -0.736  1.00  0.00     0.307 C 
ATOM      5  O   UNL     1      -0.714  -5.059   0.104  1.00  0.00    -0.252 OA
BRANCH   4   6
ATOM      6  C   UNL     1       1.438  -5.891  -0.510  1.00  0.00     0.146 C 
BRANCH   6   7
ATOM      7  C   UNL     1       2.305  -6.404  -1.649  1.00  0.00     0.156 C 
BRANCH   7   8
ATOM      8  N   UNL     1       2.395  -5.512  -2.784  1.00  0.00    -0.271 N 
ATOM      9  C   UNL     1       3.008  -4.031  -4.280  1.00  0.00     0.077 A 
ATOM     10  C   UNL     1       1.852  -4.731  -4.658  1.00  0.00     0.149 A 
ATOM     11  C   UNL     1       3.393  -4.633  -3.095  1.00  0.00     0.122 A 
ATOM     12  N   UNL     1       1.421  -5.537  -3.699  1.00  0.00    -0.181 NA
BRANCH   9  13
ATOM     13  C   UNL     1       3.639  -2.938  -4.977  1.00  0.00     0.254 C 
ATOM     14  N   UNL     1       2.821  -1.947  -5.464  1.00  0.00    -0.344 N 
ATOM     15  H   UNL     1       3.222  -1.341  -6.128  1.00  0.00     0.164 HD
ATOM     16  O   UNL     1       4.853  -2.870  -5.146  1.00  0.00    -0.269 OA
BRANCH  14  17
ATOM     17  C   UNL     1       1.422  -1.685  -5.113  1.00  0.00     0.130 C 
ATOM     18  C   UNL     1       0.552  -1.597  -6.360  1.00  0.00     0.038 C 
BRANCH  17  19
ATOM     19  C   UNL     1       1.352  -0.459  -4.250  1.00  0.00     0.084 A 
ATOM     20  N   UNL     1       0.939   0.694  -2.518  1.00  0.00    -0.273 N 
ATOM     21  C   UNL     1       1.502   1.576  -3.394  1.00  0.00     0.109 A 
ATOM     22  N   UNL     1       0.809  -0.542  -3.026  1.00  0.00    -0.176 NA
ATOM     23  C   UNL     1       1.787   0.857  -4.531  1.00  0.00     0.047 A 
BRANCH  20  24
ATOM     24  C   UNL     1       0.441   0.980  -1.186  1.00  0.00     0.141 C 
ATOM     25  C   UNL     1       0.996   0.049  -0.119  1.00  0.00     0.029 C 
ENDBRANCH  20  24
ENDBRANCH  17  19
ENDBRANCH  14  17
ENDBRANCH   9  13
ENDBRANCH   7   8
ENDBRANCH   6   7
ENDBRANCH   4   6
ENDBRANCH   3   4
ENDBRANCH   2   3
ENDBRANCH   1   2
BRANCH   1  26
ATOM     26  O   UNL     1      -2.321  -8.646  -1.891  1.00  0.00    -0.376 OA
BRANCH  26  27
ATOM     27  C   UNL     1      -0.963  -9.051  -1.712  1.00  0.00     0.188 C 
BRANCH  27  28
ATOM     28  C   UNL     1      -0.230  -9.440  -2.998  1.00  0.00     0.188 C 
BRANCH  28  29
ATOM     29  O   UNL     1       0.505  -8.426  -3.664  1.00  0.00    -0.376 OA
BRANCH  29  30
ATOM     30  C   UNL     1       0.099  -7.871  -4.916  1.00  0.00     0.202 C 
BRANCH  30  31
ATOM     31  C   UNL     1      -0.259  -8.737  -6.127  1.00  0.00     0.261 C 
BRANCH  31  32
ATOM     32  O   UNL     1      -0.300 -10.115  -5.855  1.00  0.00    -0.460 OA
BRANCH  32  33
ATOM     33  C   UNL     1       0.894 -10.666  -5.548  1.00  0.00     0.338 C 
ATOM     34  O   UNL     1       1.999 -10.180  -5.678  1.00  0.00    -0.246 OA
BRANCH  33  35
ATOM     35  C   UNL     1       0.600 -12.011  -5.029  1.00  0.00     0.060 A 
ATOM     36  C   UNL     1       1.683 -12.852  -4.792  1.00  0.00     0.016 A 
ATOM     37  C   UNL     1      -0.731 -12.462  -4.912  1.00  0.00     0.016 A 
ATOM     38  C   UNL     1       1.438 -14.201  -4.679  1.00  0.00     0.010 A 
ATOM     39  C   UNL     1      -0.978 -13.805  -4.793  1.00  0.00     0.010 A 
ATOM     40  C   UNL     1       0.119 -14.655  -4.795  1.00  0.00    -0.014 A 
BRANCH  40  41
ATOM     41  C   UNL     1      -0.069 -16.050  -5.109  1.00  0.00     0.031 A 
ATOM     42  C   UNL     1      -0.007 -16.985  -3.980  1.00  0.00     0.074 A 
ATOM     43  C   UNL     1      -0.315 -16.435  -6.374  1.00  0.00     0.049 A 
ATOM     44  N   UNL     1       0.875 -17.902  -3.773  1.00  0.00    -0.248 NA
ATOM     45  C   UNL     1      -1.003 -16.829  -2.913  1.00  0.00     0.031 C 
ATOM     46  C   UNL     1      -0.690 -15.592  -7.515  1.00  0.00     0.029 A 
ATOM     47  N   UNL     1      -0.383 -17.696  -6.876  1.00  0.00    -0.354 N 
ATOM     48  C   UNL     1       0.452 -18.569  -2.634  1.00  0.00     0.074 A 
ATOM     49  C   UNL     1      -0.624 -17.790  -2.071  1.00  0.00     0.031 C 
ATOM     50  C   UNL     1      -1.155 -16.380  -8.509  1.00  0.00     0.029 A 
ATOM     51  C   UNL     1      -0.986 -17.770  -8.120  1.00  0.00     0.049 A 
ATOM     52  H   UNL     1      -0.036 -18.484  -6.399  1.00  0.00     0.167 HD
ATOM     53  C   UNL     1       0.851 -19.839  -2.367  1.00  0.00     0.031 A 
ATOM     54  C   UNL     1      -1.388 -18.897  -8.748  1.00  0.00     0.031 A 
ATOM     55  C   UNL     1       2.025 -20.217  -3.107  1.00  0.00     0.049 A 
ATOM     56  C   UNL     1      -0.677 -20.043  -8.136  1.00  0.00     0.074 A 
ATOM     57  C   UNL     1       3.317 -19.740  -3.190  1.00  0.00     0.029 A 
ATOM     58  N   UNL     1       1.854 -21.041  -4.192  1.00  0.00    -0.354 N 
ATOM     59  N   UNL     1       0.597 -20.270  -8.284  1.00  0.00    -0.248 NA
ATOM     60  C   UNL     1      -1.307 -20.748  -7.030  1.00  0.00     0.031 C 
ATOM     61  C   UNL     1       3.713 -19.955  -4.542  1.00  0.00     0.029 A 
ATOM     62  C   UNL     1       2.648 -20.567  -5.205  1.00  0.00     0.049 A 
ATOM     63  H   UNL     1       1.267 -21.831  -4.235  1.00  0.00     0.167 HD
ATOM     64  C   UNL     1       1.010 -20.791  -7.066  1.00  0.00     0.074 A 
ATOM     65  C   UNL     1      -0.220 -21.190  -6.392  1.00  0.00     0.031 C 
ATOM     66  C   UNL     1       2.280 -20.588  -6.606  1.00  0.00     0.031 A 
BRANCH  53  67
ATOM     67  C   UNL     1      -0.065 -20.846  -1.729  1.00  0.00    -0.014 A 
ATOM     68  C   UNL     1       0.455 -22.087  -1.331  1.00  0.00     0.009 A 
ATOM     69  C   UNL     1      -1.469 -20.716  -1.750  1.00  0.00     0.009 A 
ATOM     70  C   UNL     1      -0.392 -23.154  -1.009  1.00  0.00     0.001 A 
ATOM     71  C   UNL     1      -2.315 -21.764  -1.385  1.00  0.00     0.001 A 
ATOM     72  C   UNL     1      -1.774 -22.992  -1.036  1.00  0.00     0.000 A 
ENDBRANCH  53  67
BRANCH  54  73
ATOM     73  C   UNL     1      -2.526 -19.060  -9.673  1.00  0.00    -0.014 A 
ATOM     74  C   UNL     1      -2.626 -20.191 -10.495  1.00  0.00     0.009 A 
ATOM     75  C   UNL     1      -3.648 -18.215  -9.578  1.00  0.00     0.009 A 
ATOM     76  C   UNL     1      -3.817 -20.482 -11.171  1.00  0.00     0.001 A 
ATOM     77  C   UNL     1      -4.834 -18.499 -10.261  1.00  0.00     0.001 A 
ATOM     78  C   UNL     1      -4.922 -19.642 -11.046  1.00  0.00     0.000 A 
ENDBRANCH  54  73
BRANCH  66  79
ATOM     79  C   UNL     1       3.300 -20.048  -7.580  1.00  0.00    -0.014 A 
ATOM     80  C   UNL     1       3.156 -18.803  -8.218  1.00  0.00     0.009 A 
ATOM     81  C   UNL     1       4.503 -20.749  -7.757  1.00  0.00     0.009 A 
ATOM     82  C   UNL     1       4.167 -18.297  -9.041  1.00  0.00     0.001 A 
ATOM     83  C   UNL     1       5.522 -20.232  -8.561  1.00  0.00     0.001 A 
ATOM     84  C   UNL     1       5.351 -19.010  -9.209  1.00  0.00     0.000 A 
ENDBRANCH  66  79
ENDBRANCH  40  41
ENDBRANCH  33  35
ENDBRANCH  32  33
ENDBRANCH  31  32
ENDBRANCH  30  31
ENDBRANCH  29  30
ENDBRANCH  28  29
ENDBRANCH  27  28
ENDBRANCH  26  27
ENDBRANCH   1  26
TORSDOF 23
