REMARK SMILES CCc1ccc2c(CC(=O)OCCOCCOCCOC(=O)c3ccc(-c4c5nc(c(-c6ccccc6)c6ccc([nH]6)c(-c6ccccc6)c6nc(c(-c7ccccc7)c7ccc4[nH]7)C=C6)C=C5)cc3)c(C(=O)c3cc(C)ccn3)[nH]c2c1
REMARK SMILES IDX 15 1 14 2 13 3 12 4 11 5 9 6 10 7 8 8 7 9 3 10 4 11 83 12
REMARK SMILES IDX 5 13 82 14 6 15 81 16 71 17 2 19 1 20 72 21 73 22 74 23
REMARK SMILES IDX 75 24 80 25 76 26 79 27 77 28 78 29 16 30 17 31 18 32 19 33
REMARK SMILES IDX 20 34 21 35 22 36 23 37 24 38 70 39 25 40 69 41 26 42 27 43
REMARK SMILES IDX 28 44 63 45 29 46 68 47 62 48 64 49 30 50 67 51 61 52 60 53
REMARK SMILES IDX 31 55 53 56 38 57 52 58 39 59 42 60 51 61 65 62 40 63 41 64
REMARK SMILES IDX 50 66 66 67 43 68 32 69 33 70 37 71 34 72 36 73 35 74 54 75
REMARK SMILES IDX 55 76 59 77 56 78 58 79 57 80 44 81 45 82 49 83 46 84 48 85
REMARK SMILES IDX 47 86
REMARK H PARENT 81 18 64 54 42 65
REMARK Flexibility Score: inf
ROOT
ATOM      1  C   UNL     1       3.785  -7.236  -5.769  1.00  0.00     0.188 C 
ENDROOT
BRANCH   1   2
ATOM      2  O   UNL     1       5.089  -7.122  -6.335  1.00  0.00    -0.376 OA
BRANCH   2   3
ATOM      3  C   UNL     1       5.898  -6.023  -5.937  1.00  0.00     0.202 C 
BRANCH   3   4
ATOM      4  C   UNL     1       5.375  -4.642  -6.346  1.00  0.00     0.261 C 
BRANCH   4   5
ATOM      5  O   UNL     1       4.058  -4.384  -5.813  1.00  0.00    -0.463 OA
BRANCH   5   6
ATOM      6  C   UNL     1       3.166  -3.794  -6.649  1.00  0.00     0.310 C 
ATOM      7  O   UNL     1       3.475  -3.304  -7.732  1.00  0.00    -0.252 OA
BRANCH   6   8
ATOM      8  C   UNL     1       1.714  -3.955  -6.224  1.00  0.00     0.161 C 
BRANCH   8   9
ATOM      9  C   UNL     1       1.356  -3.824  -4.762  1.00  0.00     0.000 A 
ATOM     10  C   UNL     1       1.014  -0.559  -2.102  1.00  0.00    -0.046 A 
ATOM     11  C   UNL     1       1.662  -0.294  -3.316  1.00  0.00     0.004 A 
ATOM     12  C   UNL     1       0.661  -1.877  -1.782  1.00  0.00     0.030 A 
ATOM     13  C   UNL     1       1.918  -1.312  -4.250  1.00  0.00     0.011 A 
ATOM     14  C   UNL     1       0.892  -2.867  -2.741  1.00  0.00     0.046 A 
ATOM     15  C   UNL     1       1.474  -2.621  -3.980  1.00  0.00     0.004 A 
ATOM     16  N   UNL     1       0.576  -4.199  -2.708  1.00  0.00    -0.352 N 
ATOM     17  C   UNL     1       0.585  -4.707  -3.988  1.00  0.00     0.093 A 
ATOM     18  H   UNL     1       0.372  -4.715  -1.894  1.00  0.00     0.167 HD
BRANCH  10  19
ATOM     19  C   UNL     1       0.605   0.578  -1.194  1.00  0.00     0.032 C 
ATOM     20  C   UNL     1       1.068   0.419   0.247  1.00  0.00     0.009 C 
ENDBRANCH  10  19
BRANCH  17  21
ATOM     21  C   UNL     1      -0.172  -5.889  -4.376  1.00  0.00     0.227 C 
ATOM     22  O   UNL     1      -0.389  -6.200  -5.545  1.00  0.00    -0.285 OA
BRANCH  21  23
ATOM     23  C   UNL     1      -0.768  -6.745  -3.307  1.00  0.00     0.113 A 
ATOM     24  C   UNL     1      -2.104  -6.599  -2.943  1.00  0.00     0.036 A 
ATOM     25  N   UNL     1       0.065  -7.671  -2.771  1.00  0.00    -0.253 NA
ATOM     26  C   UNL     1      -2.630  -7.482  -1.992  1.00  0.00    -0.047 A 
ATOM     27  C   UNL     1      -0.489  -8.550  -1.908  1.00  0.00     0.112 A 
ATOM     28  C   UNL     1      -4.048  -7.384  -1.513  1.00  0.00     0.044 C 
ATOM     29  C   UNL     1      -1.811  -8.503  -1.502  1.00  0.00     0.023 A 
ENDBRANCH  21  23
ENDBRANCH  17  21
ENDBRANCH   8   9
ENDBRANCH   6   8
ENDBRANCH   5   6
ENDBRANCH   4   5
ENDBRANCH   3   4
ENDBRANCH   2   3
ENDBRANCH   1   2
BRANCH   1  30
ATOM     30  C   UNL     1       3.568  -6.834  -4.294  1.00  0.00     0.188 C 
BRANCH  30  31
ATOM     31  O   UNL     1       4.686  -7.110  -3.459  1.00  0.00    -0.376 OA
BRANCH  31  32
ATOM     32  C   UNL     1       4.443  -8.087  -2.456  1.00  0.00     0.202 C 
BRANCH  32  33
ATOM     33  C   UNL     1       4.447  -9.495  -3.043  1.00  0.00     0.261 C 
BRANCH  33  34
ATOM     34  O   UNL     1       3.341  -9.686  -3.950  1.00  0.00    -0.460 OA
BRANCH  34  35
ATOM     35  C   UNL     1       2.257 -10.321  -3.474  1.00  0.00     0.338 C 
ATOM     36  O   UNL     1       2.120 -10.792  -2.348  1.00  0.00    -0.246 OA
BRANCH  35  37
ATOM     37  C   UNL     1       1.228 -10.443  -4.530  1.00  0.00     0.060 A 
ATOM     38  C   UNL     1       0.790  -9.344  -5.276  1.00  0.00     0.016 A 
ATOM     39  C   UNL     1       0.607 -11.678  -4.706  1.00  0.00     0.016 A 
ATOM     40  C   UNL     1      -0.301  -9.456  -6.143  1.00  0.00     0.010 A 
ATOM     41  C   UNL     1      -0.441 -11.805  -5.621  1.00  0.00     0.010 A 
ATOM     42  C   UNL     1      -0.925 -10.691  -6.332  1.00  0.00    -0.014 A 
BRANCH  42  43
ATOM     43  C   UNL     1      -2.100 -10.860  -7.227  1.00  0.00     0.031 A 
ATOM     44  C   UNL     1      -3.401 -11.352  -6.656  1.00  0.00     0.074 A 
ATOM     45  C   UNL     1      -2.002 -10.655  -8.553  1.00  0.00     0.049 A 
ATOM     46  N   UNL     1      -4.422 -11.899  -7.265  1.00  0.00    -0.248 NA
ATOM     47  C   UNL     1      -3.567 -11.216  -5.200  1.00  0.00     0.031 C 
ATOM     48  C   UNL     1      -0.852 -10.079  -9.248  1.00  0.00     0.029 A 
ATOM     49  N   UNL     1      -2.890 -10.949  -9.562  1.00  0.00    -0.354 N 
ATOM     50  C   UNL     1      -5.325 -12.229  -6.264  1.00  0.00     0.074 A 
ATOM     51  C   UNL     1      -4.737 -11.808  -5.008  1.00  0.00     0.031 C 
ATOM     52  C   UNL     1      -1.093 -10.080 -10.569  1.00  0.00     0.029 A 
ATOM     53  C   UNL     1      -2.372 -10.738 -10.817  1.00  0.00     0.049 A 
ATOM     54  H   UNL     1      -3.804 -11.277  -9.401  1.00  0.00     0.167 HD
ATOM     55  C   UNL     1      -6.527 -12.843  -6.382  1.00  0.00     0.031 A 
ATOM     56  C   UNL     1      -2.833 -11.099 -12.030  1.00  0.00     0.031 A 
ATOM     57  C   UNL     1      -7.114 -13.244  -7.635  1.00  0.00     0.049 A 
ATOM     58  C   UNL     1      -4.115 -11.876 -12.136  1.00  0.00     0.074 A 
ATOM     59  C   UNL     1      -8.325 -13.878  -7.857  1.00  0.00     0.029 A 
ATOM     60  N   UNL     1      -6.535 -13.043  -8.878  1.00  0.00    -0.354 N 
ATOM     61  N   UNL     1      -4.933 -12.257 -11.186  1.00  0.00    -0.248 NA
ATOM     62  C   UNL     1      -4.527 -12.290 -13.486  1.00  0.00     0.031 C 
ATOM     63  C   UNL     1      -8.454 -14.105  -9.231  1.00  0.00     0.029 A 
ATOM     64  C   UNL     1      -7.352 -13.561  -9.869  1.00  0.00     0.049 A 
ATOM     65  H   UNL     1      -5.671 -12.597  -9.033  1.00  0.00     0.167 HD
ATOM     66  C   UNL     1      -5.966 -12.933 -11.822  1.00  0.00     0.074 A 
ATOM     67  C   UNL     1      -5.678 -12.902 -13.241  1.00  0.00     0.031 C 
ATOM     68  C   UNL     1      -7.058 -13.523 -11.278  1.00  0.00     0.031 A 
BRANCH  55  69
ATOM     69  C   UNL     1      -7.261 -13.182  -5.115  1.00  0.00    -0.014 A 
ATOM     70  C   UNL     1      -7.892 -12.197  -4.341  1.00  0.00     0.009 A 
ATOM     71  C   UNL     1      -7.351 -14.525  -4.714  1.00  0.00     0.009 A 
ATOM     72  C   UNL     1      -8.572 -12.549  -3.172  1.00  0.00     0.001 A 
ATOM     73  C   UNL     1      -8.054 -14.876  -3.560  1.00  0.00     0.001 A 
ATOM     74  C   UNL     1      -8.656 -13.887  -2.785  1.00  0.00     0.000 A 
ENDBRANCH  55  69
BRANCH  56  75
ATOM     75  C   UNL     1      -2.031 -10.793 -13.243  1.00  0.00    -0.014 A 
ATOM     76  C   UNL     1      -2.475  -9.839 -14.169  1.00  0.00     0.009 A 
ATOM     77  C   UNL     1      -0.810 -11.449 -13.475  1.00  0.00     0.009 A 
ATOM     78  C   UNL     1      -1.719  -9.557 -15.310  1.00  0.00     0.001 A 
ATOM     79  C   UNL     1      -0.042 -11.142 -14.599  1.00  0.00     0.001 A 
ATOM     80  C   UNL     1      -0.501 -10.201 -15.519  1.00  0.00     0.000 A 
ENDBRANCH  56  75
BRANCH  68  81
ATOM     81  C   UNL     1      -8.051 -14.143 -12.220  1.00  0.00    -0.014 A 
ATOM     82  C   UNL     1      -7.785 -15.360 -12.866  1.00  0.00     0.009 A 
ATOM     83  C   UNL     1      -9.290 -13.517 -12.429  1.00  0.00     0.009 A 
ATOM     84  C   UNL     1      -8.733 -15.925 -13.722  1.00  0.00     0.001 A 
ATOM     85  C   UNL     1     -10.245 -14.097 -13.265  1.00  0.00     0.001 A 
ATOM     86  C   UNL     1      -9.963 -15.296 -13.917  1.00  0.00     0.000 A 
ENDBRANCH  68  81
ENDBRANCH  42  43
ENDBRANCH  35  37
ENDBRANCH  34  35
ENDBRANCH  33  34
ENDBRANCH  32  33
ENDBRANCH  31  32
ENDBRANCH  30  31
ENDBRANCH   1  30
TORSDOF 21
