REMARK SMILES COc1ccccc1C(=O)N1[C@@H](C(=O)OCCOCCOCCOC(=O)c2ccc(-c3c4nc(c(-c5ccccc5)c5ccc([nH]5)c(-c5ccccc5)c5nc(c(-c6ccccc6)c6ccc3[nH]6)C=C5)C=C4)cc2)COC12CC[NH+](Cc1ccccc1)CC2
REMARK SMILES IDX 19 1 18 2 17 3 16 4 15 5 13 6 14 7 12 8 11 9 77 10 75 11
REMARK SMILES IDX 76 12 78 13 89 14 79 15 88 16 80 17 9 19 10 20 8 21 3 22
REMARK SMILES IDX 4 23 5 24 7 25 6 26 2 27 1 28 81 29 82 30 83 31 87 32 84 33
REMARK SMILES IDX 86 34 85 35 20 36 21 37 22 38 23 39 24 40 25 41 26 42 27 43
REMARK SMILES IDX 28 44 74 45 29 46 73 47 30 48 31 49 32 50 67 51 33 52 72 53
REMARK SMILES IDX 66 54 68 55 34 56 71 57 65 58 64 59 35 61 57 62 42 63 56 64
REMARK SMILES IDX 43 65 46 66 55 67 69 68 44 69 45 70 54 72 70 73 47 74 36 75
REMARK SMILES IDX 37 76 41 77 38 78 40 79 39 80 58 81 59 82 63 83 60 84 62 85
REMARK SMILES IDX 61 86 48 87 49 88 53 89 50 90 52 91 51 92
REMARK H PARENT 80 18 68 60 46 71
REMARK Flexibility Score: inf
ROOT
ATOM      1  C   UNL     1       1.988  -2.729   4.911  1.00  0.00     0.188 C 
ENDROOT
BRANCH   1   2
ATOM      2  O   UNL     1       0.672  -2.631   5.436  1.00  0.00    -0.376 OA
BRANCH   2   3
ATOM      3  C   UNL     1      -0.382  -2.197   4.577  1.00  0.00     0.202 C 
BRANCH   3   4
ATOM      4  C   UNL     1      -0.123  -0.975   3.692  1.00  0.00     0.261 C 
BRANCH   4   5
ATOM      5  O   UNL     1       0.700  -1.268   2.541  1.00  0.00    -0.462 OA
BRANCH   5   6
ATOM      6  C   UNL     1       1.786  -0.475   2.357  1.00  0.00     0.331 C 
ATOM      7  O   UNL     1       2.100   0.435   3.122  1.00  0.00    -0.250 OA
BRANCH   6   8
ATOM      8  C   UNL     1       2.554  -0.742   1.060  1.00  0.00     0.224 C 
ATOM      9  N   UNL     1       2.132   0.208   0.059  1.00  0.00    -0.293 N 
ATOM     10  C   UNL     1       1.908  -0.486  -1.215  1.00  0.00     0.155 C 
ATOM     11  C   UNL     1       2.463  -2.086   0.374  1.00  0.00     0.200 C 
ATOM     12  O   UNL     1       1.742  -1.877  -0.844  1.00  0.00    -0.352 OA
ATOM     13  C   UNL     1       0.571  -0.087  -1.831  1.00  0.00     0.120 C 
ATOM     14  C   UNL     1       3.094  -0.417  -2.197  1.00  0.00     0.120 C 
ATOM     15  C   UNL     1       0.373  -0.606  -3.237  1.00  0.00     0.267 C 
ATOM     16  C   UNL     1       2.729  -0.764  -3.645  1.00  0.00     0.267 C 
ATOM     17  N   UNL     1       1.462  -0.223  -4.121  1.00  0.00    -0.331 N 
ATOM     18  H   UNL     1       1.313  -0.683  -5.019  1.00  0.00     0.348 HD
BRANCH   9  19
ATOM     19  C   UNL     1       2.704   1.468   0.154  1.00  0.00     0.260 C 
ATOM     20  O   UNL     1       3.907   1.625  -0.059  1.00  0.00    -0.269 OA
BRANCH  19  21
ATOM     21  C   UNL     1       1.912   2.577   0.784  1.00  0.00     0.082 A 
ATOM     22  C   UNL     1       0.518   2.720   0.758  1.00  0.00     0.131 A 
ATOM     23  C   UNL     1      -0.089   3.873   1.282  1.00  0.00     0.047 A 
ATOM     24  C   UNL     1       0.676   4.859   1.897  1.00  0.00     0.004 A 
ATOM     25  C   UNL     1       2.665   3.576   1.431  1.00  0.00     0.018 A 
ATOM     26  C   UNL     1       2.053   4.703   1.988  1.00  0.00     0.001 A 
BRANCH  22  27
ATOM     27  O   UNL     1      -0.301   1.849   0.103  1.00  0.00    -0.496 OA
ATOM     28  C   UNL     1      -1.111   1.081   0.987  1.00  0.00     0.278 C 
ENDBRANCH  22  27
ENDBRANCH  19  21
ENDBRANCH   9  19
BRANCH  17  29
ATOM     29  C   UNL     1       1.431   1.161  -4.624  1.00  0.00     0.299 C 
BRANCH  29  30
ATOM     30  C   UNL     1       2.010   2.285  -3.787  1.00  0.00     0.006 A 
ATOM     31  C   UNL     1       1.187   3.157  -3.057  1.00  0.00     0.009 A 
ATOM     32  C   UNL     1       3.397   2.502  -3.749  1.00  0.00     0.009 A 
ATOM     33  C   UNL     1       1.739   4.168  -2.264  1.00  0.00     0.001 A 
ATOM     34  C   UNL     1       3.950   3.487  -2.929  1.00  0.00     0.001 A 
ATOM     35  C   UNL     1       3.121   4.318  -2.182  1.00  0.00     0.000 A 
ENDBRANCH  29  30
ENDBRANCH  17  29
ENDBRANCH   6   8
ENDBRANCH   5   6
ENDBRANCH   4   5
ENDBRANCH   3   4
ENDBRANCH   2   3
ENDBRANCH   1   2
BRANCH   1  36
ATOM     36  C   UNL     1       2.183  -3.493   3.598  1.00  0.00     0.188 C 
BRANCH  36  37
ATOM     37  O   UNL     1       1.010  -4.074   3.067  1.00  0.00    -0.376 OA
BRANCH  37  38
ATOM     38  C   UNL     1       0.930  -5.496   3.075  1.00  0.00     0.202 C 
BRANCH  38  39
ATOM     39  C   UNL     1       1.092  -6.182   4.442  1.00  0.00     0.261 C 
BRANCH  39  40
ATOM     40  O   UNL     1       2.355  -5.949   5.096  1.00  0.00    -0.460 OA
BRANCH  40  41
ATOM     41  C   UNL     1       3.478  -6.351   4.454  1.00  0.00     0.338 C 
ATOM     42  O   UNL     1       3.544  -7.019   3.437  1.00  0.00    -0.246 OA
BRANCH  41  43
ATOM     43  C   UNL     1       4.607  -5.574   5.027  1.00  0.00     0.060 A 
ATOM     44  C   UNL     1       5.467  -4.891   4.150  1.00  0.00     0.016 A 
ATOM     45  C   UNL     1       4.756  -5.432   6.408  1.00  0.00     0.016 A 
ATOM     46  C   UNL     1       6.492  -4.088   4.655  1.00  0.00     0.010 A 
ATOM     47  C   UNL     1       5.799  -4.653   6.913  1.00  0.00     0.010 A 
ATOM     48  C   UNL     1       6.691  -4.006   6.039  1.00  0.00    -0.014 A 
BRANCH  48  49
ATOM     49  C   UNL     1       7.976  -3.489   6.569  1.00  0.00     0.031 A 
ATOM     50  C   UNL     1       9.084  -4.486   6.779  1.00  0.00     0.074 A 
ATOM     51  C   UNL     1       8.169  -2.192   6.865  1.00  0.00     0.049 A 
ATOM     52  N   UNL     1      10.276  -4.312   7.288  1.00  0.00    -0.248 NA
ATOM     53  C   UNL     1       8.803  -5.869   6.357  1.00  0.00     0.031 C 
ATOM     54  C   UNL     1       7.202  -1.116   6.665  1.00  0.00     0.029 A 
ATOM     55  N   UNL     1       9.263  -1.567   7.413  1.00  0.00    -0.354 N 
ATOM     56  C   UNL     1      10.880  -5.562   7.253  1.00  0.00     0.074 A 
ATOM     57  C   UNL     1       9.921  -6.489   6.697  1.00  0.00     0.031 C 
ATOM     58  C   UNL     1       7.743   0.039   7.098  1.00  0.00     0.029 A 
ATOM     59  C   UNL     1       9.078  -0.224   7.633  1.00  0.00     0.049 A 
ATOM     60  H   UNL     1      10.101  -2.038   7.627  1.00  0.00     0.167 HD
ATOM     61  C   UNL     1      12.126  -5.913   7.646  1.00  0.00     0.031 A 
ATOM     62  C   UNL     1       9.888   0.679   8.220  1.00  0.00     0.031 A 
ATOM     63  C   UNL     1      13.075  -5.007   8.227  1.00  0.00     0.049 A 
ATOM     64  C   UNL     1      11.238   0.246   8.735  1.00  0.00     0.074 A 
ATOM     65  C   UNL     1      14.363  -5.269   8.659  1.00  0.00     0.029 A 
ATOM     66  N   UNL     1      12.833  -3.664   8.467  1.00  0.00    -0.354 N 
ATOM     67  N   UNL     1      11.809  -0.933   8.677  1.00  0.00    -0.248 NA
ATOM     68  C   UNL     1      12.057   1.275   9.395  1.00  0.00     0.031 C 
ATOM     69  C   UNL     1      14.883  -4.093   9.210  1.00  0.00     0.029 A 
ATOM     70  C   UNL     1      13.939  -3.088   9.066  1.00  0.00     0.049 A 
ATOM     71  H   UNL     1      11.999  -3.191   8.244  1.00  0.00     0.167 HD
ATOM     72  C   UNL     1      13.061  -0.780   9.262  1.00  0.00     0.074 A 
ATOM     73  C   UNL     1      13.172   0.607   9.660  1.00  0.00     0.031 C 
ATOM     74  C   UNL     1      14.034  -1.705   9.451  1.00  0.00     0.031 A 
BRANCH  61  75
ATOM     75  C   UNL     1      12.505  -7.358   7.497  1.00  0.00    -0.014 A 
ATOM     76  C   UNL     1      12.755  -7.918   6.235  1.00  0.00     0.009 A 
ATOM     77  C   UNL     1      12.614  -8.168   8.637  1.00  0.00     0.009 A 
ATOM     78  C   UNL     1      13.076  -9.271   6.115  1.00  0.00     0.001 A 
ATOM     79  C   UNL     1      12.961  -9.514   8.517  1.00  0.00     0.001 A 
ATOM     80  C   UNL     1      13.183 -10.066   7.256  1.00  0.00     0.000 A 
ENDBRANCH  61  75
BRANCH  62  81
ATOM     81  C   UNL     1       9.445   2.090   8.386  1.00  0.00    -0.014 A 
ATOM     82  C   UNL     1      10.058   3.123   7.660  1.00  0.00     0.009 A 
ATOM     83  C   UNL     1       8.435   2.414   9.304  1.00  0.00     0.009 A 
ATOM     84  C   UNL     1       9.686   4.454   7.871  1.00  0.00     0.001 A 
ATOM     85  C   UNL     1       8.046   3.743   9.492  1.00  0.00     0.001 A 
ATOM     86  C   UNL     1       8.679   4.762   8.783  1.00  0.00     0.000 A 
ENDBRANCH  62  81
BRANCH  74  87
ATOM     87  C   UNL     1      15.321  -1.243  10.077  1.00  0.00    -0.014 A 
ATOM     88  C   UNL     1      15.401  -0.937  11.444  1.00  0.00     0.009 A 
ATOM     89  C   UNL     1      16.484  -1.169   9.293  1.00  0.00     0.009 A 
ATOM     90  C   UNL     1      16.615  -0.537  12.006  1.00  0.00     0.001 A 
ATOM     91  C   UNL     1      17.701  -0.796   9.864  1.00  0.00     0.001 A 
ATOM     92  C   UNL     1      17.764  -0.472  11.218  1.00  0.00     0.000 A 
ENDBRANCH  74  87
ENDBRANCH  48  49
ENDBRANCH  41  43
ENDBRANCH  40  41
ENDBRANCH  39  40
ENDBRANCH  38  39
ENDBRANCH  37  38
ENDBRANCH  36  37
ENDBRANCH   1  36
TORSDOF 22
