REMARK SMILES O=C(OCCOCCOCCOC(=O)c1ccc(-c2c3nc(c(-c4ccccc4)c4ccc([nH]4)c(-c4ccccc4)c4nc(c(-c5ccccc5)c5ccc2[nH]5)C=C4)C=C3)cc1)C1=Cc2cc(OC(F)(F)F)ccc2O[C@@H]1C(F)(F)F
REMARK SMILES IDX 7 1 6 2 5 3 4 4 3 5 2 6 1 7 63 8 64 9 77 10 65 11 76 12
REMARK SMILES IDX 66 13 75 14 67 15 74 16 73 17 78 18 79 19 80 20 81 21 68 22
REMARK SMILES IDX 69 23 70 24 71 25 72 26 8 27 9 28 10 29 11 30 12 31 13 32
REMARK SMILES IDX 14 33 15 34 16 35 62 36 17 37 61 38 18 39 19 40 20 41 55 42
REMARK SMILES IDX 21 43 60 44 54 45 56 46 22 47 59 48 53 49 52 50 23 52 45 53
REMARK SMILES IDX 30 54 44 55 31 56 34 57 43 58 57 59 32 60 33 61 42 63 58 64
REMARK SMILES IDX 35 65 24 66 25 67 29 68 26 69 28 70 27 71 46 72 47 73 51 74
REMARK SMILES IDX 48 75 50 76 49 77 36 78 37 79 41 80 38 81 40 82 39 83
REMARK H PARENT 56 51 34 62
REMARK Flexibility Score: inf
ROOT
ATOM      1  C   UNL     1       2.421  -0.715   2.148  1.00  0.00     0.188 C 
ENDROOT
BRANCH   1   2
ATOM      2  O   UNL     1       3.771  -1.142   1.679  1.00  0.00    -0.376 OA
BRANCH   2   3
ATOM      3  C   UNL     1       4.509  -0.867   0.143  1.00  0.00     0.202 C 
BRANCH   3   4
ATOM      4  C   UNL     1       3.788   0.544  -1.348  1.00  0.00     0.261 C 
BRANCH   4   5
ATOM      5  O   UNL     1       2.809   0.240  -2.478  1.00  0.00    -0.460 OA
BRANCH   5   6
ATOM      6  C   UNL     1       2.983  -0.994  -2.973  1.00  0.00     0.338 C 
ATOM      7  O   UNL     1       2.285  -1.597  -3.749  1.00  0.00    -0.246 OA
BRANCH   6   8
ATOM      8  C   UNL     1       3.877  -1.467  -1.930  1.00  0.00     0.087 C 
ATOM      9  C   UNL     1       5.263  -1.028  -2.041  1.00  0.00     0.027 C 
ATOM     10  C   UNL     1       2.679  -0.974  -0.514  1.00  0.00     0.316 C 
ATOM     11  C   UNL     1       5.984   0.273  -1.040  1.00  0.00     0.021 A 
ATOM     12  O   UNL     1       3.380   0.555   0.484  1.00  0.00    -0.475 OA
ATOM     13  C   UNL     1       7.263   0.671  -1.291  1.00  0.00     0.058 A 
ATOM     14  C   UNL     1       5.089   1.125   0.160  1.00  0.00     0.128 A 
ATOM     15  C   UNL     1       7.756   1.724  -0.492  1.00  0.00     0.130 A 
ATOM     16  C   UNL     1       5.629   2.127   0.915  1.00  0.00     0.051 A 
ATOM     17  C   UNL     1       6.987   2.398   0.557  1.00  0.00     0.050 A 
BRANCH  10  18
ATOM     18  C   UNL     1       2.410  -2.578  -0.093  1.00  0.00     0.430 C 
ATOM     19  F   UNL     1       2.311  -2.966   1.175  1.00  0.00    -0.167 F 
ATOM     20  F   UNL     1       1.250  -2.974  -0.686  1.00  0.00    -0.167 F 
ATOM     21  F   UNL     1       3.359  -3.415  -0.619  1.00  0.00    -0.167 F 
ENDBRANCH  10  18
BRANCH  15  22
ATOM     22  O   UNL     1       9.052   2.008  -0.857  1.00  0.00    -0.406 OA
BRANCH  22  23
ATOM     23  C   UNL     1       9.778   3.010  -0.181  1.00  0.00     0.573 C 
ATOM     24  F   UNL     1       9.186   4.212  -0.321  1.00  0.00    -0.132 F 
ATOM     25  F   UNL     1       9.906   2.710   1.127  1.00  0.00    -0.132 F 
ATOM     26  F   UNL     1      11.014   3.079  -0.724  1.00  0.00    -0.132 F 
ENDBRANCH  22  23
ENDBRANCH  15  22
ENDBRANCH   6   8
ENDBRANCH   5   6
ENDBRANCH   4   5
ENDBRANCH   3   4
ENDBRANCH   2   3
ENDBRANCH   1   2
BRANCH   1  27
ATOM     27  C   UNL     1       2.183   0.163   3.386  1.00  0.00     0.188 C 
BRANCH  27  28
ATOM     28  O   UNL     1       3.157   1.107   3.748  1.00  0.00    -0.376 OA
BRANCH  28  29
ATOM     29  C   UNL     1       4.450   0.575   4.003  1.00  0.00     0.202 C 
BRANCH  29  30
ATOM     30  C   UNL     1       4.565  -0.605   4.984  1.00  0.00     0.261 C 
BRANCH  30  31
ATOM     31  O   UNL     1       4.096  -1.863   4.444  1.00  0.00    -0.460 OA
BRANCH  31  32
ATOM     32  C   UNL     1       3.055  -2.467   5.072  1.00  0.00     0.338 C 
ATOM     33  O   UNL     1       2.450  -2.069   6.052  1.00  0.00    -0.246 OA
BRANCH  32  34
ATOM     34  C   UNL     1       2.637  -3.659   4.304  1.00  0.00     0.060 A 
ATOM     35  C   UNL     1       1.337  -3.728   3.778  1.00  0.00     0.016 A 
ATOM     36  C   UNL     1       3.513  -4.733   4.158  1.00  0.00     0.016 A 
ATOM     37  C   UNL     1       0.922  -4.860   3.071  1.00  0.00     0.010 A 
ATOM     38  C   UNL     1       3.080  -5.888   3.502  1.00  0.00     0.010 A 
ATOM     39  C   UNL     1       1.778  -5.964   2.972  1.00  0.00    -0.014 A 
BRANCH  39  40
ATOM     40  C   UNL     1       1.232  -7.288   2.588  1.00  0.00     0.031 A 
ATOM     41  C   UNL     1       0.700  -8.157   3.694  1.00  0.00     0.074 A 
ATOM     42  C   UNL     1       1.228  -7.727   1.318  1.00  0.00     0.049 A 
ATOM     43  N   UNL     1       0.246  -9.382   3.649  1.00  0.00    -0.248 NA
ATOM     44  C   UNL     1       0.692  -7.559   5.041  1.00  0.00     0.031 C 
ATOM     45  C   UNL     1       1.669  -6.965   0.152  1.00  0.00     0.029 A 
ATOM     46  N   UNL     1       0.844  -8.942   0.803  1.00  0.00    -0.354 N 
ATOM     47  C   UNL     1      -0.092  -9.701   4.958  1.00  0.00     0.074 A 
ATOM     48  C   UNL     1       0.239  -8.558   5.778  1.00  0.00     0.031 C 
ATOM     49  C   UNL     1       1.543  -7.737  -0.943  1.00  0.00     0.029 A 
ATOM     50  C   UNL     1       1.050  -9.057  -0.550  1.00  0.00     0.049 A 
ATOM     51  H   UNL     1       0.459  -9.662   1.353  1.00  0.00     0.167 HD
ATOM     52  C   UNL     1      -0.630 -10.846   5.439  1.00  0.00     0.031 A 
ATOM     53  C   UNL     1       0.881 -10.117  -1.367  1.00  0.00     0.031 A 
ATOM     54  C   UNL     1      -0.915 -11.998   4.629  1.00  0.00     0.049 A 
ATOM     55  C   UNL     1       0.373 -11.418  -0.793  1.00  0.00     0.074 A 
ATOM     56  C   UNL     1      -1.462 -13.208   5.015  1.00  0.00     0.029 A 
ATOM     57  N   UNL     1      -0.655 -12.088   3.270  1.00  0.00    -0.354 N 
ATOM     58  N   UNL     1       0.025 -11.703   0.440  1.00  0.00    -0.248 NA
ATOM     59  C   UNL     1       0.229 -12.545  -1.728  1.00  0.00     0.031 C 
ATOM     60  C   UNL     1      -1.460 -14.058   3.905  1.00  0.00     0.029 A 
ATOM     61  C   UNL     1      -0.998 -13.347   2.808  1.00  0.00     0.049 A 
ATOM     62  H   UNL     1      -0.281 -11.365   2.716  1.00  0.00     0.167 HD
ATOM     63  C   UNL     1      -0.415 -13.022   0.420  1.00  0.00     0.074 A 
ATOM     64  C   UNL     1      -0.302 -13.478  -0.950  1.00  0.00     0.031 C 
ATOM     65  C   UNL     1      -0.878 -13.786   1.441  1.00  0.00     0.031 A 
BRANCH  52  66
ATOM     66  C   UNL     1      -0.884 -10.917   6.919  1.00  0.00    -0.014 A 
ATOM     67  C   UNL     1      -1.859 -10.116   7.537  1.00  0.00     0.009 A 
ATOM     68  C   UNL     1      -0.135 -11.802   7.710  1.00  0.00     0.009 A 
ATOM     69  C   UNL     1      -2.045 -10.168   8.920  1.00  0.00     0.001 A 
ATOM     70  C   UNL     1      -0.349 -11.880   9.086  1.00  0.00     0.001 A 
ATOM     71  C   UNL     1      -1.294 -11.054   9.692  1.00  0.00     0.000 A 
ENDBRANCH  52  66
BRANCH  53  72
ATOM     72  C   UNL     1       1.212 -10.012  -2.816  1.00  0.00    -0.014 A 
ATOM     73  C   UNL     1       0.208 -10.115  -3.793  1.00  0.00     0.009 A 
ATOM     74  C   UNL     1       2.541  -9.842  -3.234  1.00  0.00     0.009 A 
ATOM     75  C   UNL     1       0.531 -10.078  -5.152  1.00  0.00     0.001 A 
ATOM     76  C   UNL     1       2.858  -9.770  -4.593  1.00  0.00     0.001 A 
ATOM     77  C   UNL     1       1.855  -9.899  -5.551  1.00  0.00     0.000 A 
ENDBRANCH  53  72
BRANCH  65  78
ATOM     78  C   UNL     1      -1.351 -15.178   1.114  1.00  0.00    -0.014 A 
ATOM     79  C   UNL     1      -0.461 -16.192   0.728  1.00  0.00     0.009 A 
ATOM     80  C   UNL     1      -2.714 -15.491   1.252  1.00  0.00     0.009 A 
ATOM     81  C   UNL     1      -0.932 -17.478   0.451  1.00  0.00     0.001 A 
ATOM     82  C   UNL     1      -3.176 -16.786   1.013  1.00  0.00     0.001 A 
ATOM     83  C   UNL     1      -2.287 -17.776   0.601  1.00  0.00     0.000 A 
ENDBRANCH  65  78
ENDBRANCH  39  40
ENDBRANCH  32  34
ENDBRANCH  31  32
ENDBRANCH  30  31
ENDBRANCH  29  30
ENDBRANCH  28  29
ENDBRANCH  27  28
ENDBRANCH   1  27
TORSDOF 20
