REMARK SMILES C[NH2+]C[C@H]1CCCC[N@H+]1[C@H](C)[C@@H](C)C(=O)OCCOCCOCCOC(=O)c1ccc(-c2c3nc(c(-c4ccccc4)c4ccc([nH]4)c(-c4ccccc4)c4nc(c(-c5ccccc5)c5ccc2[nH]5)C=C4)C=C3)cc1
REMARK SMILES IDX 20 1 19 2 18 3 17 4 16 5 14 6 15 7 12 8 13 9 10 10 11 11
REMARK SMILES IDX 9 12 4 13 5 14 6 15 8 16 7 18 3 19 2 20 1 21 21 24 22 25
REMARK SMILES IDX 23 26 24 27 25 28 26 29 27 30 28 31 29 32 75 33 30 34 74 35
REMARK SMILES IDX 31 36 32 37 33 38 68 39 34 40 73 41 67 42 69 43 35 44 72 45
REMARK SMILES IDX 66 46 65 47 36 49 58 50 43 51 57 52 44 53 47 54 56 55 70 56
REMARK SMILES IDX 45 57 46 58 55 60 71 61 48 62 37 63 38 64 42 65 39 66 41 67
REMARK SMILES IDX 40 68 59 69 60 70 64 71 61 72 63 73 62 74 49 75 50 76 54 77
REMARK SMILES IDX 51 78 53 79 52 80
REMARK H PARENT 9 17 2 22 2 23 69 48 47 59
REMARK Flexibility Score: inf
ROOT
ATOM      1  C   UNL     1       4.203  -2.023   1.965  1.00  0.00     0.188 C 
ENDROOT
BRANCH   1   2
ATOM      2  O   UNL     1       4.554  -2.445   3.279  1.00  0.00    -0.376 OA
BRANCH   2   3
ATOM      3  C   UNL     1       4.102  -3.711   3.736  1.00  0.00     0.202 C 
BRANCH   3   4
ATOM      4  C   UNL     1       2.634  -3.778   4.175  1.00  0.00     0.261 C 
BRANCH   4   5
ATOM      5  O   UNL     1       1.647  -3.750   3.113  1.00  0.00    -0.463 OA
BRANCH   5   6
ATOM      6  C   UNL     1       1.075  -2.540   2.864  1.00  0.00     0.314 C 
ATOM      7  O   UNL     1       1.443  -1.490   3.386  1.00  0.00    -0.252 OA
BRANCH   6   8
ATOM      8  C   UNL     1      -0.225  -2.605   2.070  1.00  0.00     0.154 C 
ATOM      9  C   UNL     1      -1.272  -2.932   3.157  1.00  0.00     0.026 C 
BRANCH   8  10
ATOM     10  C   UNL     1      -0.341  -3.532   0.797  1.00  0.00     0.195 C 
ATOM     11  C   UNL     1      -1.844  -3.758   0.493  1.00  0.00     0.076 C 
BRANCH  10  12
ATOM     12  N   UNL     1       0.398  -3.025  -0.414  1.00  0.00    -0.325 N 
ATOM     13  C   UNL     1       0.994  -4.104  -1.262  1.00  0.00     0.239 C 
ATOM     14  C   UNL     1       1.925  -3.479  -2.322  1.00  0.00     0.071 C 
ATOM     15  C   UNL     1       1.300  -2.385  -3.174  1.00  0.00     0.012 C 
ATOM     16  C   UNL     1      -0.358  -2.059  -1.228  1.00  0.00     0.262 C 
ATOM     17  H   UNL     1       1.177  -2.508  -0.006  1.00  0.00     0.348 HD
ATOM     18  C   UNL     1       0.455  -1.420  -2.357  1.00  0.00     0.062 C 
BRANCH  13  19
ATOM     19  C   UNL     1       0.095  -5.239  -1.876  1.00  0.00     0.326 C 
BRANCH  19  20
ATOM     20  N   UNL     1      -0.707  -4.951  -3.071  1.00  0.00    -0.344 N 
ATOM     21  C   UNL     1      -0.113  -5.483  -4.292  1.00  0.00     0.331 C 
ATOM     22  H   UNL     1      -1.632  -5.365  -2.950  1.00  0.00     0.346 HD
ATOM     23  H   UNL     1      -0.757  -3.937  -3.170  1.00  0.00     0.346 HD
ENDBRANCH  19  20
ENDBRANCH  13  19
ENDBRANCH  10  12
ENDBRANCH   8  10
ENDBRANCH   6   8
ENDBRANCH   5   6
ENDBRANCH   4   5
ENDBRANCH   3   4
ENDBRANCH   2   3
ENDBRANCH   1   2
BRANCH   1  24
ATOM     24  C   UNL     1       3.772  -3.079   0.948  1.00  0.00     0.188 C 
BRANCH  24  25
ATOM     25  O   UNL     1       4.710  -4.146   0.854  1.00  0.00    -0.376 OA
BRANCH  25  26
ATOM     26  C   UNL     1       5.120  -4.447  -0.473  1.00  0.00     0.202 C 
BRANCH  26  27
ATOM     27  C   UNL     1       6.207  -3.478  -0.934  1.00  0.00     0.261 C 
BRANCH  27  28
ATOM     28  O   UNL     1       5.746  -2.110  -0.946  1.00  0.00    -0.460 OA
BRANCH  28  29
ATOM     29  C   UNL     1       5.303  -1.629  -2.120  1.00  0.00     0.338 C 
ATOM     30  O   UNL     1       5.271  -2.215  -3.197  1.00  0.00    -0.246 OA
BRANCH  29  31
ATOM     31  C   UNL     1       4.824  -0.249  -1.935  1.00  0.00     0.060 A 
ATOM     32  C   UNL     1       3.590  -0.006  -1.326  1.00  0.00     0.016 A 
ATOM     33  C   UNL     1       5.548   0.806  -2.484  1.00  0.00     0.016 A 
ATOM     34  C   UNL     1       3.036   1.275  -1.338  1.00  0.00     0.010 A 
ATOM     35  C   UNL     1       5.017   2.099  -2.447  1.00  0.00     0.010 A 
ATOM     36  C   UNL     1       3.738   2.339  -1.912  1.00  0.00    -0.014 A 
BRANCH  36  37
ATOM     37  C   UNL     1       3.134   3.690  -2.033  1.00  0.00     0.031 A 
ATOM     38  C   UNL     1       2.884   4.264  -3.400  1.00  0.00     0.074 A 
ATOM     39  C   UNL     1       2.842   4.418  -0.939  1.00  0.00     0.049 A 
ATOM     40  N   UNL     1       2.659   5.504  -3.753  1.00  0.00    -0.248 NA
ATOM     41  C   UNL     1       2.898   3.311  -4.522  1.00  0.00     0.031 C 
ATOM     42  C   UNL     1       2.938   3.954   0.445  1.00  0.00     0.029 A 
ATOM     43  N   UNL     1       2.431   5.724  -0.827  1.00  0.00    -0.354 N 
ATOM     44  C   UNL     1       2.565   5.490  -5.140  1.00  0.00     0.074 A 
ATOM     45  C   UNL     1       2.743   4.117  -5.563  1.00  0.00     0.031 C 
ATOM     46  C   UNL     1       2.615   4.964   1.268  1.00  0.00     0.029 A 
ATOM     47  C   UNL     1       2.375   6.163   0.473  1.00  0.00     0.049 A 
ATOM     48  H   UNL     1       2.199   6.288  -1.601  1.00  0.00     0.167 HD
ATOM     49  C   UNL     1       2.367   6.534  -5.980  1.00  0.00     0.031 A 
ATOM     50  C   UNL     1       2.223   7.405   0.971  1.00  0.00     0.031 A 
ATOM     51  C   UNL     1       2.177   7.892  -5.543  1.00  0.00     0.049 A 
ATOM     52  C   UNL     1       2.090   8.563   0.023  1.00  0.00     0.074 A 
ATOM     53  C   UNL     1       1.976   9.028  -6.309  1.00  0.00     0.029 A 
ATOM     54  N   UNL     1       2.155   8.294  -4.216  1.00  0.00    -0.354 N 
ATOM     55  N   UNL     1       2.079   8.559  -1.288  1.00  0.00    -0.248 NA
ATOM     56  C   UNL     1       1.965   9.897   0.625  1.00  0.00     0.031 C 
ATOM     57  C   UNL     1       1.876  10.124  -5.444  1.00  0.00     0.029 A 
ATOM     58  C   UNL     1       1.962   9.663  -4.140  1.00  0.00     0.049 A 
ATOM     59  H   UNL     1       2.260   7.695  -3.443  1.00  0.00     0.167 HD
ATOM     60  C   UNL     1       1.933   9.886  -1.669  1.00  0.00     0.074 A 
ATOM     61  C   UNL     1       1.841  10.664  -0.450  1.00  0.00     0.031 C 
ATOM     62  C   UNL     1       1.880  10.415  -2.916  1.00  0.00     0.031 A 
BRANCH  49  63
ATOM     63  C   UNL     1       2.410   6.257  -7.457  1.00  0.00    -0.014 A 
ATOM     64  C   UNL     1       1.365   5.592  -8.115  1.00  0.00     0.009 A 
ATOM     65  C   UNL     1       3.510   6.703  -8.209  1.00  0.00     0.009 A 
ATOM     66  C   UNL     1       1.435   5.353  -9.491  1.00  0.00     0.001 A 
ATOM     67  C   UNL     1       3.565   6.486  -9.587  1.00  0.00     0.001 A 
ATOM     68  C   UNL     1       2.532   5.804 -10.226  1.00  0.00     0.000 A 
ENDBRANCH  49  63
BRANCH  50  69
ATOM     69  C   UNL     1       2.269   7.620   2.441  1.00  0.00    -0.014 A 
ATOM     70  C   UNL     1       1.113   7.975   3.150  1.00  0.00     0.009 A 
ATOM     71  C   UNL     1       3.473   7.449   3.146  1.00  0.00     0.009 A 
ATOM     72  C   UNL     1       1.162   8.163   4.533  1.00  0.00     0.001 A 
ATOM     73  C   UNL     1       3.512   7.609   4.533  1.00  0.00     0.001 A 
ATOM     74  C   UNL     1       2.358   7.971   5.224  1.00  0.00     0.000 A 
ENDBRANCH  50  69
BRANCH  62  75
ATOM     75  C   UNL     1       1.679  11.899  -3.014  1.00  0.00    -0.014 A 
ATOM     76  C   UNL     1       2.723  12.794  -2.738  1.00  0.00     0.009 A 
ATOM     77  C   UNL     1       0.431  12.405  -3.412  1.00  0.00     0.009 A 
ATOM     78  C   UNL     1       2.511  14.171  -2.826  1.00  0.00     0.001 A 
ATOM     79  C   UNL     1       0.230  13.780  -3.522  1.00  0.00     0.001 A 
ATOM     80  C   UNL     1       1.266  14.662  -3.220  1.00  0.00     0.000 A 
ENDBRANCH  62  75
ENDBRANCH  36  37
ENDBRANCH  29  31
ENDBRANCH  28  29
ENDBRANCH  27  28
ENDBRANCH  26  27
ENDBRANCH  25  26
ENDBRANCH  24  25
ENDBRANCH   1  24
TORSDOF 21
