REMARK SMILES NS(=O)(=O)c1ccc(-c2cc(Cl)cc3c2O[C@H](C(F)(F)F)C(C(=O)OCCOCCOCCOC(=O)c2ccc(-c4c5nc(c(-c6ccccc6)c6ccc([nH]6)c(-c6ccccc6)c6nc(c(-c7ccccc7)c7ccc4[nH]7)C=C6)C=C5)cc2)=C3)cc1
REMARK SMILES IDX 29 1 28 2 27 3 26 4 25 5 23 6 24 7 22 8 9 9 10 10 15 11
REMARK SMILES IDX 11 12 14 13 16 14 12 15 13 16 85 17 17 18 8 19 5 20 6 21
REMARK SMILES IDX 87 22 7 23 86 24 2 25 3 26 4 27 1 28 18 31 19 32 20 33 21 34
REMARK SMILES IDX 30 35 31 36 32 37 33 38 34 39 35 40 36 41 37 42 38 43 84 44
REMARK SMILES IDX 39 45 83 46 40 47 41 48 42 49 77 50 43 51 82 52 76 53 78 54
REMARK SMILES IDX 44 55 81 56 75 57 74 58 45 60 67 61 52 62 66 63 53 64 56 65
REMARK SMILES IDX 65 66 79 67 54 68 55 69 64 71 80 72 57 73 46 74 47 75 51 76
REMARK SMILES IDX 48 77 50 78 49 79 68 80 69 81 73 82 70 83 72 84 71 85 58 86
REMARK SMILES IDX 59 87 63 88 60 89 62 90 61 91
REMARK H PARENT 1 29 1 30 78 59 56 70
REMARK Flexibility Score: inf
ROOT
ATOM      1  C   UNL     1       2.555  -9.941  -6.411  1.00  0.00     0.188 C 
ENDROOT
BRANCH   1   2
ATOM      2  O   UNL     1       1.773 -10.415  -7.492  1.00  0.00    -0.376 OA
BRANCH   2   3
ATOM      3  C   UNL     1       2.068  -9.877  -8.778  1.00  0.00     0.202 C 
BRANCH   3   4
ATOM      4  C   UNL     1       3.543  -9.934  -9.208  1.00  0.00     0.261 C 
BRANCH   4   5
ATOM      5  O   UNL     1       4.361  -9.018  -8.434  1.00  0.00    -0.460 OA
BRANCH   5   6
ATOM      6  C   UNL     1       4.382  -7.750  -8.899  1.00  0.00     0.338 C 
ATOM      7  O   UNL     1       3.881  -7.394  -9.958  1.00  0.00    -0.246 OA
BRANCH   6   8
ATOM      8  C   UNL     1       4.945  -6.790  -7.912  1.00  0.00     0.087 C 
ATOM      9  C   UNL     1       3.195  -5.466  -4.377  1.00  0.00     0.026 A 
ATOM     10  C   UNL     1       1.807  -5.659  -4.539  1.00  0.00     0.033 A 
ATOM     11  C   UNL     1       3.965  -5.712  -5.520  1.00  0.00     0.135 A 
ATOM     12  C   UNL     1       1.211  -5.905  -5.775  1.00  0.00     0.042 A 
ATOM     13  C   UNL     1       3.345  -5.686  -6.784  1.00  0.00     0.019 A 
ATOM     14  O   UNL     1       5.295  -6.117  -5.509  1.00  0.00    -0.475 OA
ATOM     15  Cl  UNL     1      -0.474  -6.212  -5.880  1.00  0.00    -0.084 Cl
ATOM     16  C   UNL     1       1.972  -5.833  -6.923  1.00  0.00     0.032 A 
ATOM     17  C   UNL     1       4.229  -5.654  -7.965  1.00  0.00     0.027 C 
ATOM     18  C   UNL     1       5.522  -7.188  -6.553  1.00  0.00     0.316 C 
BRANCH   9  19
ATOM     19  C   UNL     1       3.596  -4.733  -3.142  1.00  0.00    -0.015 A 
ATOM     20  C   UNL     1       3.654  -2.965  -0.903  1.00  0.00     0.082 A 
ATOM     21  C   UNL     1       3.182  -4.270  -0.757  1.00  0.00     0.022 A 
ATOM     22  C   UNL     1       4.119  -2.538  -2.147  1.00  0.00     0.022 A 
ATOM     23  C   UNL     1       3.171  -5.142  -1.862  1.00  0.00     0.010 A 
ATOM     24  C   UNL     1       4.086  -3.415  -3.249  1.00  0.00     0.010 A 
BRANCH  20  25
ATOM     25  S   UNL     1       3.660  -1.892   0.516  1.00  0.00     0.238 S 
ATOM     26  O   UNL     1       4.984  -1.918   1.092  1.00  0.00    -0.207 OA
ATOM     27  O   UNL     1       2.468  -2.160   1.283  1.00  0.00    -0.207 OA
BRANCH  25  28
ATOM     28  N   UNL     1       3.391  -0.332  -0.076  1.00  0.00    -0.225 NA
ATOM     29  H   UNL     1       3.384   0.330   0.700  1.00  0.00     0.137 HD
ATOM     30  H   UNL     1       2.492  -0.301  -0.557  1.00  0.00     0.137 HD
ENDBRANCH  25  28
ENDBRANCH  20  25
ENDBRANCH   9  19
BRANCH  18  31
ATOM     31  C   UNL     1       7.009  -7.530  -6.701  1.00  0.00     0.430 C 
ATOM     32  F   UNL     1       7.741  -6.466  -7.097  1.00  0.00    -0.167 F 
ATOM     33  F   UNL     1       7.532  -7.989  -5.542  1.00  0.00    -0.167 F 
ATOM     34  F   UNL     1       7.189  -8.507  -7.625  1.00  0.00    -0.167 F 
ENDBRANCH  18  31
ENDBRANCH   6   8
ENDBRANCH   5   6
ENDBRANCH   4   5
ENDBRANCH   3   4
ENDBRANCH   2   3
ENDBRANCH   1   2
BRANCH   1  35
ATOM     35  C   UNL     1       3.762 -10.831  -6.036  1.00  0.00     0.188 C 
BRANCH  35  36
ATOM     36  O   UNL     1       3.973 -12.075  -6.687  1.00  0.00    -0.376 OA
BRANCH  36  37
ATOM     37  C   UNL     1       2.877 -12.950  -6.914  1.00  0.00     0.202 C 
BRANCH  37  38
ATOM     38  C   UNL     1       2.013 -13.390  -5.726  1.00  0.00     0.261 C 
BRANCH  38  39
ATOM     39  O   UNL     1       1.461 -12.317  -4.942  1.00  0.00    -0.460 OA
BRANCH  39  40
ATOM     40  C   UNL     1       1.938 -12.226  -3.677  1.00  0.00     0.338 C 
ATOM     41  O   UNL     1       2.776 -12.938  -3.150  1.00  0.00    -0.246 OA
BRANCH  40  42
ATOM     42  C   UNL     1       1.415 -11.019  -3.008  1.00  0.00     0.060 A 
ATOM     43  C   UNL     1       2.340 -10.089  -2.521  1.00  0.00     0.016 A 
ATOM     44  C   UNL     1       0.052 -10.864  -2.741  1.00  0.00     0.016 A 
ATOM     45  C   UNL     1       1.909  -9.031  -1.721  1.00  0.00     0.010 A 
ATOM     46  C   UNL     1      -0.377  -9.806  -1.929  1.00  0.00     0.010 A 
ATOM     47  C   UNL     1       0.553  -8.904  -1.386  1.00  0.00    -0.014 A 
BRANCH  47  48
ATOM     48  C   UNL     1       0.164  -7.930  -0.333  1.00  0.00     0.031 A 
ATOM     49  C   UNL     1       0.304  -8.332   1.103  1.00  0.00     0.074 A 
ATOM     50  C   UNL     1      -0.296  -6.705  -0.639  1.00  0.00     0.049 A 
ATOM     51  N   UNL     1       0.244  -7.593   2.178  1.00  0.00    -0.248 NA
ATOM     52  C   UNL     1       0.495  -9.767   1.357  1.00  0.00     0.031 C 
ATOM     53  C   UNL     1      -0.573  -6.252  -1.991  1.00  0.00     0.029 A 
ATOM     54  N   UNL     1      -0.564  -5.606   0.144  1.00  0.00    -0.354 N 
ATOM     55  C   UNL     1       0.320  -8.481   3.242  1.00  0.00     0.074 A 
ATOM     56  C   UNL     1       0.465  -9.807   2.680  1.00  0.00     0.031 C 
ATOM     57  C   UNL     1      -0.837  -4.935  -1.967  1.00  0.00     0.029 A 
ATOM     58  C   UNL     1      -0.801  -4.461  -0.587  1.00  0.00     0.049 A 
ATOM     59  H   UNL     1      -0.583  -5.635   1.127  1.00  0.00     0.167 HD
ATOM     60  C   UNL     1       0.228  -8.216   4.566  1.00  0.00     0.031 A 
ATOM     61  C   UNL     1      -0.920  -3.177  -0.187  1.00  0.00     0.031 A 
ATOM     62  C   UNL     1       0.062  -6.896   5.110  1.00  0.00     0.049 A 
ATOM     63  C   UNL     1      -0.840  -2.881   1.295  1.00  0.00     0.074 A 
ATOM     64  C   UNL     1      -0.021  -6.514   6.438  1.00  0.00     0.029 A 
ATOM     65  N   UNL     1      -0.061  -5.741   4.352  1.00  0.00    -0.354 N 
ATOM     66  N   UNL     1      -0.620  -3.704   2.294  1.00  0.00    -0.248 NA
ATOM     67  C   UNL     1      -1.020  -1.480   1.703  1.00  0.00     0.031 C 
ATOM     68  C   UNL     1      -0.255  -5.136   6.480  1.00  0.00     0.029 A 
ATOM     69  C   UNL     1      -0.254  -4.649   5.181  1.00  0.00     0.049 A 
ATOM     70  H   UNL     1      -0.018  -5.703   3.369  1.00  0.00     0.167 HD
ATOM     71  C   UNL     1      -0.572  -2.913   3.438  1.00  0.00     0.074 A 
ATOM     72  C   UNL     1      -0.770  -1.545   3.004  1.00  0.00     0.031 C 
ATOM     73  C   UNL     1      -0.402  -3.286   4.733  1.00  0.00     0.031 A 
BRANCH  60  74
ATOM     74  C   UNL     1       0.200  -9.395   5.499  1.00  0.00    -0.014 A 
ATOM     75  C   UNL     1       1.335 -10.185   5.737  1.00  0.00     0.009 A 
ATOM     76  C   UNL     1      -1.003  -9.723   6.144  1.00  0.00     0.009 A 
ATOM     77  C   UNL     1       1.252 -11.306   6.567  1.00  0.00     0.001 A 
ATOM     78  C   UNL     1      -1.076 -10.825   6.997  1.00  0.00     0.001 A 
ATOM     79  C   UNL     1       0.049 -11.623   7.198  1.00  0.00     0.000 A 
ENDBRANCH  60  74
BRANCH  61  80
ATOM     80  C   UNL     1      -0.958  -2.072  -1.200  1.00  0.00    -0.014 A 
ATOM     81  C   UNL     1       0.076  -1.121  -1.223  1.00  0.00     0.009 A 
ATOM     82  C   UNL     1      -1.956  -1.969  -2.179  1.00  0.00     0.009 A 
ATOM     83  C   UNL     1       0.131  -0.116  -2.192  1.00  0.00     0.001 A 
ATOM     84  C   UNL     1      -1.883  -0.989  -3.178  1.00  0.00     0.001 A 
ATOM     85  C   UNL     1      -0.840  -0.064  -3.184  1.00  0.00     0.000 A 
ENDBRANCH  61  80
BRANCH  73  86
ATOM     86  C   UNL     1      -0.379  -2.207   5.788  1.00  0.00    -0.014 A 
ATOM     87  C   UNL     1      -1.516  -1.436   6.079  1.00  0.00     0.009 A 
ATOM     88  C   UNL     1       0.777  -2.017   6.563  1.00  0.00     0.009 A 
ATOM     89  C   UNL     1      -1.482  -0.470   7.088  1.00  0.00     0.001 A 
ATOM     90  C   UNL     1       0.797  -1.079   7.598  1.00  0.00     0.001 A 
ATOM     91  C   UNL     1      -0.329  -0.298   7.851  1.00  0.00     0.000 A 
ENDBRANCH  73  86
ENDBRANCH  47  48
ENDBRANCH  40  42
ENDBRANCH  39  40
ENDBRANCH  38  39
ENDBRANCH  37  38
ENDBRANCH  36  37
ENDBRANCH  35  36
ENDBRANCH   1  35
TORSDOF 21
