REMARK SMILES C=CCN(CC(=O)OCCOCCOCCOC(=O)c1ccc(-c2c3nc(c(-c4ccccc4)c4ccc([nH]4)c(-c4ccccc4)c4nc(c(-c5ccccc5)c5ccc2[nH]5)C=C4)C=C3)cc1)C(=O)c1cn(C2C[NH2+]C2)nn1
REMARK SMILES IDX 12 1 11 2 10 3 9 4 8 5 6 6 7 7 5 8 4 9 3 10 2 11 1 12 68 13
REMARK SMILES IDX 69 14 70 15 71 16 78 17 72 18 77 19 73 20 74 21 76 22 75 23
REMARK SMILES IDX 13 26 14 27 15 28 16 29 17 30 18 31 19 32 20 33 21 34 67 35
REMARK SMILES IDX 22 36 66 37 23 38 24 39 25 40 60 41 26 42 65 43 59 44 61 45
REMARK SMILES IDX 27 46 64 47 58 48 57 49 28 51 50 52 35 53 49 54 36 55 39 56
REMARK SMILES IDX 48 57 62 58 37 59 38 60 47 62 63 63 40 64 29 65 30 66 34 67
REMARK SMILES IDX 31 68 33 69 32 70 51 71 52 72 56 73 53 74 55 75 54 76 41 77
REMARK SMILES IDX 42 78 46 79 43 80 45 81 44 82
REMARK H PARENT 75 24 75 25 61 50 39 61
REMARK Flexibility Score: inf
ROOT
ATOM      1  C   UNL     1      -5.386  -1.503  -3.126  1.00  0.00     0.188 C 
ENDROOT
BRANCH   1   2
ATOM      2  O   UNL     1      -6.684  -1.349  -2.566  1.00  0.00    -0.376 OA
BRANCH   2   3
ATOM      3  C   UNL     1      -6.732  -1.048  -1.174  1.00  0.00     0.202 C 
BRANCH   3   4
ATOM      4  C   UNL     1      -6.130  -2.120  -0.255  1.00  0.00     0.261 C 
BRANCH   4   5
ATOM      5  O   UNL     1      -4.688  -2.191  -0.356  1.00  0.00    -0.462 OA
BRANCH   5   6
ATOM      6  C   UNL     1      -4.163  -3.309   0.227  1.00  0.00     0.325 C 
ATOM      7  O   UNL     1      -4.825  -4.117   0.872  1.00  0.00    -0.250 OA
BRANCH   6   8
ATOM      8  C   UNL     1      -2.655  -3.485   0.011  1.00  0.00     0.242 C 
BRANCH   8   9
ATOM      9  N   UNL     1      -1.928  -2.451  -0.742  1.00  0.00    -0.322 N 
BRANCH   9  10
ATOM     10  C   UNL     1      -1.491  -1.287   0.017  1.00  0.00     0.147 C 
BRANCH  10  11
ATOM     11  C   UNL     1      -0.018  -1.386   0.281  1.00  0.00    -0.014 C 
ATOM     12  C   UNL     1       0.835  -0.364   0.122  1.00  0.00     0.006 C 
ENDBRANCH  10  11
ENDBRANCH   9  10
BRANCH   9  13
ATOM     13  C   UNL     1      -1.718  -2.442  -2.126  1.00  0.00     0.276 C 
ATOM     14  O   UNL     1      -1.142  -1.506  -2.682  1.00  0.00    -0.267 OA
BRANCH  13  15
ATOM     15  C   UNL     1      -2.315  -3.492  -2.948  1.00  0.00     0.170 A 
ATOM     16  C   UNL     1      -2.934  -3.283  -4.163  1.00  0.00     0.145 A 
ATOM     17  N   UNL     1      -2.392  -4.826  -2.654  1.00  0.00    -0.125 NA
ATOM     18  N   UNL     1      -3.486  -4.481  -4.486  1.00  0.00    -0.237 N 
ATOM     19  N   UNL     1      -3.105  -5.423  -3.602  1.00  0.00    -0.066 NA
BRANCH  18  20
ATOM     20  C   UNL     1      -4.372  -4.771  -5.572  1.00  0.00     0.218 C 
ATOM     21  C   UNL     1      -5.814  -4.918  -5.064  1.00  0.00     0.294 C 
ATOM     22  C   UNL     1      -4.909  -3.625  -6.435  1.00  0.00     0.294 C 
ATOM     23  N   UNL     1      -6.279  -4.133  -6.223  1.00  0.00    -0.342 N 
ATOM     24  H   UNL     1      -6.959  -3.409  -5.989  1.00  0.00     0.346 HD
ATOM     25  H   UNL     1      -6.782  -4.588  -6.984  1.00  0.00     0.346 HD
ENDBRANCH  18  20
ENDBRANCH  13  15
ENDBRANCH   9  13
ENDBRANCH   8   9
ENDBRANCH   6   8
ENDBRANCH   5   6
ENDBRANCH   4   5
ENDBRANCH   3   4
ENDBRANCH   2   3
ENDBRANCH   1   2
BRANCH   1  26
ATOM     26  C   UNL     1      -4.457  -0.288  -3.038  1.00  0.00     0.188 C 
BRANCH  26  27
ATOM     27  O   UNL     1      -4.882   0.706  -3.968  1.00  0.00    -0.376 OA
BRANCH  27  28
ATOM     28  C   UNL     1      -3.796   1.436  -4.551  1.00  0.00     0.202 C 
BRANCH  28  29
ATOM     29  C   UNL     1      -3.613   1.026  -6.016  1.00  0.00     0.261 C 
BRANCH  29  30
ATOM     30  O   UNL     1      -3.010  -0.275  -6.185  1.00  0.00    -0.460 OA
BRANCH  30  31
ATOM     31  C   UNL     1      -1.649  -0.307  -6.234  1.00  0.00     0.338 C 
ATOM     32  O   UNL     1      -0.895   0.611  -5.995  1.00  0.00    -0.246 OA
BRANCH  31  33
ATOM     33  C   UNL     1      -1.216  -1.680  -6.622  1.00  0.00     0.060 A 
ATOM     34  C   UNL     1      -0.162  -2.295  -5.938  1.00  0.00     0.016 A 
ATOM     35  C   UNL     1      -1.862  -2.372  -7.653  1.00  0.00     0.016 A 
ATOM     36  C   UNL     1       0.221  -3.610  -6.260  1.00  0.00     0.010 A 
ATOM     37  C   UNL     1      -1.470  -3.678  -7.984  1.00  0.00     0.010 A 
ATOM     38  C   UNL     1      -0.423  -4.311  -7.292  1.00  0.00    -0.014 A 
BRANCH  38  39
ATOM     39  C   UNL     1       0.053  -5.652  -7.741  1.00  0.00     0.031 A 
ATOM     40  C   UNL     1       1.175  -5.739  -8.729  1.00  0.00     0.074 A 
ATOM     41  C   UNL     1      -0.522  -6.796  -7.325  1.00  0.00     0.049 A 
ATOM     42  N   UNL     1       1.731  -6.805  -9.245  1.00  0.00    -0.248 NA
ATOM     43  C   UNL     1       1.757  -4.466  -9.178  1.00  0.00     0.031 C 
ATOM     44  C   UNL     1      -1.556  -6.876  -6.311  1.00  0.00     0.029 A 
ATOM     45  N   UNL     1      -0.335  -8.106  -7.698  1.00  0.00    -0.354 N 
ATOM     46  C   UNL     1       2.757  -6.337 -10.047  1.00  0.00     0.074 A 
ATOM     47  C   UNL     1       2.720  -4.889  -9.985  1.00  0.00     0.031 C 
ATOM     48  C   UNL     1      -1.976  -8.144  -6.183  1.00  0.00     0.029 A 
ATOM     49  C   UNL     1      -1.209  -8.983  -7.095  1.00  0.00     0.049 A 
ATOM     50  H   UNL     1       0.359  -8.390  -8.337  1.00  0.00     0.167 HD
ATOM     51  C   UNL     1       3.658  -7.047 -10.764  1.00  0.00     0.031 A 
ATOM     52  C   UNL     1      -1.373 -10.311  -7.250  1.00  0.00     0.031 A 
ATOM     53  C   UNL     1       3.664  -8.478 -10.890  1.00  0.00     0.049 A 
ATOM     54  C   UNL     1      -0.454 -11.061  -8.173  1.00  0.00     0.074 A 
ATOM     55  C   UNL     1       4.546  -9.275 -11.600  1.00  0.00     0.029 A 
ATOM     56  N   UNL     1       2.726  -9.326 -10.325  1.00  0.00    -0.354 N 
ATOM     57  N   UNL     1       0.565 -10.609  -8.861  1.00  0.00    -0.248 NA
ATOM     58  C   UNL     1      -0.692 -12.505  -8.325  1.00  0.00     0.031 C 
ATOM     59  C   UNL     1       4.102 -10.599 -11.518  1.00  0.00     0.029 A 
ATOM     60  C   UNL     1       2.974 -10.632 -10.716  1.00  0.00     0.049 A 
ATOM     61  H   UNL     1       1.992  -9.043  -9.733  1.00  0.00     0.167 HD
ATOM     62  C   UNL     1       1.105 -11.712  -9.507  1.00  0.00     0.074 A 
ATOM     63  C   UNL     1       0.310 -12.859  -9.119  1.00  0.00     0.031 C 
ATOM     64  C   UNL     1       2.168 -11.766 -10.344  1.00  0.00     0.031 A 
BRANCH  51  65
ATOM     65  C   UNL     1       4.694  -6.256 -11.502  1.00  0.00    -0.014 A 
ATOM     66  C   UNL     1       5.770  -5.668 -10.820  1.00  0.00     0.009 A 
ATOM     67  C   UNL     1       4.588  -6.094 -12.890  1.00  0.00     0.009 A 
ATOM     68  C   UNL     1       6.707  -4.903 -11.514  1.00  0.00     0.001 A 
ATOM     69  C   UNL     1       5.538  -5.345 -13.584  1.00  0.00     0.001 A 
ATOM     70  C   UNL     1       6.591  -4.743 -12.895  1.00  0.00     0.000 A 
ENDBRANCH  51  65
BRANCH  52  71
ATOM     71  C   UNL     1      -2.454 -11.034  -6.527  1.00  0.00    -0.014 A 
ATOM     72  C   UNL     1      -2.149 -11.930  -5.490  1.00  0.00     0.009 A 
ATOM     73  C   UNL     1      -3.795 -10.872  -6.909  1.00  0.00     0.009 A 
ATOM     74  C   UNL     1      -3.162 -12.671  -4.874  1.00  0.00     0.001 A 
ATOM     75  C   UNL     1      -4.807 -11.598  -6.276  1.00  0.00     0.001 A 
ATOM     76  C   UNL     1      -4.489 -12.505  -5.267  1.00  0.00     0.000 A 
ENDBRANCH  52  71
BRANCH  64  77
ATOM     77  C   UNL     1       2.534 -13.110 -10.904  1.00  0.00    -0.014 A 
ATOM     78  C   UNL     1       1.755 -13.708 -11.907  1.00  0.00     0.009 A 
ATOM     79  C   UNL     1       3.692 -13.764 -10.459  1.00  0.00     0.009 A 
ATOM     80  C   UNL     1       2.119 -14.947 -12.437  1.00  0.00     0.001 A 
ATOM     81  C   UNL     1       4.067 -14.991 -11.009  1.00  0.00     0.001 A 
ATOM     82  C   UNL     1       3.277 -15.584 -11.993  1.00  0.00     0.000 A 
ENDBRANCH  64  77
ENDBRANCH  38  39
ENDBRANCH  31  33
ENDBRANCH  30  31
ENDBRANCH  29  30
ENDBRANCH  28  29
ENDBRANCH  27  28
ENDBRANCH  26  27
ENDBRANCH   1  26
TORSDOF 23
