REMARK SMILES Cc1nn(C)c(=O)c(C(=O)N[C@H](C)CC(=O)OCCOCCOCCOC(=O)c2ccc(-c3c4nc(c(-c5ccccc5)c5ccc([nH]5)c(-c5ccccc5)c5nc(c(-c6ccccc6)c6ccc3[nH]6)C=C5)C=C4)cc2)c1C
REMARK SMILES IDX 21 1 20 2 19 3 18 4 17 5 15 6 16 7 14 8 12 9 13 10 11 11
REMARK SMILES IDX 9 12 10 13 8 15 1 16 2 17 3 18 77 19 4 20 78 21 5 22 6 23
REMARK SMILES IDX 7 24 22 25 23 26 24 27 25 28 26 29 27 30 28 31 29 32 30 33
REMARK SMILES IDX 76 34 31 35 75 36 32 37 33 38 34 39 69 40 35 41 74 42 68 43
REMARK SMILES IDX 70 44 36 45 73 46 67 47 66 48 37 50 59 51 44 52 58 53 45 54
REMARK SMILES IDX 48 55 57 56 71 57 46 58 47 59 56 61 72 62 49 63 38 64 39 65
REMARK SMILES IDX 43 66 40 67 42 68 41 69 60 70 61 71 65 72 62 73 64 74 63 75
REMARK SMILES IDX 50 76 51 77 55 78 52 79 54 80 53 81
REMARK H PARENT 11 14 70 49 48 60
REMARK Flexibility Score: inf
ROOT
ATOM      1  C   UNL     1      -2.958  -1.534   0.176  1.00  0.00     0.188 C 
ENDROOT
BRANCH   1   2
ATOM      2  O   UNL     1      -4.012  -2.324   0.677  1.00  0.00    -0.376 OA
BRANCH   2   3
ATOM      3  C   UNL     1      -4.801  -3.042  -0.257  1.00  0.00     0.202 C 
BRANCH   3   4
ATOM      4  C   UNL     1      -5.448  -2.304  -1.444  1.00  0.00     0.261 C 
BRANCH   4   5
ATOM      5  O   UNL     1      -4.561  -1.659  -2.398  1.00  0.00    -0.463 OA
BRANCH   5   6
ATOM      6  C   UNL     1      -4.884  -0.372  -2.707  1.00  0.00     0.307 C 
ATOM      7  O   UNL     1      -5.721   0.284  -2.093  1.00  0.00    -0.252 OA
BRANCH   6   8
ATOM      8  C   UNL     1      -4.204   0.213  -3.938  1.00  0.00     0.147 C 
BRANCH   8   9
ATOM      9  C   UNL     1      -2.741  -0.144  -4.212  1.00  0.00     0.090 C 
ATOM     10  C   UNL     1      -2.621  -1.397  -5.101  1.00  0.00     0.031 C 
BRANCH   9  11
ATOM     11  N   UNL     1      -1.930   0.976  -4.761  1.00  0.00    -0.349 N 
ATOM     12  C   UNL     1      -1.453   2.193  -4.333  1.00  0.00     0.257 C 
ATOM     13  O   UNL     1      -0.563   2.675  -5.037  1.00  0.00    -0.269 OA
ATOM     14  H   UNL     1      -1.659   0.796  -5.690  1.00  0.00     0.164 HD
BRANCH  12  15
ATOM     15  C   UNL     1      -1.953   2.945  -3.132  1.00  0.00     0.111 A 
ATOM     16  C   UNL     1      -3.720   2.433   0.101  1.00  0.00     0.069 C 
ATOM     17  C   UNL     1      -2.849   3.160  -0.897  1.00  0.00     0.062 A 
ATOM     18  N   UNL     1      -2.744   4.439  -0.810  1.00  0.00    -0.175 NA
ATOM     19  C   UNL     1      -2.172   2.365  -1.946  1.00  0.00    -0.010 A 
ATOM     20  N   UNL     1      -2.083   5.055  -1.836  1.00  0.00    -0.232 N 
ATOM     21  C   UNL     1      -1.724   1.033  -1.527  1.00  0.00     0.047 C 
ATOM     22  C   UNL     1      -1.707   6.434  -1.569  1.00  0.00     0.178 C 
ATOM     23  C   UNL     1      -1.869   4.458  -3.087  1.00  0.00     0.279 A 
ATOM     24  O   UNL     1      -1.548   5.110  -4.078  1.00  0.00    -0.267 OA
ENDBRANCH  12  15
ENDBRANCH   9  11
ENDBRANCH   8   9
ENDBRANCH   6   8
ENDBRANCH   5   6
ENDBRANCH   4   5
ENDBRANCH   3   4
ENDBRANCH   2   3
ENDBRANCH   1   2
BRANCH   1  25
ATOM     25  C   UNL     1      -1.938  -2.146  -0.809  1.00  0.00     0.188 C 
BRANCH  25  26
ATOM     26  O   UNL     1      -1.754  -3.544  -0.887  1.00  0.00    -0.376 OA
BRANCH  26  27
ATOM     27  C   UNL     1      -1.569  -4.268   0.316  1.00  0.00     0.202 C 
BRANCH  27  28
ATOM     28  C   UNL     1      -0.384  -3.883   1.208  1.00  0.00     0.261 C 
BRANCH  28  29
ATOM     29  O   UNL     1      -0.425  -2.526   1.698  1.00  0.00    -0.460 OA
BRANCH  29  30
ATOM     30  C   UNL     1       0.644  -1.754   1.381  1.00  0.00     0.338 C 
ATOM     31  O   UNL     1       1.606  -2.081   0.694  1.00  0.00    -0.246 OA
BRANCH  30  32
ATOM     32  C   UNL     1       0.438  -0.357   1.822  1.00  0.00     0.060 A 
ATOM     33  C   UNL     1       0.605   0.657   0.873  1.00  0.00     0.016 A 
ATOM     34  C   UNL     1       0.137  -0.021   3.144  1.00  0.00     0.016 A 
ATOM     35  C   UNL     1       0.407   1.998   1.222  1.00  0.00     0.010 A 
ATOM     36  C   UNL     1      -0.001   1.332   3.507  1.00  0.00     0.010 A 
ATOM     37  C   UNL     1       0.124   2.352   2.548  1.00  0.00    -0.014 A 
BRANCH  37  38
ATOM     38  C   UNL     1       0.143   3.792   2.932  1.00  0.00     0.031 A 
ATOM     39  C   UNL     1       1.473   4.462   3.135  1.00  0.00     0.074 A 
ATOM     40  C   UNL     1      -0.980   4.528   3.040  1.00  0.00     0.049 A 
ATOM     41  N   UNL     1       1.736   5.708   3.435  1.00  0.00    -0.248 NA
ATOM     42  C   UNL     1       2.664   3.611   2.984  1.00  0.00     0.031 C 
ATOM     43  C   UNL     1      -2.332   4.028   2.831  1.00  0.00     0.029 A 
ATOM     44  N   UNL     1      -1.161   5.864   3.322  1.00  0.00    -0.354 N 
ATOM     45  C   UNL     1       3.119   5.792   3.506  1.00  0.00     0.074 A 
ATOM     46  C   UNL     1       3.640   4.470   3.232  1.00  0.00     0.031 C 
ATOM     47  C   UNL     1      -3.201   5.051   2.922  1.00  0.00     0.029 A 
ATOM     48  C   UNL     1      -2.476   6.269   3.277  1.00  0.00     0.049 A 
ATOM     49  H   UNL     1      -0.418   6.473   3.536  1.00  0.00     0.167 HD
ATOM     50  C   UNL     1       3.890   6.867   3.786  1.00  0.00     0.031 A 
ATOM     51  C   UNL     1      -3.038   7.473   3.518  1.00  0.00     0.031 A 
ATOM     52  C   UNL     1       3.385   8.173   4.109  1.00  0.00     0.049 A 
ATOM     53  C   UNL     1      -2.163   8.627   3.940  1.00  0.00     0.074 A 
ATOM     54  C   UNL     1       4.100   9.310   4.440  1.00  0.00     0.029 A 
ATOM     55  N   UNL     1       2.043   8.514   4.157  1.00  0.00    -0.354 N 
ATOM     56  N   UNL     1      -0.855   8.692   4.006  1.00  0.00    -0.248 NA
ATOM     57  C   UNL     1      -2.842   9.869   4.347  1.00  0.00     0.031 C 
ATOM     58  C   UNL     1       3.190  10.323   4.752  1.00  0.00     0.029 A 
ATOM     59  C   UNL     1       1.909   9.836   4.547  1.00  0.00     0.049 A 
ATOM     60  H   UNL     1       1.297   7.908   3.946  1.00  0.00     0.167 HD
ATOM     61  C   UNL     1      -0.558   9.976   4.450  1.00  0.00     0.074 A 
ATOM     62  C   UNL     1      -1.818  10.668   4.614  1.00  0.00     0.031 C 
ATOM     63  C   UNL     1       0.654  10.524   4.708  1.00  0.00     0.031 A 
BRANCH  50  64
ATOM     64  C   UNL     1       5.376   6.659   3.802  1.00  0.00    -0.014 A 
ATOM     65  C   UNL     1       6.095   6.471   2.611  1.00  0.00     0.009 A 
ATOM     66  C   UNL     1       6.069   6.689   5.022  1.00  0.00     0.009 A 
ATOM     67  C   UNL     1       7.478   6.293   2.646  1.00  0.00     0.001 A 
ATOM     68  C   UNL     1       7.456   6.540   5.050  1.00  0.00     0.001 A 
ATOM     69  C   UNL     1       8.158   6.335   3.863  1.00  0.00     0.000 A 
ENDBRANCH  50  64
BRANCH  51  70
ATOM     70  C   UNL     1      -4.515   7.656   3.420  1.00  0.00    -0.014 A 
ATOM     71  C   UNL     1      -5.069   8.517   2.459  1.00  0.00     0.009 A 
ATOM     72  C   UNL     1      -5.381   6.999   4.311  1.00  0.00     0.009 A 
ATOM     73  C   UNL     1      -6.451   8.725   2.402  1.00  0.00     0.001 A 
ATOM     74  C   UNL     1      -6.764   7.182   4.229  1.00  0.00     0.001 A 
ATOM     75  C   UNL     1      -7.298   8.052   3.281  1.00  0.00     0.000 A 
ENDBRANCH  51  70
BRANCH  63  76
ATOM     76  C   UNL     1       0.704  11.948   5.189  1.00  0.00    -0.014 A 
ATOM     77  C   UNL     1       0.326  12.286   6.497  1.00  0.00     0.009 A 
ATOM     78  C   UNL     1       1.246  12.945   4.361  1.00  0.00     0.009 A 
ATOM     79  C   UNL     1       0.483  13.593   6.964  1.00  0.00     0.001 A 
ATOM     80  C   UNL     1       1.429  14.244   4.839  1.00  0.00     0.001 A 
ATOM     81  C   UNL     1       1.045  14.567   6.139  1.00  0.00     0.000 A 
ENDBRANCH  63  76
ENDBRANCH  37  38
ENDBRANCH  30  32
ENDBRANCH  29  30
ENDBRANCH  28  29
ENDBRANCH  27  28
ENDBRANCH  26  27
ENDBRANCH  25  26
ENDBRANCH   1  25
TORSDOF 20
