REMARK SMILES O=C(CCc1cccnc1)Nc1ccsc1C(=O)OCCOCCOCCOC(=O)c1ccc(-c2c3nc(c(-c4ccccc4)c4ccc([nH]4)c(-c4ccccc4)c4nc(c(-c5ccccc5)c5ccc2[nH]5)C=C4)C=C3)cc1
REMARK SMILES IDX 23 1 22 2 21 3 20 4 19 5 17 6 18 7 16 8 12 9 13 10 14 11
REMARK SMILES IDX 15 12 11 13 1 14 2 15 3 17 4 18 5 19 6 20 10 21 7 22 9 23
REMARK SMILES IDX 8 24 24 25 25 26 26 27 27 28 28 29 29 30 30 31 31 32 32 33
REMARK SMILES IDX 78 34 33 35 77 36 34 37 35 38 36 39 71 40 37 41 76 42 70 43
REMARK SMILES IDX 72 44 38 45 75 46 69 47 68 48 39 50 61 51 46 52 60 53 47 54
REMARK SMILES IDX 50 55 59 56 73 57 48 58 49 59 58 61 74 62 51 63 40 64 41 65
REMARK SMILES IDX 45 66 42 67 44 68 43 69 62 70 63 71 67 72 64 73 66 74 65 75
REMARK SMILES IDX 52 76 53 77 57 78 54 79 56 80 55 81
REMARK H PARENT 11 16 72 49 50 60
REMARK Flexibility Score: inf
ROOT
ATOM      1  C   UNL     1       3.180   4.540   3.027  1.00  0.00     0.188 C 
ENDROOT
BRANCH   1   2
ATOM      2  O   UNL     1       4.439   5.199   3.094  1.00  0.00    -0.376 OA
BRANCH   2   3
ATOM      3  C   UNL     1       5.582   4.520   2.580  1.00  0.00     0.202 C 
BRANCH   3   4
ATOM      4  C   UNL     1       5.874   3.145   3.185  1.00  0.00     0.261 C 
BRANCH   4   5
ATOM      5  O   UNL     1       4.861   2.186   2.826  1.00  0.00    -0.459 OA
BRANCH   5   6
ATOM      6  C   UNL     1       4.625   1.247   3.792  1.00  0.00     0.350 C 
ATOM      7  O   UNL     1       5.389   1.027   4.725  1.00  0.00    -0.245 OA
BRANCH   6   8
ATOM      8  C   UNL     1       3.290   0.699   3.638  1.00  0.00     0.136 A 
ATOM      9  C   UNL     1       2.546   0.335   2.520  1.00  0.00     0.066 A 
ATOM     10  C   UNL     1       1.222  -0.066   2.900  1.00  0.00     0.039 A 
ATOM     11  C   UNL     1       1.004  -0.010   4.256  1.00  0.00     0.068 A 
ATOM     12  S   UNL     1       2.389   0.502   5.094  1.00  0.00    -0.135 S 
BRANCH   9  13
ATOM     13  N   UNL     1       3.057   0.334   1.217  1.00  0.00    -0.325 N 
ATOM     14  O   UNL     1       1.089   0.007   0.030  1.00  0.00    -0.275 OA
ATOM     15  C   UNL     1       2.318   0.061   0.080  1.00  0.00     0.224 C 
ATOM     16  H   UNL     1       4.012   0.542   1.102  1.00  0.00     0.169 HD
BRANCH  15  17
ATOM     17  C   UNL     1       3.122  -0.302  -1.161  1.00  0.00     0.105 C 
BRANCH  17  18
ATOM     18  C   UNL     1       4.195   0.691  -1.595  1.00  0.00     0.047 C 
BRANCH  18  19
ATOM     19  C   UNL     1       5.490   0.689  -0.823  1.00  0.00    -0.029 A 
ATOM     20  C   UNL     1       6.241   1.866  -0.737  1.00  0.00     0.007 A 
ATOM     21  C   UNL     1       6.019  -0.442  -0.206  1.00  0.00     0.114 A 
ATOM     22  C   UNL     1       7.433   1.881  -0.020  1.00  0.00     0.020 A 
ATOM     23  N   UNL     1       7.153  -0.445   0.528  1.00  0.00    -0.264 NA
ATOM     24  C   UNL     1       7.836   0.715   0.604  1.00  0.00     0.111 A 
ENDBRANCH  18  19
ENDBRANCH  17  18
ENDBRANCH  15  17
ENDBRANCH   9  13
ENDBRANCH   6   8
ENDBRANCH   5   6
ENDBRANCH   4   5
ENDBRANCH   3   4
ENDBRANCH   2   3
ENDBRANCH   1   2
BRANCH   1  25
ATOM     25  C   UNL     1       2.684   4.033   1.659  1.00  0.00     0.188 C 
BRANCH  25  26
ATOM     26  O   UNL     1       3.506   4.380   0.550  1.00  0.00    -0.376 OA
BRANCH  26  27
ATOM     27  C   UNL     1       2.890   5.241  -0.404  1.00  0.00     0.202 C 
BRANCH  27  28
ATOM     28  C   UNL     1       2.936   6.716   0.009  1.00  0.00     0.261 C 
BRANCH  28  29
ATOM     29  O   UNL     1       2.212   7.009   1.214  1.00  0.00    -0.460 OA
BRANCH  29  30
ATOM     30  C   UNL     1       0.872   6.842   1.169  1.00  0.00     0.338 C 
ATOM     31  O   UNL     1       0.201   6.511   0.208  1.00  0.00    -0.246 OA
BRANCH  30  32
ATOM     32  C   UNL     1       0.360   6.949   2.549  1.00  0.00     0.060 A 
ATOM     33  C   UNL     1      -0.450   5.920   3.045  1.00  0.00     0.016 A 
ATOM     34  C   UNL     1       0.700   8.040   3.354  1.00  0.00     0.016 A 
ATOM     35  C   UNL     1      -0.941   5.994   4.349  1.00  0.00     0.010 A 
ATOM     36  C   UNL     1       0.190   8.123   4.650  1.00  0.00     0.010 A 
ATOM     37  C   UNL     1      -0.651   7.113   5.143  1.00  0.00    -0.014 A 
BRANCH  37  38
ATOM     38  C   UNL     1      -1.377   7.320   6.416  1.00  0.00     0.031 A 
ATOM     39  C   UNL     1      -2.687   8.057   6.376  1.00  0.00     0.074 A 
ATOM     40  C   UNL     1      -0.890   6.867   7.584  1.00  0.00     0.049 A 
ATOM     41  N   UNL     1      -3.505   8.347   7.354  1.00  0.00    -0.248 NA
ATOM     42  C   UNL     1      -3.134   8.525   5.053  1.00  0.00     0.031 C 
ATOM     43  C   UNL     1       0.354   6.120   7.756  1.00  0.00     0.029 A 
ATOM     44  N   UNL     1      -1.397   6.981   8.855  1.00  0.00    -0.354 N 
ATOM     45  C   UNL     1      -4.570   9.014   6.763  1.00  0.00     0.074 A 
ATOM     46  C   UNL     1      -4.280   9.116   5.350  1.00  0.00     0.031 C 
ATOM     47  C   UNL     1       0.518   5.846   9.064  1.00  0.00     0.029 A 
ATOM     48  C   UNL     1      -0.599   6.414   9.818  1.00  0.00     0.049 A 
ATOM     49  H   UNL     1      -2.251   7.426   9.057  1.00  0.00     0.167 HD
ATOM     50  C   UNL     1      -5.696   9.493   7.341  1.00  0.00     0.031 A 
ATOM     51  C   UNL     1      -0.753   6.370  11.155  1.00  0.00     0.031 A 
ATOM     52  C   UNL     1      -5.972   9.437   8.749  1.00  0.00     0.049 A 
ATOM     53  C   UNL     1      -1.970   6.994  11.785  1.00  0.00     0.074 A 
ATOM     54  C   UNL     1      -7.081   9.906   9.430  1.00  0.00     0.029 A 
ATOM     55  N   UNL     1      -5.120   8.891   9.694  1.00  0.00    -0.354 N 
ATOM     56  N   UNL     1      -2.990   7.584  11.211  1.00  0.00    -0.248 NA
ATOM     57  C   UNL     1      -2.057   6.938  13.253  1.00  0.00     0.031 C 
ATOM     58  C   UNL     1      -6.881   9.679  10.796  1.00  0.00     0.029 A 
ATOM     59  C   UNL     1      -5.668   9.030  10.957  1.00  0.00     0.049 A 
ATOM     60  H   UNL     1      -4.253   8.468   9.497  1.00  0.00     0.167 HD
ATOM     61  C   UNL     1      -3.852   7.940  12.242  1.00  0.00     0.074 A 
ATOM     62  C   UNL     1      -3.240   7.493  13.475  1.00  0.00     0.031 C 
ATOM     63  C   UNL     1      -5.047   8.575  12.173  1.00  0.00     0.031 A 
BRANCH  50  64
ATOM     64  C   UNL     1      -6.700  10.141   6.437  1.00  0.00    -0.014 A 
ATOM     65  C   UNL     1      -7.515   9.366   5.596  1.00  0.00     0.009 A 
ATOM     66  C   UNL     1      -6.843  11.536   6.432  1.00  0.00     0.009 A 
ATOM     67  C   UNL     1      -8.435   9.981   4.746  1.00  0.00     0.001 A 
ATOM     68  C   UNL     1      -7.778  12.146   5.595  1.00  0.00     0.001 A 
ATOM     69  C   UNL     1      -8.568  11.369   4.748  1.00  0.00     0.000 A 
ENDBRANCH  50  64
BRANCH  51  70
ATOM     70  C   UNL     1       0.273   5.716  12.008  1.00  0.00    -0.014 A 
ATOM     71  C   UNL     1      -0.004   4.500  12.650  1.00  0.00     0.009 A 
ATOM     72  C   UNL     1       1.515   6.332  12.223  1.00  0.00     0.009 A 
ATOM     73  C   UNL     1       0.932   3.928  13.514  1.00  0.00     0.001 A 
ATOM     74  C   UNL     1       2.458   5.745  13.070  1.00  0.00     0.001 A 
ATOM     75  C   UNL     1       2.162   4.550  13.722  1.00  0.00     0.000 A 
ENDBRANCH  51  70
BRANCH  63  76
ATOM     76  C   UNL     1      -5.788   8.791  13.461  1.00  0.00    -0.014 A 
ATOM     77  C   UNL     1      -5.388   9.778  14.374  1.00  0.00     0.009 A 
ATOM     78  C   UNL     1      -6.931   8.025  13.740  1.00  0.00     0.009 A 
ATOM     79  C   UNL     1      -6.103   9.974  15.557  1.00  0.00     0.001 A 
ATOM     80  C   UNL     1      -7.656   8.239  14.912  1.00  0.00     0.001 A 
ATOM     81  C   UNL     1      -7.238   9.207  15.823  1.00  0.00     0.000 A 
ENDBRANCH  63  76
ENDBRANCH  37  38
ENDBRANCH  30  32
ENDBRANCH  29  30
ENDBRANCH  28  29
ENDBRANCH  27  28
ENDBRANCH  26  27
ENDBRANCH  25  26
ENDBRANCH   1  25
TORSDOF 21
