REMARK SMILES CC(=O)Nc1cccc(NS(=O)(=O)c2cccc(C(=O)OCCOCCOCCOC(=O)c3ccc(-c4c5nc(c(-c6ccccc6)c6ccc([nH]6)c(-c6ccccc6)c6nc(c(-c7ccccc7)c7ccc4[nH]7)C=C6)C=C5)cc3)c2)c1
REMARK SMILES IDX 25 1 24 2 23 3 22 4 21 5 19 6 20 7 18 8 14 9 15 10 81 11
REMARK SMILES IDX 16 12 17 13 11 14 12 15 13 16 10 17 9 19 5 20 6 21 82 22
REMARK SMILES IDX 7 23 8 24 4 25 1 26 2 27 3 28 26 30 27 31 28 32 29 33 30 34
REMARK SMILES IDX 31 35 32 36 33 37 34 38 80 39 35 40 79 41 36 42 37 43 38 44
REMARK SMILES IDX 73 45 39 46 78 47 72 48 74 49 40 50 77 51 71 52 70 53 41 55
REMARK SMILES IDX 63 56 48 57 62 58 49 59 52 60 61 61 75 62 50 63 51 64 60 66
REMARK SMILES IDX 76 67 53 68 42 69 43 70 47 71 44 72 46 73 45 74 64 75 65 76
REMARK SMILES IDX 69 77 66 78 68 79 67 80 54 81 55 82 59 83 56 84 58 85 57 86
REMARK H PARENT 10 18 4 29 74 54 52 65
REMARK Flexibility Score: inf
ROOT
ATOM      1  C   UNL     1       3.177   8.140   5.377  1.00  0.00     0.188 C 
ENDROOT
BRANCH   1   2
ATOM      2  O   UNL     1       1.850   8.198   5.874  1.00  0.00    -0.376 OA
BRANCH   2   3
ATOM      3  C   UNL     1       0.959   7.117   5.627  1.00  0.00     0.202 C 
BRANCH   3   4
ATOM      4  C   UNL     1       0.768   6.622   4.190  1.00  0.00     0.261 C 
BRANCH   4   5
ATOM      5  O   UNL     1       1.990   6.136   3.617  1.00  0.00    -0.460 OA
BRANCH   5   6
ATOM      6  C   UNL     1       2.365   6.726   2.459  1.00  0.00     0.338 C 
ATOM      7  O   UNL     1       1.726   7.518   1.787  1.00  0.00    -0.246 OA
BRANCH   6   8
ATOM      8  C   UNL     1       3.781   6.411   2.185  1.00  0.00     0.061 A 
ATOM      9  C   UNL     1       5.562   4.844   1.835  1.00  0.00     0.088 A 
ATOM     10  C   UNL     1       6.423   5.881   1.448  1.00  0.00     0.022 A 
ATOM     11  C   UNL     1       4.269   5.110   2.298  1.00  0.00     0.038 A 
ATOM     12  C   UNL     1       5.949   7.192   1.424  1.00  0.00     0.002 A 
ATOM     13  C   UNL     1       4.618   7.451   1.753  1.00  0.00     0.016 A 
BRANCH   9  14
ATOM     14  S   UNL     1       6.049   3.158   1.600  1.00  0.00     0.261 S 
ATOM     15  O   UNL     1       5.507   2.392   2.702  1.00  0.00    -0.201 OA
ATOM     16  O   UNL     1       7.469   3.134   1.318  1.00  0.00    -0.201 OA
BRANCH  14  17
ATOM     17  N   UNL     1       5.269   2.584   0.185  1.00  0.00    -0.280 N 
ATOM     18  H   UNL     1       5.713   1.897  -0.363  1.00  0.00     0.180 HD
BRANCH  17  19
ATOM     19  C   UNL     1       3.977   3.083  -0.221  1.00  0.00     0.051 A 
ATOM     20  C   UNL     1       1.672   2.654  -0.882  1.00  0.00     0.043 A 
ATOM     21  C   UNL     1       1.515   4.019  -1.156  1.00  0.00     0.026 A 
ATOM     22  C   UNL     1       2.898   2.198  -0.378  1.00  0.00     0.052 A 
ATOM     23  C   UNL     1       2.586   4.895  -1.030  1.00  0.00     0.004 A 
ATOM     24  C   UNL     1       3.829   4.407  -0.637  1.00  0.00     0.027 A 
BRANCH  20  25
ATOM     25  N   UNL     1       0.599   1.833  -1.272  1.00  0.00    -0.326 N 
ATOM     26  C   UNL     1       0.929  -0.246   0.054  1.00  0.00     0.114 C 
ATOM     27  C   UNL     1       0.292   0.524  -1.063  1.00  0.00     0.221 C 
ATOM     28  O   UNL     1      -0.564   0.000  -1.780  1.00  0.00    -0.275 OA
ATOM     29  H   UNL     1      -0.076   2.308  -1.810  1.00  0.00     0.169 HD
ENDBRANCH  20  25
ENDBRANCH  17  19
ENDBRANCH  14  17
ENDBRANCH   9  14
ENDBRANCH   6   8
ENDBRANCH   5   6
ENDBRANCH   4   5
ENDBRANCH   3   4
ENDBRANCH   2   3
ENDBRANCH   1   2
BRANCH   1  30
ATOM     30  C   UNL     1       4.074   6.923   5.685  1.00  0.00     0.188 C 
BRANCH  30  31
ATOM     31  O   UNL     1       3.542   5.856   6.426  1.00  0.00    -0.376 OA
BRANCH  31  32
ATOM     32  C   UNL     1       3.401   5.928   7.833  1.00  0.00     0.202 C 
BRANCH  32  33
ATOM     33  C   UNL     1       3.978   7.024   8.748  1.00  0.00     0.261 C 
BRANCH  33  34
ATOM     34  O   UNL     1       4.386   8.254   8.149  1.00  0.00    -0.460 OA
BRANCH  34  35
ATOM     35  C   UNL     1       5.726   8.429   8.050  1.00  0.00     0.338 C 
ATOM     36  O   UNL     1       6.606   7.648   8.371  1.00  0.00    -0.246 OA
BRANCH  35  37
ATOM     37  C   UNL     1       5.983   9.679   7.317  1.00  0.00     0.060 A 
ATOM     38  C   UNL     1       6.649   9.613   6.085  1.00  0.00     0.016 A 
ATOM     39  C   UNL     1       5.612  10.906   7.865  1.00  0.00     0.016 A 
ATOM     40  C   UNL     1       6.977  10.787   5.409  1.00  0.00     0.010 A 
ATOM     41  C   UNL     1       5.961  12.081   7.199  1.00  0.00     0.010 A 
ATOM     42  C   UNL     1       6.674  12.027   5.987  1.00  0.00    -0.014 A 
BRANCH  42  43
ATOM     43  C   UNL     1       7.278  13.267   5.451  1.00  0.00     0.031 A 
ATOM     44  C   UNL     1       8.553  13.761   6.077  1.00  0.00     0.074 A 
ATOM     45  C   UNL     1       6.701  13.957   4.453  1.00  0.00     0.049 A 
ATOM     46  N   UNL     1       9.203  14.876   5.867  1.00  0.00    -0.248 NA
ATOM     47  C   UNL     1       9.172  12.878   7.080  1.00  0.00     0.031 C 
ATOM     48  C   UNL     1       5.496  13.558   3.729  1.00  0.00     0.029 A 
ATOM     49  N   UNL     1       7.053  15.159   3.892  1.00  0.00    -0.354 N 
ATOM     50  C   UNL     1      10.297  14.836   6.723  1.00  0.00     0.074 A 
ATOM     51  C   UNL     1      10.214  13.598   7.465  1.00  0.00     0.031 C 
ATOM     52  C   UNL     1       5.197  14.512   2.829  1.00  0.00     0.029 A 
ATOM     53  C   UNL     1       6.165  15.602   2.944  1.00  0.00     0.049 A 
ATOM     54  H   UNL     1       7.865  15.655   4.144  1.00  0.00     0.167 HD
ATOM     55  C   UNL     1      11.283  15.750   6.880  1.00  0.00     0.031 A 
ATOM     56  C   UNL     1       6.122  16.770   2.273  1.00  0.00     0.031 A 
ATOM     57  C   UNL     1      11.354  16.992   6.161  1.00  0.00     0.049 A 
ATOM     58  C   UNL     1       7.181  17.811   2.529  1.00  0.00     0.074 A 
ATOM     59  C   UNL     1      12.314  17.985   6.247  1.00  0.00     0.029 A 
ATOM     60  N   UNL     1      10.421  17.415   5.228  1.00  0.00    -0.354 N 
ATOM     61  N   UNL     1       8.218  17.760   3.329  1.00  0.00    -0.248 NA
ATOM     62  C   UNL     1       7.060  19.074   1.784  1.00  0.00     0.031 C 
ATOM     63  C   UNL     1      11.933  19.032   5.402  1.00  0.00     0.029 A 
ATOM     64  C   UNL     1      10.769  18.664   4.747  1.00  0.00     0.049 A 
ATOM     65  H   UNL     1       9.628  16.902   4.949  1.00  0.00     0.167 HD
ATOM     66  C   UNL     1       8.891  18.965   3.158  1.00  0.00     0.074 A 
ATOM     67  C   UNL     1       8.148  19.724   2.174  1.00  0.00     0.031 C 
ATOM     68  C   UNL     1      10.025  19.401   3.759  1.00  0.00     0.031 A 
BRANCH  55  69
ATOM     69  C   UNL     1      12.337  15.452   7.907  1.00  0.00    -0.014 A 
ATOM     70  C   UNL     1      13.302  14.454   7.694  1.00  0.00     0.009 A 
ATOM     71  C   UNL     1      12.373  16.190   9.100  1.00  0.00     0.009 A 
ATOM     72  C   UNL     1      14.260  14.179   8.671  1.00  0.00     0.001 A 
ATOM     73  C   UNL     1      13.348  15.931  10.063  1.00  0.00     0.001 A 
ATOM     74  C   UNL     1      14.285  14.919   9.853  1.00  0.00     0.000 A 
ENDBRANCH  55  69
BRANCH  56  75
ATOM     75  C   UNL     1       5.023  17.038   1.310  1.00  0.00    -0.014 A 
ATOM     76  C   UNL     1       5.281  17.105  -0.068  1.00  0.00     0.009 A 
ATOM     77  C   UNL     1       3.713  17.258   1.766  1.00  0.00     0.009 A 
ATOM     78  C   UNL     1       4.256  17.412  -0.966  1.00  0.00     0.001 A 
ATOM     79  C   UNL     1       2.685  17.537   0.863  1.00  0.00     0.001 A 
ATOM     80  C   UNL     1       2.959  17.623  -0.501  1.00  0.00     0.000 A 
ENDBRANCH  56  75
BRANCH  68  81
ATOM     81  C   UNL     1      10.567  20.737   3.332  1.00  0.00    -0.014 A 
ATOM     82  C   UNL     1       9.952  21.936   3.720  1.00  0.00     0.009 A 
ATOM     83  C   UNL     1      11.749  20.791   2.576  1.00  0.00     0.009 A 
ATOM     84  C   UNL     1      10.496  23.164   3.335  1.00  0.00     0.001 A 
ATOM     85  C   UNL     1      12.305  22.019   2.216  1.00  0.00     0.001 A 
ATOM     86  C   UNL     1      11.674  23.204   2.588  1.00  0.00     0.000 A 
ENDBRANCH  68  81
ENDBRANCH  42  43
ENDBRANCH  35  37
ENDBRANCH  34  35
ENDBRANCH  33  34
ENDBRANCH  32  33
ENDBRANCH  31  32
ENDBRANCH  30  31
ENDBRANCH   1  30
TORSDOF 21
