REMARK SMILES COc1cc(/C=N/[NH+]=C2\NC(=O)[C@@H](CC(=O)OCCOCCOCCOC(=O)c3ccc(-c4c5nc(c(-c6ccccc6)c6ccc([nH]6)c(-c6ccccc6)c6nc(c(-c7ccccc7)c7ccc4[nH]7)C=C6)C=C5)cc3)S2)cc(I)c1OC
REMARK SMILES IDX 21 1 20 2 19 3 18 4 17 5 15 6 16 7 14 8 13 9 8 10 9 11 10 13
REMARK SMILES IDX 77 14 11 15 12 17 7 18 6 19 5 20 3 21 4 22 81 23 79 24 78 25
REMARK SMILES IDX 80 26 2 27 1 28 82 29 83 30 22 31 23 32 24 33 25 34 26 35
REMARK SMILES IDX 27 36 28 37 29 38 30 39 76 40 31 41 75 42 32 43 33 44 34 45
REMARK SMILES IDX 69 46 35 47 74 48 68 49 70 50 36 51 73 52 67 53 66 54 37 56
REMARK SMILES IDX 59 57 44 58 58 59 45 60 48 61 57 62 71 63 46 64 47 65 56 67
REMARK SMILES IDX 72 68 49 69 38 70 39 71 43 72 40 73 42 74 41 75 60 76 61 77
REMARK SMILES IDX 65 78 62 79 64 80 63 81 50 82 51 83 55 84 52 85 54 86 53 87
REMARK H PARENT 8 12 10 16 70 55 48 66
REMARK Flexibility Score: inf
ROOT
ATOM      1  C   UNL     1       6.564  -9.536   2.994  1.00  0.00     0.188 C 
ENDROOT
BRANCH   1   2
ATOM      2  O   UNL     1       7.611 -10.477   2.771  1.00  0.00    -0.376 OA
BRANCH   2   3
ATOM      3  C   UNL     1       8.744 -10.432   3.622  1.00  0.00     0.202 C 
BRANCH   3   4
ATOM      4  C   UNL     1       9.749  -9.314   3.328  1.00  0.00     0.261 C 
BRANCH   4   5
ATOM      5  O   UNL     1       9.198  -7.975   3.350  1.00  0.00    -0.463 OA
BRANCH   5   6
ATOM      6  C   UNL     1       9.196  -7.326   2.159  1.00  0.00     0.307 C 
ATOM      7  O   UNL     1       9.561  -7.825   1.099  1.00  0.00    -0.252 OA
BRANCH   6   8
ATOM      8  C   UNL     1       8.798  -5.864   2.214  1.00  0.00     0.150 C 
BRANCH   8   9
ATOM      9  C   UNL     1       8.095  -5.344   3.464  1.00  0.00     0.184 C 
ATOM     10  N   UNL     1       6.383  -1.849   3.350  1.00  0.00    -0.142 N 
ATOM     11  C   UNL     1       6.826  -3.061   3.321  1.00  0.00     0.337 C 
ATOM     12  H   UNL     1       6.930  -1.084   3.640  1.00  0.00     0.343 HD
ATOM     13  N   UNL     1       6.069  -4.135   3.019  1.00  0.00    -0.202 N 
ATOM     14  S   UNL     1       8.441  -3.544   3.732  1.00  0.00    -0.020 SA
ATOM     15  C   UNL     1       6.602  -5.366   3.206  1.00  0.00     0.322 C 
ATOM     16  H   UNL     1       5.154  -4.027   2.674  1.00  0.00     0.316 HD
ATOM     17  O   UNL     1       5.935  -6.387   3.134  1.00  0.00    -0.246 OA
BRANCH  10  18
ATOM     18  N   UNL     1       5.040  -1.722   2.928  1.00  0.00    -0.093 NA
ATOM     19  C   UNL     1       4.209  -1.639   3.922  1.00  0.00     0.166 C 
BRANCH  19  20
ATOM     20  C   UNL     1       2.760  -1.467   3.704  1.00  0.00     0.002 A 
ATOM     21  C   UNL     1       0.902  -0.596   2.441  1.00  0.00     0.162 A 
ATOM     22  C   UNL     1       2.283  -0.734   2.622  1.00  0.00     0.060 A 
ATOM     23  C   UNL     1      -0.026  -1.195   3.325  1.00  0.00     0.174 A 
ATOM     24  C   UNL     1       0.475  -1.945   4.402  1.00  0.00     0.060 A 
ATOM     25  C   UNL     1       1.866  -2.055   4.601  1.00  0.00     0.028 A 
ATOM     26  I   UNL     1      -0.674  -3.088   5.747  1.00  0.00    -0.040 I 
BRANCH  21  27
ATOM     27  O   UNL     1       0.409   0.222   1.448  1.00  0.00    -0.493 OA
ATOM     28  C   UNL     1       0.840  -0.159   0.144  1.00  0.00     0.278 C 
ENDBRANCH  21  27
BRANCH  23  29
ATOM     29  O   UNL     1      -1.332  -1.089   2.921  1.00  0.00    -0.492 OA
ATOM     30  C   UNL     1      -2.331  -0.800   3.887  1.00  0.00     0.278 C 
ENDBRANCH  23  29
ENDBRANCH  19  20
ENDBRANCH  10  18
ENDBRANCH   8   9
ENDBRANCH   6   8
ENDBRANCH   5   6
ENDBRANCH   4   5
ENDBRANCH   3   4
ENDBRANCH   2   3
ENDBRANCH   1   2
BRANCH   1  31
ATOM     31  C   UNL     1       6.400  -8.923   4.391  1.00  0.00     0.188 C 
BRANCH  31  32
ATOM     32  O   UNL     1       6.354  -9.915   5.414  1.00  0.00    -0.376 OA
BRANCH  32  33
ATOM     33  C   UNL     1       5.396  -9.612   6.426  1.00  0.00     0.202 C 
BRANCH  33  34
ATOM     34  C   UNL     1       4.108 -10.388   6.142  1.00  0.00     0.261 C 
BRANCH  34  35
ATOM     35  O   UNL     1       3.534 -10.107   4.848  1.00  0.00    -0.460 OA
BRANCH  35  36
ATOM     36  C   UNL     1       2.973  -8.892   4.690  1.00  0.00     0.338 C 
ATOM     37  O   UNL     1       2.888  -8.005   5.537  1.00  0.00    -0.246 OA
BRANCH  36  38
ATOM     38  C   UNL     1       2.586  -8.719   3.278  1.00  0.00     0.060 A 
ATOM     39  C   UNL     1       3.025  -7.579   2.596  1.00  0.00     0.016 A 
ATOM     40  C   UNL     1       1.759  -9.642   2.635  1.00  0.00     0.016 A 
ATOM     41  C   UNL     1       2.640  -7.350   1.275  1.00  0.00     0.010 A 
ATOM     42  C   UNL     1       1.346  -9.398   1.321  1.00  0.00     0.010 A 
ATOM     43  C   UNL     1       1.765  -8.239   0.641  1.00  0.00    -0.014 A 
BRANCH  43  44
ATOM     44  C   UNL     1       1.144  -7.875  -0.656  1.00  0.00     0.031 A 
ATOM     45  C   UNL     1      -0.245  -7.300  -0.650  1.00  0.00     0.074 A 
ATOM     46  C   UNL     1       1.798  -8.036  -1.820  1.00  0.00     0.049 A 
ATOM     47  N   UNL     1      -1.030  -7.012  -1.657  1.00  0.00    -0.248 NA
ATOM     48  C   UNL     1      -0.825  -7.010   0.671  1.00  0.00     0.031 C 
ATOM     49  C   UNL     1       3.172  -8.510  -1.966  1.00  0.00     0.029 A 
ATOM     50  N   UNL     1       1.376  -7.819  -3.110  1.00  0.00    -0.354 N 
ATOM     51  C   UNL     1      -2.204  -6.530  -1.090  1.00  0.00     0.074 A 
ATOM     52  C   UNL     1      -2.032  -6.573   0.346  1.00  0.00     0.031 C 
ATOM     53  C   UNL     1       3.477  -8.560  -3.276  1.00  0.00     0.029 A 
ATOM     54  C   UNL     1       2.307  -8.165  -4.058  1.00  0.00     0.049 A 
ATOM     55  H   UNL     1       0.490  -7.450  -3.333  1.00  0.00     0.167 HD
ATOM     56  C   UNL     1      -3.326  -6.093  -1.708  1.00  0.00     0.031 A 
ATOM     57  C   UNL     1       2.213  -8.193  -5.402  1.00  0.00     0.031 A 
ATOM     58  C   UNL     1      -3.505  -6.056  -3.134  1.00  0.00     0.049 A 
ATOM     59  C   UNL     1       0.922  -7.790  -6.066  1.00  0.00     0.074 A 
ATOM     60  C   UNL     1      -4.609  -5.633  -3.854  1.00  0.00     0.029 A 
ATOM     61  N   UNL     1      -2.554  -6.460  -4.058  1.00  0.00    -0.354 N 
ATOM     62  N   UNL     1      -0.187  -7.350  -5.522  1.00  0.00    -0.248 NA
ATOM     63  C   UNL     1       0.871  -7.893  -7.532  1.00  0.00     0.031 C 
ATOM     64  C   UNL     1      -4.343  -5.827  -5.214  1.00  0.00     0.029 A 
ATOM     65  C   UNL     1      -3.054  -6.318  -5.341  1.00  0.00     0.049 A 
ATOM     66  H   UNL     1      -1.657  -6.797  -3.834  1.00  0.00     0.167 HD
ATOM     67  C   UNL     1      -1.056  -7.100  -6.578  1.00  0.00     0.074 A 
ATOM     68  C   UNL     1      -0.342  -7.425  -7.795  1.00  0.00     0.031 C 
ATOM     69  C   UNL     1      -2.331  -6.642  -6.543  1.00  0.00     0.031 A 
BRANCH  56  70
ATOM     70  C   UNL     1      -4.469  -5.665  -0.833  1.00  0.00    -0.014 A 
ATOM     71  C   UNL     1      -4.429  -4.461  -0.114  1.00  0.00     0.009 A 
ATOM     72  C   UNL     1      -5.611  -6.477  -0.741  1.00  0.00     0.009 A 
ATOM     73  C   UNL     1      -5.499  -4.093   0.705  1.00  0.00     0.001 A 
ATOM     74  C   UNL     1      -6.689  -6.094   0.058  1.00  0.00     0.001 A 
ATOM     75  C   UNL     1      -6.629  -4.908   0.787  1.00  0.00     0.000 A 
ENDBRANCH  56  70
BRANCH  57  76
ATOM     76  C   UNL     1       3.362  -8.658  -6.222  1.00  0.00    -0.014 A 
ATOM     77  C   UNL     1       4.070  -7.760  -7.037  1.00  0.00     0.009 A 
ATOM     78  C   UNL     1       3.738 -10.010  -6.218  1.00  0.00     0.009 A 
ATOM     79  C   UNL     1       5.115  -8.213  -7.846  1.00  0.00     0.001 A 
ATOM     80  C   UNL     1       4.801 -10.454  -7.006  1.00  0.00     0.001 A 
ATOM     81  C   UNL     1       5.483  -9.557  -7.826  1.00  0.00     0.000 A 
ENDBRANCH  57  76
BRANCH  69  82
ATOM     82  C   UNL     1      -3.024  -6.425  -7.859  1.00  0.00    -0.014 A 
ATOM     83  C   UNL     1      -3.479  -7.504  -8.631  1.00  0.00     0.009 A 
ATOM     84  C   UNL     1      -3.265  -5.117  -8.308  1.00  0.00     0.009 A 
ATOM     85  C   UNL     1      -4.136  -7.277  -9.843  1.00  0.00     0.001 A 
ATOM     86  C   UNL     1      -3.944  -4.892  -9.506  1.00  0.00     0.001 A 
ATOM     87  C   UNL     1      -4.371  -5.972 -10.277  1.00  0.00     0.000 A 
ENDBRANCH  69  82
ENDBRANCH  43  44
ENDBRANCH  36  38
ENDBRANCH  35  36
ENDBRANCH  34  35
ENDBRANCH  33  34
ENDBRANCH  32  33
ENDBRANCH  31  32
ENDBRANCH   1  31
TORSDOF 22
