REMARK SMILES Cc1nc(-c2ccccc2Cl)nc2sc(C(=O)OCCOCCOCCOC(=O)c3ccc(-c4c5nc(c(-c6ccccc6)c6ccc([nH]6)c(-c6ccccc6)c6nc(c(-c7ccccc7)c7ccc4[nH]7)C=C6)C=C5)cc3)c(N)c12
REMARK SMILES IDX 23 1 22 2 21 3 20 4 19 5 18 6 16 7 17 8 15 9 1 10 2 11 3 12
REMARK SMILES IDX 80 13 4 14 13 15 78 16 12 17 14 18 5 19 6 20 10 21 7 22 9 23
REMARK SMILES IDX 11 24 8 25 79 26 24 29 25 30 26 31 27 32 28 33 29 34 30 35
REMARK SMILES IDX 31 36 77 37 32 38 76 39 33 40 34 41 35 42 70 43 36 44 75 45
REMARK SMILES IDX 69 46 71 47 37 48 74 49 68 50 67 51 38 53 60 54 45 55 59 56
REMARK SMILES IDX 46 57 49 58 58 59 72 60 47 61 48 62 57 64 73 65 50 66 39 67
REMARK SMILES IDX 40 68 44 69 41 70 43 71 42 72 61 73 62 74 66 75 63 76 65 77
REMARK SMILES IDX 64 78 51 79 52 80 56 81 53 82 55 83 54 84
REMARK H PARENT 79 27 79 28 71 52 49 63
REMARK Flexibility Score: inf
ROOT
ATOM      1  C   UNL     1      -1.300   6.084  -2.530  1.00  0.00     0.188 C 
ENDROOT
BRANCH   1   2
ATOM      2  C   UNL     1      -0.375   6.702  -1.457  1.00  0.00     0.188 C 
BRANCH   2   3
ATOM      3  O   UNL     1       0.279   7.950  -1.650  1.00  0.00    -0.376 OA
BRANCH   3   4
ATOM      4  C   UNL     1       0.713   8.338  -2.945  1.00  0.00     0.202 C 
BRANCH   4   5
ATOM      5  C   UNL     1       1.741   7.461  -3.676  1.00  0.00     0.261 C 
BRANCH   5   6
ATOM      6  O   UNL     1       1.411   6.068  -3.757  1.00  0.00    -0.459 OA
BRANCH   6   7
ATOM      7  C   UNL     1       2.078   5.230  -2.908  1.00  0.00     0.350 C 
ATOM      8  O   UNL     1       2.949   5.592  -2.125  1.00  0.00    -0.245 OA
BRANCH   7   9
ATOM      9  C   UNL     1       1.507   3.894  -2.940  1.00  0.00     0.138 A 
ATOM     10  C   UNL     1       0.814   0.223  -0.195  1.00  0.00     0.067 C 
ATOM     11  C   UNL     1       0.481   0.532  -1.623  1.00  0.00     0.052 A 
ATOM     12  N   UNL     1      -0.094  -0.477  -2.340  1.00  0.00    -0.233 NA
ATOM     13  C   UNL     1       0.773   1.749  -2.276  1.00  0.00     0.057 A 
ATOM     14  C   UNL     1      -0.402  -0.284  -3.635  1.00  0.00     0.162 A 
ATOM     15  C   UNL     1       0.419   1.801  -3.614  1.00  0.00     0.130 A 
ATOM     16  C   UNL     1       1.385   2.996  -1.889  1.00  0.00     0.069 A 
ATOM     17  N   UNL     1      -0.175   0.837  -4.326  1.00  0.00    -0.217 NA
ATOM     18  S   UNL     1       0.851   3.252  -4.380  1.00  0.00    -0.106 S 
BRANCH  14  19
ATOM     19  C   UNL     1      -0.884  -1.419  -4.434  1.00  0.00     0.038 A 
ATOM     20  C   UNL     1      -0.291  -1.637  -5.702  1.00  0.00     0.013 A 
ATOM     21  C   UNL     1      -1.926  -2.281  -4.056  1.00  0.00     0.052 A 
ATOM     22  C   UNL     1      -0.723  -2.647  -6.560  1.00  0.00     0.001 A 
ATOM     23  C   UNL     1      -2.360  -3.300  -4.922  1.00  0.00     0.021 A 
ATOM     24  Cl  UNL     1      -2.782  -2.118  -2.561  1.00  0.00    -0.084 Cl
ATOM     25  C   UNL     1      -1.764  -3.478  -6.171  1.00  0.00     0.002 A 
ENDBRANCH  14  19
BRANCH  16  26
ATOM     26  N   UNL     1       1.790   3.295  -0.633  1.00  0.00    -0.397 N 
ATOM     27  H   UNL     1       2.201   4.170  -0.444  1.00  0.00     0.156 HD
ATOM     28  H   UNL     1       1.674   2.638   0.091  1.00  0.00     0.156 HD
ENDBRANCH  16  26
ENDBRANCH   7   9
ENDBRANCH   6   7
ENDBRANCH   5   6
ENDBRANCH   4   5
ENDBRANCH   3   4
ENDBRANCH   2   3
ENDBRANCH   1   2
BRANCH   1  29
ATOM     29  O   UNL     1      -1.461   6.848  -3.717  1.00  0.00    -0.376 OA
BRANCH  29  30
ATOM     30  C   UNL     1      -2.790   7.251  -4.028  1.00  0.00     0.202 C 
BRANCH  30  31
ATOM     31  C   UNL     1      -3.273   8.448  -3.211  1.00  0.00     0.261 C 
BRANCH  31  32
ATOM     32  O   UNL     1      -3.106   8.278  -1.808  1.00  0.00    -0.460 OA
BRANCH  32  33
ATOM     33  C   UNL     1      -3.867   7.320  -1.242  1.00  0.00     0.338 C 
ATOM     34  O   UNL     1      -4.622   6.545  -1.797  1.00  0.00    -0.246 OA
BRANCH  33  35
ATOM     35  C   UNL     1      -3.668   7.379   0.208  1.00  0.00     0.060 A 
ATOM     36  C   UNL     1      -4.085   6.281   0.967  1.00  0.00     0.016 A 
ATOM     37  C   UNL     1      -3.348   8.613   0.786  1.00  0.00     0.016 A 
ATOM     38  C   UNL     1      -4.424   6.493   2.285  1.00  0.00     0.010 A 
ATOM     39  C   UNL     1      -3.723   8.834   2.086  1.00  0.00     0.010 A 
ATOM     40  C   UNL     1      -4.350   7.798   2.778  1.00  0.00    -0.014 A 
BRANCH  40  41
ATOM     41  C   UNL     1      -5.146   8.129   3.940  1.00  0.00     0.031 A 
ATOM     42  C   UNL     1      -4.462   8.113   5.245  1.00  0.00     0.074 A 
ATOM     43  C   UNL     1      -6.389   8.620   3.767  1.00  0.00     0.049 A 
ATOM     44  N   UNL     1      -4.766   7.425   6.294  1.00  0.00    -0.248 NA
ATOM     45  C   UNL     1      -3.240   8.921   5.376  1.00  0.00     0.031 C 
ATOM     46  C   UNL     1      -7.019   9.029   2.504  1.00  0.00     0.029 A 
ATOM     47  N   UNL     1      -7.293   9.008   4.705  1.00  0.00    -0.354 N 
ATOM     48  C   UNL     1      -3.862   7.822   7.270  1.00  0.00     0.074 A 
ATOM     49  C   UNL     1      -2.856   8.616   6.612  1.00  0.00     0.031 C 
ATOM     50  C   UNL     1      -8.079   9.820   2.779  1.00  0.00     0.029 A 
ATOM     51  C   UNL     1      -8.260   9.876   4.220  1.00  0.00     0.049 A 
ATOM     52  H   UNL     1      -7.263   8.703   5.640  1.00  0.00     0.167 HD
ATOM     53  C   UNL     1      -4.108   7.679   8.598  1.00  0.00     0.031 A 
ATOM     54  C   UNL     1      -9.068  10.668   4.963  1.00  0.00     0.031 A 
ATOM     55  C   UNL     1      -5.178   6.763   8.873  1.00  0.00     0.049 A 
ATOM     56  C   UNL     1      -9.042  10.162   6.357  1.00  0.00     0.074 A 
ATOM     57  C   UNL     1      -5.402   5.428   8.605  1.00  0.00     0.029 A 
ATOM     58  N   UNL     1      -6.401   7.292   9.209  1.00  0.00    -0.354 N 
ATOM     59  N   UNL     1      -9.557   9.026   6.732  1.00  0.00    -0.248 NA
ATOM     60  C   UNL     1      -8.074  10.738   7.280  1.00  0.00     0.031 C 
ATOM     61  C   UNL     1      -6.798   5.330   8.342  1.00  0.00     0.029 A 
ATOM     62  C   UNL     1      -7.347   6.606   8.489  1.00  0.00     0.049 A 
ATOM     63  H   UNL     1      -6.568   8.024   9.845  1.00  0.00     0.167 HD
ATOM     64  C   UNL     1      -8.695   8.546   7.710  1.00  0.00     0.074 A 
ATOM     65  C   UNL     1      -7.873   9.691   8.085  1.00  0.00     0.031 C 
ATOM     66  C   UNL     1      -8.534   7.205   7.917  1.00  0.00     0.031 A 
BRANCH  53  67
ATOM     67  C   UNL     1      -3.581   8.648   9.616  1.00  0.00    -0.014 A 
ATOM     68  C   UNL     1      -3.613   8.312  10.976  1.00  0.00     0.009 A 
ATOM     69  C   UNL     1      -3.257   9.982   9.292  1.00  0.00     0.009 A 
ATOM     70  C   UNL     1      -3.336   9.268  11.961  1.00  0.00     0.001 A 
ATOM     71  C   UNL     1      -2.931  10.924  10.268  1.00  0.00     0.001 A 
ATOM     72  C   UNL     1      -2.988  10.569  11.606  1.00  0.00     0.000 A 
ENDBRANCH  53  67
BRANCH  54  73
ATOM     73  C   UNL     1      -9.600  12.003   4.609  1.00  0.00    -0.014 A 
ATOM     74  C   UNL     1     -10.645  12.575   5.349  1.00  0.00     0.009 A 
ATOM     75  C   UNL     1      -8.925  12.828   3.688  1.00  0.00     0.009 A 
ATOM     76  C   UNL     1     -10.981  13.927   5.192  1.00  0.00     0.001 A 
ATOM     77  C   UNL     1      -9.267  14.173   3.522  1.00  0.00     0.001 A 
ATOM     78  C   UNL     1     -10.287  14.727   4.287  1.00  0.00     0.000 A 
ENDBRANCH  54  73
BRANCH  66  79
ATOM     79  C   UNL     1      -9.491   6.260   7.229  1.00  0.00    -0.014 A 
ATOM     80  C   UNL     1      -9.602   6.186   5.829  1.00  0.00     0.009 A 
ATOM     81  C   UNL     1     -10.162   5.299   7.999  1.00  0.00     0.009 A 
ATOM     82  C   UNL     1     -10.381   5.198   5.220  1.00  0.00     0.001 A 
ATOM     83  C   UNL     1     -10.924   4.297   7.390  1.00  0.00     0.001 A 
ATOM     84  C   UNL     1     -11.036   4.249   6.002  1.00  0.00     0.000 A 
ENDBRANCH  66  79
ENDBRANCH  40  41
ENDBRANCH  33  35
ENDBRANCH  32  33
ENDBRANCH  31  32
ENDBRANCH  30  31
ENDBRANCH  29  30
ENDBRANCH   1  29
TORSDOF 19
