REMARK SMILES CN1C(=O)/C(=C\c2ccc(-c3ccccc3C(=O)OCCOCCOCCOC(=O)c3ccc(-c4c5nc(c(-c6ccccc6)c6ccc([nH]6)c(-c6ccccc6)c6nc(c(-c7ccccc7)c7ccc4[nH]7)C=C6)C=C5)cc3)o2)C(=O)[NH+]=C1S
REMARK SMILES IDX 23 1 22 2 21 3 20 4 19 5 17 6 18 7 16 8 11 9 12 10 13 11
REMARK SMILES IDX 15 12 14 13 10 14 7 15 8 16 79 17 9 18 6 19 1 20 2 21 3 22
REMARK SMILES IDX 83 23 4 24 5 25 82 26 80 27 81 29 84 30 24 32 25 33 26 34
REMARK SMILES IDX 27 35 28 36 29 37 30 38 31 39 32 40 78 41 33 42 77 43 34 44
REMARK SMILES IDX 35 45 36 46 71 47 37 48 76 49 70 50 72 51 38 52 75 53 69 54
REMARK SMILES IDX 68 55 39 57 61 58 46 59 60 60 47 61 50 62 59 63 73 64 48 65
REMARK SMILES IDX 49 66 58 68 74 69 51 70 40 71 41 72 45 73 42 74 44 75 43 76
REMARK SMILES IDX 62 77 63 78 67 79 64 80 66 81 65 82 52 83 53 84 57 85 54 86
REMARK SMILES IDX 56 87 55 88
REMARK H PARENT 82 28 84 31 72 56 50 67
REMARK Flexibility Score: inf
ROOT
ATOM      1  C   UNL     1       6.898  -7.015   4.406  1.00  0.00     0.188 C 
ENDROOT
BRANCH   1   2
ATOM      2  O   UNL     1       6.334  -6.965   5.713  1.00  0.00    -0.376 OA
BRANCH   2   3
ATOM      3  C   UNL     1       5.413  -5.924   6.031  1.00  0.00     0.202 C 
BRANCH   3   4
ATOM      4  C   UNL     1       5.728  -4.480   5.613  1.00  0.00     0.261 C 
BRANCH   4   5
ATOM      5  O   UNL     1       6.098  -4.367   4.233  1.00  0.00    -0.460 OA
BRANCH   5   6
ATOM      6  C   UNL     1       7.224  -3.686   3.932  1.00  0.00     0.338 C 
ATOM      7  O   UNL     1       7.958  -3.119   4.725  1.00  0.00    -0.246 OA
BRANCH   6   8
ATOM      8  C   UNL     1       7.573  -3.863   2.495  1.00  0.00     0.071 A 
ATOM      9  C   UNL     1       6.662  -3.764   1.422  1.00  0.00     0.032 A 
ATOM     10  C   UNL     1       7.159  -3.950   0.115  1.00  0.00     0.013 A 
ATOM     11  C   UNL     1       8.497  -4.281  -0.118  1.00  0.00     0.001 A 
ATOM     12  C   UNL     1       8.914  -4.217   2.251  1.00  0.00     0.016 A 
ATOM     13  C   UNL     1       9.370  -4.439   0.952  1.00  0.00     0.001 A 
BRANCH   9  14
ATOM     14  C   UNL     1       5.229  -3.547   1.604  1.00  0.00     0.135 A 
ATOM     15  C   UNL     1       3.109  -3.947   1.080  1.00  0.00     0.128 A 
ATOM     16  C   UNL     1       3.124  -3.232   2.271  1.00  0.00     0.051 A 
ATOM     17  O   UNL     1       4.409  -4.191   0.716  1.00  0.00    -0.457 OA
ATOM     18  C   UNL     1       4.461  -2.878   2.530  1.00  0.00     0.051 A 
BRANCH  15  19
ATOM     19  C   UNL     1       1.975  -4.309   0.307  1.00  0.00     0.071 C 
ATOM     20  C   UNL     1       0.748   0.359  -0.165  1.00  0.00     0.301 C 
ATOM     21  N   UNL     1       0.478  -1.059  -0.397  1.00  0.00    -0.189 N 
ATOM     22  C   UNL     1       1.540  -1.922  -0.251  1.00  0.00     0.349 C 
ATOM     23  C   UNL     1      -0.731  -1.545  -0.830  1.00  0.00     0.318 C 
ATOM     24  O   UNL     1       2.701  -1.529  -0.181  1.00  0.00    -0.240 OA
ATOM     25  C   UNL     1       1.187  -3.361  -0.241  1.00  0.00     0.157 C 
ATOM     26  N   UNL     1      -1.014  -2.777  -1.046  1.00  0.00    -0.200 N 
ATOM     27  C   UNL     1      -0.116  -3.780  -0.801  1.00  0.00     0.347 C 
ATOM     28  H   UNL     1      -1.904  -3.008  -1.398  1.00  0.00     0.316 HD
ATOM     29  O   UNL     1      -0.388  -4.955  -0.976  1.00  0.00    -0.241 OA
BRANCH  23  30
ATOM     30  S   UNL     1      -2.019  -0.403  -1.135  1.00  0.00    -0.055 SA
ATOM     31  H   UNL     1      -1.582   0.856  -0.866  1.00  0.00     0.116 HD
ENDBRANCH  23  30
ENDBRANCH  15  19
ENDBRANCH   9  14
ENDBRANCH   6   8
ENDBRANCH   5   6
ENDBRANCH   4   5
ENDBRANCH   3   4
ENDBRANCH   2   3
ENDBRANCH   1   2
BRANCH   1  32
ATOM     32  C   UNL     1       5.967  -7.028   3.172  1.00  0.00     0.188 C 
BRANCH  32  33
ATOM     33  O   UNL     1       4.620  -6.742   3.461  1.00  0.00    -0.376 OA
BRANCH  33  34
ATOM     34  C   UNL     1       3.697  -7.806   3.600  1.00  0.00     0.202 C 
BRANCH  34  35
ATOM     35  C   UNL     1       4.066  -9.242   4.036  1.00  0.00     0.261 C 
BRANCH  35  36
ATOM     36  O   UNL     1       5.449  -9.609   4.096  1.00  0.00    -0.460 OA
BRANCH  36  37
ATOM     37  C   UNL     1       5.950 -10.255   3.016  1.00  0.00     0.338 C 
ATOM     38  O   UNL     1       5.366 -10.535   1.985  1.00  0.00    -0.246 OA
BRANCH  37  39
ATOM     39  C   UNL     1       7.409 -10.409   3.198  1.00  0.00     0.060 A 
ATOM     40  C   UNL     1       8.273  -9.724   2.333  1.00  0.00     0.016 A 
ATOM     41  C   UNL     1       7.918 -11.238   4.198  1.00  0.00     0.016 A 
ATOM     42  C   UNL     1       9.653  -9.892   2.447  1.00  0.00     0.010 A 
ATOM     43  C   UNL     1       9.301 -11.421   4.298  1.00  0.00     0.010 A 
ATOM     44  C   UNL     1      10.173 -10.777   3.401  1.00  0.00    -0.014 A 
BRANCH  44  45
ATOM     45  C   UNL     1      11.606 -11.159   3.342  1.00  0.00     0.031 A 
ATOM     46  C   UNL     1      11.979 -12.463   2.692  1.00  0.00     0.074 A 
ATOM     47  C   UNL     1      12.566 -10.355   3.832  1.00  0.00     0.049 A 
ATOM     48  N   UNL     1      13.160 -13.002   2.526  1.00  0.00    -0.248 NA
ATOM     49  C   UNL     1      10.868 -13.271   2.162  1.00  0.00     0.031 C 
ATOM     50  C   UNL     1      12.343  -9.053   4.457  1.00  0.00     0.029 A 
ATOM     51  N   UNL     1      13.928 -10.526   3.880  1.00  0.00    -0.354 N 
ATOM     52  C   UNL     1      12.934 -14.214   1.884  1.00  0.00     0.074 A 
ATOM     53  C   UNL     1      11.502 -14.347   1.723  1.00  0.00     0.031 C 
ATOM     54  C   UNL     1      13.530  -8.543   4.830  1.00  0.00     0.029 A 
ATOM     55  C   UNL     1      14.589  -9.495   4.500  1.00  0.00     0.049 A 
ATOM     56  H   UNL     1      14.386 -11.312   3.505  1.00  0.00     0.167 HD
ATOM     57  C   UNL     1      13.835 -15.133   1.462  1.00  0.00     0.031 A 
ATOM     58  C   UNL     1      15.898  -9.345   4.786  1.00  0.00     0.031 A 
ATOM     59  C   UNL     1      15.258 -15.011   1.640  1.00  0.00     0.049 A 
ATOM     60  C   UNL     1      16.877 -10.411   4.369  1.00  0.00     0.074 A 
ATOM     61  C   UNL     1      16.255 -15.875   1.221  1.00  0.00     0.029 A 
ATOM     62  N   UNL     1      15.884 -13.968   2.304  1.00  0.00    -0.354 N 
ATOM     63  N   UNL     1      16.656 -11.530   3.721  1.00  0.00    -0.248 NA
ATOM     64  C   UNL     1      18.289 -10.185   4.710  1.00  0.00     0.031 C 
ATOM     65  C   UNL     1      17.478 -15.392   1.695  1.00  0.00     0.029 A 
ATOM     66  C   UNL     1      17.252 -14.185   2.338  1.00  0.00     0.049 A 
ATOM     67  H   UNL     1      15.426 -13.189   2.693  1.00  0.00     0.167 HD
ATOM     68  C   UNL     1      17.902 -12.123   3.549  1.00  0.00     0.074 A 
ATOM     69  C   UNL     1      18.875 -11.233   4.149  1.00  0.00     0.031 C 
ATOM     70  C   UNL     1      18.213 -13.296   2.942  1.00  0.00     0.031 A 
BRANCH  57  71
ATOM     71  C   UNL     1      13.297 -16.377   0.809  1.00  0.00    -0.014 A 
ATOM     72  C   UNL     1      12.675 -16.339  -0.450  1.00  0.00     0.009 A 
ATOM     73  C   UNL     1      13.430 -17.614   1.460  1.00  0.00     0.009 A 
ATOM     74  C   UNL     1      12.159 -17.505  -1.021  1.00  0.00     0.001 A 
ATOM     75  C   UNL     1      12.944 -18.783   0.872  1.00  0.00     0.001 A 
ATOM     76  C   UNL     1      12.298 -18.726  -0.362  1.00  0.00     0.000 A 
ENDBRANCH  57  71
BRANCH  58  77
ATOM     77  C   UNL     1      16.361  -8.135   5.518  1.00  0.00    -0.014 A 
ATOM     78  C   UNL     1      17.154  -7.168   4.882  1.00  0.00     0.009 A 
ATOM     79  C   UNL     1      16.014  -7.945   6.865  1.00  0.00     0.009 A 
ATOM     80  C   UNL     1      17.606  -6.048   5.585  1.00  0.00     0.001 A 
ATOM     81  C   UNL     1      16.440  -6.809   7.556  1.00  0.00     0.001 A 
ATOM     82  C   UNL     1      17.243  -5.866   6.918  1.00  0.00     0.000 A 
ENDBRANCH  58  77
BRANCH  70  83
ATOM     83  C   UNL     1      19.669 -13.669   2.852  1.00  0.00    -0.014 A 
ATOM     84  C   UNL     1      20.405 -14.048   3.985  1.00  0.00     0.009 A 
ATOM     85  C   UNL     1      20.300 -13.687   1.597  1.00  0.00     0.009 A 
ATOM     86  C   UNL     1      21.752 -14.400   3.867  1.00  0.00     0.001 A 
ATOM     87  C   UNL     1      21.636 -14.073   1.478  1.00  0.00     0.001 A 
ATOM     88  C   UNL     1      22.364 -14.419   2.614  1.00  0.00     0.000 A 
ENDBRANCH  70  83
ENDBRANCH  44  45
ENDBRANCH  37  39
ENDBRANCH  36  37
ENDBRANCH  35  36
ENDBRANCH  34  35
ENDBRANCH  33  34
ENDBRANCH  32  33
ENDBRANCH   1  32
TORSDOF 20
