REMARK SMILES CCCC[C@@H](C(=O)OCCOCCOCCOC(=O)c1ccc(-c2c3nc(c(-c4ccccc4)c4ccc([nH]4)c(-c4ccccc4)c4nc(c(-c5ccccc5)c5ccc2[nH]5)C=C4)C=C3)cc1)[C@]1(O)COc2cc(O)ccc21
REMARK SMILES IDX 12 1 11 2 10 3 9 4 8 5 6 6 7 7 5 8 4 9 3 10 2 11 1 12 68 13
REMARK SMILES IDX 70 14 78 15 71 16 72 17 77 18 73 19 76 20 74 21 69 22 75 24
REMARK SMILES IDX 13 26 14 27 15 28 16 29 17 30 18 31 19 32 20 33 21 34 67 35
REMARK SMILES IDX 22 36 66 37 23 38 24 39 25 40 60 41 26 42 65 43 59 44 61 45
REMARK SMILES IDX 27 46 64 47 58 48 57 49 28 51 50 52 35 53 49 54 36 55 39 56
REMARK SMILES IDX 48 57 62 58 37 59 38 60 47 62 63 63 40 64 29 65 30 66 34 67
REMARK SMILES IDX 31 68 33 69 32 70 51 71 52 72 56 73 53 74 55 75 54 76 41 77
REMARK SMILES IDX 42 78 46 79 43 80 45 81 44 82
REMARK H PARENT 69 23 75 25 61 50 39 61
REMARK Flexibility Score: inf
ROOT
ATOM      1  C   UNL     1      -0.970  -3.122   5.735  1.00  0.00     0.188 C 
ENDROOT
BRANCH   1   2
ATOM      2  O   UNL     1      -1.335  -4.430   5.308  1.00  0.00    -0.376 OA
BRANCH   2   3
ATOM      3  C   UNL     1      -2.454  -4.500   4.431  1.00  0.00     0.202 C 
BRANCH   3   4
ATOM      4  C   UNL     1      -2.163  -3.960   3.031  1.00  0.00     0.261 C 
BRANCH   4   5
ATOM      5  O   UNL     1      -1.862  -2.552   3.089  1.00  0.00    -0.463 OA
BRANCH   5   6
ATOM      6  C   UNL     1      -2.550  -1.694   2.312  1.00  0.00     0.312 C 
ATOM      7  O   UNL     1      -3.530  -1.993   1.642  1.00  0.00    -0.252 OA
BRANCH   6   8
ATOM      8  C   UNL     1      -1.994  -0.276   2.386  1.00  0.00     0.139 C 
BRANCH   8   9
ATOM      9  C   UNL     1      -0.446  -0.159   2.403  1.00  0.00     0.019 C 
BRANCH   9  10
ATOM     10  C   UNL     1       0.388  -1.139   1.561  1.00  0.00     0.001 C 
BRANCH  10  11
ATOM     11  C   UNL     1       0.170  -1.103   0.053  1.00  0.00    -0.003 C 
ATOM     12  C   UNL     1       0.800   0.112  -0.606  1.00  0.00     0.004 C 
ENDBRANCH  10  11
ENDBRANCH   9  10
ENDBRANCH   8   9
BRANCH   8  13
ATOM     13  C   UNL     1      -2.739   0.600   3.456  1.00  0.00     0.140 C 
ATOM     14  C   UNL     1      -1.866   1.307   4.533  1.00  0.00     0.270 C 
ATOM     15  C   UNL     1      -3.644  -0.107   4.428  1.00  0.00     0.030 A 
ATOM     16  O   UNL     1      -1.818   0.474   5.714  1.00  0.00    -0.490 OA
ATOM     17  C   UNL     1      -3.046  -0.135   5.684  1.00  0.00     0.129 A 
ATOM     18  C   UNL     1      -4.889  -0.694   4.248  1.00  0.00     0.014 A 
ATOM     19  C   UNL     1      -3.626  -0.755   6.774  1.00  0.00     0.093 A 
ATOM     20  C   UNL     1      -5.502  -1.325   5.338  1.00  0.00     0.047 A 
ATOM     21  C   UNL     1      -4.864  -1.356   6.585  1.00  0.00     0.119 A 
BRANCH  13  22
ATOM     22  O   UNL     1      -3.467   1.621   2.761  1.00  0.00    -0.381 OA
ATOM     23  H   UNL     1      -2.877   2.072   2.137  1.00  0.00     0.212 HD
ENDBRANCH  13  22
BRANCH  21  24
ATOM     24  O   UNL     1      -5.432  -1.987   7.653  1.00  0.00    -0.508 OA
ATOM     25  H   UNL     1      -4.990  -1.998   8.480  1.00  0.00     0.293 HD
ENDBRANCH  21  24
ENDBRANCH   8  13
ENDBRANCH   6   8
ENDBRANCH   5   6
ENDBRANCH   4   5
ENDBRANCH   3   4
ENDBRANCH   2   3
ENDBRANCH   1   2
BRANCH   1  26
ATOM     26  C   UNL     1       0.340  -2.617   5.110  1.00  0.00     0.188 C 
BRANCH  26  27
ATOM     27  O   UNL     1       1.443  -3.493   4.910  1.00  0.00    -0.376 OA
BRANCH  27  28
ATOM     28  C   UNL     1       1.564  -4.627   5.747  1.00  0.00     0.202 C 
BRANCH  28  29
ATOM     29  C   UNL     1       1.964  -4.361   7.201  1.00  0.00     0.261 C 
BRANCH  29  30
ATOM     30  O   UNL     1       1.290  -3.247   7.814  1.00  0.00    -0.460 OA
BRANCH  30  31
ATOM     31  C   UNL     1       2.012  -2.102   7.869  1.00  0.00     0.338 C 
ATOM     32  O   UNL     1       3.172  -1.948   7.516  1.00  0.00    -0.246 OA
BRANCH  31  33
ATOM     33  C   UNL     1       1.169  -0.965   8.307  1.00  0.00     0.060 A 
ATOM     34  C   UNL     1       1.272   0.232   7.585  1.00  0.00     0.016 A 
ATOM     35  C   UNL     1       0.362  -1.025   9.446  1.00  0.00     0.016 A 
ATOM     36  C   UNL     1       0.617   1.382   8.027  1.00  0.00     0.010 A 
ATOM     37  C   UNL     1      -0.282   0.137   9.900  1.00  0.00     0.010 A 
ATOM     38  C   UNL     1      -0.126   1.356   9.214  1.00  0.00    -0.014 A 
BRANCH  38  39
ATOM     39  C   UNL     1      -0.570   2.643   9.812  1.00  0.00     0.031 A 
ATOM     40  C   UNL     1       0.332   3.333  10.800  1.00  0.00     0.074 A 
ATOM     41  C   UNL     1      -1.721   3.234   9.447  1.00  0.00     0.049 A 
ATOM     42  N   UNL     1       0.188   4.497  11.384  1.00  0.00    -0.248 NA
ATOM     43  C   UNL     1       1.563   2.619  11.173  1.00  0.00     0.031 C 
ATOM     44  C   UNL     1      -2.671   2.704   8.476  1.00  0.00     0.029 A 
ATOM     45  N   UNL     1      -2.280   4.423   9.850  1.00  0.00    -0.354 N 
ATOM     46  C   UNL     1       1.313   4.660  12.181  1.00  0.00     0.074 A 
ATOM     47  C   UNL     1       2.112   3.462  12.035  1.00  0.00     0.031 C 
ATOM     48  C   UNL     1      -3.700   3.562   8.355  1.00  0.00     0.029 A 
ATOM     49  C   UNL     1      -3.487   4.695   9.254  1.00  0.00     0.049 A 
ATOM     50  H   UNL     1      -1.854   5.024  10.505  1.00  0.00     0.167 HD
ATOM     51  C   UNL     1       1.660   5.713  12.959  1.00  0.00     0.031 A 
ATOM     52  C   UNL     1      -4.327   5.736   9.417  1.00  0.00     0.031 A 
ATOM     53  C   UNL     1       0.860   6.894  13.143  1.00  0.00     0.049 A 
ATOM     54  C   UNL     1      -3.960   6.854  10.357  1.00  0.00     0.074 A 
ATOM     55  C   UNL     1       1.136   8.011  13.914  1.00  0.00     0.029 A 
ATOM     56  N   UNL     1      -0.381   7.105  12.565  1.00  0.00    -0.354 N 
ATOM     57  N   UNL     1      -2.871   7.017  11.068  1.00  0.00    -0.248 NA
ATOM     58  C   UNL     1      -4.939   7.943  10.503  1.00  0.00     0.031 C 
ATOM     59  C   UNL     1       0.037   8.874  13.846  1.00  0.00     0.029 A 
ATOM     60  C   UNL     1      -0.896   8.321  12.984  1.00  0.00     0.049 A 
ATOM     61  H   UNL     1      -0.830   6.483  11.948  1.00  0.00     0.167 HD
ATOM     62  C   UNL     1      -3.018   8.239  11.715  1.00  0.00     0.074 A 
ATOM     63  C   UNL     1      -4.295   8.781  11.302  1.00  0.00     0.031 C 
ATOM     64  C   UNL     1      -2.168   8.857  12.572  1.00  0.00     0.031 A 
BRANCH  51  65
ATOM     65  C   UNL     1       2.963   5.613  13.700  1.00  0.00    -0.014 A 
ATOM     66  C   UNL     1       4.191   5.716  13.028  1.00  0.00     0.009 A 
ATOM     67  C   UNL     1       2.961   5.434  15.092  1.00  0.00     0.009 A 
ATOM     68  C   UNL     1       5.392   5.608  13.732  1.00  0.00     0.001 A 
ATOM     69  C   UNL     1       4.163   5.353  15.796  1.00  0.00     0.001 A 
ATOM     70  C   UNL     1       5.377   5.431  15.115  1.00  0.00     0.000 A 
ENDBRANCH  51  65
BRANCH  52  71
ATOM     71  C   UNL     1      -5.617   5.780   8.678  1.00  0.00    -0.014 A 
ATOM     72  C   UNL     1      -5.833   6.730   7.668  1.00  0.00     0.009 A 
ATOM     73  C   UNL     1      -6.657   4.901   9.017  1.00  0.00     0.009 A 
ATOM     74  C   UNL     1      -7.075   6.820   7.036  1.00  0.00     0.001 A 
ATOM     75  C   UNL     1      -7.889   4.974   8.363  1.00  0.00     0.001 A 
ATOM     76  C   UNL     1      -8.101   5.941   7.381  1.00  0.00     0.000 A 
ENDBRANCH  52  71
BRANCH  64  77
ATOM     77  C   UNL     1      -2.571  10.211  13.088  1.00  0.00    -0.014 A 
ATOM     78  C   UNL     1      -3.619  10.364  14.010  1.00  0.00     0.009 A 
ATOM     79  C   UNL     1      -1.872  11.352  12.662  1.00  0.00     0.009 A 
ATOM     80  C   UNL     1      -3.985  11.636  14.460  1.00  0.00     0.001 A 
ATOM     81  C   UNL     1      -2.220  12.618  13.137  1.00  0.00     0.001 A 
ATOM     82  C   UNL     1      -3.283  12.760  14.026  1.00  0.00     0.000 A 
ENDBRANCH  64  77
ENDBRANCH  38  39
ENDBRANCH  31  33
ENDBRANCH  30  31
ENDBRANCH  29  30
ENDBRANCH  28  29
ENDBRANCH  27  28
ENDBRANCH  26  27
ENDBRANCH   1  26
TORSDOF 23
