REMARK SMILES C#CCN(CC(=O)OCCOCCOCCOC(=O)c1ccc(-c2c3nc(c(-c4ccccc4)c4ccc([nH]4)c(-c4ccccc4)c4nc(c(-c5ccccc5)c5ccc2[nH]5)C=C4)C=C3)cc1)C(=O)CCc1ccc(Cl)cc1Cl
REMARK SMILES IDX 11 1 10 2 9 3 8 4 6 5 7 6 5 7 4 8 3 9 2 10 1 11 68 12 69 13
REMARK SMILES IDX 70 14 71 15 72 16 73 17 78 18 74 19 77 20 79 21 75 22 76 23
REMARK SMILES IDX 12 24 13 25 14 26 15 27 16 28 17 29 18 30 19 31 20 32 21 33
REMARK SMILES IDX 67 34 22 35 66 36 23 37 24 38 25 39 60 40 26 41 65 42 59 43
REMARK SMILES IDX 61 44 27 45 64 46 58 47 57 48 28 50 50 51 35 52 49 53 36 54
REMARK SMILES IDX 39 55 48 56 62 57 37 58 38 59 47 61 63 62 40 63 29 64 30 65
REMARK SMILES IDX 34 66 31 67 33 68 32 69 51 70 52 71 56 72 53 73 55 74 54 75
REMARK SMILES IDX 41 76 42 77 46 78 43 79 45 80 44 81
REMARK H PARENT 61 49 39 60
REMARK Flexibility Score: inf
ROOT
ATOM      1  O   UNL     1      -6.586  -3.860   1.023  1.00  0.00    -0.376 OA
ENDROOT
BRANCH   1   2
ATOM      2  C   UNL     1      -7.192  -2.742   0.385  1.00  0.00     0.202 C 
BRANCH   2   3
ATOM      3  C   UNL     1      -6.704  -1.378   0.874  1.00  0.00     0.261 C 
BRANCH   3   4
ATOM      4  O   UNL     1      -5.272  -1.235   0.768  1.00  0.00    -0.462 OA
BRANCH   4   5
ATOM      5  C   UNL     1      -4.729  -0.407   1.696  1.00  0.00     0.325 C 
ATOM      6  O   UNL     1      -5.390   0.321   2.432  1.00  0.00    -0.250 OA
BRANCH   5   7
ATOM      7  C   UNL     1      -3.244  -0.670   1.960  1.00  0.00     0.243 C 
BRANCH   7   8
ATOM      8  N   UNL     1      -2.255  -1.083   0.955  1.00  0.00    -0.320 N 
BRANCH   8   9
ATOM      9  C   UNL     1      -1.756  -0.065   0.036  1.00  0.00     0.210 C 
BRANCH   9  10
ATOM     10  C   UNL     1      -0.236  -0.065   0.036  1.00  0.00    -0.085 C 
ATOM     11  C   UNL     1       1.067  -0.065   0.036  1.00  0.00     0.006 C 
ENDBRANCH   9  10
ENDBRANCH   8   9
BRANCH   8  12
ATOM     12  C   UNL     1      -1.752  -2.358   0.791  1.00  0.00     0.224 C 
ATOM     13  O   UNL     1      -1.359  -2.760  -0.309  1.00  0.00    -0.275 OA
BRANCH  12  14
ATOM     14  C   UNL     1      -1.636  -3.288   1.984  1.00  0.00     0.105 C 
BRANCH  14  15
ATOM     15  C   UNL     1      -0.660  -2.890   3.097  1.00  0.00     0.047 C 
BRANCH  15  16
ATOM     16  C   UNL     1      -1.194  -1.881   4.085  1.00  0.00    -0.029 A 
ATOM     17  C   UNL     1      -0.672  -0.576   4.052  1.00  0.00     0.007 A 
ATOM     18  C   UNL     1      -2.256  -2.158   4.970  1.00  0.00     0.045 A 
ATOM     19  C   UNL     1      -1.250   0.439   4.815  1.00  0.00     0.021 A 
ATOM     20  C   UNL     1      -2.841  -1.138   5.722  1.00  0.00     0.041 A 
ATOM     21  Cl  UNL     1      -2.956  -3.730   5.100  1.00  0.00    -0.084 Cl
ATOM     22  C   UNL     1      -2.345   0.158   5.628  1.00  0.00     0.042 A 
ATOM     23  Cl  UNL     1      -3.116   1.429   6.491  1.00  0.00    -0.084 Cl
ENDBRANCH  15  16
ENDBRANCH  14  15
ENDBRANCH  12  14
ENDBRANCH   8  12
ENDBRANCH   7   8
ENDBRANCH   5   7
ENDBRANCH   4   5
ENDBRANCH   3   4
ENDBRANCH   2   3
ENDBRANCH   1   2
BRANCH   1  24
ATOM     24  C   UNL     1      -5.208  -4.114   0.751  1.00  0.00     0.188 C 
BRANCH  24  25
ATOM     25  C   UNL     1      -4.660  -3.810  -0.652  1.00  0.00     0.188 C 
BRANCH  25  26
ATOM     26  O   UNL     1      -5.593  -4.179  -1.664  1.00  0.00    -0.376 OA
BRANCH  26  27
ATOM     27  C   UNL     1      -5.012  -4.894  -2.746  1.00  0.00     0.202 C 
BRANCH  27  28
ATOM     28  C   UNL     1      -5.021  -6.389  -2.442  1.00  0.00     0.261 C 
BRANCH  28  29
ATOM     29  O   UNL     1      -4.300  -6.659  -1.222  1.00  0.00    -0.460 OA
BRANCH  29  30
ATOM     30  C   UNL     1      -3.265  -7.517  -1.303  1.00  0.00     0.338 C 
ATOM     31  O   UNL     1      -2.843  -8.083  -2.292  1.00  0.00    -0.246 OA
BRANCH  30  32
ATOM     32  C   UNL     1      -2.713  -7.723   0.051  1.00  0.00     0.060 A 
ATOM     33  C   UNL     1      -2.012  -6.698   0.685  1.00  0.00     0.016 A 
ATOM     34  C   UNL     1      -2.788  -8.988   0.635  1.00  0.00     0.016 A 
ATOM     35  C   UNL     1      -1.340  -6.955   1.888  1.00  0.00     0.010 A 
ATOM     36  C   UNL     1      -2.132  -9.235   1.849  1.00  0.00     0.010 A 
ATOM     37  C   UNL     1      -1.370  -8.230   2.468  1.00  0.00    -0.014 A 
BRANCH  37  38
ATOM     38  C   UNL     1      -0.458  -8.556   3.600  1.00  0.00     0.031 A 
ATOM     39  C   UNL     1       0.780  -9.371   3.326  1.00  0.00     0.074 A 
ATOM     40  C   UNL     1      -0.656  -8.079   4.844  1.00  0.00     0.049 A 
ATOM     41  N   UNL     1       1.653  -9.864   4.169  1.00  0.00    -0.248 NA
ATOM     42  C   UNL     1       1.077  -9.655   1.913  1.00  0.00     0.031 C 
ATOM     43  C   UNL     1      -1.737  -7.186   5.249  1.00  0.00     0.029 A 
ATOM     44  N   UNL     1       0.069  -8.271   5.998  1.00  0.00    -0.354 N 
ATOM     45  C   UNL     1       2.584 -10.541   3.391  1.00  0.00     0.074 A 
ATOM     46  C   UNL     1       2.171 -10.396   2.012  1.00  0.00     0.031 C 
ATOM     47  C   UNL     1      -1.589  -6.883   6.552  1.00  0.00     0.029 A 
ATOM     48  C   UNL     1      -0.444  -7.613   7.091  1.00  0.00     0.049 A 
ATOM     49  H   UNL     1       0.879  -8.829   6.038  1.00  0.00     0.167 HD
ATOM     50  C   UNL     1       3.683 -11.229   3.784  1.00  0.00     0.031 A 
ATOM     51  C   UNL     1      -0.057  -7.623   8.383  1.00  0.00     0.031 A 
ATOM     52  C   UNL     1       4.110 -11.387   5.147  1.00  0.00     0.049 A 
ATOM     53  C   UNL     1       1.098  -8.492   8.810  1.00  0.00     0.074 A 
ATOM     54  C   UNL     1       5.167 -12.133   5.641  1.00  0.00     0.029 A 
ATOM     55  N   UNL     1       3.510 -10.776   6.235  1.00  0.00    -0.354 N 
ATOM     56  N   UNL     1       1.915  -9.207   8.077  1.00  0.00    -0.248 NA
ATOM     57  C   UNL     1       1.367  -8.570  10.256  1.00  0.00     0.031 C 
ATOM     58  C   UNL     1       5.187 -11.998   7.033  1.00  0.00     0.029 A 
ATOM     59  C   UNL     1       4.170 -11.133   7.399  1.00  0.00     0.049 A 
ATOM     60  H   UNL     1       2.730 -10.177   6.188  1.00  0.00     0.167 HD
ATOM     61  C   UNL     1       2.799  -9.805   8.968  1.00  0.00     0.074 A 
ATOM     62  C   UNL     1       2.439  -9.349  10.293  1.00  0.00     0.031 C 
ATOM     63  C   UNL     1       3.813 -10.667   8.711  1.00  0.00     0.031 A 
BRANCH  50  64
ATOM     64  C   UNL     1       4.475 -11.915   2.711  1.00  0.00    -0.014 A 
ATOM     65  C   UNL     1       5.341 -11.197   1.873  1.00  0.00     0.009 A 
ATOM     66  C   UNL     1       4.364 -13.305   2.551  1.00  0.00     0.009 A 
ATOM     67  C   UNL     1       6.063 -11.857   0.877  1.00  0.00     0.001 A 
ATOM     68  C   UNL     1       5.103 -13.964   1.569  1.00  0.00     0.001 A 
ATOM     69  C   UNL     1       5.946 -13.239   0.728  1.00  0.00     0.000 A 
ENDBRANCH  50  64
BRANCH  51  70
ATOM     70  C   UNL     1      -0.799  -6.839   9.408  1.00  0.00    -0.014 A 
ATOM     71  C   UNL     1      -0.175  -5.780  10.088  1.00  0.00     0.009 A 
ATOM     72  C   UNL     1      -2.106  -7.199   9.773  1.00  0.00     0.009 A 
ATOM     73  C   UNL     1      -0.831  -5.125  11.133  1.00  0.00     0.001 A 
ATOM     74  C   UNL     1      -2.771  -6.520  10.796  1.00  0.00     0.001 A 
ATOM     75  C   UNL     1      -2.128  -5.493  11.485  1.00  0.00     0.000 A 
ENDBRANCH  51  70
BRANCH  63  76
ATOM     76  C   UNL     1       4.628 -11.142   9.881  1.00  0.00    -0.014 A 
ATOM     77  C   UNL     1       4.115 -12.078  10.793  1.00  0.00     0.009 A 
ATOM     78  C   UNL     1       5.937 -10.667  10.057  1.00  0.00     0.009 A 
ATOM     79  C   UNL     1       4.886 -12.502  11.877  1.00  0.00     0.001 A 
ATOM     80  C   UNL     1       6.714 -11.112  11.128  1.00  0.00     0.001 A 
ATOM     81  C   UNL     1       6.185 -12.022  12.043  1.00  0.00     0.000 A 
ENDBRANCH  63  76
ENDBRANCH  37  38
ENDBRANCH  30  32
ENDBRANCH  29  30
ENDBRANCH  28  29
ENDBRANCH  27  28
ENDBRANCH  26  27
ENDBRANCH  25  26
ENDBRANCH  24  25
ENDBRANCH   1  24
TORSDOF 24
