REMARK SMILES C[C@@H](C(=O)OCCOCCOCCOC(=O)c1ccc(-c2c3nc(c(-c4ccccc4)c4ccc([nH]4)c(-c4ccccc4)c4nc(c(-c5ccccc5)c5ccc2[nH]5)C=C4)C=C3)cc1)c1ccc(Cc2ccco2)cc1F
REMARK SMILES IDX 9 1 8 2 7 3 6 4 5 5 3 6 4 7 2 8 1 9 65 10 66 11 76 12 67 13
REMARK SMILES IDX 75 14 77 15 68 16 69 17 70 18 71 19 74 20 72 21 73 22 10 23
REMARK SMILES IDX 11 24 12 25 13 26 14 27 15 28 16 29 17 30 18 31 64 32 19 33
REMARK SMILES IDX 63 34 20 35 21 36 22 37 57 38 23 39 62 40 56 41 58 42 24 43
REMARK SMILES IDX 61 44 55 45 54 46 25 48 47 49 32 50 46 51 33 52 36 53 45 54
REMARK SMILES IDX 59 55 34 56 35 57 44 59 60 60 37 61 26 62 27 63 31 64 28 65
REMARK SMILES IDX 30 66 29 67 48 68 49 69 53 70 50 71 52 72 51 73 38 74 39 75
REMARK SMILES IDX 43 76 40 77 42 78 41 79
REMARK H PARENT 58 47 36 58
REMARK Flexibility Score: inf
ROOT
ATOM      1  C   UNL     1       0.425   2.144   3.027  1.00  0.00     0.188 C 
ENDROOT
BRANCH   1   2
ATOM      2  O   UNL     1       1.057   2.288   4.292  1.00  0.00    -0.376 OA
BRANCH   2   3
ATOM      3  C   UNL     1       2.341   1.705   4.489  1.00  0.00     0.202 C 
BRANCH   3   4
ATOM      4  C   UNL     1       2.551   0.219   4.149  1.00  0.00     0.261 C 
BRANCH   4   5
ATOM      5  O   UNL     1       2.170  -0.188   2.814  1.00  0.00    -0.463 OA
BRANCH   5   6
ATOM      6  C   UNL     1       1.240  -1.179   2.733  1.00  0.00     0.313 C 
ATOM      7  O   UNL     1       0.725  -1.703   3.717  1.00  0.00    -0.252 OA
BRANCH   6   8
ATOM      8  C   UNL     1       0.859  -1.593   1.295  1.00  0.00     0.129 C 
ATOM      9  C   UNL     1       1.607  -0.948   0.125  1.00  0.00     0.025 C 
BRANCH   8  10
ATOM     10  C   UNL     1      -0.657  -1.537   1.133  1.00  0.00     0.002 A 
ATOM     11  C   UNL     1      -1.348  -0.334   0.919  1.00  0.00     0.008 A 
ATOM     12  C   UNL     1      -1.409  -2.692   1.374  1.00  0.00     0.127 A 
ATOM     13  C   UNL     1      -2.737  -0.278   1.052  1.00  0.00     0.005 A 
ATOM     14  C   UNL     1      -2.794  -2.647   1.500  1.00  0.00     0.043 A 
ATOM     15  F   UNL     1      -0.789  -3.865   1.558  1.00  0.00    -0.207 F 
ATOM     16  C   UNL     1      -3.465  -1.424   1.393  1.00  0.00    -0.038 A 
BRANCH  16  17
ATOM     17  C   UNL     1      -4.901  -1.302   1.855  1.00  0.00     0.111 C 
BRANCH  17  18
ATOM     18  C   UNL     1      -4.957  -1.066   3.328  1.00  0.00     0.108 A 
ATOM     19  C   UNL     1      -4.187  -0.316   4.199  1.00  0.00     0.046 A 
ATOM     20  O   UNL     1      -5.937  -1.713   4.020  1.00  0.00    -0.469 OA
ATOM     21  C   UNL     1      -4.728  -0.514   5.489  1.00  0.00     0.042 A 
ATOM     22  C   UNL     1      -5.785  -1.376   5.327  1.00  0.00     0.195 A 
ENDBRANCH  17  18
ENDBRANCH  16  17
ENDBRANCH   8  10
ENDBRANCH   6   8
ENDBRANCH   5   6
ENDBRANCH   4   5
ENDBRANCH   3   4
ENDBRANCH   2   3
ENDBRANCH   1   2
BRANCH   1  23
ATOM     23  C   UNL     1       1.260   2.343   1.748  1.00  0.00     0.188 C 
BRANCH  23  24
ATOM     24  O   UNL     1       2.583   2.755   1.996  1.00  0.00    -0.376 OA
BRANCH  24  25
ATOM     25  C   UNL     1       2.983   4.034   1.551  1.00  0.00     0.202 C 
BRANCH  25  26
ATOM     26  C   UNL     1       2.168   5.269   1.972  1.00  0.00     0.261 C 
BRANCH  26  27
ATOM     27  O   UNL     1       0.735   5.139   1.993  1.00  0.00    -0.460 OA
BRANCH  27  28
ATOM     28  C   UNL     1       0.086   5.264   0.817  1.00  0.00     0.338 C 
ATOM     29  O   UNL     1       0.595   5.419  -0.289  1.00  0.00    -0.246 OA
BRANCH  28  30
ATOM     30  C   UNL     1      -1.354   4.998   1.031  1.00  0.00     0.060 A 
ATOM     31  C   UNL     1      -1.950   3.915   0.372  1.00  0.00     0.016 A 
ATOM     32  C   UNL     1      -2.127   5.831   1.845  1.00  0.00     0.016 A 
ATOM     33  C   UNL     1      -3.321   3.676   0.512  1.00  0.00     0.010 A 
ATOM     34  C   UNL     1      -3.505   5.600   1.968  1.00  0.00     0.010 A 
ATOM     35  C   UNL     1      -4.116   4.531   1.290  1.00  0.00    -0.014 A 
BRANCH  35  36
ATOM     36  C   UNL     1      -5.596   4.379   1.276  1.00  0.00     0.031 A 
ATOM     37  C   UNL     1      -6.406   5.125   0.258  1.00  0.00     0.074 A 
ATOM     38  C   UNL     1      -6.236   3.583   2.151  1.00  0.00     0.049 A 
ATOM     39  N   UNL     1      -7.704   5.140   0.084  1.00  0.00    -0.248 NA
ATOM     40  C   UNL     1      -5.655   5.978  -0.674  1.00  0.00     0.031 C 
ATOM     41  C   UNL     1      -5.591   2.812   3.205  1.00  0.00     0.029 A 
ATOM     42  N   UNL     1      -7.575   3.292   2.288  1.00  0.00    -0.354 N 
ATOM     43  C   UNL     1      -7.932   6.031  -0.954  1.00  0.00     0.074 A 
ATOM     44  C   UNL     1      -6.636   6.527  -1.375  1.00  0.00     0.031 C 
ATOM     45  C   UNL     1      -6.534   2.123   3.868  1.00  0.00     0.029 A 
ATOM     46  C   UNL     1      -7.844   2.394   3.293  1.00  0.00     0.049 A 
ATOM     47  H   UNL     1      -8.273   3.690   1.720  1.00  0.00     0.167 HD
ATOM     48  C   UNL     1      -9.112   6.425  -1.491  1.00  0.00     0.031 A 
ATOM     49  C   UNL     1      -9.003   1.847   3.715  1.00  0.00     0.031 A 
ATOM     50  C   UNL     1     -10.410   5.978  -1.056  1.00  0.00     0.049 A 
ATOM     51  C   UNL     1     -10.298   2.286   3.089  1.00  0.00     0.074 A 
ATOM     52  C   UNL     1     -11.654   6.357  -1.532  1.00  0.00     0.029 A 
ATOM     53  N   UNL     1     -10.637   5.067  -0.037  1.00  0.00    -0.354 N 
ATOM     54  N   UNL     1     -10.496   3.131   2.108  1.00  0.00    -0.248 NA
ATOM     55  C   UNL     1     -11.533   1.716   3.651  1.00  0.00     0.031 C 
ATOM     56  C   UNL     1     -12.635   5.718  -0.764  1.00  0.00     0.029 A 
ATOM     57  C   UNL     1     -12.001   4.888   0.144  1.00  0.00     0.049 A 
ATOM     58  H   UNL     1      -9.934   4.613   0.482  1.00  0.00     0.167 HD
ATOM     59  C   UNL     1     -11.874   3.204   1.947  1.00  0.00     0.074 A 
ATOM     60  C   UNL     1     -12.461   2.277   2.891  1.00  0.00     0.031 C 
ATOM     61  C   UNL     1     -12.588   3.990   1.104  1.00  0.00     0.031 A 
BRANCH  48  62
ATOM     62  C   UNL     1      -9.040   7.469  -2.568  1.00  0.00    -0.014 A 
ATOM     63  C   UNL     1      -8.548   7.173  -3.848  1.00  0.00     0.009 A 
ATOM     64  C   UNL     1      -9.459   8.778  -2.283  1.00  0.00     0.009 A 
ATOM     65  C   UNL     1      -8.436   8.180  -4.809  1.00  0.00     0.001 A 
ATOM     66  C   UNL     1      -9.376   9.774  -3.255  1.00  0.00     0.001 A 
ATOM     67  C   UNL     1      -8.852   9.478  -4.512  1.00  0.00     0.000 A 
ENDBRANCH  48  62
BRANCH  49  68
ATOM     68  C   UNL     1      -9.022   0.835   4.808  1.00  0.00    -0.014 A 
ATOM     69  C   UNL     1      -9.415  -0.489   4.545  1.00  0.00     0.009 A 
ATOM     70  C   UNL     1      -8.708   1.193   6.128  1.00  0.00     0.009 A 
ATOM     71  C   UNL     1      -9.527  -1.418   5.583  1.00  0.00     0.001 A 
ATOM     72  C   UNL     1      -8.783   0.252   7.158  1.00  0.00     0.001 A 
ATOM     73  C   UNL     1      -9.208  -1.048   6.888  1.00  0.00     0.000 A 
ENDBRANCH  49  68
BRANCH  61  74
ATOM     74  C   UNL     1     -14.086   3.878   1.172  1.00  0.00    -0.014 A 
ATOM     75  C   UNL     1     -14.803   4.350   2.285  1.00  0.00     0.009 A 
ATOM     76  C   UNL     1     -14.793   3.294   0.110  1.00  0.00     0.009 A 
ATOM     77  C   UNL     1     -16.191   4.197   2.350  1.00  0.00     0.001 A 
ATOM     78  C   UNL     1     -16.182   3.170   0.165  1.00  0.00     0.001 A 
ATOM     79  C   UNL     1     -16.878   3.610   1.290  1.00  0.00     0.000 A 
ENDBRANCH  61  74
ENDBRANCH  35  36
ENDBRANCH  28  30
ENDBRANCH  27  28
ENDBRANCH  26  27
ENDBRANCH  25  26
ENDBRANCH  24  25
ENDBRANCH  23  24
ENDBRANCH   1  23
TORSDOF 20
