REMARK SMILES O=C(OCCOCCOCCOC(=O)c1ccc(-c2c3nc(c(-c4ccccc4)c4ccc([nH]4)c(-c4ccccc4)c4nc(c(-c5ccccc5)c5ccc2[nH]5)C=C4)C=C3)cc1)C1=Cc2cc(Cl)ccc2O[C@@H]1C(F)(F)F
REMARK SMILES IDX 8 1 7 2 6 3 5 4 4 5 3 6 2 7 1 8 63 9 64 10 73 11 65 12 72 13
REMARK SMILES IDX 66 14 71 15 67 16 70 17 68 18 69 19 74 20 75 21 76 22 77 23
REMARK SMILES IDX 9 24 10 25 11 26 12 27 13 28 14 29 15 30 16 31 62 32 17 33
REMARK SMILES IDX 61 34 18 35 19 36 20 37 55 38 21 39 60 40 54 41 56 42 22 43
REMARK SMILES IDX 59 44 53 45 52 46 23 48 45 49 30 50 44 51 31 52 34 53 43 54
REMARK SMILES IDX 57 55 32 56 33 57 42 59 58 60 35 61 24 62 25 63 29 64 26 65
REMARK SMILES IDX 28 66 27 67 46 68 47 69 51 70 48 71 50 72 49 73 36 74 37 75
REMARK SMILES IDX 41 76 38 77 40 78 39 79
REMARK H PARENT 56 47 34 58
REMARK Flexibility Score: inf
ROOT
ATOM      1  C   UNL     1       2.029  -3.031  -1.830  1.00  0.00     0.188 C 
ENDROOT
BRANCH   1   2
ATOM      2  C   UNL     1       2.330  -1.525  -1.757  1.00  0.00     0.188 C 
BRANCH   2   3
ATOM      3  O   UNL     1       3.730  -0.988  -1.841  1.00  0.00    -0.376 OA
BRANCH   3   4
ATOM      4  C   UNL     1       4.473   0.205  -0.813  1.00  0.00     0.202 C 
BRANCH   4   5
ATOM      5  C   UNL     1       3.821   0.607   1.221  1.00  0.00     0.261 C 
BRANCH   5   6
ATOM      6  O   UNL     1       2.804   1.650   1.647  1.00  0.00    -0.460 OA
BRANCH   6   7
ATOM      7  C   UNL     1       2.906   2.767   0.912  1.00  0.00     0.338 C 
ATOM      8  O   UNL     1       2.126   3.687   0.857  1.00  0.00    -0.246 OA
BRANCH   7   9
ATOM      9  C   UNL     1       3.817   2.240  -0.096  1.00  0.00     0.087 C 
ATOM     10  C   UNL     1       5.219   2.109   0.277  1.00  0.00     0.027 C 
ATOM     11  C   UNL     1       2.649   0.770  -0.474  1.00  0.00     0.316 C 
ATOM     12  C   UNL     1       6.004   0.565   0.741  1.00  0.00     0.019 A 
ATOM     13  O   UNL     1       3.402  -0.903   0.205  1.00  0.00    -0.475 OA
ATOM     14  C   UNL     1       7.318   0.562   1.114  1.00  0.00     0.032 A 
ATOM     15  C   UNL     1       5.140  -0.931   0.782  1.00  0.00     0.128 A 
ATOM     16  C   UNL     1       7.835  -0.705   1.439  1.00  0.00     0.041 A 
ATOM     17  C   UNL     1       5.718  -2.126   1.100  1.00  0.00     0.048 A 
ATOM     18  Cl  UNL     1       9.512  -0.763   1.886  1.00  0.00    -0.084 Cl
ATOM     19  C   UNL     1       7.091  -1.967   1.421  1.00  0.00     0.024 A 
BRANCH  11  20
ATOM     20  C   UNL     1       2.361   1.311  -2.057  1.00  0.00     0.430 C 
ATOM     21  F   UNL     1       2.648   0.550  -3.119  1.00  0.00    -0.167 F 
ATOM     22  F   UNL     1       1.066   1.689  -2.177  1.00  0.00    -0.167 F 
ATOM     23  F   UNL     1       3.082   2.451  -2.315  1.00  0.00    -0.167 F 
ENDBRANCH  11  20
ENDBRANCH   7   9
ENDBRANCH   6   7
ENDBRANCH   5   6
ENDBRANCH   4   5
ENDBRANCH   3   4
ENDBRANCH   2   3
ENDBRANCH   1   2
BRANCH   1  24
ATOM     24  O   UNL     1       2.965  -3.923  -1.278  1.00  0.00    -0.376 OA
BRANCH  24  25
ATOM     25  C   UNL     1       4.272  -3.831  -1.828  1.00  0.00     0.202 C 
BRANCH  25  26
ATOM     26  C   UNL     1       4.411  -3.882  -3.363  1.00  0.00     0.261 C 
BRANCH  26  27
ATOM     27  O   UNL     1       3.909  -2.714  -4.063  1.00  0.00    -0.460 OA
BRANCH  27  28
ATOM     28  C   UNL     1       2.876  -2.882  -4.930  1.00  0.00     0.338 C 
ATOM     29  O   UNL     1       2.291  -3.920  -5.188  1.00  0.00    -0.246 OA
BRANCH  28  30
ATOM     30  C   UNL     1       2.444  -1.566  -5.455  1.00  0.00     0.060 A 
ATOM     31  C   UNL     1       1.193  -1.031  -5.107  1.00  0.00     0.016 A 
ATOM     32  C   UNL     1       3.274  -0.874  -6.334  1.00  0.00     0.016 A 
ATOM     33  C   UNL     1       0.808   0.235  -5.572  1.00  0.00     0.010 A 
ATOM     34  C   UNL     1       2.864   0.363  -6.844  1.00  0.00     0.010 A 
ATOM     35  C   UNL     1       1.637   0.934  -6.460  1.00  0.00    -0.014 A 
BRANCH  35  36
ATOM     36  C   UNL     1       1.179   2.184  -7.125  1.00  0.00     0.031 A 
ATOM     37  C   UNL     1       0.482   2.070  -8.451  1.00  0.00     0.074 A 
ATOM     38  C   UNL     1       1.437   3.400  -6.606  1.00  0.00     0.049 A 
ATOM     39  N   UNL     1       0.134   3.013  -9.287  1.00  0.00    -0.248 NA
ATOM     40  C   UNL     1       0.149   0.709  -8.901  1.00  0.00     0.031 C 
ATOM     41  C   UNL     1       2.073   3.647  -5.316  1.00  0.00     0.029 A 
ATOM     42  N   UNL     1       1.213   4.660  -7.113  1.00  0.00    -0.354 N 
ATOM     43  C   UNL     1      -0.433   2.359 -10.374  1.00  0.00     0.074 A 
ATOM     44  C   UNL     1      -0.383   0.942 -10.092  1.00  0.00     0.031 C 
ATOM     45  C   UNL     1       2.201   4.974  -5.135  1.00  0.00     0.029 A 
ATOM     46  C   UNL     1       1.710   5.671  -6.322  1.00  0.00     0.049 A 
ATOM     47  H   UNL     1       0.742   4.822  -7.962  1.00  0.00     0.167 HD
ATOM     48  C   UNL     1      -0.932   2.894 -11.511  1.00  0.00     0.031 A 
ATOM     49  C   UNL     1       1.801   6.999  -6.550  1.00  0.00     0.031 A 
ATOM     50  C   UNL     1      -0.960   4.303 -11.800  1.00  0.00     0.049 A 
ATOM     51  C   UNL     1       1.303   7.555  -7.865  1.00  0.00     0.074 A 
ATOM     52  C   UNL     1      -1.478   4.938 -12.915  1.00  0.00     0.029 A 
ATOM     53  N   UNL     1      -0.432   5.289 -10.984  1.00  0.00    -0.354 N 
ATOM     54  N   UNL     1       0.717   6.933  -8.859  1.00  0.00    -0.248 NA
ATOM     55  C   UNL     1       1.490   8.998  -8.094  1.00  0.00     0.031 C 
ATOM     56  C   UNL     1      -1.185   6.299 -12.815  1.00  0.00     0.029 A 
ATOM     57  C   UNL     1      -0.565   6.523 -11.597  1.00  0.00     0.049 A 
ATOM     58  H   UNL     1      -0.024   5.136 -10.101  1.00  0.00     0.167 HD
ATOM     59  C   UNL     1       0.449   7.907  -9.815  1.00  0.00     0.074 A 
ATOM     60  C   UNL     1       0.903   9.168  -9.270  1.00  0.00     0.031 C 
ATOM     61  C   UNL     1      -0.112   7.771 -11.041  1.00  0.00     0.031 A 
BRANCH  48  62
ATOM     62  C   UNL     1      -1.440   1.955 -12.568  1.00  0.00    -0.014 A 
ATOM     63  C   UNL     1      -2.636   1.242 -12.405  1.00  0.00     0.009 A 
ATOM     64  C   UNL     1      -0.748   1.855 -13.786  1.00  0.00     0.009 A 
ATOM     65  C   UNL     1      -3.121   0.436 -13.438  1.00  0.00     0.001 A 
ATOM     66  C   UNL     1      -1.251   1.075 -14.827  1.00  0.00     0.001 A 
ATOM     67  C   UNL     1      -2.435   0.362 -14.650  1.00  0.00     0.000 A 
ENDBRANCH  48  62
BRANCH  49  68
ATOM     68  C   UNL     1       2.460   7.908  -5.564  1.00  0.00    -0.014 A 
ATOM     69  C   UNL     1       1.756   8.971  -4.974  1.00  0.00     0.009 A 
ATOM     70  C   UNL     1       3.827   7.770  -5.275  1.00  0.00     0.009 A 
ATOM     71  C   UNL     1       2.416   9.899  -4.162  1.00  0.00     0.001 A 
ATOM     72  C   UNL     1       4.474   8.672  -4.426  1.00  0.00     0.001 A 
ATOM     73  C   UNL     1       3.773   9.747  -3.885  1.00  0.00     0.000 A 
ENDBRANCH  49  68
BRANCH  61  74
ATOM     74  C   UNL     1      -0.297   9.014 -11.869  1.00  0.00    -0.014 A 
ATOM     75  C   UNL     1       0.798   9.692 -12.427  1.00  0.00     0.009 A 
ATOM     76  C   UNL     1      -1.594   9.476 -12.148  1.00  0.00     0.009 A 
ATOM     77  C   UNL     1       0.599  10.824 -13.220  1.00  0.00     0.001 A 
ATOM     78  C   UNL     1      -1.792  10.584 -12.972  1.00  0.00     0.001 A 
ATOM     79  C   UNL     1      -0.695  11.263 -13.499  1.00  0.00     0.000 A 
ENDBRANCH  61  74
ENDBRANCH  35  36
ENDBRANCH  28  30
ENDBRANCH  27  28
ENDBRANCH  26  27
ENDBRANCH  25  26
ENDBRANCH  24  25
ENDBRANCH   1  24
TORSDOF 18
