REMARK SMILES Cc1c(CC(=O)N[C@@H](CCO)C(=O)OCCOCCOCCOC(=O)c2ccc(-c3c4nc(c(-c5ccccc5)c5ccc([nH]5)c(-c5ccccc5)c5nc(c(-c6ccccc6)c6ccc3[nH]6)C=C5)C=C4)cc2)cc(-c2ccc(S(C)(=O)=O)cc2)n1-c1ccc(F)cc1
REMARK SMILES IDX 17 1 16 2 15 3 14 4 12 5 13 6 8 7 7 8 5 9 6 10 4 12 3 13
REMARK SMILES IDX 1 14 2 15 86 16 74 17 75 18 87 19 88 20 93 21 89 22 92 23
REMARK SMILES IDX 90 24 91 25 76 26 77 27 85 28 78 29 84 30 79 31 80 32 81 33
REMARK SMILES IDX 82 34 83 35 9 36 10 37 11 38 18 40 19 41 20 42 21 43 22 44
REMARK SMILES IDX 23 45 24 46 25 47 26 48 27 49 73 50 28 51 72 52 29 53 30 54
REMARK SMILES IDX 31 55 66 56 32 57 71 58 65 59 67 60 33 61 70 62 64 63 63 64
REMARK SMILES IDX 34 66 56 67 41 68 55 69 42 70 45 71 54 72 68 73 43 74 44 75
REMARK SMILES IDX 53 77 69 78 46 79 35 80 36 81 40 82 37 83 39 84 38 85 57 86
REMARK SMILES IDX 58 87 62 88 59 89 61 90 60 91 47 92 48 93 52 94 49 95 51 96
REMARK SMILES IDX 50 97
REMARK H PARENT 7 11 11 39 67 65 45 76
REMARK Flexibility Score: inf
ROOT
ATOM      1  O   UNL     1       3.118  -6.426  -5.060  1.00  0.00    -0.376 OA
ENDROOT
BRANCH   1   2
ATOM      2  C   UNL     1       4.466  -6.034  -5.297  1.00  0.00     0.202 C 
BRANCH   2   3
ATOM      3  C   UNL     1       4.916  -4.570  -5.350  1.00  0.00     0.261 C 
BRANCH   3   4
ATOM      4  O   UNL     1       4.421  -3.748  -4.289  1.00  0.00    -0.462 OA
BRANCH   4   5
ATOM      5  C   UNL     1       3.607  -2.738  -4.709  1.00  0.00     0.328 C 
ATOM      6  O   UNL     1       3.300  -2.516  -5.875  1.00  0.00    -0.250 OA
BRANCH   5   7
ATOM      7  C   UNL     1       3.086  -1.885  -3.552  1.00  0.00     0.194 C 
BRANCH   7   8
ATOM      8  N   UNL     1       3.320  -2.372  -2.187  1.00  0.00    -0.342 N 
ATOM      9  C   UNL     1       2.425  -2.535  -1.165  1.00  0.00     0.225 C 
ATOM     10  O   UNL     1       2.872  -2.743  -0.035  1.00  0.00    -0.275 OA
ATOM     11  H   UNL     1       4.251  -2.614  -1.977  1.00  0.00     0.164 HD
BRANCH   9  12
ATOM     12  C   UNL     1       0.921  -2.550  -1.434  1.00  0.00     0.137 C 
BRANCH  12  13
ATOM     13  C   UNL     1       0.384  -1.232  -1.888  1.00  0.00    -0.017 A 
ATOM     14  C   UNL     1       0.965   0.237   0.156  1.00  0.00     0.065 C 
ATOM     15  C   UNL     1       0.479  -0.014  -1.236  1.00  0.00     0.024 A 
ATOM     16  N   UNL     1       0.005   0.975  -2.091  1.00  0.00    -0.314 N 
ATOM     17  C   UNL     1      -0.314  -0.995  -3.100  1.00  0.00     0.033 A 
ATOM     18  C   UNL     1      -0.462   0.370  -3.258  1.00  0.00     0.053 A 
BRANCH  16  19
ATOM     19  C   UNL     1       0.039   2.373  -1.846  1.00  0.00     0.046 A 
ATOM     20  C   UNL     1      -1.104   3.146  -2.086  1.00  0.00     0.029 A 
ATOM     21  C   UNL     1       1.227   2.971  -1.405  1.00  0.00     0.029 A 
ATOM     22  C   UNL     1      -1.058   4.522  -1.871  1.00  0.00     0.041 A 
ATOM     23  C   UNL     1       1.269   4.351  -1.212  1.00  0.00     0.041 A 
ATOM     24  C   UNL     1       0.127   5.111  -1.442  1.00  0.00     0.123 A 
ATOM     25  F   UNL     1       0.171   6.436  -1.254  1.00  0.00    -0.207 F 
ENDBRANCH  16  19
BRANCH  18  26
ATOM     26  C   UNL     1      -0.836   1.067  -4.494  1.00  0.00    -0.001 A 
ATOM     27  C   UNL     1       0.081   1.919  -5.131  1.00  0.00     0.011 A 
ATOM     28  C   UNL     1      -2.082   0.836  -5.091  1.00  0.00     0.011 A 
ATOM     29  C   UNL     1      -0.249   2.553  -6.330  1.00  0.00     0.021 A 
ATOM     30  C   UNL     1      -2.421   1.471  -6.289  1.00  0.00     0.021 A 
ATOM     31  C   UNL     1      -1.506   2.333  -6.897  1.00  0.00     0.067 A 
BRANCH  31  32
ATOM     32  S   UNL     1      -1.899   3.121  -8.441  1.00  0.00     0.175 S 
ATOM     33  C   UNL     1      -1.931   4.851  -8.049  1.00  0.00     0.163 C 
ATOM     34  O   UNL     1      -0.807   2.873  -9.339  1.00  0.00    -0.224 OA
ATOM     35  O   UNL     1      -3.268   2.735  -8.790  1.00  0.00    -0.224 OA
ENDBRANCH  31  32
ENDBRANCH  18  26
ENDBRANCH  12  13
ENDBRANCH   9  12
ENDBRANCH   7   8
BRANCH   7  36
ATOM     36  C   UNL     1       3.594  -0.445  -3.707  1.00  0.00     0.065 C 
BRANCH  36  37
ATOM     37  C   UNL     1       5.091  -0.276  -3.454  1.00  0.00     0.159 C 
BRANCH  37  38
ATOM     38  O   UNL     1       5.861  -1.043  -4.364  1.00  0.00    -0.396 OA
ATOM     39  H   UNL     1       5.649  -1.983  -4.256  1.00  0.00     0.210 HD
ENDBRANCH  37  38
ENDBRANCH  36  37
ENDBRANCH   7  36
ENDBRANCH   5   7
ENDBRANCH   4   5
ENDBRANCH   3   4
ENDBRANCH   2   3
ENDBRANCH   1   2
BRANCH   1  40
ATOM     40  C   UNL     1       2.326  -5.791  -4.075  1.00  0.00     0.188 C 
BRANCH  40  41
ATOM     41  C   UNL     1       2.612  -6.005  -2.582  1.00  0.00     0.188 C 
BRANCH  41  42
ATOM     42  O   UNL     1       3.915  -6.388  -2.211  1.00  0.00    -0.376 OA
BRANCH  42  43
ATOM     43  C   UNL     1       4.237  -7.772  -2.347  1.00  0.00     0.202 C 
BRANCH  43  44
ATOM     44  C   UNL     1       3.267  -8.876  -1.834  1.00  0.00     0.261 C 
BRANCH  44  45
ATOM     45  O   UNL     1       2.190  -9.389  -2.707  1.00  0.00    -0.460 OA
BRANCH  45  46
ATOM     46  C   UNL     1       0.956  -9.565  -2.115  1.00  0.00     0.338 C 
ATOM     47  O   UNL     1       0.606  -8.942  -1.119  1.00  0.00    -0.246 OA
BRANCH  46  48
ATOM     48  C   UNL     1       0.014 -10.615  -2.729  1.00  0.00     0.060 A 
ATOM     49  C   UNL     1      -1.111 -10.222  -3.448  1.00  0.00     0.016 A 
ATOM     50  C   UNL     1       0.003 -11.973  -2.338  1.00  0.00     0.016 A 
ATOM     51  C   UNL     1      -2.152 -11.164  -3.803  1.00  0.00     0.010 A 
ATOM     52  C   UNL     1      -1.088 -12.918  -2.660  1.00  0.00     0.010 A 
ATOM     53  C   UNL     1      -2.220 -12.556  -3.414  1.00  0.00    -0.014 A 
BRANCH  53  54
ATOM     54  C   UNL     1      -3.685 -13.295  -3.476  1.00  0.00     0.031 A 
ATOM     55  C   UNL     1      -4.601 -12.243  -2.952  1.00  0.00     0.074 A 
ATOM     56  C   UNL     1      -4.347 -14.517  -3.689  1.00  0.00     0.049 A 
ATOM     57  N   UNL     1      -4.387 -11.745  -1.768  1.00  0.00    -0.248 NA
ATOM     58  C   UNL     1      -5.520 -11.474  -3.788  1.00  0.00     0.031 C 
ATOM     59  C   UNL     1      -3.752 -15.835  -3.975  1.00  0.00     0.029 A 
ATOM     60  N   UNL     1      -5.744 -14.894  -3.704  1.00  0.00    -0.354 N 
ATOM     61  C   UNL     1      -5.341 -10.778  -1.583  1.00  0.00     0.074 A 
ATOM     62  C   UNL     1      -5.854 -10.512  -2.920  1.00  0.00     0.031 C 
ATOM     63  C   UNL     1      -4.700 -16.779  -4.263  1.00  0.00     0.029 A 
ATOM     64  C   UNL     1      -6.054 -16.236  -4.154  1.00  0.00     0.049 A 
ATOM     65  H   UNL     1      -6.450 -14.268  -3.421  1.00  0.00     0.167 HD
ATOM     66  C   UNL     1      -6.031 -10.838  -0.407  1.00  0.00     0.031 A 
ATOM     67  C   UNL     1      -7.266 -16.907  -4.356  1.00  0.00     0.031 A 
ATOM     68  C   UNL     1      -7.339 -11.409  -0.585  1.00  0.00     0.049 A 
ATOM     69  C   UNL     1      -8.271 -16.262  -3.501  1.00  0.00     0.074 A 
ATOM     70  C   UNL     1      -8.345 -11.183  -1.501  1.00  0.00     0.029 A 
ATOM     71  N   UNL     1      -7.562 -12.659  -0.043  1.00  0.00    -0.354 N 
ATOM     72  N   UNL     1      -8.353 -16.559  -2.240  1.00  0.00    -0.248 NA
ATOM     73  C   UNL     1      -9.338 -15.406  -4.004  1.00  0.00     0.031 C 
ATOM     74  C   UNL     1      -8.837 -12.465  -1.824  1.00  0.00     0.029 A 
ATOM     75  C   UNL     1      -8.389 -13.379  -0.878  1.00  0.00     0.049 A 
ATOM     76  H   UNL     1      -7.188 -12.985   0.808  1.00  0.00     0.167 HD
ATOM     77  C   UNL     1      -9.050 -15.510  -1.732  1.00  0.00     0.074 A 
ATOM     78  C   UNL     1      -9.865 -15.035  -2.833  1.00  0.00     0.031 C 
ATOM     79  C   UNL     1      -8.434 -14.816  -0.741  1.00  0.00     0.031 A 
BRANCH  66  80
ATOM     80  C   UNL     1      -5.174 -11.074   0.807  1.00  0.00    -0.014 A 
ATOM     81  C   UNL     1      -5.001 -10.039   1.731  1.00  0.00     0.009 A 
ATOM     82  C   UNL     1      -4.422 -12.255   0.977  1.00  0.00     0.009 A 
ATOM     83  C   UNL     1      -4.053 -10.158   2.754  1.00  0.00     0.001 A 
ATOM     84  C   UNL     1      -3.453 -12.359   1.973  1.00  0.00     0.001 A 
ATOM     85  C   UNL     1      -3.263 -11.304   2.857  1.00  0.00     0.000 A 
ENDBRANCH  66  80
BRANCH  67  86
ATOM     86  C   UNL     1      -7.921 -18.197  -4.943  1.00  0.00    -0.014 A 
ATOM     87  C   UNL     1      -9.080 -18.767  -4.303  1.00  0.00     0.009 A 
ATOM     88  C   UNL     1      -7.728 -18.635  -6.258  1.00  0.00     0.009 A 
ATOM     89  C   UNL     1     -10.026 -19.590  -4.950  1.00  0.00     0.001 A 
ATOM     90  C   UNL     1      -8.663 -19.498  -6.903  1.00  0.00     0.001 A 
ATOM     91  C   UNL     1      -9.824 -19.944  -6.268  1.00  0.00     0.000 A 
ENDBRANCH  67  86
BRANCH  79  92
ATOM     92  C   UNL     1      -7.644 -15.630   0.279  1.00  0.00    -0.014 A 
ATOM     93  C   UNL     1      -6.742 -16.675  -0.034  1.00  0.00     0.009 A 
ATOM     94  C   UNL     1      -7.889 -15.398   1.638  1.00  0.00     0.009 A 
ATOM     95  C   UNL     1      -6.197 -17.508   0.951  1.00  0.00     0.001 A 
ATOM     96  C   UNL     1      -7.301 -16.195   2.630  1.00  0.00     0.001 A 
ATOM     97  C   UNL     1      -6.479 -17.266   2.287  1.00  0.00     0.000 A 
ENDBRANCH  79  92
ENDBRANCH  53  54
ENDBRANCH  46  48
ENDBRANCH  45  46
ENDBRANCH  44  45
ENDBRANCH  43  44
ENDBRANCH  42  43
ENDBRANCH  41  42
ENDBRANCH  40  41
ENDBRANCH   1  40
TORSDOF 26
