REMARK SMILES O=C(OCCOCCOCCOC(=O)c1nccnc1C(=O)Nc1n[nH]c2ncccc12)c1ccc(-c2c3nc(c(-c4ccccc4)c4ccc([nH]4)c(-c4ccccc4)c4nc(c(-c5ccccc5)c5ccc2[nH]5)C=C4)C=C3)cc1
REMARK SMILES IDX 7 1 6 2 5 3 4 4 3 5 2 6 1 7 33 8 34 9 80 10 35 11 79 12
REMARK SMILES IDX 36 13 37 14 38 15 73 16 39 17 78 18 72 19 74 20 40 21 77 22
REMARK SMILES IDX 71 23 70 24 41 26 63 27 48 28 62 29 49 30 52 31 61 32 75 33
REMARK SMILES IDX 50 34 51 35 60 37 76 38 53 39 42 40 43 41 47 42 44 43 46 44
REMARK SMILES IDX 45 45 64 46 65 47 69 48 66 49 68 50 67 51 54 52 55 53 59 54
REMARK SMILES IDX 56 55 58 56 57 57 8 58 9 59 10 60 11 61 12 62 13 63 14 64
REMARK SMILES IDX 15 65 16 66 20 67 17 68 19 69 18 70 21 71 22 72 23 73 24 75
REMARK SMILES IDX 25 76 32 77 26 78 27 79 31 80 28 82 30 83 29 84
REMARK H PARENT 74 25 52 36 23 74 26 81
REMARK Flexibility Score: inf
ROOT
ATOM      1  C   UNL     1       3.025   1.300  -0.421  1.00  0.00     0.188 C 
ENDROOT
BRANCH   1   2
ATOM      2  O   UNL     1       4.376   0.926  -0.154  1.00  0.00    -0.376 OA
BRANCH   2   3
ATOM      3  C   UNL     1       5.125   0.481  -1.276  1.00  0.00     0.202 C 
BRANCH   3   4
ATOM      4  C   UNL     1       4.788  -0.915  -1.820  1.00  0.00     0.261 C 
BRANCH   4   5
ATOM      5  O   UNL     1       3.475  -1.433  -1.538  1.00  0.00    -0.460 OA
BRANCH   5   6
ATOM      6  C   UNL     1       2.983  -2.064  -0.443  1.00  0.00     0.338 C 
ATOM      7  O   UNL     1       1.934  -2.696  -0.560  1.00  0.00    -0.246 OA
BRANCH   6   8
ATOM      8  C   UNL     1       3.572  -1.949   0.929  1.00  0.00     0.060 A 
ATOM      9  C   UNL     1       4.884  -1.571   1.202  1.00  0.00     0.016 A 
ATOM     10  C   UNL     1       2.745  -2.283   2.024  1.00  0.00     0.016 A 
ATOM     11  C   UNL     1       5.359  -1.489   2.505  1.00  0.00     0.010 A 
ATOM     12  C   UNL     1       3.233  -2.273   3.339  1.00  0.00     0.010 A 
ATOM     13  C   UNL     1       4.558  -1.901   3.571  1.00  0.00    -0.014 A 
BRANCH  13  14
ATOM     14  C   UNL     1       5.278  -2.215   4.821  1.00  0.00     0.031 A 
ATOM     15  C   UNL     1       5.943  -3.561   4.897  1.00  0.00     0.074 A 
ATOM     16  C   UNL     1       5.551  -1.257   5.721  1.00  0.00     0.049 A 
ATOM     17  N   UNL     1       6.818  -4.004   5.758  1.00  0.00    -0.248 NA
ATOM     18  C   UNL     1       5.626  -4.510   3.813  1.00  0.00     0.031 C 
ATOM     19  C   UNL     1       5.081   0.124   5.648  1.00  0.00     0.029 A 
ATOM     20  N   UNL     1       6.338  -1.286   6.842  1.00  0.00    -0.354 N 
ATOM     21  C   UNL     1       7.186  -5.261   5.297  1.00  0.00     0.074 A 
ATOM     22  C   UNL     1       6.424  -5.525   4.099  1.00  0.00     0.031 C 
ATOM     23  C   UNL     1       5.605   0.817   6.674  1.00  0.00     0.029 A 
ATOM     24  C   UNL     1       6.399  -0.083   7.501  1.00  0.00     0.049 A 
ATOM     25  H   UNL     1       6.813  -2.092   7.146  1.00  0.00     0.167 HD
ATOM     26  C   UNL     1       8.085  -6.121   5.827  1.00  0.00     0.031 A 
ATOM     27  C   UNL     1       7.011   0.240   8.656  1.00  0.00     0.031 A 
ATOM     28  C   UNL     1       8.771  -5.884   7.064  1.00  0.00     0.049 A 
ATOM     29  C   UNL     1       7.845  -0.812   9.337  1.00  0.00     0.074 A 
ATOM     30  C   UNL     1       9.608  -6.731   7.765  1.00  0.00     0.029 A 
ATOM     31  N   UNL     1       8.674  -4.710   7.797  1.00  0.00    -0.354 N 
ATOM     32  N   UNL     1       8.151  -2.018   8.920  1.00  0.00    -0.248 NA
ATOM     33  C   UNL     1       8.426  -0.456  10.637  1.00  0.00     0.031 C 
ATOM     34  C   UNL     1       9.970  -6.090   8.955  1.00  0.00     0.029 A 
ATOM     35  C   UNL     1       9.417  -4.818   8.958  1.00  0.00     0.049 A 
ATOM     36  H   UNL     1       8.154  -3.918   7.530  1.00  0.00     0.167 HD
ATOM     37  C   UNL     1       8.982  -2.555   9.894  1.00  0.00     0.074 A 
ATOM     38  C   UNL     1       9.149  -1.533  10.908  1.00  0.00     0.031 C 
ATOM     39  C   UNL     1       9.557  -3.782   9.949  1.00  0.00     0.031 A 
BRANCH  26  40
ATOM     40  C   UNL     1       8.291  -7.417   5.100  1.00  0.00    -0.014 A 
ATOM     41  C   UNL     1       8.986  -7.468   3.880  1.00  0.00     0.009 A 
ATOM     42  C   UNL     1       7.753  -8.601   5.625  1.00  0.00     0.009 A 
ATOM     43  C   UNL     1       9.110  -8.675   3.187  1.00  0.00     0.001 A 
ATOM     44  C   UNL     1       7.900  -9.809   4.943  1.00  0.00     0.001 A 
ATOM     45  C   UNL     1       8.569  -9.844   3.721  1.00  0.00     0.000 A 
ENDBRANCH  26  40
BRANCH  27  46
ATOM     46  C   UNL     1       6.799   1.574   9.284  1.00  0.00    -0.014 A 
ATOM     47  C   UNL     1       7.857   2.470   9.491  1.00  0.00     0.009 A 
ATOM     48  C   UNL     1       5.520   1.925   9.749  1.00  0.00     0.009 A 
ATOM     49  C   UNL     1       7.645   3.670  10.180  1.00  0.00     0.001 A 
ATOM     50  C   UNL     1       5.302   3.139  10.403  1.00  0.00     0.001 A 
ATOM     51  C   UNL     1       6.369   4.004  10.631  1.00  0.00     0.000 A 
ENDBRANCH  27  46
BRANCH  39  52
ATOM     52  C   UNL     1      10.445  -4.064  11.127  1.00  0.00    -0.014 A 
ATOM     53  C   UNL     1       9.919  -4.230  12.418  1.00  0.00     0.009 A 
ATOM     54  C   UNL     1      11.828  -4.201  10.931  1.00  0.00     0.009 A 
ATOM     55  C   UNL     1      10.768  -4.486  13.495  1.00  0.00     0.001 A 
ATOM     56  C   UNL     1      12.669  -4.494  12.004  1.00  0.00     0.001 A 
ATOM     57  C   UNL     1      12.140  -4.624  13.286  1.00  0.00     0.000 A 
ENDBRANCH  39  52
ENDBRANCH  13  14
ENDBRANCH   6   8
ENDBRANCH   5   6
ENDBRANCH   4   5
ENDBRANCH   3   4
ENDBRANCH   2   3
ENDBRANCH   1   2
BRANCH   1  58
ATOM     58  C   UNL     1       2.879   2.496  -1.354  1.00  0.00     0.188 C 
BRANCH  58  59
ATOM     59  O   UNL     1       3.267   3.757  -0.833  1.00  0.00    -0.376 OA
BRANCH  59  60
ATOM     60  C   UNL     1       4.605   3.996  -0.423  1.00  0.00     0.202 C 
BRANCH  60  61
ATOM     61  C   UNL     1       5.083   3.881   1.182  1.00  0.00     0.261 C 
BRANCH  61  62
ATOM     62  O   UNL     1       4.165   4.493   2.896  1.00  0.00    -0.458 OA
BRANCH  62  63
ATOM     63  C   UNL     1       3.323   4.624   4.037  1.00  0.00     0.359 C 
ATOM     64  O   UNL     1       3.167   5.740   4.542  1.00  0.00    -0.244 OA
BRANCH  63  65
ATOM     65  C   UNL     1       2.629   3.468   4.745  1.00  0.00     0.179 A 
ATOM     66  N   UNL     1       3.131   3.409   6.034  1.00  0.00    -0.245 NA
ATOM     67  C   UNL     1       1.637   2.555   4.330  1.00  0.00     0.161 A 
ATOM     68  C   UNL     1       2.646   2.473   6.871  1.00  0.00     0.132 A 
ATOM     69  N   UNL     1       1.240   1.562   5.208  1.00  0.00    -0.247 NA
ATOM     70  C   UNL     1       1.734   1.543   6.457  1.00  0.00     0.132 A 
BRANCH  67  71
ATOM     71  C   UNL     1       0.781   2.382   3.064  1.00  0.00     0.278 C 
ATOM     72  O   UNL     1       0.092   1.362   2.937  1.00  0.00    -0.267 OA
ATOM     73  N   UNL     1       0.602   3.340   2.108  1.00  0.00    -0.303 N 
ATOM     74  H   UNL     1      -0.319   3.499   1.797  1.00  0.00     0.172 HD
BRANCH  73  75
ATOM     75  C   UNL     1       1.581   4.089   1.550  1.00  0.00     0.164 A 
ATOM     76  N   UNL     1       1.290   5.250   0.950  1.00  0.00    -0.155 NA
ATOM     77  C   UNL     1       2.945   3.786   1.667  1.00  0.00     0.063 A 
ATOM     78  N   UNL     1       2.423   6.019   0.928  1.00  0.00    -0.259 N 
ATOM     79  C   UNL     1       3.543   5.414   1.415  1.00  0.00     0.157 A 
ATOM     80  C   UNL     1       3.999   2.595   2.550  1.00  0.00     0.017 A 
ATOM     81  H   UNL     1       2.428   6.942   0.585  1.00  0.00     0.192 HD
ATOM     82  N   UNL     1       5.053   5.981   1.988  1.00  0.00    -0.237 NA
ATOM     83  C   UNL     1       5.553   3.170   3.240  1.00  0.00     0.021 A 
ATOM     84  C   UNL     1       6.000   4.840   2.947  1.00  0.00     0.113 A 
ENDBRANCH  73  75
ENDBRANCH  67  71
ENDBRANCH  63  65
ENDBRANCH  62  63
ENDBRANCH  61  62
ENDBRANCH  60  61
ENDBRANCH  59  60
ENDBRANCH  58  59
ENDBRANCH   1  58
TORSDOF 19
