REMARK SMILES Cc1nc(NC(=O)[C@H]2[C@@H]3CC[C@@H](C3)[C@@H]2C(=O)OCCOCCOCCOC(=O)c2ccc(-c3c4nc(c(-c5ccccc5)c5ccc([nH]5)c(-c5ccccc5)c5nc(c(-c6ccccc6)c6ccc3[nH]6)C=C5)C=C4)cc2)sc1-c1ccccc1
REMARK SMILES IDX 21 1 20 2 19 3 18 4 17 5 15 6 16 7 14 8 8 9 9 10 10 11 13 12
REMARK SMILES IDX 12 13 11 14 6 15 5 16 7 18 4 19 1 20 2 21 3 22 78 23 77 24
REMARK SMILES IDX 79 25 80 26 84 27 81 28 83 29 82 30 22 31 23 32 24 33 25 34
REMARK SMILES IDX 26 35 27 36 28 37 29 38 30 39 76 40 31 41 75 42 32 43 33 44
REMARK SMILES IDX 34 45 69 46 35 47 74 48 68 49 70 50 36 51 73 52 67 53 66 54
REMARK SMILES IDX 37 56 59 57 44 58 58 59 45 60 48 61 57 62 71 63 46 64 47 65
REMARK SMILES IDX 56 67 72 68 49 69 38 70 39 71 43 72 40 73 42 74 41 75 60 76
REMARK SMILES IDX 61 77 65 78 62 79 64 80 63 81 50 82 51 83 55 84 52 85 54 86
REMARK SMILES IDX 53 87
REMARK H PARENT 5 17 70 55 48 66
REMARK Flexibility Score: inf
ROOT
ATOM      1  C   UNL     1      -1.237   1.306   3.094  1.00  0.00     0.188 C 
ENDROOT
BRANCH   1   2
ATOM      2  O   UNL     1      -2.276   1.551   4.030  1.00  0.00    -0.376 OA
BRANCH   2   3
ATOM      3  C   UNL     1      -3.546   0.967   3.753  1.00  0.00     0.202 C 
BRANCH   3   4
ATOM      4  C   UNL     1      -4.378   1.629   2.645  1.00  0.00     0.261 C 
BRANCH   4   5
ATOM      5  O   UNL     1      -3.709   1.700   1.377  1.00  0.00    -0.463 OA
BRANCH   5   6
ATOM      6  C   UNL     1      -3.142   2.908   1.065  1.00  0.00     0.310 C 
ATOM      7  O   UNL     1      -3.237   3.925   1.734  1.00  0.00    -0.252 OA
BRANCH   6   8
ATOM      8  C   UNL     1      -2.308   2.761  -0.202  1.00  0.00     0.115 C 
ATOM      9  C   UNL     1      -1.085   3.693  -0.286  1.00  0.00     0.096 C 
ATOM     10  C   UNL     1      -1.455   4.612  -1.478  1.00  0.00     0.003 C 
ATOM     11  C   UNL     1      -2.711   5.450  -1.127  1.00  0.00     0.005 C 
ATOM     12  C   UNL     1      -2.033   3.607  -2.466  1.00  0.00     0.009 C 
ATOM     13  C   UNL     1      -3.107   3.117  -1.484  1.00  0.00     0.004 C 
ATOM     14  C   UNL     1      -3.863   4.440  -1.279  1.00  0.00     0.005 C 
BRANCH   9  15
ATOM     15  C   UNL     1       0.365   3.163  -0.440  1.00  0.00     0.230 C 
ATOM     16  N   UNL     1       0.836   2.011  -0.982  1.00  0.00    -0.302 N 
ATOM     17  H   UNL     1       1.817   1.968  -1.045  1.00  0.00     0.172 HD
ATOM     18  O   UNL     1       1.272   3.918  -0.038  1.00  0.00    -0.274 OA
BRANCH  16  19
ATOM     19  C   UNL     1       0.199   0.903  -1.454  1.00  0.00     0.190 A 
ATOM     20  C   UNL     1      -2.820  -0.924  -1.577  1.00  0.00     0.068 C 
ATOM     21  C   UNL     1      -1.371  -0.610  -1.706  1.00  0.00     0.058 A 
ATOM     22  N   UNL     1      -1.063   0.733  -1.689  1.00  0.00    -0.225 NA
ATOM     23  C   UNL     1      -0.273  -1.469  -1.735  1.00  0.00     0.059 A 
ATOM     24  S   UNL     1       1.162  -0.488  -1.694  1.00  0.00    -0.096 S 
BRANCH  23  25
ATOM     25  C   UNL     1      -0.243  -2.946  -1.660  1.00  0.00    -0.006 A 
ATOM     26  C   UNL     1       0.752  -3.635  -0.957  1.00  0.00     0.009 A 
ATOM     27  C   UNL     1      -1.323  -3.701  -2.143  1.00  0.00     0.009 A 
ATOM     28  C   UNL     1       0.588  -4.978  -0.594  1.00  0.00     0.001 A 
ATOM     29  C   UNL     1      -1.490  -5.044  -1.791  1.00  0.00     0.001 A 
ATOM     30  C   UNL     1      -0.551  -5.673  -0.983  1.00  0.00     0.000 A 
ENDBRANCH  23  25
ENDBRANCH  16  19
ENDBRANCH   9  15
ENDBRANCH   6   8
ENDBRANCH   5   6
ENDBRANCH   4   5
ENDBRANCH   3   4
ENDBRANCH   2   3
ENDBRANCH   1   2
BRANCH   1  31
ATOM     31  C   UNL     1      -0.744  -0.128   2.968  1.00  0.00     0.188 C 
BRANCH  31  32
ATOM     32  O   UNL     1      -1.728  -1.112   2.672  1.00  0.00    -0.376 OA
BRANCH  32  33
ATOM     33  C   UNL     1      -1.171  -2.385   2.308  1.00  0.00     0.202 C 
BRANCH  33  34
ATOM     34  C   UNL     1      -0.263  -3.034   3.377  1.00  0.00     0.261 C 
BRANCH  34  35
ATOM     35  O   UNL     1       0.922  -2.263   3.692  1.00  0.00    -0.460 OA
BRANCH  35  36
ATOM     36  C   UNL     1       1.804  -2.110   2.689  1.00  0.00     0.338 C 
ATOM     37  O   UNL     1       1.814  -2.727   1.631  1.00  0.00    -0.246 OA
BRANCH  36  38
ATOM     38  C   UNL     1       2.670  -0.943   2.910  1.00  0.00     0.060 A 
ATOM     39  C   UNL     1       2.661   0.077   1.946  1.00  0.00     0.016 A 
ATOM     40  C   UNL     1       3.559  -0.896   3.979  1.00  0.00     0.016 A 
ATOM     41  C   UNL     1       3.576   1.121   2.013  1.00  0.00     0.010 A 
ATOM     42  C   UNL     1       4.492   0.143   4.037  1.00  0.00     0.010 A 
ATOM     43  C   UNL     1       4.531   1.131   3.033  1.00  0.00    -0.014 A 
BRANCH  43  44
ATOM     44  C   UNL     1       5.670   2.075   2.964  1.00  0.00     0.031 A 
ATOM     45  C   UNL     1       7.020   1.550   2.560  1.00  0.00     0.074 A 
ATOM     46  C   UNL     1       5.506   3.381   3.229  1.00  0.00     0.049 A 
ATOM     47  N   UNL     1       8.186   2.140   2.594  1.00  0.00    -0.248 NA
ATOM     48  C   UNL     1       7.056   0.169   2.050  1.00  0.00     0.031 C 
ATOM     49  C   UNL     1       4.231   4.031   3.529  1.00  0.00     0.029 A 
ATOM     50  N   UNL     1       6.428   4.394   3.297  1.00  0.00    -0.354 N 
ATOM     51  C   UNL     1       9.101   1.188   2.159  1.00  0.00     0.074 A 
ATOM     52  C   UNL     1       8.354  -0.014   1.860  1.00  0.00     0.031 C 
ATOM     53  C   UNL     1       4.455   5.334   3.768  1.00  0.00     0.029 A 
ATOM     54  C   UNL     1       5.890   5.592   3.696  1.00  0.00     0.049 A 
ATOM     55  H   UNL     1       7.381   4.274   3.081  1.00  0.00     0.167 HD
ATOM     56  C   UNL     1      10.444   1.306   2.034  1.00  0.00     0.031 A 
ATOM     57  C   UNL     1       6.494   6.752   4.017  1.00  0.00     0.031 A 
ATOM     58  C   UNL     1      11.174   2.511   2.324  1.00  0.00     0.049 A 
ATOM     59  C   UNL     1       7.992   6.844   3.937  1.00  0.00     0.074 A 
ATOM     60  C   UNL     1      12.536   2.740   2.234  1.00  0.00     0.029 A 
ATOM     61  N   UNL     1      10.596   3.695   2.758  1.00  0.00    -0.354 N 
ATOM     62  N   UNL     1       8.858   5.928   3.573  1.00  0.00    -0.248 NA
ATOM     63  C   UNL     1       8.597   8.128   4.315  1.00  0.00     0.031 C 
ATOM     64  C   UNL     1      12.787   4.048   2.664  1.00  0.00     0.029 A 
ATOM     65  C   UNL     1      11.575   4.652   2.964  1.00  0.00     0.049 A 
ATOM     66  H   UNL     1       9.632   3.834   2.898  1.00  0.00     0.167 HD
ATOM     67  C   UNL     1      10.107   6.528   3.663  1.00  0.00     0.074 A 
ATOM     68  C   UNL     1       9.883   7.893   4.098  1.00  0.00     0.031 C 
ATOM     69  C   UNL     1      11.330   6.000   3.407  1.00  0.00     0.031 A 
BRANCH  56  70
ATOM     70  C   UNL     1      11.209   0.073   1.640  1.00  0.00    -0.014 A 
ATOM     71  C   UNL     1      11.150  -0.455   0.341  1.00  0.00     0.009 A 
ATOM     72  C   UNL     1      12.006  -0.574   2.599  1.00  0.00     0.009 A 
ATOM     73  C   UNL     1      11.841  -1.628   0.023  1.00  0.00     0.001 A 
ATOM     74  C   UNL     1      12.718  -1.729   2.271  1.00  0.00     0.001 A 
ATOM     75  C   UNL     1      12.625  -2.262   0.987  1.00  0.00     0.000 A 
ENDBRANCH  56  70
BRANCH  57  76
ATOM     76  C   UNL     1       5.678   7.895   4.502  1.00  0.00    -0.014 A 
ATOM     77  C   UNL     1       5.505   9.043   3.716  1.00  0.00     0.009 A 
ATOM     78  C   UNL     1       5.047   7.830   5.756  1.00  0.00     0.009 A 
ATOM     79  C   UNL     1       4.725  10.106   4.180  1.00  0.00     0.001 A 
ATOM     80  C   UNL     1       4.245   8.881   6.204  1.00  0.00     0.001 A 
ATOM     81  C   UNL     1       4.090  10.021   5.418  1.00  0.00     0.000 A 
ENDBRANCH  57  76
BRANCH  69  82
ATOM     82  C   UNL     1      12.513   6.913   3.564  1.00  0.00    -0.014 A 
ATOM     83  C   UNL     1      12.975   7.298   4.832  1.00  0.00     0.009 A 
ATOM     84  C   UNL     1      13.192   7.369   2.423  1.00  0.00     0.009 A 
ATOM     85  C   UNL     1      14.074   8.150   4.952  1.00  0.00     0.001 A 
ATOM     86  C   UNL     1      14.307   8.198   2.547  1.00  0.00     0.001 A 
ATOM     87  C   UNL     1      14.741   8.596   3.811  1.00  0.00     0.000 A 
ENDBRANCH  69  82
ENDBRANCH  43  44
ENDBRANCH  36  38
ENDBRANCH  35  36
ENDBRANCH  34  35
ENDBRANCH  33  34
ENDBRANCH  32  33
ENDBRANCH  31  32
ENDBRANCH   1  31
TORSDOF 20
