REMARK SMILES C[C@@]12CC[C@@H]3c4ccc(O)cc4/C(=N\OCC(=O)OCCOCCOCCOC(=O)c4ccc(-c5c6nc(c(-c7ccccc7)c7ccc([nH]7)c(-c7ccccc7)c7nc(c(-c8ccccc8)c8ccc5[nH]8)C=C7)C=C6)cc4)C[C@H]3[C@@H]1C[C@@H](O)[C@@H]2O
REMARK SMILES IDX 23 1 22 2 21 3 20 4 19 5 17 6 18 7 16 8 15 9 14 10 1 11 2 12
REMARK SMILES IDX 3 13 81 14 85 15 4 16 80 17 82 18 83 19 5 20 79 21 6 22
REMARK SMILES IDX 13 23 7 24 12 25 8 26 11 27 9 28 86 29 84 31 10 33 24 35
REMARK SMILES IDX 25 36 26 37 27 38 28 39 29 40 30 41 31 42 32 43 78 44 33 45
REMARK SMILES IDX 77 46 34 47 35 48 36 49 71 50 37 51 76 52 70 53 72 54 38 55
REMARK SMILES IDX 75 56 69 57 68 58 39 60 61 61 46 62 60 63 47 64 50 65 59 66
REMARK SMILES IDX 73 67 48 68 49 69 58 71 74 72 51 73 40 74 41 75 45 76 42 77
REMARK SMILES IDX 44 78 43 79 62 80 63 81 67 82 64 83 66 84 65 85 52 86 53 87
REMARK SMILES IDX 57 88 54 89 56 90 55 91
REMARK H PARENT 86 30 84 32 10 34 72 59 50 70
REMARK Flexibility Score: inf
ROOT
ATOM      1  C   UNL     1      -8.226  -0.768  -3.241  1.00  0.00     0.188 C 
ENDROOT
BRANCH   1   2
ATOM      2  O   UNL     1      -9.156  -0.168  -2.349  1.00  0.00    -0.376 OA
BRANCH   2   3
ATOM      3  C   UNL     1      -8.709   0.037  -1.007  1.00  0.00     0.202 C 
BRANCH   3   4
ATOM      4  C   UNL     1      -8.328  -1.218  -0.201  1.00  0.00     0.261 C 
BRANCH   4   5
ATOM      5  O   UNL     1      -7.279  -2.001  -0.806  1.00  0.00    -0.461 OA
BRANCH   5   6
ATOM      6  C   UNL     1      -7.595  -3.286  -1.127  1.00  0.00     0.347 C 
ATOM      7  O   UNL     1      -8.646  -3.842  -0.818  1.00  0.00    -0.248 OA
BRANCH   6   8
ATOM      8  C   UNL     1      -6.593  -3.929  -2.086  1.00  0.00     0.386 C 
BRANCH   8   9
ATOM      9  O   UNL     1      -5.208  -3.839  -1.871  1.00  0.00    -0.383 OA
BRANCH   9  10
ATOM     10  N   UNL     1      -4.642  -2.615  -2.295  1.00  0.00    -0.090 NA
ATOM     11  C   UNL     1       1.586  -0.836   0.605  1.00  0.00     0.014 C 
ATOM     12  C   UNL     1       1.129  -1.824  -0.507  1.00  0.00    -0.001 C 
ATOM     13  C   UNL     1       0.739  -3.085   0.252  1.00  0.00     0.010 C 
ATOM     14  C   UNL     1      -0.001  -1.171  -1.341  1.00  0.00     0.004 C 
ATOM     15  C   UNL     1       2.223  -2.060  -1.597  1.00  0.00     0.149 C 
ATOM     16  C   UNL     1       0.101  -4.129  -0.608  1.00  0.00     0.009 C 
ATOM     17  C   UNL     1      -0.924  -2.224  -2.085  1.00  0.00     0.006 C 
ATOM     18  C   UNL     1       0.846  -0.186  -2.249  1.00  0.00     0.039 C 
ATOM     19  C   UNL     1       2.320  -0.699  -2.275  1.00  0.00     0.144 C 
ATOM     20  C   UNL     1      -1.133  -3.562  -1.285  1.00  0.00     0.024 C 
ATOM     21  C   UNL     1      -2.355  -1.687  -2.409  1.00  0.00     0.065 C 
ATOM     22  C   UNL     1      -1.782  -4.591  -2.189  1.00  0.00    -0.035 A 
ATOM     23  C   UNL     1      -3.390  -2.816  -2.618  1.00  0.00     0.088 C 
ATOM     24  C   UNL     1      -1.426  -5.946  -2.243  1.00  0.00     0.008 A 
ATOM     25  C   UNL     1      -2.857  -4.161  -2.962  1.00  0.00     0.006 A 
ATOM     26  C   UNL     1      -2.090  -6.828  -3.094  1.00  0.00     0.046 A 
ATOM     27  C   UNL     1      -3.498  -5.020  -3.862  1.00  0.00     0.056 A 
ATOM     28  C   UNL     1      -3.103  -6.352  -3.916  1.00  0.00     0.116 A 
BRANCH  15  29
ATOM     29  O   UNL     1       1.874  -3.020  -2.599  1.00  0.00    -0.390 OA
ATOM     30  H   UNL     1       1.066  -2.735  -3.053  1.00  0.00     0.211 HD
ENDBRANCH  15  29
BRANCH  19  31
ATOM     31  O   UNL     1       3.218   0.140  -1.552  1.00  0.00    -0.390 OA
ATOM     32  H   UNL     1       2.925   0.208  -0.630  1.00  0.00     0.211 HD
ENDBRANCH  19  31
BRANCH  28  33
ATOM     33  O   UNL     1      -3.763  -7.191  -4.764  1.00  0.00    -0.508 OA
ATOM     34  H   UNL     1      -3.514  -8.093  -4.817  1.00  0.00     0.293 HD
ENDBRANCH  28  33
ENDBRANCH   9  10
ENDBRANCH   8   9
ENDBRANCH   6   8
ENDBRANCH   5   6
ENDBRANCH   4   5
ENDBRANCH   3   4
ENDBRANCH   2   3
ENDBRANCH   1   2
BRANCH   1  35
ATOM     35  C   UNL     1      -6.886  -0.053  -3.428  1.00  0.00     0.188 C 
BRANCH  35  36
ATOM     36  O   UNL     1      -6.265   0.420  -2.244  1.00  0.00    -0.376 OA
BRANCH  36  37
ATOM     37  C   UNL     1      -4.960   0.976  -2.385  1.00  0.00     0.202 C 
BRANCH  37  38
ATOM     38  C   UNL     1      -4.772   2.094  -3.424  1.00  0.00     0.261 C 
BRANCH  38  39
ATOM     39  O   UNL     1      -5.190   1.774  -4.766  1.00  0.00    -0.460 OA
BRANCH  39  40
ATOM     40  C   UNL     1      -4.600   0.728  -5.403  1.00  0.00     0.338 C 
ATOM     41  O   UNL     1      -3.590   0.158  -5.078  1.00  0.00    -0.246 OA
BRANCH  40  42
ATOM     42  C   UNL     1      -5.560   0.250  -6.449  1.00  0.00     0.060 A 
ATOM     43  C   UNL     1      -6.393   1.139  -7.134  1.00  0.00     0.016 A 
ATOM     44  C   UNL     1      -5.693  -1.129  -6.669  1.00  0.00     0.016 A 
ATOM     45  C   UNL     1      -7.337   0.655  -8.047  1.00  0.00     0.010 A 
ATOM     46  C   UNL     1      -6.636  -1.613  -7.589  1.00  0.00     0.010 A 
ATOM     47  C   UNL     1      -7.453  -0.724  -8.302  1.00  0.00    -0.014 A 
BRANCH  47  48
ATOM     48  C   UNL     1      -8.288  -1.192  -9.443  1.00  0.00     0.031 A 
ATOM     49  C   UNL     1      -9.617  -1.867  -9.262  1.00  0.00     0.074 A 
ATOM     50  C   UNL     1      -7.815  -0.991 -10.689  1.00  0.00     0.049 A 
ATOM     51  N   UNL     1     -10.482  -2.226 -10.181  1.00  0.00    -0.248 NA
ATOM     52  C   UNL     1     -10.032  -2.184  -7.889  1.00  0.00     0.031 C 
ATOM     53  C   UNL     1      -6.529  -0.367 -11.001  1.00  0.00     0.029 A 
ATOM     54  N   UNL     1      -8.359  -1.269 -11.919  1.00  0.00    -0.354 N 
ATOM     55  C   UNL     1     -11.552  -2.795  -9.501  1.00  0.00     0.074 A 
ATOM     56  C   UNL     1     -11.206  -2.774  -8.094  1.00  0.00     0.031 C 
ATOM     57  C   UNL     1      -6.399  -0.274 -12.332  1.00  0.00     0.029 A 
ATOM     58  C   UNL     1      -7.573  -0.864 -12.971  1.00  0.00     0.049 A 
ATOM     59  H   UNL     1      -9.229  -1.716 -12.037  1.00  0.00     0.167 HD
ATOM     60  C   UNL     1     -12.716  -3.273 -10.007  1.00  0.00     0.031 A 
ATOM     61  C   UNL     1      -7.763  -0.946 -14.303  1.00  0.00     0.031 A 
ATOM     62  C   UNL     1     -13.047  -3.312 -11.412  1.00  0.00     0.049 A 
ATOM     63  C   UNL     1      -9.042  -1.528 -14.837  1.00  0.00     0.074 A 
ATOM     64  C   UNL     1     -14.229  -3.733 -12.000  1.00  0.00     0.029 A 
ATOM     65  N   UNL     1     -12.203  -2.939 -12.446  1.00  0.00    -0.354 N 
ATOM     66  N   UNL     1     -10.082  -1.972 -14.176  1.00  0.00    -0.248 NA
ATOM     67  C   UNL     1      -9.182  -1.603 -16.299  1.00  0.00     0.031 C 
ATOM     68  C   UNL     1     -14.069  -3.699 -13.386  1.00  0.00     0.029 A 
ATOM     69  C   UNL     1     -12.823  -3.164 -13.666  1.00  0.00     0.049 A 
ATOM     70  H   UNL     1     -11.297  -2.569 -12.331  1.00  0.00     0.167 HD
ATOM     71  C   UNL     1     -11.009  -2.355 -15.138  1.00  0.00     0.074 A 
ATOM     72  C   UNL     1     -10.416  -2.074 -16.428  1.00  0.00     0.031 C 
ATOM     73  C   UNL     1     -12.240  -2.890 -14.957  1.00  0.00     0.031 A 
BRANCH  60  74
ATOM     74  C   UNL     1     -13.757  -3.794  -9.047  1.00  0.00    -0.014 A 
ATOM     75  C   UNL     1     -14.139  -5.146  -9.091  1.00  0.00     0.009 A 
ATOM     76  C   UNL     1     -14.469  -2.919  -8.212  1.00  0.00     0.009 A 
ATOM     77  C   UNL     1     -15.223  -5.605  -8.340  1.00  0.00     0.001 A 
ATOM     78  C   UNL     1     -15.533  -3.388  -7.436  1.00  0.00     0.001 A 
ATOM     79  C   UNL     1     -15.918  -4.726  -7.511  1.00  0.00     0.000 A 
ENDBRANCH  60  74
BRANCH  61  80
ATOM     80  C   UNL     1      -6.717  -0.413 -15.216  1.00  0.00    -0.014 A 
ATOM     81  C   UNL     1      -5.451  -1.019 -15.285  1.00  0.00     0.009 A 
ATOM     82  C   UNL     1      -6.956   0.742 -15.977  1.00  0.00     0.009 A 
ATOM     83  C   UNL     1      -4.438  -0.462 -16.067  1.00  0.00     0.001 A 
ATOM     84  C   UNL     1      -5.952   1.275 -16.788  1.00  0.00     0.001 A 
ATOM     85  C   UNL     1      -4.691   0.682 -16.822  1.00  0.00     0.000 A 
ENDBRANCH  61  80
BRANCH  73  86
ATOM     86  C   UNL     1     -13.068  -3.212 -16.175  1.00  0.00    -0.014 A 
ATOM     87  C   UNL     1     -14.272  -2.523 -16.402  1.00  0.00     0.009 A 
ATOM     88  C   UNL     1     -12.728  -4.272 -17.029  1.00  0.00     0.009 A 
ATOM     89  C   UNL     1     -15.129  -2.905 -17.437  1.00  0.00     0.001 A 
ATOM     90  C   UNL     1     -13.569  -4.629 -18.086  1.00  0.00     0.001 A 
ATOM     91  C   UNL     1     -14.775  -3.956 -18.280  1.00  0.00     0.000 A 
ENDBRANCH  73  86
ENDBRANCH  47  48
ENDBRANCH  40  42
ENDBRANCH  39  40
ENDBRANCH  38  39
ENDBRANCH  37  38
ENDBRANCH  36  37
ENDBRANCH  35  36
ENDBRANCH   1  35
TORSDOF 22
