REMARK SMILES O=C(C[C@H]1C[C@H]2CC[C@@H](C1)N2C(=O)[C@H]1CCCCO1)OCCOCCOCCOC(=O)c1ccc(-c2c3nc(c(-c4ccccc4)c4ccc([nH]4)c(-c4ccccc4)c4nc(c(-c5ccccc5)c5ccc2[nH]5)C=C4)C=C3)cc1
REMARK SMILES IDX 24 1 23 2 22 3 21 4 20 5 2 6 1 7 3 8 4 9 5 10 10 11 6 12
REMARK SMILES IDX 9 13 7 14 11 15 8 16 12 17 13 18 14 19 15 20 19 21 16 22
REMARK SMILES IDX 18 23 17 24 25 25 26 26 27 27 28 28 29 29 30 30 31 31 32 32
REMARK SMILES IDX 33 33 79 34 34 35 78 36 35 37 36 38 37 39 72 40 38 41 77 42
REMARK SMILES IDX 71 43 73 44 39 45 76 46 70 47 69 48 40 50 62 51 47 52 61 53
REMARK SMILES IDX 48 54 51 55 60 56 74 57 49 58 50 59 59 61 75 62 52 63 41 64
REMARK SMILES IDX 42 65 46 66 43 67 45 68 44 69 63 70 64 71 68 72 65 73 67 74
REMARK SMILES IDX 66 75 53 76 54 77 58 78 55 79 57 80 56 81
REMARK H PARENT 73 49 51 60
REMARK Flexibility Score: inf
ROOT
ATOM      1  C   UNL     1      11.630  -6.825   6.720  1.00  0.00     0.188 C 
ENDROOT
BRANCH   1   2
ATOM      2  O   UNL     1      10.901  -7.104   7.907  1.00  0.00    -0.376 OA
BRANCH   2   3
ATOM      3  C   UNL     1       9.489  -7.270   7.852  1.00  0.00     0.202 C 
BRANCH   3   4
ATOM      4  C   UNL     1       8.825  -7.689   6.541  1.00  0.00     0.261 C 
BRANCH   4   5
ATOM      5  O   UNL     1       9.044  -6.897   5.345  1.00  0.00    -0.463 OA
BRANCH   5   6
ATOM      6  C   UNL     1       9.198  -5.576   5.154  1.00  0.00     0.306 C 
ATOM      7  O   UNL     1       9.526  -5.155   4.046  1.00  0.00    -0.252 OA
BRANCH   6   8
ATOM      8  C   UNL     1       8.956  -4.614   6.286  1.00  0.00     0.126 C 
BRANCH   8   9
ATOM      9  C   UNL     1       7.461  -4.455   6.565  1.00  0.00     0.004 C 
ATOM     10  C   UNL     1       7.164  -4.029   8.031  1.00  0.00     0.029 C 
ATOM     11  C   UNL     1       6.835  -3.531   5.486  1.00  0.00     0.029 C 
ATOM     12  C   UNL     1       6.901  -2.528   8.209  1.00  0.00     0.085 C 
ATOM     13  C   UNL     1       6.549  -2.095   5.956  1.00  0.00     0.085 C 
ATOM     14  C   UNL     1       8.107  -1.689   7.779  1.00  0.00     0.027 C 
ATOM     15  N   UNL     1       5.883  -2.167   7.242  1.00  0.00    -0.334 N 
ATOM     16  C   UNL     1       7.839  -1.344   6.307  1.00  0.00     0.027 C 
BRANCH  15  17
ATOM     17  C   UNL     1       4.542  -2.093   7.567  1.00  0.00     0.252 C 
ATOM     18  O   UNL     1       4.165  -2.260   8.729  1.00  0.00    -0.272 OA
BRANCH  17  19
ATOM     19  C   UNL     1       3.543  -1.819   6.419  1.00  0.00     0.207 C 
ATOM     20  C   UNL     1       3.155  -3.147   5.766  1.00  0.00     0.042 C 
ATOM     21  O   UNL     1       2.348  -1.171   6.862  1.00  0.00    -0.368 OA
ATOM     22  C   UNL     1       2.248  -2.898   4.570  1.00  0.00     0.006 C 
ATOM     23  C   UNL     1       1.474  -0.841   5.781  1.00  0.00     0.161 C 
ATOM     24  C   UNL     1       1.041  -2.083   5.008  1.00  0.00     0.029 C 
ENDBRANCH  17  19
ENDBRANCH  15  17
ENDBRANCH   8   9
ENDBRANCH   6   8
ENDBRANCH   5   6
ENDBRANCH   4   5
ENDBRANCH   3   4
ENDBRANCH   2   3
ENDBRANCH   1   2
BRANCH   1  25
ATOM     25  C   UNL     1      13.129  -7.088   6.884  1.00  0.00     0.188 C 
BRANCH  25  26
ATOM     26  O   UNL     1      13.477  -8.409   7.284  1.00  0.00    -0.376 OA
BRANCH  26  27
ATOM     27  C   UNL     1      13.009  -8.844   8.562  1.00  0.00     0.202 C 
BRANCH  27  28
ATOM     28  C   UNL     1      13.517  -8.065   9.787  1.00  0.00     0.261 C 
BRANCH  28  29
ATOM     29  O   UNL     1      13.076  -6.689   9.858  1.00  0.00    -0.460 OA
BRANCH  29  30
ATOM     30  C   UNL     1      14.074  -5.774   9.932  1.00  0.00     0.338 C 
ATOM     31  O   UNL     1      15.274  -5.989   9.939  1.00  0.00    -0.246 OA
BRANCH  30  32
ATOM     32  C   UNL     1      13.560  -4.390   9.925  1.00  0.00     0.060 A 
ATOM     33  C   UNL     1      13.812  -3.592   8.802  1.00  0.00     0.016 A 
ATOM     34  C   UNL     1      13.093  -3.811  11.107  1.00  0.00     0.016 A 
ATOM     35  C   UNL     1      13.662  -2.204   8.881  1.00  0.00     0.010 A 
ATOM     36  C   UNL     1      12.945  -2.418  11.184  1.00  0.00     0.010 A 
ATOM     37  C   UNL     1      13.280  -1.602  10.089  1.00  0.00    -0.014 A 
BRANCH  37  38
ATOM     38  C   UNL     1      13.399  -0.127  10.244  1.00  0.00     0.031 A 
ATOM     39  C   UNL     1      14.625   0.457  10.902  1.00  0.00     0.074 A 
ATOM     40  C   UNL     1      12.455   0.704   9.765  1.00  0.00     0.049 A 
ATOM     41  N   UNL     1      14.943   1.713  11.096  1.00  0.00    -0.248 NA
ATOM     42  C   UNL     1      15.623  -0.501  11.403  1.00  0.00     0.031 C 
ATOM     43  C   UNL     1      11.231   0.290   9.085  1.00  0.00     0.029 A 
ATOM     44  N   UNL     1      12.386   2.076   9.782  1.00  0.00    -0.354 N 
ATOM     45  C   UNL     1      16.181   1.698  11.728  1.00  0.00     0.074 A 
ATOM     46  C   UNL     1      16.537   0.308  11.921  1.00  0.00     0.031 C 
ATOM     47  C   UNL     1      10.526   1.386   8.755  1.00  0.00     0.029 A 
ATOM     48  C   UNL     1      11.242   2.576   9.213  1.00  0.00     0.049 A 
ATOM     49  H   UNL     1      13.090   2.646  10.167  1.00  0.00     0.167 HD
ATOM     50  C   UNL     1      16.962   2.740  12.104  1.00  0.00     0.031 A 
ATOM     51  C   UNL     1      10.812   3.845   9.079  1.00  0.00     0.031 A 
ATOM     52  C   UNL     1      16.617   4.127  11.943  1.00  0.00     0.049 A 
ATOM     53  C   UNL     1      11.666   4.986   9.563  1.00  0.00     0.074 A 
ATOM     54  C   UNL     1      17.354   5.246  12.296  1.00  0.00     0.029 A 
ATOM     55  N   UNL     1      15.435   4.588  11.389  1.00  0.00    -0.354 N 
ATOM     56  N   UNL     1      12.849   4.952  10.126  1.00  0.00    -0.248 NA
ATOM     57  C   UNL     1      11.128   6.342   9.375  1.00  0.00     0.031 C 
ATOM     58  C   UNL     1      16.598   6.384  11.992  1.00  0.00     0.029 A 
ATOM     59  C   UNL     1      15.412   5.973  11.407  1.00  0.00     0.049 A 
ATOM     60  H   UNL     1      14.716   4.016  11.035  1.00  0.00     0.167 HD
ATOM     61  C   UNL     1      13.206   6.279  10.337  1.00  0.00     0.074 A 
ATOM     62  C   UNL     1      12.123   7.093   9.826  1.00  0.00     0.031 C 
ATOM     63  C   UNL     1      14.332   6.778  10.903  1.00  0.00     0.031 A 
BRANCH  50  64
ATOM     64  C   UNL     1      18.280   2.412  12.745  1.00  0.00    -0.014 A 
ATOM     65  C   UNL     1      19.356   1.938  11.977  1.00  0.00     0.009 A 
ATOM     66  C   UNL     1      18.462   2.615  14.121  1.00  0.00     0.009 A 
ATOM     67  C   UNL     1      20.581   1.649  12.581  1.00  0.00     0.001 A 
ATOM     68  C   UNL     1      19.695   2.345  14.718  1.00  0.00     0.001 A 
ATOM     69  C   UNL     1      20.750   1.856  13.950  1.00  0.00     0.000 A 
ENDBRANCH  50  64
BRANCH  51  70
ATOM     70  C   UNL     1       9.489   4.119   8.462  1.00  0.00    -0.014 A 
ATOM     71  C   UNL     1       9.397   4.693   7.185  1.00  0.00     0.009 A 
ATOM     72  C   UNL     1       8.309   3.834   9.168  1.00  0.00     0.009 A 
ATOM     73  C   UNL     1       8.150   5.003   6.639  1.00  0.00     0.001 A 
ATOM     74  C   UNL     1       7.063   4.122   8.608  1.00  0.00     0.001 A 
ATOM     75  C   UNL     1       6.985   4.715   7.349  1.00  0.00     0.000 A 
ENDBRANCH  51  70
BRANCH  63  76
ATOM     76  C   UNL     1      14.461   8.273  10.976  1.00  0.00    -0.014 A 
ATOM     77  C   UNL     1      13.704   9.026  11.887  1.00  0.00     0.009 A 
ATOM     78  C   UNL     1      15.369   8.937  10.136  1.00  0.00     0.009 A 
ATOM     79  C   UNL     1      13.827  10.417  11.929  1.00  0.00     0.001 A 
ATOM     80  C   UNL     1      15.507  10.325  10.196  1.00  0.00     0.001 A 
ATOM     81  C   UNL     1      14.729  11.064  11.086  1.00  0.00     0.000 A 
ENDBRANCH  63  76
ENDBRANCH  37  38
ENDBRANCH  30  32
ENDBRANCH  29  30
ENDBRANCH  28  29
ENDBRANCH  27  28
ENDBRANCH  26  27
ENDBRANCH  25  26
ENDBRANCH   1  25
TORSDOF 20
