REMARK SMILES NS(=O)(=O)c1ccc(N2N=C(C(=O)OCCOCCOCCOC(=O)c3ccc(-c4c5nc(c(-c6ccccc6)c6ccc([nH]6)c(-c6ccccc6)c6nc(c(-c7ccccc7)c7ccc4[nH]7)C=C6)C=C5)cc3)C[C@H]2c2cccs2)cc1
REMARK SMILES IDX 18 1 17 2 16 3 15 4 14 5 12 6 13 7 11 8 9 9 10 10 75 11
REMARK SMILES IDX 74 12 8 13 5 14 6 15 82 16 7 17 81 18 2 19 3 20 4 21 1 22
REMARK SMILES IDX 76 25 77 26 80 27 78 28 79 29 19 30 20 31 21 32 22 33 23 34
REMARK SMILES IDX 24 35 25 36 26 37 27 38 73 39 28 40 72 41 29 42 30 43 31 44
REMARK SMILES IDX 66 45 32 46 71 47 65 48 67 49 33 50 70 51 64 52 63 53 34 55
REMARK SMILES IDX 56 56 41 57 55 58 42 59 45 60 54 61 68 62 43 63 44 64 53 66
REMARK SMILES IDX 69 67 46 68 35 69 36 70 40 71 37 72 39 73 38 74 57 75 58 76
REMARK SMILES IDX 62 77 59 78 61 79 60 80 47 81 48 82 52 83 49 84 51 85 50 86
REMARK H PARENT 1 23 1 24 67 54 45 65
REMARK Flexibility Score: inf
ROOT
ATOM      1  C   UNL     1       1.743  -3.548 -10.385  1.00  0.00     0.188 C 
ENDROOT
BRANCH   1   2
ATOM      2  O   UNL     1       1.283  -3.535 -11.734  1.00  0.00    -0.376 OA
BRANCH   2   3
ATOM      3  C   UNL     1       1.828  -2.592 -12.654  1.00  0.00     0.202 C 
BRANCH   3   4
ATOM      4  C   UNL     1       1.828  -1.109 -12.258  1.00  0.00     0.261 C 
BRANCH   4   5
ATOM      5  O   UNL     1       2.472  -0.867 -10.998  1.00  0.00    -0.459 OA
BRANCH   5   6
ATOM      6  C   UNL     1       1.788  -0.084 -10.142  1.00  0.00     0.354 C 
ATOM      7  O   UNL     1       0.798   0.586 -10.367  1.00  0.00    -0.245 OA
BRANCH   6   8
ATOM      8  C   UNL     1       2.361  -0.227  -8.755  1.00  0.00     0.148 C 
ATOM      9  N   UNL     1       2.482  -0.511  -6.663  1.00  0.00    -0.256 N 
ATOM     10  N   UNL     1       1.645  -0.607  -7.737  1.00  0.00    -0.169 NA
ATOM     11  C   UNL     1       3.694   0.273  -6.970  1.00  0.00     0.154 C 
ATOM     12  C   UNL     1       3.814   0.008  -8.479  1.00  0.00     0.099 C 
BRANCH   9  13
ATOM     13  C   UNL     1       1.975  -0.716  -5.388  1.00  0.00     0.060 A 
ATOM     14  C   UNL     1       1.010  -1.167  -2.784  1.00  0.00     0.082 A 
ATOM     15  C   UNL     1       1.589  -2.217  -3.498  1.00  0.00     0.024 A 
ATOM     16  C   UNL     1       0.878   0.095  -3.365  1.00  0.00     0.024 A 
ATOM     17  C   UNL     1       2.064  -1.985  -4.795  1.00  0.00     0.029 A 
ATOM     18  C   UNL     1       1.348   0.307  -4.665  1.00  0.00     0.029 A 
BRANCH  14  19
ATOM     19  S   UNL     1       0.458  -1.426  -1.125  1.00  0.00     0.238 S 
ATOM     20  O   UNL     1       1.081  -2.614  -0.593  1.00  0.00    -0.207 OA
ATOM     21  O   UNL     1      -0.965  -1.187  -1.061  1.00  0.00    -0.207 OA
BRANCH  19  22
ATOM     22  N   UNL     1       1.179  -0.153  -0.289  1.00  0.00    -0.225 NA
ATOM     23  H   UNL     1       0.923  -0.205   0.697  1.00  0.00     0.137 HD
ATOM     24  H   UNL     1       0.858   0.734  -0.677  1.00  0.00     0.137 HD
ENDBRANCH  19  22
ENDBRANCH  14  19
ENDBRANCH   9  13
BRANCH  11  25
ATOM     25  C   UNL     1       3.670   1.756  -6.617  1.00  0.00     0.030 A 
ATOM     26  C   UNL     1       3.955   2.323  -5.385  1.00  0.00     0.017 A 
ATOM     27  S   UNL     1       3.249   2.978  -7.754  1.00  0.00    -0.147 S 
ATOM     28  C   UNL     1       3.845   3.744  -5.389  1.00  0.00     0.012 A 
ATOM     29  C   UNL     1       3.504   4.230  -6.629  1.00  0.00     0.065 A 
ENDBRANCH  11  25
ENDBRANCH   6   8
ENDBRANCH   5   6
ENDBRANCH   4   5
ENDBRANCH   3   4
ENDBRANCH   2   3
ENDBRANCH   1   2
BRANCH   1  30
ATOM     30  C   UNL     1       3.260  -3.502 -10.105  1.00  0.00     0.188 C 
BRANCH  30  31
ATOM     31  O   UNL     1       4.060  -3.431 -11.267  1.00  0.00    -0.376 OA
BRANCH  31  32
ATOM     32  C   UNL     1       4.841  -4.572 -11.590  1.00  0.00     0.202 C 
BRANCH  32  33
ATOM     33  C   UNL     1       4.145  -5.936 -11.752  1.00  0.00     0.261 C 
BRANCH  33  34
ATOM     34  O   UNL     1       3.171  -6.288 -10.757  1.00  0.00    -0.460 OA
BRANCH  34  35
ATOM     35  C   UNL     1       3.632  -6.703  -9.556  1.00  0.00     0.338 C 
ATOM     36  O   UNL     1       4.793  -6.795  -9.205  1.00  0.00    -0.246 OA
BRANCH  35  37
ATOM     37  C   UNL     1       2.466  -6.842  -8.654  1.00  0.00     0.060 A 
ATOM     38  C   UNL     1       2.392  -6.035  -7.511  1.00  0.00     0.016 A 
ATOM     39  C   UNL     1       1.453  -7.761  -8.937  1.00  0.00     0.016 A 
ATOM     40  C   UNL     1       1.317  -6.169  -6.629  1.00  0.00     0.010 A 
ATOM     41  C   UNL     1       0.388  -7.909  -8.043  1.00  0.00     0.010 A 
ATOM     42  C   UNL     1       0.333  -7.138  -6.868  1.00  0.00    -0.014 A 
BRANCH  42  43
ATOM     43  C   UNL     1      -0.639  -7.479  -5.801  1.00  0.00     0.031 A 
ATOM     44  C   UNL     1      -0.338  -8.652  -4.908  1.00  0.00     0.074 A 
ATOM     45  C   UNL     1      -1.755  -6.755  -5.605  1.00  0.00     0.049 A 
ATOM     46  N   UNL     1      -1.041  -9.154  -3.925  1.00  0.00    -0.248 NA
ATOM     47  C   UNL     1       0.932  -9.354  -5.160  1.00  0.00     0.031 C 
ATOM     48  C   UNL     1      -2.142  -5.566  -6.362  1.00  0.00     0.029 A 
ATOM     49  N   UNL     1      -2.772  -6.924  -4.697  1.00  0.00    -0.354 N 
ATOM     50  C   UNL     1      -0.301 -10.226  -3.443  1.00  0.00     0.074 A 
ATOM     51  C   UNL     1       0.887 -10.325  -4.262  1.00  0.00     0.031 C 
ATOM     52  C   UNL     1      -3.316  -5.113  -5.888  1.00  0.00     0.029 A 
ATOM     53  C   UNL     1      -3.776  -5.996  -4.817  1.00  0.00     0.049 A 
ATOM     54  H   UNL     1      -2.779  -7.642  -4.024  1.00  0.00     0.167 HD
ATOM     55  C   UNL     1      -0.578 -11.052  -2.406  1.00  0.00     0.031 A 
ATOM     56  C   UNL     1      -4.940  -5.882  -4.148  1.00  0.00     0.031 A 
ATOM     57  C   UNL     1      -1.768 -10.974  -1.604  1.00  0.00     0.049 A 
ATOM     58  C   UNL     1      -5.270  -6.871  -3.059  1.00  0.00     0.074 A 
ATOM     59  C   UNL     1      -2.142 -11.769  -0.534  1.00  0.00     0.029 A 
ATOM     60  N   UNL     1      -2.784 -10.050  -1.791  1.00  0.00    -0.354 N 
ATOM     61  N   UNL     1      -4.558  -7.873  -2.603  1.00  0.00    -0.248 NA
ATOM     62  C   UNL     1      -6.568  -6.703  -2.386  1.00  0.00     0.031 C 
ATOM     63  C   UNL     1      -3.409 -11.358  -0.107  1.00  0.00     0.029 A 
ATOM     64  C   UNL     1      -3.796 -10.270  -0.872  1.00  0.00     0.049 A 
ATOM     65  H   UNL     1      -2.785  -9.342  -2.475  1.00  0.00     0.167 HD
ATOM     66  C   UNL     1      -5.301  -8.429  -1.569  1.00  0.00     0.074 A 
ATOM     67  C   UNL     1      -6.516  -7.649  -1.459  1.00  0.00     0.031 C 
ATOM     68  C   UNL     1      -5.001  -9.486  -0.775  1.00  0.00     0.031 A 
BRANCH  55  69
ATOM     69  C   UNL     1       0.419 -12.137  -2.111  1.00  0.00    -0.014 A 
ATOM     70  C   UNL     1       1.674 -11.843  -1.554  1.00  0.00     0.009 A 
ATOM     71  C   UNL     1       0.093 -13.475  -2.383  1.00  0.00     0.009 A 
ATOM     72  C   UNL     1       2.596 -12.863  -1.312  1.00  0.00     0.001 A 
ATOM     73  C   UNL     1       1.006 -14.495  -2.113  1.00  0.00     0.001 A 
ATOM     74  C   UNL     1       2.260 -14.188  -1.588  1.00  0.00     0.000 A 
ENDBRANCH  55  69
BRANCH  56  75
ATOM     75  C   UNL     1      -5.897  -4.797  -4.489  1.00  0.00    -0.014 A 
ATOM     76  C   UNL     1      -6.134  -3.744  -3.592  1.00  0.00     0.009 A 
ATOM     77  C   UNL     1      -6.604  -4.826  -5.701  1.00  0.00     0.009 A 
ATOM     78  C   UNL     1      -7.080  -2.759  -3.889  1.00  0.00     0.001 A 
ATOM     79  C   UNL     1      -7.528  -3.825  -6.008  1.00  0.00     0.001 A 
ATOM     80  C   UNL     1      -7.772  -2.798  -5.098  1.00  0.00     0.000 A 
ENDBRANCH  56  75
BRANCH  68  81
ATOM     81  C   UNL     1      -5.980  -9.835   0.312  1.00  0.00    -0.014 A 
ATOM     82  C   UNL     1      -7.221 -10.422   0.022  1.00  0.00     0.009 A 
ATOM     83  C   UNL     1      -5.635  -9.604   1.654  1.00  0.00     0.009 A 
ATOM     84  C   UNL     1      -8.111 -10.737   1.051  1.00  0.00     0.001 A 
ATOM     85  C   UNL     1      -6.514  -9.947   2.682  1.00  0.00     0.001 A 
ATOM     86  C   UNL     1      -7.755 -10.504   2.380  1.00  0.00     0.000 A 
ENDBRANCH  68  81
ENDBRANCH  42  43
ENDBRANCH  35  37
ENDBRANCH  34  35
ENDBRANCH  33  34
ENDBRANCH  32  33
ENDBRANCH  31  32
ENDBRANCH  30  31
ENDBRANCH   1  30
TORSDOF 21
