REMARK SMILES O=C(OCCOCCOCCOC(=O)[C@H]1C[C@](O)(c2ccc(F)cc2)[C@@H](c2ccc(F)cc2)O1)c1ccc(-c2c3nc(c(-c4ccccc4)c4ccc([nH]4)c(-c4ccccc4)c4nc(c(-c5ccccc5)c5ccc2[nH]5)C=C4)C=C3)cc1
REMARK SMILES IDX 7 1 6 2 5 3 4 4 3 5 2 6 1 7 35 8 36 9 82 10 37 11 81 12
REMARK SMILES IDX 38 13 39 14 40 15 75 16 41 17 80 18 74 19 76 20 42 21 79 22
REMARK SMILES IDX 73 23 72 24 43 26 65 27 50 28 64 29 51 30 54 31 63 32 77 33
REMARK SMILES IDX 52 34 53 35 62 37 78 38 55 39 44 40 45 41 49 42 46 43 48 44
REMARK SMILES IDX 47 45 66 46 67 47 71 48 68 49 70 50 69 51 56 52 57 53 61 54
REMARK SMILES IDX 58 55 60 56 59 57 8 58 9 59 10 60 11 61 12 62 13 63 14 64
REMARK SMILES IDX 15 65 16 66 34 67 17 68 26 69 19 70 20 71 25 72 21 73 24 74
REMARK SMILES IDX 22 75 23 76 18 77 27 79 28 80 33 81 29 82 32 83 30 84 31 85
REMARK H PARENT 76 25 54 36 18 78
REMARK Flexibility Score: inf
ROOT
ATOM      1  C   UNL     1      -1.440   3.594   3.030  1.00  0.00     0.188 C 
ENDROOT
BRANCH   1   2
ATOM      2  O   UNL     1      -0.775   2.328   2.988  1.00  0.00    -0.376 OA
BRANCH   2   3
ATOM      3  C   UNL     1      -1.200   1.440   4.027  1.00  0.00     0.202 C 
BRANCH   3   4
ATOM      4  C   UNL     1      -0.742   1.819   5.449  1.00  0.00     0.261 C 
BRANCH   4   5
ATOM      5  O   UNL     1      -0.181   3.139   5.496  1.00  0.00    -0.460 OA
BRANCH   5   6
ATOM      6  C   UNL     1       1.006   3.312   6.118  1.00  0.00     0.338 C 
ATOM      7  O   UNL     1       1.105   3.823   7.219  1.00  0.00    -0.246 OA
BRANCH   6   8
ATOM      8  C   UNL     1       2.211   2.980   5.301  1.00  0.00     0.060 A 
ATOM      9  C   UNL     1       2.204   2.015   4.297  1.00  0.00     0.016 A 
ATOM     10  C   UNL     1       3.431   3.574   5.657  1.00  0.00     0.016 A 
ATOM     11  C   UNL     1       3.394   1.517   3.790  1.00  0.00     0.010 A 
ATOM     12  C   UNL     1       4.629   3.143   5.081  1.00  0.00     0.010 A 
ATOM     13  C   UNL     1       4.615   2.030   4.232  1.00  0.00    -0.014 A 
BRANCH  13  14
ATOM     14  C   UNL     1       5.820   1.192   4.026  1.00  0.00     0.031 A 
ATOM     15  C   UNL     1       6.378   0.450   5.216  1.00  0.00     0.074 A 
ATOM     16  C   UNL     1       6.265   0.944   2.781  1.00  0.00     0.049 A 
ATOM     17  N   UNL     1       7.352  -0.421   5.271  1.00  0.00    -0.248 NA
ATOM     18  C   UNL     1       5.751   0.720   6.523  1.00  0.00     0.031 C 
ATOM     19  C   UNL     1       5.716   1.532   1.557  1.00  0.00     0.029 A 
ATOM     20  N   UNL     1       7.231   0.081   2.335  1.00  0.00    -0.354 N 
ATOM     21  C   UNL     1       7.474  -0.764   6.614  1.00  0.00     0.074 A 
ATOM     22  C   UNL     1       6.498   0.005   7.346  1.00  0.00     0.031 C 
ATOM     23  C   UNL     1       6.306   0.958   0.495  1.00  0.00     0.029 A 
ATOM     24  C   UNL     1       7.307   0.006   0.965  1.00  0.00     0.049 A 
ATOM     25  H   UNL     1       7.814  -0.435   2.938  1.00  0.00     0.167 HD
ATOM     26  C   UNL     1       8.318  -1.650   7.191  1.00  0.00     0.031 A 
ATOM     27  C   UNL     1       8.094  -0.757   0.183  1.00  0.00     0.031 A 
ATOM     28  C   UNL     1       9.263  -2.434   6.450  1.00  0.00     0.049 A 
ATOM     29  C   UNL     1       9.055  -1.705   0.849  1.00  0.00     0.074 A 
ATOM     30  C   UNL     1      10.202  -3.334   6.917  1.00  0.00     0.029 A 
ATOM     31  N   UNL     1       9.373  -2.413   5.067  1.00  0.00    -0.354 N 
ATOM     32  N   UNL     1       9.197  -1.977   2.125  1.00  0.00    -0.248 NA
ATOM     33  C   UNL     1       9.967  -2.446  -0.032  1.00  0.00     0.031 C 
ATOM     34  C   UNL     1      10.909  -3.829   5.815  1.00  0.00     0.029 A 
ATOM     35  C   UNL     1      10.374  -3.274   4.661  1.00  0.00     0.049 A 
ATOM     36  H   UNL     1       8.818  -1.867   4.464  1.00  0.00     0.167 HD
ATOM     37  C   UNL     1      10.205  -2.928   2.201  1.00  0.00     0.074 A 
ATOM     38  C   UNL     1      10.618  -3.204   0.838  1.00  0.00     0.031 C 
ATOM     39  C   UNL     1      10.752  -3.517   3.293  1.00  0.00     0.031 A 
BRANCH  26  40
ATOM     40  C   UNL     1       8.286  -1.746   8.692  1.00  0.00    -0.014 A 
ATOM     41  C   UNL     1       7.210  -2.336   9.375  1.00  0.00     0.009 A 
ATOM     42  C   UNL     1       9.334  -1.183   9.437  1.00  0.00     0.009 A 
ATOM     43  C   UNL     1       7.161  -2.314  10.772  1.00  0.00     0.001 A 
ATOM     44  C   UNL     1       9.296  -1.188  10.833  1.00  0.00     0.001 A 
ATOM     45  C   UNL     1       8.204  -1.740  11.499  1.00  0.00     0.000 A 
ENDBRANCH  26  40
BRANCH  27  46
ATOM     46  C   UNL     1       8.013  -0.649  -1.299  1.00  0.00    -0.014 A 
ATOM     47  C   UNL     1       7.553  -1.722  -2.077  1.00  0.00     0.009 A 
ATOM     48  C   UNL     1       8.397   0.536  -1.947  1.00  0.00     0.009 A 
ATOM     49  C   UNL     1       7.495  -1.615  -3.470  1.00  0.00     0.001 A 
ATOM     50  C   UNL     1       8.308   0.652  -3.336  1.00  0.00     0.001 A 
ATOM     51  C   UNL     1       7.865  -0.427  -4.098  1.00  0.00     0.000 A 
ENDBRANCH  27  46
BRANCH  39  52
ATOM     52  C   UNL     1      11.833  -4.527   3.047  1.00  0.00    -0.014 A 
ATOM     53  C   UNL     1      13.122  -4.126   2.664  1.00  0.00     0.009 A 
ATOM     54  C   UNL     1      11.568  -5.890   3.245  1.00  0.00     0.009 A 
ATOM     55  C   UNL     1      14.118  -5.079   2.451  1.00  0.00     0.001 A 
ATOM     56  C   UNL     1      12.573  -6.837   3.058  1.00  0.00     0.001 A 
ATOM     57  C   UNL     1      13.844  -6.432   2.652  1.00  0.00     0.000 A 
ENDBRANCH  39  52
ENDBRANCH  13  14
ENDBRANCH   6   8
ENDBRANCH   5   6
ENDBRANCH   4   5
ENDBRANCH   3   4
ENDBRANCH   2   3
ENDBRANCH   1   2
BRANCH   1  58
ATOM     58  C   UNL     1      -1.627   4.239   1.655  1.00  0.00     0.188 C 
BRANCH  58  59
ATOM     59  O   UNL     1      -2.392   3.489   0.715  1.00  0.00    -0.376 OA
BRANCH  59  60
ATOM     60  C   UNL     1      -1.814   2.262   0.265  1.00  0.00     0.202 C 
BRANCH  60  61
ATOM     61  C   UNL     1      -0.529   2.386  -0.569  1.00  0.00     0.261 C 
BRANCH  61  62
ATOM     62  O   UNL     1       0.562   2.988   0.155  1.00  0.00    -0.461 OA
BRANCH  62  63
ATOM     63  C   UNL     1       1.326   3.868  -0.555  1.00  0.00     0.335 C 
ATOM     64  O   UNL     1       1.247   4.032  -1.768  1.00  0.00    -0.249 OA
BRANCH  63  65
ATOM     65  C   UNL     1       2.337   4.621   0.330  1.00  0.00     0.232 C 
ATOM     66  C   UNL     1       2.549   6.037  -0.193  1.00  0.00     0.087 C 
ATOM     67  O   UNL     1       1.984   4.757   1.702  1.00  0.00    -0.355 OA
ATOM     68  C   UNL     1       2.879   6.904   1.026  1.00  0.00     0.123 C 
ATOM     69  C   UNL     1       2.643   5.933   2.226  1.00  0.00     0.186 C 
BRANCH  68  70
ATOM     70  C   UNL     1       4.240   7.589   0.876  1.00  0.00    -0.013 A 
ATOM     71  C   UNL     1       4.351   8.658  -0.047  1.00  0.00     0.010 A 
ATOM     72  C   UNL     1       5.394   7.233   1.593  1.00  0.00     0.010 A 
ATOM     73  C   UNL     1       5.544   9.363  -0.217  1.00  0.00     0.039 A 
ATOM     74  C   UNL     1       6.593   7.938   1.417  1.00  0.00     0.039 A 
ATOM     75  C   UNL     1       6.655   8.998   0.522  1.00  0.00     0.123 A 
ATOM     76  F   UNL     1       7.801   9.675   0.373  1.00  0.00    -0.207 F 
ENDBRANCH  68  70
BRANCH  68  77
ATOM     77  O   UNL     1       1.908   7.972   1.026  1.00  0.00    -0.382 OA
ATOM     78  H   UNL     1       1.017   7.598   1.119  1.00  0.00     0.212 HD
ENDBRANCH  68  77
BRANCH  69  79
ATOM     79  C   UNL     1       1.792   6.444   3.374  1.00  0.00    -0.016 A 
ATOM     80  C   UNL     1       0.426   6.718   3.185  1.00  0.00     0.009 A 
ATOM     81  C   UNL     1       2.327   6.596   4.661  1.00  0.00     0.009 A 
ATOM     82  C   UNL     1      -0.398   7.062   4.255  1.00  0.00     0.039 A 
ATOM     83  C   UNL     1       1.499   6.927   5.739  1.00  0.00     0.039 A 
ATOM     84  C   UNL     1       0.143   7.142   5.528  1.00  0.00     0.123 A 
ATOM     85  F   UNL     1      -0.654   7.428   6.566  1.00  0.00    -0.207 F 
ENDBRANCH  69  79
ENDBRANCH  63  65
ENDBRANCH  62  63
ENDBRANCH  61  62
ENDBRANCH  60  61
ENDBRANCH  59  60
ENDBRANCH  58  59
ENDBRANCH   1  58
TORSDOF 20
