REMARK SMILES O=C(OCCOCCOCCOC(=O)[C@@H]1[C@H](C(=O)Nc2ccccc2OC(F)F)[C@@H]2C=C[C@H]1C2)c1ccc(-c2c3nc(c(-c4ccccc4)c4ccc([nH]4)c(-c4ccccc4)c4nc(c(-c5ccccc5)c5ccc2[nH]5)C=C4)C=C3)cc1
REMARK SMILES IDX 8 1 7 2 6 3 5 4 4 5 3 6 2 7 1 8 35 9 36 10 82 11 37 12 81 13
REMARK SMILES IDX 38 14 39 15 40 16 75 17 41 18 80 19 74 20 76 21 42 22 79 23
REMARK SMILES IDX 73 24 72 25 43 27 65 28 50 29 64 30 51 31 54 32 63 33 77 34
REMARK SMILES IDX 52 35 53 36 62 38 78 39 55 40 44 41 45 42 49 43 46 44 48 45
REMARK SMILES IDX 47 46 66 47 67 48 71 49 68 50 70 51 69 52 56 53 57 54 61 55
REMARK SMILES IDX 58 56 60 57 59 58 9 59 10 60 11 61 12 62 13 63 14 64 15 65
REMARK SMILES IDX 16 66 33 67 30 68 32 69 34 70 31 71 17 72 18 73 19 74 20 76
REMARK SMILES IDX 21 77 25 78 22 79 24 80 23 81 26 82 27 83 28 84 29 85
REMARK H PARENT 76 26 54 37 19 75
REMARK Flexibility Score: inf
ROOT
ATOM      1  C   UNL     1       3.635  -3.713  -1.406  1.00  0.00     0.188 C 
ENDROOT
BRANCH   1   2
ATOM      2  C   UNL     1       4.141  -2.903  -0.194  1.00  0.00     0.188 C 
BRANCH   2   3
ATOM      3  O   UNL     1       5.248  -2.059  -0.490  1.00  0.00    -0.376 OA
BRANCH   3   4
ATOM      4  C   UNL     1       5.978  -1.611   0.662  1.00  0.00     0.202 C 
BRANCH   4   5
ATOM      5  C   UNL     1       5.176  -0.916   1.786  1.00  0.00     0.261 C 
BRANCH   5   6
ATOM      6  O   UNL     1       4.048  -0.233   1.235  1.00  0.00    -0.460 OA
BRANCH   6   7
ATOM      7  C   UNL     1       3.756   0.986   1.748  1.00  0.00     0.338 C 
ATOM      8  O   UNL     1       3.117   1.192   2.755  1.00  0.00    -0.246 OA
BRANCH   7   9
ATOM      9  C   UNL     1       4.102   2.006   0.732  1.00  0.00     0.060 A 
ATOM     10  C   UNL     1       5.312   1.919   0.025  1.00  0.00     0.016 A 
ATOM     11  C   UNL     1       3.174   3.002   0.427  1.00  0.00     0.016 A 
ATOM     12  C   UNL     1       5.577   2.779  -1.030  1.00  0.00     0.010 A 
ATOM     13  C   UNL     1       3.445   3.878  -0.624  1.00  0.00     0.010 A 
ATOM     14  C   UNL     1       4.653   3.775  -1.344  1.00  0.00    -0.014 A 
BRANCH  14  15
ATOM     15  C   UNL     1       5.124   4.921  -2.146  1.00  0.00     0.031 A 
ATOM     16  C   UNL     1       5.667   6.073  -1.356  1.00  0.00     0.074 A 
ATOM     17  C   UNL     1       5.135   4.924  -3.490  1.00  0.00     0.049 A 
ATOM     18  N   UNL     1       6.180   7.199  -1.767  1.00  0.00    -0.248 NA
ATOM     19  C   UNL     1       5.643   5.920   0.112  1.00  0.00     0.031 C 
ATOM     20  C   UNL     1       4.717   3.822  -4.350  1.00  0.00     0.029 A 
ATOM     21  N   UNL     1       5.503   5.909  -4.370  1.00  0.00    -0.354 N 
ATOM     22  C   UNL     1       6.551   7.870  -0.612  1.00  0.00     0.074 A 
ATOM     23  C   UNL     1       6.145   7.069   0.515  1.00  0.00     0.031 C 
ATOM     24  C   UNL     1       4.784   4.210  -5.635  1.00  0.00     0.029 A 
ATOM     25  C   UNL     1       5.268   5.585  -5.686  1.00  0.00     0.049 A 
ATOM     26  H   UNL     1       5.897   6.765  -4.088  1.00  0.00     0.167 HD
ATOM     27  C   UNL     1       7.201   9.047  -0.496  1.00  0.00     0.031 A 
ATOM     28  C   UNL     1       5.423   6.331  -6.795  1.00  0.00     0.031 A 
ATOM     29  C   UNL     1       7.529   9.867  -1.621  1.00  0.00     0.049 A 
ATOM     30  C   UNL     1       6.016   7.707  -6.644  1.00  0.00     0.074 A 
ATOM     31  C   UNL     1       8.126  11.110  -1.645  1.00  0.00     0.029 A 
ATOM     32  N   UNL     1       7.248   9.517  -2.936  1.00  0.00    -0.354 N 
ATOM     33  N   UNL     1       6.405   8.322  -5.551  1.00  0.00    -0.248 NA
ATOM     34  C   UNL     1       6.226   8.480  -7.875  1.00  0.00     0.031 C 
ATOM     35  C   UNL     1       8.157  11.538  -2.977  1.00  0.00     0.029 A 
ATOM     36  C   UNL     1       7.638  10.533  -3.784  1.00  0.00     0.049 A 
ATOM     37  H   UNL     1       6.833   8.671  -3.221  1.00  0.00     0.167 HD
ATOM     38  C   UNL     1       6.952   9.529  -5.963  1.00  0.00     0.074 A 
ATOM     39  C   UNL     1       6.835   9.563  -7.409  1.00  0.00     0.031 C 
ATOM     40  C   UNL     1       7.515  10.514  -5.220  1.00  0.00     0.031 A 
BRANCH  27  41
ATOM     41  C   UNL     1       7.498   9.489   0.906  1.00  0.00    -0.014 A 
ATOM     42  C   UNL     1       8.434   8.799   1.698  1.00  0.00     0.009 A 
ATOM     43  C   UNL     1       6.721  10.497   1.493  1.00  0.00     0.009 A 
ATOM     44  C   UNL     1       8.531   9.059   3.066  1.00  0.00     0.001 A 
ATOM     45  C   UNL     1       6.843  10.777   2.855  1.00  0.00     0.001 A 
ATOM     46  C   UNL     1       7.731  10.044   3.644  1.00  0.00     0.000 A 
ENDBRANCH  27  41
BRANCH  28  47
ATOM     47  C   UNL     1       5.040   5.791  -8.128  1.00  0.00    -0.014 A 
ATOM     48  C   UNL     1       6.018   5.444  -9.073  1.00  0.00     0.009 A 
ATOM     49  C   UNL     1       3.688   5.618  -8.466  1.00  0.00     0.009 A 
ATOM     50  C   UNL     1       5.651   4.960 -10.334  1.00  0.00     0.001 A 
ATOM     51  C   UNL     1       3.323   5.114  -9.719  1.00  0.00     0.001 A 
ATOM     52  C   UNL     1       4.305   4.793 -10.655  1.00  0.00     0.000 A 
ENDBRANCH  28  47
BRANCH  40  53
ATOM     53  C   UNL     1       8.102  11.682  -5.955  1.00  0.00    -0.014 A 
ATOM     54  C   UNL     1       7.288  12.677  -6.513  1.00  0.00     0.009 A 
ATOM     55  C   UNL     1       9.497  11.837  -5.982  1.00  0.00     0.009 A 
ATOM     56  C   UNL     1       7.865  13.805  -7.096  1.00  0.00     0.001 A 
ATOM     57  C   UNL     1      10.069  12.979  -6.540  1.00  0.00     0.001 A 
ATOM     58  C   UNL     1       9.252  13.960  -7.100  1.00  0.00     0.000 A 
ENDBRANCH  40  53
ENDBRANCH  14  15
ENDBRANCH   7   9
ENDBRANCH   6   7
ENDBRANCH   5   6
ENDBRANCH   4   5
ENDBRANCH   3   4
ENDBRANCH   2   3
ENDBRANCH   1   2
BRANCH   1  59
ATOM     59  O   UNL     1       4.588  -4.314  -2.271  1.00  0.00    -0.376 OA
BRANCH  59  60
ATOM     60  C   UNL     1       4.944  -3.556  -3.452  1.00  0.00     0.202 C 
BRANCH  60  61
ATOM     61  C   UNL     1       3.859  -3.366  -4.575  1.00  0.00     0.261 C 
BRANCH  61  62
ATOM     62  O   UNL     1       3.394  -1.978  -4.808  1.00  0.00    -0.463 OA
BRANCH  62  63
ATOM     63  C   UNL     1       2.043  -1.804  -5.070  1.00  0.00     0.310 C 
ATOM     64  O   UNL     1       1.304  -2.772  -5.250  1.00  0.00    -0.252 OA
BRANCH  63  65
ATOM     65  C   UNL     1       1.540  -0.326  -5.283  1.00  0.00     0.119 C 
ATOM     66  C   UNL     1       1.509   1.077  -4.484  1.00  0.00     0.100 C 
ATOM     67  C   UNL     1       0.037  -0.396  -5.753  1.00  0.00     0.027 C 
ATOM     68  C   UNL     1       0.068   1.616  -4.810  1.00  0.00     0.025 C 
ATOM     69  C   UNL     1      -0.897  -0.436  -4.559  1.00  0.00    -0.027 C 
ATOM     70  C   UNL     1      -0.210   1.051  -6.190  1.00  0.00     0.017 C 
ATOM     71  C   UNL     1      -0.911   0.789  -4.018  1.00  0.00    -0.027 C 
BRANCH  66  72
ATOM     72  C   UNL     1       1.743   1.742  -3.093  1.00  0.00     0.229 C 
ATOM     73  O   UNL     1       2.092   2.937  -3.107  1.00  0.00    -0.274 OA
ATOM     74  N   UNL     1       1.370   1.303  -1.862  1.00  0.00    -0.323 N 
ATOM     75  H   UNL     1       1.343   1.999  -1.166  1.00  0.00     0.170 HD
BRANCH  74  76
ATOM     76  C   UNL     1       1.021   0.035  -1.428  1.00  0.00     0.084 A 
ATOM     77  C   UNL     1       0.129  -0.136  -0.371  1.00  0.00     0.030 A 
ATOM     78  C   UNL     1       1.501  -1.069  -2.074  1.00  0.00     0.149 A 
ATOM     79  C   UNL     1      -0.491  -1.376  -0.187  1.00  0.00     0.002 A 
ATOM     80  C   UNL     1       0.763  -2.254  -2.023  1.00  0.00     0.049 A 
ATOM     81  C   UNL     1      -0.238  -2.413  -1.077  1.00  0.00     0.004 A 
BRANCH  78  82
ATOM     82  O   UNL     1       2.649  -1.074  -2.784  1.00  0.00    -0.433 OA
BRANCH  82  83
ATOM     83  C   UNL     1       3.819  -0.322  -2.472  1.00  0.00     0.542 C 
ATOM     84  F   UNL     1       4.020   0.587  -3.457  1.00  0.00    -0.167 F 
ATOM     85  F   UNL     1       3.692   0.320  -1.309  1.00  0.00    -0.167 F 
ENDBRANCH  82  83
ENDBRANCH  78  82
ENDBRANCH  74  76
ENDBRANCH  66  72
ENDBRANCH  63  65
ENDBRANCH  62  63
ENDBRANCH  61  62
ENDBRANCH  60  61
ENDBRANCH  59  60
ENDBRANCH   1  59
TORSDOF 21
