REMARK SMILES O=C(Cc1ccccc1)Nc1cc(Cl)ccc1C(=O)OCCOCCOCCOC(=O)c1ccc(-c2c3nc(c(-c4ccccc4)c4ccc([nH]4)c(-c4ccccc4)c4nc(c(-c5ccccc5)c5ccc2[nH]5)C=C4)C=C3)cc1
REMARK SMILES IDX 24 1 23 2 22 3 21 4 20 5 18 6 19 7 17 8 11 9 12 10 13 11
REMARK SMILES IDX 16 12 14 13 15 14 10 15 1 16 2 17 3 19 4 20 5 21 9 22 6 23
REMARK SMILES IDX 8 24 7 25 25 26 26 27 27 28 28 29 29 30 30 31 31 32 32 33
REMARK SMILES IDX 33 34 79 35 34 36 78 37 35 38 36 39 37 40 72 41 38 42 77 43
REMARK SMILES IDX 71 44 73 45 39 46 76 47 70 48 69 49 40 51 62 52 47 53 61 54
REMARK SMILES IDX 48 55 51 56 60 57 74 58 49 59 50 60 59 62 75 63 52 64 41 65
REMARK SMILES IDX 42 66 46 67 43 68 45 69 44 70 63 71 64 72 68 73 65 74 67 75
REMARK SMILES IDX 66 76 53 77 54 78 58 79 55 80 57 81 56 82
REMARK H PARENT 10 18 73 50 51 61
REMARK Flexibility Score: inf
ROOT
ATOM      1  C   UNL     1       0.319  -2.815   3.023  1.00  0.00     0.188 C 
ENDROOT
BRANCH   1   2
ATOM      2  O   UNL     1      -0.305  -3.674   2.080  1.00  0.00    -0.376 OA
BRANCH   2   3
ATOM      3  C   UNL     1      -0.284  -3.318   0.701  1.00  0.00     0.202 C 
BRANCH   3   4
ATOM      4  C   UNL     1      -0.543  -1.867   0.281  1.00  0.00     0.261 C 
BRANCH   4   5
ATOM      5  O   UNL     1       0.267  -0.929   1.000  1.00  0.00    -0.460 OA
BRANCH   5   6
ATOM      6  C   UNL     1      -0.370   0.145   1.529  1.00  0.00     0.340 C 
ATOM      7  O   UNL     1      -1.575   0.343   1.530  1.00  0.00    -0.246 OA
BRANCH   6   8
ATOM      8  C   UNL     1       0.575   0.945   2.356  1.00  0.00     0.083 A 
ATOM      9  C   UNL     1       1.917   1.242   2.043  1.00  0.00     0.057 A 
ATOM     10  C   UNL     1       2.709   1.894   3.009  1.00  0.00     0.047 A 
ATOM     11  C   UNL     1       2.184   2.251   4.251  1.00  0.00     0.043 A 
ATOM     12  C   UNL     1       0.070   1.295   3.627  1.00  0.00     0.019 A 
ATOM     13  Cl  UNL     1       3.174   3.070   5.395  1.00  0.00    -0.084 Cl
ATOM     14  C   UNL     1       0.869   1.943   4.571  1.00  0.00     0.021 A 
BRANCH   9  15
ATOM     15  N   UNL     1       2.603   0.891   0.861  1.00  0.00    -0.325 N 
ATOM     16  O   UNL     1       0.928   0.995  -0.740  1.00  0.00    -0.274 OA
ATOM     17  C   UNL     1       2.054   0.658  -0.386  1.00  0.00     0.228 C 
ATOM     18  H   UNL     1       3.581   0.802   0.932  1.00  0.00     0.169 HD
BRANCH  17  19
ATOM     19  C   UNL     1       3.045   0.035  -1.355  1.00  0.00     0.135 C 
BRANCH  19  20
ATOM     20  C   UNL     1       4.020   1.049  -1.906  1.00  0.00    -0.039 A 
ATOM     21  C   UNL     1       5.307   0.650  -2.286  1.00  0.00     0.004 A 
ATOM     22  C   UNL     1       3.652   2.395  -2.067  1.00  0.00     0.004 A 
ATOM     23  C   UNL     1       6.221   1.589  -2.767  1.00  0.00     0.000 A 
ATOM     24  C   UNL     1       4.570   3.333  -2.531  1.00  0.00     0.000 A 
ATOM     25  C   UNL     1       5.857   2.931  -2.875  1.00  0.00     0.000 A 
ENDBRANCH  19  20
ENDBRANCH  17  19
ENDBRANCH   9  15
ENDBRANCH   6   8
ENDBRANCH   5   6
ENDBRANCH   4   5
ENDBRANCH   3   4
ENDBRANCH   2   3
ENDBRANCH   1   2
BRANCH   1  26
ATOM     26  C   UNL     1       1.817  -2.467   2.867  1.00  0.00     0.188 C 
BRANCH  26  27
ATOM     27  O   UNL     1       2.444  -2.869   1.673  1.00  0.00    -0.376 OA
BRANCH  27  28
ATOM     28  C   UNL     1       2.984  -4.175   1.555  1.00  0.00     0.202 C 
BRANCH  28  29
ATOM     29  C   UNL     1       2.833  -5.326   2.574  1.00  0.00     0.261 C 
BRANCH  29  30
ATOM     30  O   UNL     1       2.032  -5.117   3.739  1.00  0.00    -0.460 OA
BRANCH  30  31
ATOM     31  C   UNL     1       2.703  -4.825   4.882  1.00  0.00     0.338 C 
ATOM     32  O   UNL     1       3.900  -4.690   5.021  1.00  0.00    -0.246 OA
BRANCH  31  33
ATOM     33  C   UNL     1       1.708  -4.474   5.919  1.00  0.00     0.060 A 
ATOM     34  C   UNL     1       1.706  -3.169   6.433  1.00  0.00     0.016 A 
ATOM     35  C   UNL     1       0.780  -5.415   6.368  1.00  0.00     0.016 A 
ATOM     36  C   UNL     1       0.786  -2.808   7.418  1.00  0.00     0.010 A 
ATOM     37  C   UNL     1      -0.123  -5.058   7.374  1.00  0.00     0.010 A 
ATOM     38  C   UNL     1      -0.106  -3.763   7.922  1.00  0.00    -0.014 A 
BRANCH  38  39
ATOM     39  C   UNL     1      -0.884  -3.470   9.150  1.00  0.00     0.031 A 
ATOM     40  C   UNL     1      -0.345  -3.953  10.469  1.00  0.00     0.074 A 
ATOM     41  C   UNL     1      -2.037  -2.778   9.108  1.00  0.00     0.049 A 
ATOM     42  N   UNL     1      -0.864  -3.857  11.666  1.00  0.00    -0.248 NA
ATOM     43  C   UNL     1       0.957  -4.639  10.427  1.00  0.00     0.031 C 
ATOM     44  C   UNL     1      -2.642  -2.207   7.908  1.00  0.00     0.029 A 
ATOM     45  N   UNL     1      -2.906  -2.445  10.118  1.00  0.00    -0.354 N 
ATOM     46  C   UNL     1       0.042  -4.476  12.518  1.00  0.00     0.074 A 
ATOM     47  C   UNL     1       1.125  -4.972  11.697  1.00  0.00     0.031 C 
ATOM     48  C   UNL     1      -3.791  -1.597   8.250  1.00  0.00     0.029 A 
ATOM     49  C   UNL     1      -4.018  -1.766   9.684  1.00  0.00     0.049 A 
ATOM     50  H   UNL     1      -2.747  -2.672  11.063  1.00  0.00     0.167 HD
ATOM     51  C   UNL     1      -0.015  -4.615  13.863  1.00  0.00     0.031 A 
ATOM     52  C   UNL     1      -5.104  -1.350  10.366  1.00  0.00     0.031 A 
ATOM     53  C   UNL     1      -1.105  -4.150  14.679  1.00  0.00     0.049 A 
ATOM     54  C   UNL     1      -5.197  -1.611  11.848  1.00  0.00     0.074 A 
ATOM     55  C   UNL     1      -1.255  -4.243  16.052  1.00  0.00     0.029 A 
ATOM     56  N   UNL     1      -2.238  -3.517  14.194  1.00  0.00    -0.354 N 
ATOM     57  N   UNL     1      -4.325  -2.176  12.647  1.00  0.00    -0.248 NA
ATOM     58  C   UNL     1      -6.427  -1.167  12.521  1.00  0.00     0.031 C 
ATOM     59  C   UNL     1      -2.508  -3.722  16.390  1.00  0.00     0.029 A 
ATOM     60  C   UNL     1      -3.107  -3.240  15.236  1.00  0.00     0.049 A 
ATOM     61  H   UNL     1      -2.401  -3.296  13.248  1.00  0.00     0.167 HD
ATOM     62  C   UNL     1      -4.884  -2.124  13.919  1.00  0.00     0.074 A 
ATOM     63  C   UNL     1      -6.164  -1.461  13.787  1.00  0.00     0.031 C 
ATOM     64  C   UNL     1      -4.380  -2.580  15.093  1.00  0.00     0.031 A 
BRANCH  51  65
ATOM     65  C   UNL     1       1.121  -5.345  14.526  1.00  0.00    -0.014 A 
ATOM     66  C   UNL     1       2.406  -4.784  14.600  1.00  0.00     0.009 A 
ATOM     67  C   UNL     1       0.900  -6.610  15.091  1.00  0.00     0.009 A 
ATOM     68  C   UNL     1       3.455  -5.495  15.187  1.00  0.00     0.001 A 
ATOM     69  C   UNL     1       1.942  -7.304  15.707  1.00  0.00     0.001 A 
ATOM     70  C   UNL     1       3.221  -6.751  15.744  1.00  0.00     0.000 A 
ENDBRANCH  51  65
BRANCH  52  71
ATOM     71  C   UNL     1      -6.208  -0.649   9.657  1.00  0.00    -0.014 A 
ATOM     72  C   UNL     1      -6.470   0.707   9.906  1.00  0.00     0.009 A 
ATOM     73  C   UNL     1      -7.024  -1.340   8.746  1.00  0.00     0.009 A 
ATOM     74  C   UNL     1      -7.539   1.350   9.277  1.00  0.00     0.001 A 
ATOM     75  C   UNL     1      -8.073  -0.686   8.096  1.00  0.00     0.001 A 
ATOM     76  C   UNL     1      -8.336   0.655   8.369  1.00  0.00     0.000 A 
ENDBRANCH  52  71
BRANCH  64  77
ATOM     77  C   UNL     1      -5.190  -2.337  16.338  1.00  0.00    -0.014 A 
ATOM     78  C   UNL     1      -6.390  -3.024  16.582  1.00  0.00     0.009 A 
ATOM     79  C   UNL     1      -4.719  -1.433  17.305  1.00  0.00     0.009 A 
ATOM     80  C   UNL     1      -7.118  -2.782  17.750  1.00  0.00     0.001 A 
ATOM     81  C   UNL     1      -5.431  -1.219  18.486  1.00  0.00     0.001 A 
ATOM     82  C   UNL     1      -6.635  -1.885  18.702  1.00  0.00     0.000 A 
ENDBRANCH  64  77
ENDBRANCH  38  39
ENDBRANCH  31  33
ENDBRANCH  30  31
ENDBRANCH  29  30
ENDBRANCH  28  29
ENDBRANCH  27  28
ENDBRANCH  26  27
ENDBRANCH   1  26
TORSDOF 20
