REMARK SMILES CC[C@@H]1CCCC[N@H+]1Cc1c(C(=O)OCCOCCOCCOC(=O)c2ccc(-c3c4nc(c(-c5ccccc5)c5ccc([nH]5)c(-c5ccccc5)c5nc(c(-c6ccccc6)c6ccc3[nH]6)C=C5)C=C4)cc2)oc2ccccc12
REMARK SMILES IDX 18 1 17 2 16 3 15 4 14 5 12 6 13 7 11 8 10 9 80 10 74 11
REMARK SMILES IDX 75 12 79 13 76 14 78 15 77 16 9 17 8 18 3 19 4 20 5 21 7 22
REMARK SMILES IDX 6 24 2 25 1 26 19 27 20 28 21 29 22 30 23 31 24 32 25 33
REMARK SMILES IDX 26 34 27 35 73 36 28 37 72 38 29 39 30 40 31 41 66 42 32 43
REMARK SMILES IDX 71 44 65 45 67 46 33 47 70 48 64 49 63 50 34 52 56 53 41 54
REMARK SMILES IDX 55 55 42 56 45 57 54 58 68 59 43 60 44 61 53 63 69 64 46 65
REMARK SMILES IDX 35 66 36 67 40 68 37 69 39 70 38 71 57 72 58 73 62 74 59 75
REMARK SMILES IDX 61 76 60 77 47 78 48 79 52 80 49 81 51 82 50 83
REMARK H PARENT 8 23 67 51 45 62
REMARK Flexibility Score: inf
ROOT
ATOM      1  C   UNL     1       6.790   0.308  -2.566  1.00  0.00     0.188 C 
ENDROOT
BRANCH   1   2
ATOM      2  O   UNL     1       7.995  -0.418  -2.394  1.00  0.00    -0.376 OA
BRANCH   2   3
ATOM      3  C   UNL     1       8.531  -1.186  -3.461  1.00  0.00     0.202 C 
BRANCH   3   4
ATOM      4  C   UNL     1       7.699  -2.338  -4.020  1.00  0.00     0.261 C 
BRANCH   4   5
ATOM      5  O   UNL     1       6.436  -1.907  -4.543  1.00  0.00    -0.457 OA
BRANCH   5   6
ATOM      6  C   UNL     1       5.340  -2.435  -3.925  1.00  0.00     0.374 C 
ATOM      7  O   UNL     1       5.387  -3.273  -3.034  1.00  0.00    -0.242 OA
BRANCH   6   8
ATOM      8  C   UNL     1       4.144  -1.763  -4.375  1.00  0.00     0.221 A 
ATOM      9  C   UNL     1       3.082  -1.210  -3.657  1.00  0.00     0.067 A 
ATOM     10  C   UNL     1       2.185  -0.686  -4.650  1.00  0.00     0.030 A 
ATOM     11  O   UNL     1       3.945  -1.613  -5.717  1.00  0.00    -0.448 OA
ATOM     12  C   UNL     1       2.749  -0.993  -5.882  1.00  0.00     0.135 A 
ATOM     13  C   UNL     1       0.960   0.010  -4.654  1.00  0.00     0.012 A 
ATOM     14  C   UNL     1       2.164  -0.699  -7.113  1.00  0.00     0.048 A 
ATOM     15  C   UNL     1       0.335   0.306  -5.873  1.00  0.00     0.001 A 
ATOM     16  C   UNL     1       0.926  -0.050  -7.083  1.00  0.00     0.004 A 
BRANCH   9  17
ATOM     17  C   UNL     1       2.983  -1.120  -2.158  1.00  0.00     0.304 C 
BRANCH  17  18
ATOM     18  N   UNL     1       2.134  -2.138  -1.515  1.00  0.00    -0.329 N 
ATOM     19  C   UNL     1       0.680  -1.934  -1.635  1.00  0.00     0.184 C 
ATOM     20  C   UNL     1      -0.132  -3.073  -0.979  1.00  0.00     0.065 C 
ATOM     21  C   UNL     1       0.321  -4.445  -1.450  1.00  0.00     0.012 C 
ATOM     22  C   UNL     1       2.598  -3.500  -1.811  1.00  0.00     0.262 C 
ATOM     23  H   UNL     1       2.265  -2.001  -0.513  1.00  0.00     0.348 HD
ATOM     24  C   UNL     1       1.795  -4.601  -1.132  1.00  0.00     0.062 C 
BRANCH  19  25
ATOM     25  C   UNL     1       0.202  -0.584  -1.032  1.00  0.00     0.061 C 
ATOM     26  C   UNL     1       0.585  -0.355   0.425  1.00  0.00     0.010 C 
ENDBRANCH  19  25
ENDBRANCH  17  18
ENDBRANCH   9  17
ENDBRANCH   6   8
ENDBRANCH   5   6
ENDBRANCH   4   5
ENDBRANCH   3   4
ENDBRANCH   2   3
ENDBRANCH   1   2
BRANCH   1  27
ATOM     27  C   UNL     1       6.510   1.129  -3.841  1.00  0.00     0.188 C 
BRANCH  27  28
ATOM     28  O   UNL     1       7.575   1.555  -4.673  1.00  0.00    -0.376 OA
BRANCH  28  29
ATOM     29  C   UNL     1       8.713   2.168  -4.085  1.00  0.00     0.202 C 
BRANCH  29  30
ATOM     30  C   UNL     1       8.503   3.494  -3.360  1.00  0.00     0.261 C 
BRANCH  30  31
ATOM     31  O   UNL     1       7.697   3.339  -2.181  1.00  0.00    -0.460 OA
BRANCH  31  32
ATOM     32  C   UNL     1       6.577   4.095  -2.149  1.00  0.00     0.338 C 
ATOM     33  O   UNL     1       6.196   4.902  -2.980  1.00  0.00    -0.246 OA
BRANCH  32  34
ATOM     34  C   UNL     1       5.755   3.707  -0.991  1.00  0.00     0.060 A 
ATOM     35  C   UNL     1       4.435   3.306  -1.228  1.00  0.00     0.016 A 
ATOM     36  C   UNL     1       6.245   3.826   0.311  1.00  0.00     0.016 A 
ATOM     37  C   UNL     1       3.581   3.067  -0.153  1.00  0.00     0.010 A 
ATOM     38  C   UNL     1       5.382   3.603   1.387  1.00  0.00     0.010 A 
ATOM     39  C   UNL     1       4.039   3.258   1.158  1.00  0.00    -0.014 A 
BRANCH  39  40
ATOM     40  C   UNL     1       3.070   3.257   2.277  1.00  0.00     0.031 A 
ATOM     41  C   UNL     1       2.441   4.557   2.695  1.00  0.00     0.074 A 
ATOM     42  C   UNL     1       2.739   2.115   2.901  1.00  0.00     0.049 A 
ATOM     43  N   UNL     1       1.570   4.789   3.643  1.00  0.00    -0.248 NA
ATOM     44  C   UNL     1       2.855   5.756   1.947  1.00  0.00     0.031 C 
ATOM     45  C   UNL     1       3.260   0.791   2.572  1.00  0.00     0.029 A 
ATOM     46  N   UNL     1       1.869   1.890   3.938  1.00  0.00    -0.354 N 
ATOM     47  C   UNL     1       1.342   6.159   3.616  1.00  0.00     0.074 A 
ATOM     48  C   UNL     1       2.172   6.708   2.566  1.00  0.00     0.031 C 
ATOM     49  C   UNL     1       2.676  -0.117   3.375  1.00  0.00     0.029 A 
ATOM     50  C   UNL     1       1.772   0.568   4.296  1.00  0.00     0.049 A 
ATOM     51  H   UNL     1       1.362   2.608   4.382  1.00  0.00     0.167 HD
ATOM     52  C   UNL     1       0.523   6.896   4.402  1.00  0.00     0.031 A 
ATOM     53  C   UNL     1       1.040  -0.018   5.262  1.00  0.00     0.031 A 
ATOM     54  C   UNL     1      -0.283   6.359   5.464  1.00  0.00     0.049 A 
ATOM     55  C   UNL     1       0.171   0.831   6.151  1.00  0.00     0.074 A 
ATOM     56  C   UNL     1      -1.141   7.029   6.320  1.00  0.00     0.029 A 
ATOM     57  N   UNL     1      -0.324   5.021   5.822  1.00  0.00    -0.354 N 
ATOM     58  N   UNL     1      -0.049   2.122   6.104  1.00  0.00    -0.248 NA
ATOM     59  C   UNL     1      -0.543   0.137   7.233  1.00  0.00     0.031 C 
ATOM     60  C   UNL     1      -1.665   6.102   7.226  1.00  0.00     0.029 A 
ATOM     61  C   UNL     1      -1.173   4.848   6.901  1.00  0.00     0.049 A 
ATOM     62  H   UNL     1       0.177   4.301   5.375  1.00  0.00     0.167 HD
ATOM     63  C   UNL     1      -0.934   2.393   7.141  1.00  0.00     0.074 A 
ATOM     64  C   UNL     1      -1.229   1.129   7.783  1.00  0.00     0.031 C 
ATOM     65  C   UNL     1      -1.452   3.584   7.530  1.00  0.00     0.031 A 
BRANCH  52  66
ATOM     66  C   UNL     1       0.500   8.379   4.166  1.00  0.00    -0.014 A 
ATOM     67  C   UNL     1      -0.148   8.928   3.050  1.00  0.00     0.009 A 
ATOM     68  C   UNL     1       1.123   9.237   5.085  1.00  0.00     0.009 A 
ATOM     69  C   UNL     1      -0.145  10.310   2.843  1.00  0.00     0.001 A 
ATOM     70  C   UNL     1       1.105  10.618   4.887  1.00  0.00     0.001 A 
ATOM     71  C   UNL     1       0.478  11.153   3.763  1.00  0.00     0.000 A 
ENDBRANCH  52  66
BRANCH  53  72
ATOM     72  C   UNL     1       1.105  -1.490   5.459  1.00  0.00    -0.014 A 
ATOM     73  C   UNL     1      -0.002  -2.298   5.156  1.00  0.00     0.009 A 
ATOM     74  C   UNL     1       2.264  -2.091   5.974  1.00  0.00     0.009 A 
ATOM     75  C   UNL     1       0.043  -3.674   5.388  1.00  0.00     0.001 A 
ATOM     76  C   UNL     1       2.315  -3.471   6.179  1.00  0.00     0.001 A 
ATOM     77  C   UNL     1       1.202  -4.260   5.896  1.00  0.00     0.000 A 
ENDBRANCH  53  72
BRANCH  65  78
ATOM     78  C   UNL     1      -2.404   3.574   8.692  1.00  0.00    -0.014 A 
ATOM     79  C   UNL     1      -1.944   3.394  10.006  1.00  0.00     0.009 A 
ATOM     80  C   UNL     1      -3.773   3.794   8.473  1.00  0.00     0.009 A 
ATOM     81  C   UNL     1      -2.841   3.406  11.075  1.00  0.00     0.001 A 
ATOM     82  C   UNL     1      -4.664   3.830   9.547  1.00  0.00     0.001 A 
ATOM     83  C   UNL     1      -4.199   3.629  10.845  1.00  0.00     0.000 A 
ENDBRANCH  65  78
ENDBRANCH  39  40
ENDBRANCH  32  34
ENDBRANCH  31  32
ENDBRANCH  30  31
ENDBRANCH  29  30
ENDBRANCH  28  29
ENDBRANCH  27  28
ENDBRANCH   1  27
TORSDOF 20
