REMARK SMILES O=C(OCCOCCOCCOC(=O)c1ccc(-c2c3nc(c(-c4ccccc4)c4ccc([nH]4)c(-c4ccccc4)c4nc(c(-c5ccccc5)c5ccc2[nH]5)C=C4)C=C3)cc1)C1=Cc2c(ccc(Cl)c2Sc2ccccc2)O[C@H]1C(F)(F)F
REMARK SMILES IDX 7 1 6 2 5 3 4 4 3 5 2 6 1 7 63 8 64 9 80 10 65 11 79 12
REMARK SMILES IDX 66 13 71 14 67 15 69 16 68 17 70 18 81 19 82 20 83 21 84 22
REMARK SMILES IDX 72 23 73 24 74 25 78 26 75 27 77 28 76 29 8 30 9 31 10 32
REMARK SMILES IDX 11 33 12 34 13 35 14 36 15 37 16 38 62 39 17 40 61 41 18 42
REMARK SMILES IDX 19 43 20 44 55 45 21 46 60 47 54 48 56 49 22 50 59 51 53 52
REMARK SMILES IDX 52 53 23 55 45 56 30 57 44 58 31 59 34 60 43 61 57 62 32 63
REMARK SMILES IDX 33 64 42 66 58 67 35 68 24 69 25 70 29 71 26 72 28 73 27 74
REMARK SMILES IDX 46 75 47 76 51 77 48 78 50 79 49 80 36 81 37 82 41 83 38 84
REMARK SMILES IDX 40 85 39 86
REMARK H PARENT 56 54 34 65
REMARK Flexibility Score: inf
ROOT
ATOM      1  C   UNL     1       3.210   3.438   0.889  1.00  0.00     0.188 C 
ENDROOT
BRANCH   1   2
ATOM      2  O   UNL     1       4.064   2.372   1.241  1.00  0.00    -0.376 OA
BRANCH   2   3
ATOM      3  C   UNL     1       3.534   1.152   0.822  1.00  0.00     0.202 C 
BRANCH   3   4
ATOM      4  C   UNL     1       2.696   0.371   1.892  1.00  0.00     0.261 C 
BRANCH   4   5
ATOM      5  O   UNL     1       3.478  -0.241   2.964  1.00  0.00    -0.460 OA
BRANCH   5   6
ATOM      6  C   UNL     1       3.533  -1.621   3.056  1.00  0.00     0.338 C 
ATOM      7  O   UNL     1       3.075  -2.258   3.970  1.00  0.00    -0.246 OA
BRANCH   6   8
ATOM      8  C   UNL     1       4.433  -2.263   2.032  1.00  0.00     0.087 C 
ATOM      9  C   UNL     1       4.089  -1.846   0.814  1.00  0.00     0.028 C 
ATOM     10  C   UNL     1       5.914  -2.373   2.331  1.00  0.00     0.316 C 
ATOM     11  C   UNL     1       4.846  -1.849  -0.411  1.00  0.00     0.033 A 
ATOM     12  O   UNL     1       6.760  -2.277   1.119  1.00  0.00    -0.475 OA
ATOM     13  C   UNL     1       6.233  -2.009  -0.134  1.00  0.00     0.129 A 
ATOM     14  C   UNL     1       4.321  -1.327  -1.643  1.00  0.00     0.042 A 
ATOM     15  C   UNL     1       7.155  -1.770  -1.139  1.00  0.00     0.049 A 
ATOM     16  C   UNL     1       5.325  -1.083  -2.622  1.00  0.00     0.055 A 
ATOM     17  C   UNL     1       6.700  -1.314  -2.376  1.00  0.00     0.025 A 
ATOM     18  Cl  UNL     1       4.981  -0.430  -4.200  1.00  0.00    -0.083 Cl
BRANCH  10  19
ATOM     19  C   UNL     1       6.417  -1.361   3.403  1.00  0.00     0.430 C 
ATOM     20  F   UNL     1       6.315  -0.082   2.973  1.00  0.00    -0.167 F 
ATOM     21  F   UNL     1       5.724  -1.457   4.561  1.00  0.00    -0.167 F 
ATOM     22  F   UNL     1       7.716  -1.575   3.723  1.00  0.00    -0.167 F 
ENDBRANCH  10  19
BRANCH  14  23
ATOM     23  S   UNL     1       2.578  -0.981  -2.187  1.00  0.00    -0.088 SA
BRANCH  23  24
ATOM     24  C   UNL     1       1.225  -0.533  -1.091  1.00  0.00     0.012 A 
ATOM     25  C   UNL     1       0.261  -1.484  -0.748  1.00  0.00     0.015 A 
ATOM     26  C   UNL     1       0.855   0.791  -0.768  1.00  0.00     0.015 A 
ATOM     27  C   UNL     1      -0.821  -1.179   0.108  1.00  0.00     0.001 A 
ATOM     28  C   UNL     1      -0.141   1.098   0.185  1.00  0.00     0.001 A 
ATOM     29  C   UNL     1      -0.961   0.090   0.659  1.00  0.00     0.000 A 
ENDBRANCH  23  24
ENDBRANCH  14  23
ENDBRANCH   6   8
ENDBRANCH   5   6
ENDBRANCH   4   5
ENDBRANCH   3   4
ENDBRANCH   2   3
ENDBRANCH   1   2
BRANCH   1  30
ATOM     30  C   UNL     1       2.940   3.700  -0.610  1.00  0.00     0.188 C 
BRANCH  30  31
ATOM     31  O   UNL     1       3.540   4.858  -1.174  1.00  0.00    -0.376 OA
BRANCH  31  32
ATOM     32  C   UNL     1       4.945   4.972  -0.995  1.00  0.00     0.202 C 
BRANCH  32  33
ATOM     33  C   UNL     1       5.225   6.284  -0.250  1.00  0.00     0.261 C 
BRANCH  33  34
ATOM     34  O   UNL     1       4.662   6.278   1.086  1.00  0.00    -0.460 OA
BRANCH  34  35
ATOM     35  C   UNL     1       3.349   6.623   1.222  1.00  0.00     0.338 C 
ATOM     36  O   UNL     1       2.640   7.155   0.384  1.00  0.00    -0.246 OA
BRANCH  35  37
ATOM     37  C   UNL     1       2.807   6.039   2.494  1.00  0.00     0.060 A 
ATOM     38  C   UNL     1       1.484   5.554   2.511  1.00  0.00     0.016 A 
ATOM     39  C   UNL     1       3.629   5.810   3.604  1.00  0.00     0.016 A 
ATOM     40  C   UNL     1       0.974   4.903   3.647  1.00  0.00     0.010 A 
ATOM     41  C   UNL     1       3.110   5.197   4.752  1.00  0.00     0.010 A 
ATOM     42  C   UNL     1       1.766   4.790   4.800  1.00  0.00    -0.014 A 
BRANCH  42  43
ATOM     43  C   UNL     1       1.119   4.656   6.136  1.00  0.00     0.031 A 
ATOM     44  C   UNL     1       0.560   5.927   6.732  1.00  0.00     0.074 A 
ATOM     45  C   UNL     1       1.067   3.513   6.846  1.00  0.00     0.049 A 
ATOM     46  N   UNL     1       0.008   6.134   7.900  1.00  0.00    -0.248 NA
ATOM     47  C   UNL     1       0.644   7.132   5.887  1.00  0.00     0.031 C 
ATOM     48  C   UNL     1       1.534   2.201   6.407  1.00  0.00     0.029 A 
ATOM     49  N   UNL     1       0.599   3.292   8.123  1.00  0.00    -0.354 N 
ATOM     50  C   UNL     1      -0.328   7.482   7.917  1.00  0.00     0.074 A 
ATOM     51  C   UNL     1       0.101   8.052   6.663  1.00  0.00     0.031 C 
ATOM     52  C   UNL     1       1.344   1.315   7.405  1.00  0.00     0.029 A 
ATOM     53  C   UNL     1       0.773   2.002   8.564  1.00  0.00     0.049 A 
ATOM     54  H   UNL     1       0.178   3.995   8.669  1.00  0.00     0.167 HD
ATOM     55  C   UNL     1      -0.935   8.202   8.888  1.00  0.00     0.031 A 
ATOM     56  C   UNL     1       0.521   1.452   9.771  1.00  0.00     0.031 A 
ATOM     57  C   UNL     1      -1.298   7.683  10.173  1.00  0.00     0.049 A 
ATOM     58  C   UNL     1      -0.049   2.301  10.885  1.00  0.00     0.074 A 
ATOM     59  C   UNL     1      -1.895   8.344  11.231  1.00  0.00     0.029 A 
ATOM     60  N   UNL     1      -1.069   6.381  10.585  1.00  0.00    -0.354 N 
ATOM     61  N   UNL     1      -0.409   3.563  10.870  1.00  0.00    -0.248 NA
ATOM     62  C   UNL     1      -0.250   1.642  12.188  1.00  0.00     0.031 C 
ATOM     63  C   UNL     1      -1.977   7.454  12.306  1.00  0.00     0.029 A 
ATOM     64  C   UNL     1      -1.490   6.225  11.893  1.00  0.00     0.049 A 
ATOM     65  H   UNL     1      -0.667   5.674  10.031  1.00  0.00     0.167 HD
ATOM     66  C   UNL     1      -0.909   3.833  12.142  1.00  0.00     0.074 A 
ATOM     67  C   UNL     1      -0.817   2.605  12.900  1.00  0.00     0.031 C 
ATOM     68  C   UNL     1      -1.404   4.995  12.636  1.00  0.00     0.031 A 
BRANCH  55  69
ATOM     69  C   UNL     1      -1.190   9.651   8.592  1.00  0.00    -0.014 A 
ATOM     70  C   UNL     1      -2.175  10.037   7.669  1.00  0.00     0.009 A 
ATOM     71  C   UNL     1      -0.425  10.638   9.230  1.00  0.00     0.009 A 
ATOM     72  C   UNL     1      -2.364  11.386   7.364  1.00  0.00     0.001 A 
ATOM     73  C   UNL     1      -0.636  11.987   8.943  1.00  0.00     0.001 A 
ATOM     74  C   UNL     1      -1.598  12.359   8.004  1.00  0.00     0.000 A 
ENDBRANCH  55  69
BRANCH  56  75
ATOM     75  C   UNL     1       0.825   0.016  10.031  1.00  0.00    -0.014 A 
ATOM     76  C   UNL     1      -0.212  -0.903  10.269  1.00  0.00     0.009 A 
ATOM     77  C   UNL     1       2.152  -0.430  10.119  1.00  0.00     0.009 A 
ATOM     78  C   UNL     1       0.076  -2.225  10.620  1.00  0.00     0.001 A 
ATOM     79  C   UNL     1       2.437  -1.760  10.441  1.00  0.00     0.001 A 
ATOM     80  C   UNL     1       1.399  -2.653  10.703  1.00  0.00     0.000 A 
ENDBRANCH  56  75
BRANCH  68  81
ATOM     81  C   UNL     1      -1.935   4.993  14.043  1.00  0.00    -0.014 A 
ATOM     82  C   UNL     1      -1.079   4.919  15.153  1.00  0.00     0.009 A 
ATOM     83  C   UNL     1      -3.316   5.134  14.260  1.00  0.00     0.009 A 
ATOM     84  C   UNL     1      -1.599   4.955  16.449  1.00  0.00     0.001 A 
ATOM     85  C   UNL     1      -3.830   5.200  15.556  1.00  0.00     0.001 A 
ATOM     86  C   UNL     1      -2.972   5.101  16.649  1.00  0.00     0.000 A 
ENDBRANCH  68  81
ENDBRANCH  42  43
ENDBRANCH  35  37
ENDBRANCH  34  35
ENDBRANCH  33  34
ENDBRANCH  32  33
ENDBRANCH  31  32
ENDBRANCH  30  31
ENDBRANCH   1  30
TORSDOF 20
