REMARK SMILES CCC(=O)Nc1cc(NC(=O)/C=C/C(=O)OCCOCCOCCOC(=O)c2ccc(-c3c4nc(c(-c5ccccc5)c5ccc([nH]5)c(-c5ccccc5)c5nc(c(-c6ccccc6)c6ccc3[nH]6)C=C5)C=C4)cc2)ccc1C
REMARK SMILES IDX 20 1 19 2 18 3 17 4 16 5 14 6 15 7 13 8 12 9 10 10 9 11
REMARK SMILES IDX 11 13 8 14 6 15 7 16 78 17 77 18 79 19 76 20 5 21 3 22 4 23
REMARK SMILES IDX 2 25 1 26 21 27 22 28 23 29 24 30 25 31 26 32 27 33 28 34
REMARK SMILES IDX 29 35 75 36 30 37 74 38 31 39 32 40 33 41 68 42 34 43 73 44
REMARK SMILES IDX 67 45 69 46 35 47 72 48 66 49 65 50 36 52 58 53 43 54 57 55
REMARK SMILES IDX 44 56 47 57 56 58 70 59 45 60 46 61 55 63 71 64 48 65 37 66
REMARK SMILES IDX 38 67 42 68 39 69 41 70 40 71 59 72 60 73 64 74 61 75 63 76
REMARK SMILES IDX 62 77 49 78 50 79 54 80 51 81 53 82 52 83
REMARK H PARENT 9 12 5 24 69 51 47 62
REMARK Flexibility Score: inf
ROOT
ATOM      1  C   UNL     1       2.880  -4.565   6.426  1.00  0.00     0.188 C 
ENDROOT
BRANCH   1   2
ATOM      2  O   UNL     1       3.731  -5.709   6.689  1.00  0.00    -0.376 OA
BRANCH   2   3
ATOM      3  C   UNL     1       4.094  -6.519   5.556  1.00  0.00     0.202 C 
BRANCH   3   4
ATOM      4  C   UNL     1       5.694  -6.674   5.125  1.00  0.00     0.261 C 
BRANCH   4   5
ATOM      5  O   UNL     1       6.531  -6.347   3.767  1.00  0.00    -0.460 OA
BRANCH   5   6
ATOM      6  C   UNL     1       6.336  -5.885   2.493  1.00  0.00     0.331 C 
ATOM      7  O   UNL     1       5.264  -5.670   1.959  1.00  0.00    -0.247 OA
BRANCH   6   8
ATOM      8  C   UNL     1       7.412  -5.488   1.573  1.00  0.00     0.099 C 
ATOM      9  C   UNL     1       7.156  -4.284   0.984  1.00  0.00     0.079 C 
BRANCH   9  10
ATOM     10  C   UNL     1       7.573  -3.935  -0.400  1.00  0.00     0.248 C 
ATOM     11  N   UNL     1       7.144  -2.769  -0.988  1.00  0.00    -0.322 N 
ATOM     12  H   UNL     1       7.693  -2.521  -1.766  1.00  0.00     0.170 HD
ATOM     13  O   UNL     1       8.403  -4.628  -0.988  1.00  0.00    -0.270 OA
BRANCH  11  14
ATOM     14  C   UNL     1       6.106  -1.837  -0.747  1.00  0.00     0.043 A 
ATOM     15  C   UNL     1       3.761  -1.119  -0.454  1.00  0.00     0.046 A 
ATOM     16  C   UNL     1       4.755  -2.150  -0.525  1.00  0.00     0.052 A 
ATOM     17  C   UNL     1       4.181   0.224  -0.383  1.00  0.00    -0.027 A 
ATOM     18  C   UNL     1       5.512   0.513  -0.712  1.00  0.00     0.008 A 
ATOM     19  C   UNL     1       3.338   1.409   0.002  1.00  0.00     0.046 C 
ATOM     20  C   UNL     1       6.440  -0.498  -0.948  1.00  0.00     0.026 A 
BRANCH  15  21
ATOM     21  N   UNL     1       2.407  -1.522  -0.681  1.00  0.00    -0.326 N 
ATOM     22  C   UNL     1       1.282  -0.719  -0.748  1.00  0.00     0.224 C 
ATOM     23  O   UNL     1       1.015   0.221  -0.007  1.00  0.00    -0.275 OA
ATOM     24  H   UNL     1       2.258  -2.487  -0.804  1.00  0.00     0.169 HD
BRANCH  22  25
ATOM     25  C   UNL     1       0.301  -1.075  -1.841  1.00  0.00     0.097 C 
ATOM     26  C   UNL     1       0.021   0.178  -2.664  1.00  0.00     0.014 C 
ENDBRANCH  22  25
ENDBRANCH  15  21
ENDBRANCH  11  14
ENDBRANCH   9  10
ENDBRANCH   6   8
ENDBRANCH   5   6
ENDBRANCH   4   5
ENDBRANCH   3   4
ENDBRANCH   2   3
ENDBRANCH   1   2
BRANCH   1  27
ATOM     27  C   UNL     1       3.487  -3.358   7.127  1.00  0.00     0.188 C 
BRANCH  27  28
ATOM     28  O   UNL     1       4.890  -3.563   7.022  1.00  0.00    -0.376 OA
BRANCH  28  29
ATOM     29  C   UNL     1       5.684  -2.964   8.018  1.00  0.00     0.202 C 
BRANCH  29  30
ATOM     30  C   UNL     1       5.918  -1.489   7.689  1.00  0.00     0.261 C 
BRANCH  30  31
ATOM     31  O   UNL     1       6.307  -1.367   6.295  1.00  0.00    -0.460 OA
BRANCH  31  32
ATOM     32  C   UNL     1       5.400  -0.775   5.457  1.00  0.00     0.338 C 
ATOM     33  O   UNL     1       4.803   0.265   5.709  1.00  0.00    -0.246 OA
BRANCH  32  34
ATOM     34  C   UNL     1       5.030  -1.696   4.322  1.00  0.00     0.060 A 
ATOM     35  C   UNL     1       3.933  -1.497   3.472  1.00  0.00     0.016 A 
ATOM     36  C   UNL     1       5.548  -2.956   4.327  1.00  0.00     0.016 A 
ATOM     37  C   UNL     1       3.266  -2.604   2.804  1.00  0.00     0.010 A 
ATOM     38  C   UNL     1       4.734  -3.981   3.826  1.00  0.00     0.010 A 
ATOM     39  C   UNL     1       3.581  -3.936   3.045  1.00  0.00    -0.014 A 
BRANCH  39  40
ATOM     40  C   UNL     1       2.743  -5.251   2.747  1.00  0.00     0.031 A 
ATOM     41  C   UNL     1       3.198  -6.609   2.098  1.00  0.00     0.074 A 
ATOM     42  C   UNL     1       1.471  -5.370   3.178  1.00  0.00     0.049 A 
ATOM     43  N   UNL     1       3.095  -6.973   0.840  1.00  0.00    -0.248 NA
ATOM     44  C   UNL     1       3.823  -7.710   2.879  1.00  0.00     0.031 C 
ATOM     45  C   UNL     1       0.618  -6.553   3.062  1.00  0.00     0.029 A 
ATOM     46  N   UNL     1       0.627  -4.381   3.656  1.00  0.00    -0.354 N 
ATOM     47  C   UNL     1       3.650  -8.266   0.752  1.00  0.00     0.074 A 
ATOM     48  C   UNL     1       4.369  -8.510   1.971  1.00  0.00     0.031 C 
ATOM     49  C   UNL     1      -0.662  -6.157   3.143  1.00  0.00     0.029 A 
ATOM     50  C   UNL     1      -0.672  -4.706   3.225  1.00  0.00     0.049 A 
ATOM     51  H   UNL     1       0.887  -3.599   4.196  1.00  0.00     0.167 HD
ATOM     52  C   UNL     1       3.075  -9.361   0.164  1.00  0.00     0.031 A 
ATOM     53  C   UNL     1      -1.287  -3.863   2.347  1.00  0.00     0.031 A 
ATOM     54  C   UNL     1       1.653  -9.184   0.034  1.00  0.00     0.049 A 
ATOM     55  C   UNL     1      -1.372  -4.437   0.936  1.00  0.00     0.074 A 
ATOM     56  C   UNL     1       0.554  -9.684   0.712  1.00  0.00     0.029 A 
ATOM     57  N   UNL     1       1.207  -8.105  -0.686  1.00  0.00    -0.354 N 
ATOM     58  N   UNL     1      -0.976  -5.633   0.590  1.00  0.00    -0.248 NA
ATOM     59  C   UNL     1      -1.857  -3.681  -0.220  1.00  0.00     0.031 C 
ATOM     60  C   UNL     1      -0.579  -8.917   0.331  1.00  0.00     0.029 A 
ATOM     61  C   UNL     1      -0.153  -7.973  -0.580  1.00  0.00     0.049 A 
ATOM     62  H   UNL     1       1.787  -7.506  -1.210  1.00  0.00     0.167 HD
ATOM     63  C   UNL     1      -1.125  -5.806  -0.763  1.00  0.00     0.074 A 
ATOM     64  C   UNL     1      -1.668  -4.549  -1.231  1.00  0.00     0.031 C 
ATOM     65  C   UNL     1      -0.773  -6.962  -1.398  1.00  0.00     0.031 A 
BRANCH  52  66
ATOM     66  C   UNL     1       3.786 -10.707   0.202  1.00  0.00    -0.014 A 
ATOM     67  C   UNL     1       3.108 -11.909   0.460  1.00  0.00     0.009 A 
ATOM     68  C   UNL     1       5.184 -10.801   0.009  1.00  0.00     0.009 A 
ATOM     69  C   UNL     1       3.794 -13.123   0.620  1.00  0.00     0.001 A 
ATOM     70  C   UNL     1       5.875 -12.010   0.185  1.00  0.00     0.001 A 
ATOM     71  C   UNL     1       5.179 -13.169   0.506  1.00  0.00     0.000 A 
ENDBRANCH  52  66
BRANCH  53  72
ATOM     72  C   UNL     1      -1.056  -2.432   2.724  1.00  0.00    -0.014 A 
ATOM     73  C   UNL     1      -1.615  -1.932   3.917  1.00  0.00     0.009 A 
ATOM     74  C   UNL     1       0.005  -1.719   2.174  1.00  0.00     0.009 A 
ATOM     75  C   UNL     1      -1.061  -0.822   4.579  1.00  0.00     0.001 A 
ATOM     76  C   UNL     1       0.553  -0.604   2.833  1.00  0.00     0.001 A 
ATOM     77  C   UNL     1       0.048  -0.176   4.050  1.00  0.00     0.000 A 
ENDBRANCH  53  72
BRANCH  65  78
ATOM     78  C   UNL     1      -0.936  -7.286  -2.863  1.00  0.00    -0.014 A 
ATOM     79  C   UNL     1      -2.040  -6.872  -3.609  1.00  0.00     0.009 A 
ATOM     80  C   UNL     1      -0.046  -8.191  -3.496  1.00  0.00     0.009 A 
ATOM     81  C   UNL     1      -2.220  -7.306  -4.931  1.00  0.00     0.001 A 
ATOM     82  C   UNL     1      -0.231  -8.642  -4.803  1.00  0.00     0.001 A 
ATOM     83  C   UNL     1      -1.320  -8.189  -5.525  1.00  0.00     0.000 A 
ENDBRANCH  65  78
ENDBRANCH  39  40
ENDBRANCH  32  34
ENDBRANCH  31  32
ENDBRANCH  30  31
ENDBRANCH  29  30
ENDBRANCH  28  29
ENDBRANCH  27  28
ENDBRANCH   1  27
TORSDOF 21
