REMARK SMILES O=C(Nc1ccc(Br)cc1)Nc1ccc(CC(=O)OCCOCCOCCOC(=O)c2ccc(-c3c4nc(c(-c5ccccc5)c5ccc([nH]5)c(-c5ccccc5)c5nc(c(-c6ccccc6)c6ccc3[nH]6)C=C5)C=C4)cc2)cc1
REMARK SMILES IDX 23 1 22 2 21 3 20 4 19 5 17 6 18 7 16 8 15 9 12 10 13 11
REMARK SMILES IDX 80 12 14 13 79 14 11 15 1 16 2 17 3 18 4 21 5 22 10 23 6 24
REMARK SMILES IDX 9 25 7 26 8 27 24 28 25 29 26 30 27 31 28 32 29 33 30 34
REMARK SMILES IDX 31 35 32 36 78 37 33 38 77 39 34 40 35 41 36 42 71 43 37 44
REMARK SMILES IDX 76 45 70 46 72 47 38 48 75 49 69 50 68 51 39 53 61 54 46 55
REMARK SMILES IDX 60 56 47 57 50 58 59 59 73 60 48 61 49 62 58 64 74 65 51 66
REMARK SMILES IDX 40 67 41 68 45 69 42 70 44 71 43 72 62 73 63 74 67 75 64 76
REMARK SMILES IDX 66 77 65 78 52 79 53 80 57 81 54 82 56 83 55 84
REMARK H PARENT 3 19 11 20 72 52 50 63
REMARK Flexibility Score: inf
ROOT
ATOM      1  C   UNL     1       2.897  -8.202  -0.914  1.00  0.00     0.188 C 
ENDROOT
BRANCH   1   2
ATOM      2  O   UNL     1       2.741  -9.271  -1.844  1.00  0.00    -0.376 OA
BRANCH   2   3
ATOM      3  C   UNL     1       2.668  -8.959  -3.226  1.00  0.00     0.202 C 
BRANCH   3   4
ATOM      4  C   UNL     1       1.355  -8.329  -3.697  1.00  0.00     0.261 C 
BRANCH   4   5
ATOM      5  O   UNL     1       0.971  -7.140  -2.969  1.00  0.00    -0.463 OA
BRANCH   5   6
ATOM      6  C   UNL     1      -0.141  -7.251  -2.201  1.00  0.00     0.310 C 
ATOM      7  O   UNL     1      -0.818  -8.274  -2.120  1.00  0.00    -0.252 OA
BRANCH   6   8
ATOM      8  C   UNL     1      -0.565  -5.997  -1.470  1.00  0.00     0.158 C 
BRANCH   8   9
ATOM      9  C   UNL     1       0.383  -4.838  -1.238  1.00  0.00    -0.037 A 
ATOM     10  C   UNL     1       1.864  -2.506  -0.580  1.00  0.00     0.042 A 
ATOM     11  C   UNL     1       1.991  -3.669   0.182  1.00  0.00     0.026 A 
ATOM     12  C   UNL     1       1.028  -2.526  -1.697  1.00  0.00     0.026 A 
ATOM     13  C   UNL     1       1.229  -4.809  -0.120  1.00  0.00     0.006 A 
ATOM     14  C   UNL     1       0.316  -3.688  -2.038  1.00  0.00     0.006 A 
BRANCH  10  15
ATOM     15  N   UNL     1       2.578  -1.360  -0.172  1.00  0.00    -0.308 N 
ATOM     16  O   UNL     1       1.048   0.289  -0.714  1.00  0.00    -0.248 OA
ATOM     17  C   UNL     1       2.162  -0.058  -0.330  1.00  0.00     0.323 C 
ATOM     18  N   UNL     1       3.026   0.894   0.155  1.00  0.00    -0.308 N 
ATOM     19  H   UNL     1       2.595   1.682   0.557  1.00  0.00     0.171 HD
ATOM     20  H   UNL     1       3.450  -1.504   0.262  1.00  0.00     0.171 HD
BRANCH  18  21
ATOM     21  C   UNL     1       4.431   0.914   0.165  1.00  0.00     0.042 A 
ATOM     22  C   UNL     1       5.197   0.138  -0.709  1.00  0.00     0.027 A 
ATOM     23  C   UNL     1       5.071   1.828   1.011  1.00  0.00     0.027 A 
ATOM     24  C   UNL     1       6.590   0.268  -0.732  1.00  0.00     0.018 A 
ATOM     25  C   UNL     1       6.465   1.938   1.011  1.00  0.00     0.018 A 
ATOM     26  C   UNL     1       7.218   1.161   0.134  1.00  0.00     0.018 A 
ATOM     27  Br  UNL     1       9.100   1.333   0.102  1.00  0.00    -0.051 Br
ENDBRANCH  18  21
ENDBRANCH  10  15
ENDBRANCH   8   9
ENDBRANCH   6   8
ENDBRANCH   5   6
ENDBRANCH   4   5
ENDBRANCH   3   4
ENDBRANCH   2   3
ENDBRANCH   1   2
BRANCH   1  28
ATOM     28  C   UNL     1       3.536  -6.884  -1.377  1.00  0.00     0.188 C 
BRANCH  28  29
ATOM     29  O   UNL     1       4.714  -7.106  -2.142  1.00  0.00    -0.376 OA
BRANCH  29  30
ATOM     30  C   UNL     1       5.812  -6.288  -1.764  1.00  0.00     0.202 C 
BRANCH  30  31
ATOM     31  C   UNL     1       6.715  -7.082  -0.819  1.00  0.00     0.261 C 
BRANCH  31  32
ATOM     32  O   UNL     1       6.053  -7.541   0.379  1.00  0.00    -0.460 OA
BRANCH  32  33
ATOM     33  C   UNL     1       5.638  -6.592   1.238  1.00  0.00     0.338 C 
ATOM     34  O   UNL     1       5.769  -5.376   1.117  1.00  0.00    -0.246 OA
BRANCH  33  35
ATOM     35  C   UNL     1       4.843  -7.215   2.312  1.00  0.00     0.060 A 
ATOM     36  C   UNL     1       3.602  -6.654   2.636  1.00  0.00     0.016 A 
ATOM     37  C   UNL     1       5.338  -8.296   3.044  1.00  0.00     0.016 A 
ATOM     38  C   UNL     1       2.877  -7.134   3.727  1.00  0.00     0.010 A 
ATOM     39  C   UNL     1       4.616  -8.770   4.144  1.00  0.00     0.010 A 
ATOM     40  C   UNL     1       3.403  -8.163   4.518  1.00  0.00    -0.014 A 
BRANCH  40  41
ATOM     41  C   UNL     1       2.790  -8.466   5.835  1.00  0.00     0.031 A 
ATOM     42  C   UNL     1       3.427  -7.897   7.076  1.00  0.00     0.074 A 
ATOM     43  C   UNL     1       1.671  -9.203   5.940  1.00  0.00     0.049 A 
ATOM     44  N   UNL     1       3.088  -8.051   8.331  1.00  0.00    -0.248 NA
ATOM     45  C   UNL     1       4.608  -7.042   6.872  1.00  0.00     0.031 C 
ATOM     46  C   UNL     1       0.924  -9.777   4.823  1.00  0.00     0.029 A 
ATOM     47  N   UNL     1       0.970  -9.597   7.054  1.00  0.00    -0.354 N 
ATOM     48  C   UNL     1       4.022  -7.329   9.065  1.00  0.00     0.074 A 
ATOM     49  C   UNL     1       4.955  -6.759   8.118  1.00  0.00     0.031 C 
ATOM     50  C   UNL     1      -0.131 -10.455   5.309  1.00  0.00     0.029 A 
ATOM     51  C   UNL     1      -0.114 -10.391   6.770  1.00  0.00     0.049 A 
ATOM     52  H   UNL     1       1.221  -9.335   7.969  1.00  0.00     0.167 HD
ATOM     53  C   UNL     1       4.098  -7.152  10.405  1.00  0.00     0.031 A 
ATOM     54  C   UNL     1      -0.980 -11.013   7.594  1.00  0.00     0.031 A 
ATOM     55  C   UNL     1       3.179  -7.719  11.355  1.00  0.00     0.049 A 
ATOM     56  C   UNL     1      -0.838 -10.854   9.085  1.00  0.00     0.074 A 
ATOM     57  C   UNL     1       3.166  -7.577  12.731  1.00  0.00     0.029 A 
ATOM     58  N   UNL     1       2.116  -8.545  11.027  1.00  0.00    -0.354 N 
ATOM     59  N   UNL     1       0.034 -10.149   9.764  1.00  0.00    -0.248 NA
ATOM     60  C   UNL     1      -1.810 -11.574   9.923  1.00  0.00     0.031 C 
ATOM     61  C   UNL     1       2.128  -8.363  13.242  1.00  0.00     0.029 A 
ATOM     62  C   UNL     1       1.457  -8.944  12.178  1.00  0.00     0.049 A 
ATOM     63  H   UNL     1       1.867  -8.809  10.112  1.00  0.00     0.167 HD
ATOM     64  C   UNL     1      -0.300 -10.318  11.104  1.00  0.00     0.074 A 
ATOM     65  C   UNL     1      -1.464 -11.179  11.140  1.00  0.00     0.031 C 
ATOM     66  C   UNL     1       0.301  -9.803  12.204  1.00  0.00     0.031 A 
BRANCH  53  67
ATOM     67  C   UNL     1       5.251  -6.339  10.925  1.00  0.00    -0.014 A 
ATOM     68  C   UNL     1       5.316  -4.950  10.734  1.00  0.00     0.009 A 
ATOM     69  C   UNL     1       6.282  -6.976  11.634  1.00  0.00     0.009 A 
ATOM     70  C   UNL     1       6.410  -4.222  11.207  1.00  0.00     0.001 A 
ATOM     71  C   UNL     1       7.359  -6.242  12.132  1.00  0.00     0.001 A 
ATOM     72  C   UNL     1       7.428  -4.868  11.908  1.00  0.00     0.000 A 
ENDBRANCH  53  67
BRANCH  54  73
ATOM     73  C   UNL     1      -2.056 -11.871   7.030  1.00  0.00    -0.014 A 
ATOM     74  C   UNL     1      -3.402 -11.485   7.116  1.00  0.00     0.009 A 
ATOM     75  C   UNL     1      -1.740 -13.096   6.421  1.00  0.00     0.009 A 
ATOM     76  C   UNL     1      -4.410 -12.318   6.625  1.00  0.00     0.001 A 
ATOM     77  C   UNL     1      -2.747 -13.913   5.905  1.00  0.00     0.001 A 
ATOM     78  C   UNL     1      -4.082 -13.528   6.016  1.00  0.00     0.000 A 
ENDBRANCH  54  73
BRANCH  66  79
ATOM     79  C   UNL     1      -0.308 -10.123  13.542  1.00  0.00    -0.014 A 
ATOM     80  C   UNL     1      -0.215 -11.406  14.102  1.00  0.00     0.009 A 
ATOM     81  C   UNL     1      -0.952  -9.110  14.271  1.00  0.00     0.009 A 
ATOM     82  C   UNL     1      -0.787 -11.677  15.348  1.00  0.00     0.001 A 
ATOM     83  C   UNL     1      -1.496  -9.375  15.529  1.00  0.00     0.001 A 
ATOM     84  C   UNL     1      -1.422 -10.661  16.062  1.00  0.00     0.000 A 
ENDBRANCH  66  79
ENDBRANCH  40  41
ENDBRANCH  33  35
ENDBRANCH  32  33
ENDBRANCH  31  32
ENDBRANCH  30  31
ENDBRANCH  29  30
ENDBRANCH  28  29
ENDBRANCH   1  28
TORSDOF 20
