REMARK SMILES O=C(OCCOCCOCCOC(=O)[C@H]1Cc2c([nH]c3ccccc23)[C@H](c2ccc(Cl)cc2)[NH2+]1)c1ccc(-c2c3nc(c(-c4ccccc4)c4ccc([nH]4)c(-c4ccccc4)c4nc(c(-c5ccccc5)c5ccc2[nH]5)C=C4)C=C3)cc1
REMARK SMILES IDX 7 1 6 2 5 3 4 4 3 5 2 6 1 7 35 8 36 9 82 10 37 11 81 12
REMARK SMILES IDX 38 13 39 14 40 15 75 16 41 17 80 18 74 19 76 20 42 21 79 22
REMARK SMILES IDX 73 23 72 24 43 26 65 27 50 28 64 29 51 30 54 31 63 32 77 33
REMARK SMILES IDX 52 34 53 35 62 37 78 38 55 39 44 40 45 41 49 42 46 43 48 44
REMARK SMILES IDX 47 45 66 46 67 47 71 48 68 49 70 50 69 51 56 52 57 53 61 54
REMARK SMILES IDX 58 55 60 56 59 57 8 58 9 59 10 60 11 61 12 62 13 63 14 64
REMARK SMILES IDX 15 65 16 66 34 67 17 68 26 69 18 72 25 73 19 74 20 75 24 76
REMARK SMILES IDX 21 78 23 79 22 80 27 81 28 82 33 83 29 84 32 85 30 86 31 87
REMARK H PARENT 76 25 54 36 34 70 34 71 19 77
REMARK Flexibility Score: inf
ROOT
ATOM      1  C   UNL     1       2.529   1.543   1.316  1.00  0.00     0.188 C 
ENDROOT
BRANCH   1   2
ATOM      2  O   UNL     1       3.834   0.954   1.303  1.00  0.00    -0.376 OA
BRANCH   2   3
ATOM      3  C   UNL     1       4.722   1.568   0.361  1.00  0.00     0.202 C 
BRANCH   3   4
ATOM      4  C   UNL     1       4.474   1.198  -1.113  1.00  0.00     0.261 C 
BRANCH   4   5
ATOM      5  O   UNL     1       3.114   0.826  -1.399  1.00  0.00    -0.460 OA
BRANCH   5   6
ATOM      6  C   UNL     1       2.534  -0.402  -1.359  1.00  0.00     0.338 C 
ATOM      7  O   UNL     1       1.362  -0.503  -1.718  1.00  0.00    -0.246 OA
BRANCH   6   8
ATOM      8  C   UNL     1       3.238  -1.646  -0.912  1.00  0.00     0.060 A 
ATOM      9  C   UNL     1       4.422  -1.674  -0.179  1.00  0.00     0.016 A 
ATOM     10  C   UNL     1       2.648  -2.881  -1.229  1.00  0.00     0.016 A 
ATOM     11  C   UNL     1       5.080  -2.857   0.114  1.00  0.00     0.010 A 
ATOM     12  C   UNL     1       3.267  -4.088  -0.873  1.00  0.00     0.010 A 
ATOM     13  C   UNL     1       4.516  -4.074  -0.237  1.00  0.00    -0.014 A 
BRANCH  13  14
ATOM     14  C   UNL     1       5.330  -5.296  -0.074  1.00  0.00     0.031 A 
ATOM     15  C   UNL     1       5.868  -5.955  -1.304  1.00  0.00     0.074 A 
ATOM     16  C   UNL     1       5.729  -5.721   1.139  1.00  0.00     0.049 A 
ATOM     17  N   UNL     1       6.558  -7.057  -1.407  1.00  0.00    -0.248 NA
ATOM     18  C   UNL     1       5.668  -5.239  -2.576  1.00  0.00     0.031 C 
ATOM     19  C   UNL     1       5.524  -5.012   2.396  1.00  0.00     0.029 A 
ATOM     20  N   UNL     1       6.377  -6.868   1.520  1.00  0.00    -0.354 N 
ATOM     21  C   UNL     1       6.916  -7.141  -2.744  1.00  0.00     0.074 A 
ATOM     22  C   UNL     1       6.308  -6.023  -3.428  1.00  0.00     0.031 C 
ATOM     23  C   UNL     1       5.924  -5.785   3.420  1.00  0.00     0.029 A 
ATOM     24  C   UNL     1       6.379  -7.050   2.884  1.00  0.00     0.049 A 
ATOM     25  H   UNL     1       6.795  -7.494   0.886  1.00  0.00     0.167 HD
ATOM     26  C   UNL     1       7.719  -8.055  -3.333  1.00  0.00     0.031 A 
ATOM     27  C   UNL     1       6.650  -8.146   3.608  1.00  0.00     0.031 A 
ATOM     28  C   UNL     1       8.280  -9.178  -2.635  1.00  0.00     0.049 A 
ATOM     29  C   UNL     1       7.216  -9.325   2.889  1.00  0.00     0.074 A 
ATOM     30  C   UNL     1       9.072 -10.197  -3.127  1.00  0.00     0.029 A 
ATOM     31  N   UNL     1       8.082  -9.436  -1.285  1.00  0.00    -0.354 N 
ATOM     32  N   UNL     1       7.482  -9.449   1.613  1.00  0.00    -0.248 NA
ATOM     33  C   UNL     1       7.582 -10.481   3.712  1.00  0.00     0.031 C 
ATOM     34  C   UNL     1       9.295 -11.109  -2.089  1.00  0.00     0.029 A 
ATOM     35  C   UNL     1       8.699 -10.623  -0.935  1.00  0.00     0.049 A 
ATOM     36  H   UNL     1       7.578  -8.858  -0.667  1.00  0.00     0.167 HD
ATOM     37  C   UNL     1       8.129 -10.664   1.486  1.00  0.00     0.074 A 
ATOM     38  C   UNL     1       8.167 -11.257   2.811  1.00  0.00     0.031 C 
ATOM     39  C   UNL     1       8.693 -11.207   0.382  1.00  0.00     0.031 A 
BRANCH  26  40
ATOM     40  C   UNL     1       7.969  -7.884  -4.801  1.00  0.00    -0.014 A 
ATOM     41  C   UNL     1       8.769  -6.838  -5.292  1.00  0.00     0.009 A 
ATOM     42  C   UNL     1       7.359  -8.758  -5.712  1.00  0.00     0.009 A 
ATOM     43  C   UNL     1       8.918  -6.648  -6.668  1.00  0.00     0.001 A 
ATOM     44  C   UNL     1       7.530  -8.582  -7.085  1.00  0.00     0.001 A 
ATOM     45  C   UNL     1       8.299  -7.521  -7.562  1.00  0.00     0.000 A 
ENDBRANCH  26  40
BRANCH  27  46
ATOM     46  C   UNL     1       6.353  -8.218   5.058  1.00  0.00    -0.014 A 
ATOM     47  C   UNL     1       7.341  -7.969   6.018  1.00  0.00     0.009 A 
ATOM     48  C   UNL     1       5.080  -8.636   5.480  1.00  0.00     0.009 A 
ATOM     49  C   UNL     1       7.067  -8.163   7.376  1.00  0.00     0.001 A 
ATOM     50  C   UNL     1       4.814  -8.836   6.836  1.00  0.00     0.001 A 
ATOM     51  C   UNL     1       5.808  -8.601   7.783  1.00  0.00     0.000 A 
ENDBRANCH  27  46
BRANCH  39  52
ATOM     52  C   UNL     1       9.452 -12.480   0.590  1.00  0.00    -0.014 A 
ATOM     53  C   UNL     1       8.797 -13.692   0.846  1.00  0.00     0.009 A 
ATOM     54  C   UNL     1      10.854 -12.452   0.525  1.00  0.00     0.009 A 
ATOM     55  C   UNL     1       9.539 -14.851   1.070  1.00  0.00     0.001 A 
ATOM     56  C   UNL     1      11.590 -13.619   0.713  1.00  0.00     0.001 A 
ATOM     57  C   UNL     1      10.932 -14.815   0.996  1.00  0.00     0.000 A 
ENDBRANCH  39  52
ENDBRANCH  13  14
ENDBRANCH   6   8
ENDBRANCH   5   6
ENDBRANCH   4   5
ENDBRANCH   3   4
ENDBRANCH   2   3
ENDBRANCH   1   2
BRANCH   1  58
ATOM     58  C   UNL     1       1.904   1.591   2.710  1.00  0.00     0.188 C 
BRANCH  58  59
ATOM     59  O   UNL     1       2.566   2.380   3.692  1.00  0.00    -0.376 OA
BRANCH  59  60
ATOM     60  C   UNL     1       3.942   2.110   3.928  1.00  0.00     0.202 C 
BRANCH  60  61
ATOM     61  C   UNL     1       4.321   0.772   4.582  1.00  0.00     0.261 C 
BRANCH  61  62
ATOM     62  O   UNL     1       3.694  -0.411   4.052  1.00  0.00    -0.459 OA
BRANCH  62  63
ATOM     63  C   UNL     1       2.661  -0.896   4.798  1.00  0.00     0.365 C 
ATOM     64  O   UNL     1       2.192  -0.321   5.781  1.00  0.00    -0.245 OA
BRANCH  63  65
ATOM     65  C   UNL     1       2.163  -2.273   4.364  1.00  0.00     0.298 C 
ATOM     66  C   UNL     1       1.236  -2.275   3.122  1.00  0.00     0.115 C 
ATOM     67  N   UNL     1       3.291  -3.234   4.180  1.00  0.00    -0.323 N 
ATOM     68  C   UNL     1       0.892  -3.700   2.781  1.00  0.00    -0.006 A 
ATOM     69  C   UNL     1       2.790  -4.624   4.264  1.00  0.00     0.262 C 
ATOM     70  H   UNL     1       3.988  -3.081   4.909  1.00  0.00     0.347 HD
ATOM     71  H   UNL     1       3.711  -3.085   3.263  1.00  0.00     0.347 HD
ATOM     72  C   UNL     1       1.638  -4.740   3.312  1.00  0.00     0.083 A 
ATOM     73  C   UNL     1      -0.124  -4.283   1.969  1.00  0.00     0.003 A 
ATOM     74  N   UNL     1       1.231  -5.897   2.709  1.00  0.00    -0.353 N 
ATOM     75  C   UNL     1       0.094  -5.665   1.975  1.00  0.00     0.046 A 
ATOM     76  C   UNL     1      -1.216  -3.789   1.229  1.00  0.00     0.010 A 
ATOM     77  H   UNL     1       1.685  -6.767   2.790  1.00  0.00     0.166 HD
ATOM     78  C   UNL     1      -0.737  -6.577   1.312  1.00  0.00     0.026 A 
ATOM     79  C   UNL     1      -2.068  -4.690   0.573  1.00  0.00     0.001 A 
ATOM     80  C   UNL     1      -1.835  -6.063   0.622  1.00  0.00     0.002 A 
BRANCH  69  81
ATOM     81  C   UNL     1       2.561  -5.140   5.691  1.00  0.00     0.016 A 
ATOM     82  C   UNL     1       1.958  -6.393   5.905  1.00  0.00     0.012 A 
ATOM     83  C   UNL     1       3.073  -4.473   6.824  1.00  0.00     0.012 A 
ATOM     84  C   UNL     1       1.855  -6.944   7.186  1.00  0.00     0.021 A 
ATOM     85  C   UNL     1       2.982  -5.026   8.104  1.00  0.00     0.021 A 
ATOM     86  C   UNL     1       2.378  -6.264   8.278  1.00  0.00     0.041 A 
ATOM     87  Cl  UNL     1       2.310  -6.971   9.842  1.00  0.00    -0.084 Cl
ENDBRANCH  69  81
ENDBRANCH  63  65
ENDBRANCH  62  63
ENDBRANCH  61  62
ENDBRANCH  60  61
ENDBRANCH  59  60
ENDBRANCH  58  59
ENDBRANCH   1  58
TORSDOF 18
