REMARK SMILES CCCc1n[nH]c(C(=O)N[C@H](C)CC(=O)OCCOCCOCCOC(=O)c2ccc(-c3c4nc(c(-c5ccccc5)c5ccc([nH]5)c(-c5ccccc5)c5nc(c(-c6ccccc6)c6ccc3[nH]6)C=C5)C=C4)cc2)n1
REMARK SMILES IDX 19 1 18 2 17 3 16 4 14 5 15 6 13 7 11 8 12 9 10 10 8 11 9 12
REMARK SMILES IDX 7 14 4 15 5 16 76 17 6 18 3 20 2 21 1 22 20 23 21 24 22 25
REMARK SMILES IDX 23 26 24 27 25 28 26 29 27 30 28 31 29 32 75 33 30 34 74 35
REMARK SMILES IDX 31 36 32 37 33 38 68 39 34 40 73 41 67 42 69 43 35 44 72 45
REMARK SMILES IDX 66 46 65 47 36 49 58 50 43 51 57 52 44 53 47 54 56 55 70 56
REMARK SMILES IDX 45 57 46 58 55 60 71 61 48 62 37 63 38 64 42 65 39 66 41 67
REMARK SMILES IDX 40 68 59 69 60 70 64 71 61 72 63 73 62 74 49 75 50 76 54 77
REMARK SMILES IDX 51 78 53 79 52 80
REMARK H PARENT 10 13 6 19 69 48 47 59
REMARK Flexibility Score: inf
ROOT
ATOM      1  O   UNL     1      -4.506   0.430   2.641  1.00  0.00    -0.376 OA
ENDROOT
BRANCH   1   2
ATOM      2  C   UNL     1      -4.823   1.343   3.688  1.00  0.00     0.202 C 
BRANCH   2   3
ATOM      3  C   UNL     1      -5.104   0.773   5.082  1.00  0.00     0.261 C 
BRANCH   3   4
ATOM      4  O   UNL     1      -3.939   0.136   5.661  1.00  0.00    -0.463 OA
BRANCH   4   5
ATOM      5  C   UNL     1      -4.212  -0.835   6.561  1.00  0.00     0.307 C 
ATOM      6  O   UNL     1      -5.350  -1.106   6.935  1.00  0.00    -0.252 OA
BRANCH   5   7
ATOM      7  C   UNL     1      -3.032  -1.677   7.013  1.00  0.00     0.147 C 
BRANCH   7   8
ATOM      8  C   UNL     1      -1.561  -1.231   6.927  1.00  0.00     0.090 C 
ATOM      9  C   UNL     1      -1.314   0.192   7.418  1.00  0.00     0.031 C 
BRANCH   8  10
ATOM     10  N   UNL     1      -0.765  -2.156   7.751  1.00  0.00    -0.346 N 
ATOM     11  C   UNL     1      -0.045  -3.292   7.455  1.00  0.00     0.288 C 
ATOM     12  O   UNL     1       0.232  -4.006   8.409  1.00  0.00    -0.266 OA
ATOM     13  H   UNL     1      -0.744  -1.914   8.705  1.00  0.00     0.164 HD
BRANCH  11  14
ATOM     14  C   UNL     1       0.379  -3.655   6.116  1.00  0.00     0.214 A 
ATOM     15  C   UNL     1       1.064  -3.819   4.111  1.00  0.00     0.151 A 
ATOM     16  N   UNL     1       1.372  -5.012   4.626  1.00  0.00    -0.158 NA
ATOM     17  N   UNL     1       0.392  -2.975   4.984  1.00  0.00    -0.207 NA
ATOM     18  N   UNL     1       0.959  -4.876   5.891  1.00  0.00    -0.255 N 
ATOM     19  H   UNL     1       1.060  -5.571   6.580  1.00  0.00     0.192 HD
BRANCH  15  20
ATOM     20  C   UNL     1       1.221  -3.525   2.662  1.00  0.00     0.079 C 
BRANCH  20  21
ATOM     21  C   UNL     1       2.585  -3.715   2.007  1.00  0.00     0.005 C 
ATOM     22  C   UNL     1       3.022  -5.170   1.893  1.00  0.00     0.004 C 
ENDBRANCH  20  21
ENDBRANCH  15  20
ENDBRANCH  11  14
ENDBRANCH   8  10
ENDBRANCH   7   8
ENDBRANCH   5   7
ENDBRANCH   4   5
ENDBRANCH   3   4
ENDBRANCH   2   3
ENDBRANCH   1   2
BRANCH   1  23
ATOM     23  C   UNL     1      -3.638  -0.645   2.946  1.00  0.00     0.188 C 
BRANCH  23  24
ATOM     24  C   UNL     1      -2.211  -0.330   3.433  1.00  0.00     0.188 C 
BRANCH  24  25
ATOM     25  O   UNL     1      -1.813   1.001   3.688  1.00  0.00    -0.376 OA
BRANCH  25  26
ATOM     26  C   UNL     1      -1.647   1.852   2.555  1.00  0.00     0.202 C 
BRANCH  26  27
ATOM     27  C   UNL     1      -0.972   1.305   1.289  1.00  0.00     0.261 C 
BRANCH  27  28
ATOM     28  O   UNL     1      -1.573   0.089   0.797  1.00  0.00    -0.460 OA
BRANCH  28  29
ATOM     29  C   UNL     1      -0.688  -0.781   0.258  1.00  0.00     0.338 C 
ATOM     30  O   UNL     1       0.493  -0.562   0.010  1.00  0.00    -0.246 OA
BRANCH  29  31
ATOM     31  C   UNL     1      -1.263  -2.126   0.052  1.00  0.00     0.060 A 
ATOM     32  C   UNL     1      -1.570  -2.940   1.144  1.00  0.00     0.016 A 
ATOM     33  C   UNL     1      -1.189  -2.692  -1.220  1.00  0.00     0.016 A 
ATOM     34  C   UNL     1      -1.687  -4.317   0.991  1.00  0.00     0.010 A 
ATOM     35  C   UNL     1      -1.351  -4.075  -1.380  1.00  0.00     0.010 A 
ATOM     36  C   UNL     1      -1.524  -4.908  -0.263  1.00  0.00    -0.014 A 
BRANCH  36  37
ATOM     37  C   UNL     1      -1.388  -6.385  -0.357  1.00  0.00     0.031 A 
ATOM     38  C   UNL     1      -0.097  -7.000  -0.843  1.00  0.00     0.074 A 
ATOM     39  C   UNL     1      -2.369  -7.189   0.095  1.00  0.00     0.049 A 
ATOM     40  N   UNL     1       0.178  -8.258  -1.082  1.00  0.00    -0.248 NA
ATOM     41  C   UNL     1       1.041  -6.090  -1.059  1.00  0.00     0.031 C 
ATOM     42  C   UNL     1      -3.611  -6.745   0.731  1.00  0.00     0.029 A 
ATOM     43  N   UNL     1      -2.471  -8.558   0.087  1.00  0.00    -0.354 N 
ATOM     44  C   UNL     1       1.514  -8.290  -1.465  1.00  0.00     0.074 A 
ATOM     45  C   UNL     1       1.991  -6.926  -1.455  1.00  0.00     0.031 C 
ATOM     46  C   UNL     1      -4.348  -7.818   1.048  1.00  0.00     0.029 A 
ATOM     47  C   UNL     1      -3.686  -9.011   0.537  1.00  0.00     0.049 A 
ATOM     48  H   UNL     1      -1.746  -9.154  -0.211  1.00  0.00     0.167 HD
ATOM     49  C   UNL     1       2.276  -9.360  -1.796  1.00  0.00     0.031 A 
ATOM     50  C   UNL     1      -4.250 -10.230   0.464  1.00  0.00     0.031 A 
ATOM     51  C   UNL     1       1.790 -10.712  -1.860  1.00  0.00     0.049 A 
ATOM     52  C   UNL     1      -3.484 -11.353  -0.169  1.00  0.00     0.074 A 
ATOM     53  C   UNL     1       2.466 -11.857  -2.244  1.00  0.00     0.029 A 
ATOM     54  N   UNL     1       0.495 -11.096  -1.553  1.00  0.00    -0.354 N 
ATOM     55  N   UNL     1      -2.244 -11.368  -0.592  1.00  0.00    -0.248 NA
ATOM     56  C   UNL     1      -4.204 -12.619  -0.359  1.00  0.00     0.031 C 
ATOM     57  C   UNL     1       1.554 -12.918  -2.256  1.00  0.00     0.029 A 
ATOM     58  C   UNL     1       0.331 -12.448  -1.806  1.00  0.00     0.049 A 
ATOM     59  H   UNL     1      -0.205 -10.497  -1.207  1.00  0.00     0.167 HD
ATOM     60  C   UNL     1      -2.028 -12.648  -1.083  1.00  0.00     0.074 A 
ATOM     61  C   UNL     1      -3.262 -13.383  -0.894  1.00  0.00     0.031 C 
ATOM     62  C   UNL     1      -0.905 -13.166  -1.638  1.00  0.00     0.031 A 
BRANCH  49  63
ATOM     63  C   UNL     1       3.704  -9.106  -2.188  1.00  0.00    -0.014 A 
ATOM     64  C   UNL     1       4.692  -8.839  -1.228  1.00  0.00     0.009 A 
ATOM     65  C   UNL     1       4.076  -9.200  -3.539  1.00  0.00     0.009 A 
ATOM     66  C   UNL     1       6.022  -8.660  -1.617  1.00  0.00     0.001 A 
ATOM     67  C   UNL     1       5.408  -9.040  -3.922  1.00  0.00     0.001 A 
ATOM     68  C   UNL     1       6.380  -8.767  -2.961  1.00  0.00     0.000 A 
ENDBRANCH  49  63
BRANCH  50  69
ATOM     69  C   UNL     1      -5.666 -10.400   0.882  1.00  0.00    -0.014 A 
ATOM     70  C   UNL     1      -6.010 -11.185   1.989  1.00  0.00     0.009 A 
ATOM     71  C   UNL     1      -6.687  -9.742   0.171  1.00  0.00     0.009 A 
ATOM     72  C   UNL     1      -7.348 -11.306   2.376  1.00  0.00     0.001 A 
ATOM     73  C   UNL     1      -8.016  -9.836   0.581  1.00  0.00     0.001 A 
ATOM     74  C   UNL     1      -8.346 -10.623   1.681  1.00  0.00     0.000 A 
ENDBRANCH  50  69
BRANCH  62  75
ATOM     75  C   UNL     1      -0.954 -14.606  -2.059  1.00  0.00    -0.014 A 
ATOM     76  C   UNL     1      -1.682 -15.008  -3.189  1.00  0.00     0.009 A 
ATOM     77  C   UNL     1      -0.248 -15.570  -1.324  1.00  0.00     0.009 A 
ATOM     78  C   UNL     1      -1.732 -16.356  -3.552  1.00  0.00     0.001 A 
ATOM     79  C   UNL     1      -0.275 -16.911  -1.706  1.00  0.00     0.001 A 
ATOM     80  C   UNL     1      -1.026 -17.305  -2.813  1.00  0.00     0.000 A 
ENDBRANCH  62  75
ENDBRANCH  36  37
ENDBRANCH  29  31
ENDBRANCH  28  29
ENDBRANCH  27  28
ENDBRANCH  26  27
ENDBRANCH  25  26
ENDBRANCH  24  25
ENDBRANCH  23  24
ENDBRANCH   1  23
TORSDOF 22
