REMARK SMILES CCCCCCNC(=O)Oc1cccc(-c2ccc([C@@H](C)C(=O)OCCOCCOCCOC(=O)c3ccc(-c4c5nc(c(-c6ccccc6)c6ccc([nH]6)c(-c6ccccc6)c6nc(c(-c7ccccc7)c7ccc4[nH]7)C=C6)C=C5)cc3)cc2Cl)c1
REMARK SMILES IDX 25 1 24 2 22 3 23 4 20 5 21 6 19 7 16 8 17 9 85 10 18 11
REMARK SMILES IDX 84 12 86 13 15 14 11 15 12 16 87 17 13 18 14 19 10 20 8 21
REMARK SMILES IDX 7 22 9 24 6 25 5 26 4 27 3 28 2 29 1 30 26 31 27 32 28 33
REMARK SMILES IDX 29 34 30 35 31 36 32 37 33 38 34 39 35 40 36 41 37 42 83 43
REMARK SMILES IDX 38 44 82 45 39 46 40 47 41 48 76 49 42 50 81 51 75 52 77 53
REMARK SMILES IDX 43 54 80 55 74 56 73 57 44 59 66 60 51 61 65 62 52 63 55 64
REMARK SMILES IDX 64 65 78 66 53 67 54 68 63 70 79 71 56 72 45 73 46 74 50 75
REMARK SMILES IDX 47 76 49 77 48 78 67 79 68 80 72 81 69 82 71 83 70 84 57 85
REMARK SMILES IDX 58 86 62 87 59 88 61 89 60 90
REMARK H PARENT 7 23 77 58 55 69
REMARK Flexibility Score: inf
ROOT
ATOM      1  C   UNL     1      -1.963 -14.266  -7.298  1.00  0.00     0.261 C 
ENDROOT
BRANCH   1   2
ATOM      2  O   UNL     1      -3.007 -13.463  -6.702  1.00  0.00    -0.463 OA
BRANCH   2   3
ATOM      3  C   UNL     1      -3.808 -14.089  -5.804  1.00  0.00     0.313 C 
ATOM      4  O   UNL     1      -3.708 -15.283  -5.526  1.00  0.00    -0.252 OA
BRANCH   3   5
ATOM      5  C   UNL     1      -4.869 -13.222  -5.122  1.00  0.00     0.126 C 
ATOM      6  C   UNL     1      -6.249 -13.797  -5.437  1.00  0.00     0.025 C 
BRANCH   5   7
ATOM      7  C   UNL     1      -4.880 -11.702  -5.272  1.00  0.00    -0.033 A 
ATOM      8  C   UNL     1      -4.949  -8.828  -5.409  1.00  0.00     0.000 A 
ATOM      9  C   UNL     1      -4.941  -9.634  -6.567  1.00  0.00     0.010 A 
ATOM     10  C   UNL     1      -4.936  -9.498  -4.174  1.00  0.00     0.049 A 
ATOM     11  C   UNL     1      -4.921 -11.041  -6.504  1.00  0.00     0.005 A 
ATOM     12  C   UNL     1      -4.902 -10.904  -4.111  1.00  0.00     0.025 A 
ATOM     13  Cl  UNL     1      -5.008  -8.657  -2.660  1.00  0.00    -0.084 Cl
BRANCH   8  14
ATOM     14  C   UNL     1      -5.028  -7.353  -5.538  1.00  0.00    -0.013 A 
ATOM     15  C   UNL     1      -4.187  -5.108  -5.111  1.00  0.00     0.133 A 
ATOM     16  C   UNL     1      -5.293  -4.540  -5.737  1.00  0.00     0.047 A 
ATOM     17  C   UNL     1      -4.043  -6.497  -5.009  1.00  0.00     0.056 A 
ATOM     18  C   UNL     1      -6.264  -5.371  -6.286  1.00  0.00     0.004 A 
ATOM     19  C   UNL     1      -6.133  -6.761  -6.183  1.00  0.00     0.009 A 
BRANCH  15  20
ATOM     20  O   UNL     1      -3.304  -4.225  -4.463  1.00  0.00    -0.410 OA
BRANCH  20  21
ATOM     21  C   UNL     1      -1.975  -4.240  -4.846  1.00  0.00     0.412 C 
ATOM     22  N   UNL     1      -1.197  -3.350  -4.155  1.00  0.00    -0.321 N 
ATOM     23  H   UNL     1      -0.230  -3.381  -4.338  1.00  0.00     0.167 HD
ATOM     24  O   UNL     1      -1.489  -4.942  -5.734  1.00  0.00    -0.224 OA
BRANCH  22  25
ATOM     25  C   UNL     1      -1.640  -2.368  -3.183  1.00  0.00     0.119 C 
BRANCH  25  26
ATOM     26  C   UNL     1      -1.015  -2.578  -1.803  1.00  0.00     0.021 C 
BRANCH  26  27
ATOM     27  C   UNL     1       0.513  -2.453  -1.750  1.00  0.00     0.002 C 
BRANCH  27  28
ATOM     28  C   UNL     1       1.090  -1.103  -2.192  1.00  0.00    -0.000 C 
BRANCH  28  29
ATOM     29  C   UNL     1       0.622   0.113  -1.389  1.00  0.00    -0.003 C 
ATOM     30  C   UNL     1       1.028   0.065   0.076  1.00  0.00     0.004 C 
ENDBRANCH  28  29
ENDBRANCH  27  28
ENDBRANCH  26  27
ENDBRANCH  25  26
ENDBRANCH  22  25
ENDBRANCH  20  21
ENDBRANCH  15  20
ENDBRANCH   8  14
ENDBRANCH   5   7
ENDBRANCH   3   5
ENDBRANCH   2   3
ENDBRANCH   1   2
BRANCH   1  31
ATOM     31  C   UNL     1      -0.534 -13.759  -7.060  1.00  0.00     0.202 C 
BRANCH  31  32
ATOM     32  O   UNL     1      -0.115 -13.582  -5.714  1.00  0.00    -0.376 OA
BRANCH  32  33
ATOM     33  C   UNL     1      -0.801 -12.653  -4.882  1.00  0.00     0.188 C 
BRANCH  33  34
ATOM     34  C   UNL     1      -1.414 -11.383  -5.490  1.00  0.00     0.188 C 
BRANCH  34  35
ATOM     35  O   UNL     1      -0.901 -11.034  -6.760  1.00  0.00    -0.376 OA
BRANCH  35  36
ATOM     36  C   UNL     1      -0.465  -9.693  -6.899  1.00  0.00     0.202 C 
BRANCH  36  37
ATOM     37  C   UNL     1       0.911  -9.475  -6.263  1.00  0.00     0.261 C 
BRANCH  37  38
ATOM     38  O   UNL     1       0.984  -9.799  -4.860  1.00  0.00    -0.460 OA
BRANCH  38  39
ATOM     39  C   UNL     1       0.289  -9.007  -4.018  1.00  0.00     0.338 C 
ATOM     40  O   UNL     1      -0.367  -8.013  -4.309  1.00  0.00    -0.246 OA
BRANCH  39  41
ATOM     41  C   UNL     1       0.257  -9.646  -2.689  1.00  0.00     0.060 A 
ATOM     42  C   UNL     1      -0.984  -9.879  -2.080  1.00  0.00     0.016 A 
ATOM     43  C   UNL     1       1.441  -9.999  -2.037  1.00  0.00     0.016 A 
ATOM     44  C   UNL     1      -1.044 -10.428  -0.799  1.00  0.00     0.010 A 
ATOM     45  C   UNL     1       1.380 -10.532  -0.746  1.00  0.00     0.010 A 
ATOM     46  C   UNL     1       0.140 -10.715  -0.107  1.00  0.00    -0.014 A 
BRANCH  46  47
ATOM     47  C   UNL     1       0.097 -11.013   1.346  1.00  0.00     0.031 A 
ATOM     48  C   UNL     1       0.367  -9.894   2.315  1.00  0.00     0.074 A 
ATOM     49  C   UNL     1      -0.183 -12.245   1.806  1.00  0.00     0.049 A 
ATOM     50  N   UNL     1       0.433  -9.922   3.622  1.00  0.00    -0.248 NA
ATOM     51  C   UNL     1       0.599  -8.564   1.727  1.00  0.00     0.031 C 
ATOM     52  C   UNL     1      -0.504 -13.408   0.982  1.00  0.00     0.029 A 
ATOM     53  N   UNL     1      -0.232 -12.720   3.094  1.00  0.00    -0.354 N 
ATOM     54  C   UNL     1       0.725  -8.620   4.010  1.00  0.00     0.074 A 
ATOM     55  C   UNL     1       0.853  -7.834   2.802  1.00  0.00     0.031 C 
ATOM     56  C   UNL     1      -0.707 -14.467   1.786  1.00  0.00     0.029 A 
ATOM     57  C   UNL     1      -0.498 -14.064   3.176  1.00  0.00     0.049 A 
ATOM     58  H   UNL     1      -0.090 -12.149   3.884  1.00  0.00     0.167 HD
ATOM     59  C   UNL     1       0.869  -8.119   5.260  1.00  0.00     0.031 A 
ATOM     60  C   UNL     1      -0.544 -14.880   4.247  1.00  0.00     0.031 A 
ATOM     61  C   UNL     1       0.759  -8.898   6.464  1.00  0.00     0.049 A 
ATOM     62  C   UNL     1      -0.303 -14.315   5.624  1.00  0.00     0.074 A 
ATOM     63  C   UNL     1       0.874  -8.476   7.777  1.00  0.00     0.029 A 
ATOM     64  N   UNL     1       0.521 -10.262   6.501  1.00  0.00    -0.354 N 
ATOM     65  N   UNL     1      -0.059 -13.077   5.982  1.00  0.00    -0.248 NA
ATOM     66  C   UNL     1      -0.355 -15.264   6.747  1.00  0.00     0.031 C 
ATOM     67  C   UNL     1       0.764  -9.596   8.607  1.00  0.00     0.029 A 
ATOM     68  C   UNL     1       0.513 -10.704   7.813  1.00  0.00     0.049 A 
ATOM     69  H   UNL     1       0.378 -10.833   5.711  1.00  0.00     0.167 HD
ATOM     70  C   UNL     1       0.038 -13.094   7.369  1.00  0.00     0.074 A 
ATOM     71  C   UNL     1      -0.187 -14.461   7.789  1.00  0.00     0.031 C 
ATOM     72  C   UNL     1       0.287 -12.067   8.220  1.00  0.00     0.031 A 
BRANCH  59  73
ATOM     73  C   UNL     1       1.204  -6.658   5.381  1.00  0.00    -0.014 A 
ATOM     74  C   UNL     1       0.263  -5.662   5.072  1.00  0.00     0.009 A 
ATOM     75  C   UNL     1       2.475  -6.273   5.833  1.00  0.00     0.009 A 
ATOM     76  C   UNL     1       0.602  -4.312   5.177  1.00  0.00     0.001 A 
ATOM     77  C   UNL     1       2.802  -4.922   5.968  1.00  0.00     0.001 A 
ATOM     78  C   UNL     1       1.869  -3.943   5.630  1.00  0.00     0.000 A 
ENDBRANCH  59  73
BRANCH  60  79
ATOM     79  C   UNL     1      -0.811 -16.333   4.069  1.00  0.00    -0.014 A 
ATOM     80  C   UNL     1      -2.006 -16.906   4.530  1.00  0.00     0.009 A 
ATOM     81  C   UNL     1       0.147 -17.161   3.462  1.00  0.00     0.009 A 
ATOM     82  C   UNL     1      -2.225 -18.281   4.411  1.00  0.00     0.001 A 
ATOM     83  C   UNL     1      -0.088 -18.530   3.317  1.00  0.00     0.001 A 
ATOM     84  C   UNL     1      -1.268 -19.090   3.800  1.00  0.00     0.000 A 
ENDBRANCH  60  79
BRANCH  72  85
ATOM     85  C   UNL     1       0.285 -12.371   9.694  1.00  0.00    -0.014 A 
ATOM     86  C   UNL     1       1.312 -13.115  10.293  1.00  0.00     0.009 A 
ATOM     87  C   UNL     1      -0.747 -11.866  10.502  1.00  0.00     0.009 A 
ATOM     88  C   UNL     1       1.286 -13.378  11.665  1.00  0.00     0.001 A 
ATOM     89  C   UNL     1      -0.753 -12.102  11.877  1.00  0.00     0.001 A 
ATOM     90  C   UNL     1       0.257 -12.867  12.456  1.00  0.00     0.000 A 
ENDBRANCH  72  85
ENDBRANCH  46  47
ENDBRANCH  39  41
ENDBRANCH  38  39
ENDBRANCH  37  38
ENDBRANCH  36  37
ENDBRANCH  35  36
ENDBRANCH  34  35
ENDBRANCH  33  34
ENDBRANCH  32  33
ENDBRANCH  31  32
ENDBRANCH   1  31
TORSDOF 26
