REMARK SMILES CCCOC(=O)c1c(NC(=O)[C@@H]2CC=CC[C@H]2C(=O)OCCOCCOCCOC(=O)c2ccc(-c3c4nc(c(-c5ccccc5)c5ccc([nH]5)c(-c5ccccc5)c5nc(c(-c6ccccc6)c6ccc3[nH]6)C=C5)C=C4)cc2)sc2c1CCCC2
REMARK SMILES IDX 22 1 21 2 20 3 18 4 19 5 17 6 12 7 13 8 14 9 16 10 15 11
REMARK SMILES IDX 10 12 9 13 11 15 8 16 7 17 82 18 80 19 81 20 83 21 86 22
REMARK SMILES IDX 84 23 85 24 5 25 6 26 4 27 3 28 2 29 1 30 23 31 24 32 25 33
REMARK SMILES IDX 26 34 27 35 28 36 29 37 30 38 31 39 32 40 33 41 79 42 34 43
REMARK SMILES IDX 78 44 35 45 36 46 37 47 72 48 38 49 77 50 71 51 73 52 39 53
REMARK SMILES IDX 76 54 70 55 69 56 40 58 62 59 47 60 61 61 48 62 51 63 60 64
REMARK SMILES IDX 74 65 49 66 50 67 59 69 75 70 52 71 41 72 42 73 46 74 43 75
REMARK SMILES IDX 45 76 44 77 63 78 64 79 68 80 65 81 67 82 66 83 53 84 54 85
REMARK SMILES IDX 58 86 55 87 57 88 56 89
REMARK H PARENT 9 14 73 57 51 68
REMARK Flexibility Score: inf
ROOT
ATOM      1  C   UNL     1       1.597   4.139  -0.333  1.00  0.00     0.202 C 
ENDROOT
BRANCH   1   2
ATOM      2  C   UNL     1       0.469   3.178  -0.722  1.00  0.00     0.261 C 
BRANCH   2   3
ATOM      3  O   UNL     1       0.573   1.848  -0.160  1.00  0.00    -0.463 OA
BRANCH   3   4
ATOM      4  C   UNL     1       1.123   0.918  -0.982  1.00  0.00     0.310 C 
ATOM      5  O   UNL     1       1.593   1.183  -2.086  1.00  0.00    -0.252 OA
BRANCH   4   6
ATOM      6  C   UNL     1       1.087  -0.522  -0.461  1.00  0.00     0.116 C 
ATOM      7  C   UNL     1       0.531  -0.748   0.982  1.00  0.00     0.097 C 
ATOM      8  C   UNL     1      -0.072  -2.154   1.209  1.00  0.00     0.041 C 
ATOM      9  C   UNL     1      -0.809  -2.745   0.062  1.00  0.00    -0.030 C 
ATOM     10  C   UNL     1       0.358  -1.295  -1.590  1.00  0.00     0.043 C 
ATOM     11  C   UNL     1      -0.596  -2.369  -1.198  1.00  0.00    -0.030 C 
BRANCH   7  12
ATOM     12  C   UNL     1       1.642  -0.723   2.008  1.00  0.00     0.229 C 
ATOM     13  N   UNL     1       1.573  -0.185   3.247  1.00  0.00    -0.317 N 
ATOM     14  H   UNL     1       2.400  -0.344   3.757  1.00  0.00     0.170 HD
ATOM     15  O   UNL     1       2.692  -1.326   1.748  1.00  0.00    -0.274 OA
BRANCH  13  16
ATOM     16  C   UNL     1       0.653   0.524   3.981  1.00  0.00     0.110 A 
ATOM     17  C   UNL     1      -0.646   0.990   3.915  1.00  0.00     0.098 A 
ATOM     18  C   UNL     1      -0.968   1.802   5.078  1.00  0.00    -0.017 A 
ATOM     19  S   UNL     1       1.402   0.958   5.475  1.00  0.00    -0.122 S 
ATOM     20  C   UNL     1       0.074   1.874   5.975  1.00  0.00     0.011 A 
ATOM     21  C   UNL     1      -2.295   2.452   5.364  1.00  0.00     0.038 C 
ATOM     22  C   UNL     1       0.066   2.654   7.254  1.00  0.00     0.047 C 
ATOM     23  C   UNL     1      -2.205   3.492   6.489  1.00  0.00     0.005 C 
ATOM     24  C   UNL     1      -1.376   2.980   7.673  1.00  0.00     0.006 C 
BRANCH  17  25
ATOM     25  C   UNL     1      -1.653   0.716   2.909  1.00  0.00     0.341 C 
ATOM     26  O   UNL     1      -2.251  -0.347   2.838  1.00  0.00    -0.246 OA
BRANCH  25  27
ATOM     27  O   UNL     1      -1.946   1.832   2.183  1.00  0.00    -0.462 OA
BRANCH  27  28
ATOM     28  C   UNL     1      -3.245   1.865   1.576  1.00  0.00     0.233 C 
BRANCH  28  29
ATOM     29  C   UNL     1      -3.192   1.668   0.068  1.00  0.00     0.038 C 
ATOM     30  C   UNL     1      -2.855   0.246  -0.332  1.00  0.00     0.007 C 
ENDBRANCH  28  29
ENDBRANCH  27  28
ENDBRANCH  25  27
ENDBRANCH  17  25
ENDBRANCH  13  16
ENDBRANCH   7  12
ENDBRANCH   4   6
ENDBRANCH   3   4
ENDBRANCH   2   3
ENDBRANCH   1   2
BRANCH   1  31
ATOM     31  O   UNL     1       2.913   3.696  -0.631  1.00  0.00    -0.376 OA
BRANCH  31  32
ATOM     32  C   UNL     1       3.514   2.742   0.245  1.00  0.00     0.188 C 
BRANCH  32  33
ATOM     33  C   UNL     1       2.966   2.634   1.669  1.00  0.00     0.188 C 
BRANCH  33  34
ATOM     34  O   UNL     1       3.139   3.874   2.355  1.00  0.00    -0.376 OA
BRANCH  34  35
ATOM     35  C   UNL     1       3.640   3.712   3.676  1.00  0.00     0.202 C 
BRANCH  35  36
ATOM     36  C   UNL     1       5.171   3.788   3.698  1.00  0.00     0.261 C 
BRANCH  36  37
ATOM     37  O   UNL     1       5.832   2.887   2.786  1.00  0.00    -0.460 OA
BRANCH  37  38
ATOM     38  C   UNL     1       5.834   1.578   3.123  1.00  0.00     0.338 C 
ATOM     39  O   UNL     1       5.317   1.077   4.106  1.00  0.00    -0.246 OA
BRANCH  38  40
ATOM     40  C   UNL     1       6.381   0.805   1.985  1.00  0.00     0.060 A 
ATOM     41  C   UNL     1       5.554  -0.151   1.395  1.00  0.00     0.016 A 
ATOM     42  C   UNL     1       7.673   0.989   1.501  1.00  0.00     0.016 A 
ATOM     43  C   UNL     1       5.992  -0.934   0.328  1.00  0.00     0.010 A 
ATOM     44  C   UNL     1       8.127   0.195   0.437  1.00  0.00     0.010 A 
ATOM     45  C   UNL     1       7.294  -0.779  -0.150  1.00  0.00    -0.014 A 
BRANCH  45  46
ATOM     46  C   UNL     1       7.835  -1.701  -1.180  1.00  0.00     0.031 A 
ATOM     47  C   UNL     1       8.788  -2.783  -0.762  1.00  0.00     0.074 A 
ATOM     48  C   UNL     1       7.484  -1.591  -2.474  1.00  0.00     0.049 A 
ATOM     49  N   UNL     1       9.533  -3.567  -1.498  1.00  0.00    -0.248 NA
ATOM     50  C   UNL     1       8.913  -3.011   0.686  1.00  0.00     0.031 C 
ATOM     51  C   UNL     1       6.481  -0.672  -3.010  1.00  0.00     0.029 A 
ATOM     52  N   UNL     1       7.950  -2.264  -3.579  1.00  0.00    -0.354 N 
ATOM     53  C   UNL     1      10.242  -4.359  -0.603  1.00  0.00     0.074 A 
ATOM     54  C   UNL     1       9.840  -3.957   0.729  1.00  0.00     0.031 C 
ATOM     55  C   UNL     1       6.416  -0.830  -4.344  1.00  0.00     0.029 A 
ATOM     56  C   UNL     1       7.416  -1.810  -4.760  1.00  0.00     0.049 A 
ATOM     57  H   UNL     1       8.603  -2.999  -3.528  1.00  0.00     0.167 HD
ATOM     58  C   UNL     1      11.153  -5.326  -0.867  1.00  0.00     0.031 A 
ATOM     59  C   UNL     1       7.734  -2.114  -6.034  1.00  0.00     0.031 A 
ATOM     60  C   UNL     1      11.555  -5.722  -2.190  1.00  0.00     0.049 A 
ATOM     61  C   UNL     1       8.852  -3.084  -6.308  1.00  0.00     0.074 A 
ATOM     62  C   UNL     1      12.478  -6.683  -2.562  1.00  0.00     0.029 A 
ATOM     63  N   UNL     1      11.055  -5.172  -3.360  1.00  0.00    -0.354 N 
ATOM     64  N   UNL     1       9.563  -3.789  -5.461  1.00  0.00    -0.248 NA
ATOM     65  C   UNL     1       9.226  -3.284  -7.717  1.00  0.00     0.031 C 
ATOM     66  C   UNL     1      12.578  -6.675  -3.958  1.00  0.00     0.029 A 
ATOM     67  C   UNL     1      11.677  -5.747  -4.456  1.00  0.00     0.049 A 
ATOM     68  H   UNL     1      10.361  -4.475  -3.406  1.00  0.00     0.167 HD
ATOM     69  C   UNL     1      10.455  -4.524  -6.231  1.00  0.00     0.074 A 
ATOM     70  C   UNL     1      10.188  -4.192  -7.616  1.00  0.00     0.031 C 
ATOM     71  C   UNL     1      11.410  -5.398  -5.827  1.00  0.00     0.031 A 
BRANCH  58  72
ATOM     72  C   UNL     1      11.825  -5.970   0.313  1.00  0.00    -0.014 A 
ATOM     73  C   UNL     1      11.143  -6.865   1.152  1.00  0.00     0.009 A 
ATOM     74  C   UNL     1      13.167  -5.666   0.590  1.00  0.00     0.009 A 
ATOM     75  C   UNL     1      11.780  -7.408   2.270  1.00  0.00     0.001 A 
ATOM     76  C   UNL     1      13.810  -6.232   1.692  1.00  0.00     0.001 A 
ATOM     77  C   UNL     1      13.112  -7.092   2.538  1.00  0.00     0.000 A 
ENDBRANCH  58  72
BRANCH  59  78
ATOM     78  C   UNL     1       7.029  -1.441  -7.157  1.00  0.00    -0.014 A 
ATOM     79  C   UNL     1       6.155  -2.162  -7.984  1.00  0.00     0.009 A 
ATOM     80  C   UNL     1       7.232  -0.075  -7.411  1.00  0.00     0.009 A 
ATOM     81  C   UNL     1       5.505  -1.530  -9.047  1.00  0.00     0.001 A 
ATOM     82  C   UNL     1       6.562   0.560  -8.459  1.00  0.00     0.001 A 
ATOM     83  C   UNL     1       5.703  -0.169  -9.279  1.00  0.00     0.000 A 
ENDBRANCH  59  78
BRANCH  71  84
ATOM     84  C   UNL     1      12.224  -6.072  -6.895  1.00  0.00    -0.014 A 
ATOM     85  C   UNL     1      13.230  -5.381  -7.586  1.00  0.00     0.009 A 
ATOM     86  C   UNL     1      12.014  -7.431  -7.178  1.00  0.00     0.009 A 
ATOM     87  C   UNL     1      13.995  -6.032  -8.557  1.00  0.00     0.001 A 
ATOM     88  C   UNL     1      12.796  -8.086  -8.131  1.00  0.00     0.001 A 
ATOM     89  C   UNL     1      13.781  -7.384  -8.824  1.00  0.00     0.000 A 
ENDBRANCH  71  84
ENDBRANCH  45  46
ENDBRANCH  38  40
ENDBRANCH  37  38
ENDBRANCH  36  37
ENDBRANCH  35  36
ENDBRANCH  34  35
ENDBRANCH  33  34
ENDBRANCH  32  33
ENDBRANCH  31  32
ENDBRANCH   1  31
TORSDOF 23
