REMARK SMILES CS(=O)(=O)c1ccc(-c2cc(Cl)cnc2-c2ccc(C(=O)OCCOCCOCCOC(=O)c3ccc(-c4c5nc(c(-c6ccccc6)c6ccc([nH]6)c(-c6ccccc6)c6nc(c(-c7ccccc7)c7ccc4[nH]7)C=C6)C=C5)cc3)nc2)cc1
REMARK SMILES IDX 26 1 25 2 24 3 23 4 22 5 20 6 21 7 19 8 16 9 17 10 83 11
REMARK SMILES IDX 18 12 82 13 15 14 9 15 10 16 11 17 14 18 12 19 13 20 8 21
REMARK SMILES IDX 5 22 6 23 85 24 7 25 84 26 2 27 1 28 3 29 4 30 27 31 28 32
REMARK SMILES IDX 29 33 30 34 31 35 32 36 33 37 34 38 35 39 81 40 36 41 80 42
REMARK SMILES IDX 37 43 38 44 39 45 74 46 40 47 79 48 73 49 75 50 41 51 78 52
REMARK SMILES IDX 72 53 71 54 42 56 64 57 49 58 63 59 50 60 53 61 62 62 76 63
REMARK SMILES IDX 51 64 52 65 61 67 77 68 54 69 43 70 44 71 48 72 45 73 47 74
REMARK SMILES IDX 46 75 65 76 66 77 70 78 67 79 69 80 68 81 55 82 56 83 60 84
REMARK SMILES IDX 57 85 59 86 58 87
REMARK H PARENT 75 55 53 66
REMARK Flexibility Score: inf
ROOT
ATOM      1  C   UNL     1       3.952  -5.974  -4.623  1.00  0.00     0.188 C 
ENDROOT
BRANCH   1   2
ATOM      2  O   UNL     1       3.900  -5.157  -5.787  1.00  0.00    -0.376 OA
BRANCH   2   3
ATOM      3  C   UNL     1       4.112  -3.752  -5.676  1.00  0.00     0.202 C 
BRANCH   3   4
ATOM      4  C   UNL     1       3.346  -2.949  -4.614  1.00  0.00     0.261 C 
BRANCH   4   5
ATOM      5  O   UNL     1       3.513  -3.462  -3.284  1.00  0.00    -0.459 OA
BRANCH   5   6
ATOM      6  C   UNL     1       2.365  -3.791  -2.638  1.00  0.00     0.356 C 
ATOM      7  O   UNL     1       1.229  -3.508  -2.979  1.00  0.00    -0.244 OA
BRANCH   6   8
ATOM      8  C   UNL     1       2.686  -4.665  -1.477  1.00  0.00     0.148 A 
ATOM      9  C   UNL     1       2.946  -6.187   0.788  1.00  0.00     0.019 A 
ATOM     10  C   UNL     1       3.789  -5.082   0.592  1.00  0.00     0.014 A 
ATOM     11  C   UNL     1       2.108  -6.543  -0.263  1.00  0.00     0.122 A 
ATOM     12  C   UNL     1       3.656  -4.299  -0.553  1.00  0.00     0.037 A 
ATOM     13  N   UNL     1       1.948  -5.803  -1.382  1.00  0.00    -0.249 NA
BRANCH   9  14
ATOM     14  C   UNL     1       2.736  -6.762   2.121  1.00  0.00     0.080 A 
ATOM     15  C   UNL     1       2.046  -6.029   3.119  1.00  0.00     0.010 A 
ATOM     16  C   UNL     1       1.871  -6.643   4.365  1.00  0.00     0.033 A 
ATOM     17  C   UNL     1       2.348  -7.934   4.569  1.00  0.00     0.060 A 
ATOM     18  N   UNL     1       3.192  -8.027   2.299  1.00  0.00    -0.254 NA
ATOM     19  Cl  UNL     1       2.138  -8.707   6.086  1.00  0.00    -0.083 Cl
ATOM     20  C   UNL     1       2.988  -8.580   3.521  1.00  0.00     0.132 A 
BRANCH  15  21
ATOM     21  C   UNL     1       1.522  -4.672   2.866  1.00  0.00    -0.016 A 
ATOM     22  C   UNL     1       0.727  -2.075   2.150  1.00  0.00     0.067 A 
ATOM     23  C   UNL     1       0.104  -3.171   1.558  1.00  0.00     0.021 A 
ATOM     24  C   UNL     1       1.709  -2.256   3.127  1.00  0.00     0.021 A 
ATOM     25  C   UNL     1       0.494  -4.460   1.926  1.00  0.00     0.010 A 
ATOM     26  C   UNL     1       2.104  -3.551   3.478  1.00  0.00     0.010 A 
BRANCH  22  27
ATOM     27  S   UNL     1       0.219  -0.436   1.685  1.00  0.00     0.175 S 
ATOM     28  C   UNL     1       0.932  -0.207   0.076  1.00  0.00     0.163 C 
ATOM     29  O   UNL     1       0.868   0.495   2.590  1.00  0.00    -0.224 OA
ATOM     30  O   UNL     1      -1.224  -0.460   1.550  1.00  0.00    -0.224 OA
ENDBRANCH  22  27
ENDBRANCH  15  21
ENDBRANCH   9  14
ENDBRANCH   6   8
ENDBRANCH   5   6
ENDBRANCH   4   5
ENDBRANCH   3   4
ENDBRANCH   2   3
ENDBRANCH   1   2
BRANCH   1  31
ATOM     31  C   UNL     1       5.173  -5.883  -3.682  1.00  0.00     0.188 C 
BRANCH  31  32
ATOM     32  O   UNL     1       6.072  -4.846  -3.991  1.00  0.00    -0.376 OA
BRANCH  32  33
ATOM     33  C   UNL     1       7.246  -5.137  -4.731  1.00  0.00     0.202 C 
BRANCH  33  34
ATOM     34  C   UNL     1       7.389  -6.293  -5.745  1.00  0.00     0.261 C 
BRANCH  34  35
ATOM     35  O   UNL     1       6.413  -7.340  -5.730  1.00  0.00    -0.460 OA
BRANCH  35  36
ATOM     36  C   UNL     1       6.719  -8.445  -5.010  1.00  0.00     0.338 C 
ATOM     37  O   UNL     1       7.708  -8.634  -4.328  1.00  0.00    -0.246 OA
BRANCH  36  38
ATOM     38  C   UNL     1       5.552  -9.350  -5.044  1.00  0.00     0.060 A 
ATOM     39  C   UNL     1       4.835  -9.574  -3.861  1.00  0.00     0.016 A 
ATOM     40  C   UNL     1       5.183  -9.986  -6.230  1.00  0.00     0.016 A 
ATOM     41  C   UNL     1       3.754 -10.457  -3.859  1.00  0.00     0.010 A 
ATOM     42  C   UNL     1       4.113 -10.886  -6.221  1.00  0.00     0.010 A 
ATOM     43  C   UNL     1       3.411 -11.145  -5.030  1.00  0.00    -0.014 A 
BRANCH  43  44
ATOM     44  C   UNL     1       2.430 -12.256  -4.977  1.00  0.00     0.031 A 
ATOM     45  C   UNL     1       2.943 -13.667  -4.882  1.00  0.00     0.074 A 
ATOM     46  C   UNL     1       1.106 -12.023  -5.007  1.00  0.00     0.049 A 
ATOM     47  N   UNL     1       2.280 -14.794  -4.878  1.00  0.00    -0.248 NA
ATOM     48  C   UNL     1       4.404 -13.825  -4.779  1.00  0.00     0.031 C 
ATOM     49  C   UNL     1       0.478 -10.704  -5.050  1.00  0.00     0.029 A 
ATOM     50  N   UNL     1       0.051 -12.901  -5.014  1.00  0.00    -0.354 N 
ATOM     51  C   UNL     1       3.239 -15.794  -4.782  1.00  0.00     0.074 A 
ATOM     52  C   UNL     1       4.531 -15.143  -4.758  1.00  0.00     0.031 C 
ATOM     53  C   UNL     1      -0.857 -10.861  -5.092  1.00  0.00     0.029 A 
ATOM     54  C   UNL     1      -1.174 -12.288  -5.114  1.00  0.00     0.049 A 
ATOM     55  H   UNL     1       0.162 -13.878  -4.954  1.00  0.00     0.167 HD
ATOM     56  C   UNL     1       3.062 -17.135  -4.717  1.00  0.00     0.031 A 
ATOM     57  C   UNL     1      -2.406 -12.819  -5.234  1.00  0.00     0.031 A 
ATOM     58  C   UNL     1       1.781 -17.787  -4.762  1.00  0.00     0.049 A 
ATOM     59  C   UNL     1      -2.570 -14.317  -5.250  1.00  0.00     0.074 A 
ATOM     60  C   UNL     1       1.500 -19.140  -4.690  1.00  0.00     0.029 A 
ATOM     61  N   UNL     1       0.568 -17.132  -4.904  1.00  0.00    -0.354 N 
ATOM     62  N   UNL     1      -1.659 -15.252  -5.129  1.00  0.00    -0.248 NA
ATOM     63  C   UNL     1      -3.939 -14.831  -5.413  1.00  0.00     0.031 C 
ATOM     64  C   UNL     1       0.120 -19.308  -4.848  1.00  0.00     0.029 A 
ATOM     65  C   UNL     1      -0.463 -18.055  -4.953  1.00  0.00     0.049 A 
ATOM     66  H   UNL     1       0.456 -16.156  -4.962  1.00  0.00     0.167 HD
ATOM     67  C   UNL     1      -2.346 -16.461  -5.171  1.00  0.00     0.074 A 
ATOM     68  C   UNL     1      -3.750 -16.140  -5.314  1.00  0.00     0.031 C 
ATOM     69  C   UNL     1      -1.857 -17.723  -5.095  1.00  0.00     0.031 A 
BRANCH  56  70
ATOM     70  C   UNL     1       4.296 -17.989  -4.631  1.00  0.00    -0.014 A 
ATOM     71  C   UNL     1       5.078 -18.030  -3.466  1.00  0.00     0.009 A 
ATOM     72  C   UNL     1       4.666 -18.788  -5.725  1.00  0.00     0.009 A 
ATOM     73  C   UNL     1       6.224 -18.826  -3.412  1.00  0.00     0.001 A 
ATOM     74  C   UNL     1       5.795 -19.605  -5.658  1.00  0.00     0.001 A 
ATOM     75  C   UNL     1       6.579 -19.616  -4.505  1.00  0.00     0.000 A 
ENDBRANCH  56  70
BRANCH  57  76
ATOM     76  C   UNL     1      -3.592 -11.933  -5.375  1.00  0.00    -0.014 A 
ATOM     77  C   UNL     1      -4.553 -11.853  -4.356  1.00  0.00     0.009 A 
ATOM     78  C   UNL     1      -3.784 -11.184  -6.547  1.00  0.00     0.009 A 
ATOM     79  C   UNL     1      -5.694 -11.063  -4.519  1.00  0.00     0.001 A 
ATOM     80  C   UNL     1      -4.910 -10.372  -6.695  1.00  0.00     0.001 A 
ATOM     81  C   UNL     1      -5.869 -10.320  -5.685  1.00  0.00     0.000 A 
ENDBRANCH  57  76
BRANCH  69  82
ATOM     82  C   UNL     1      -2.849 -18.854  -5.122  1.00  0.00    -0.014 A 
ATOM     83  C   UNL     1      -3.534 -19.200  -6.296  1.00  0.00     0.009 A 
ATOM     84  C   UNL     1      -3.066 -19.613  -3.960  1.00  0.00     0.009 A 
ATOM     85  C   UNL     1      -4.441 -20.263  -6.298  1.00  0.00     0.001 A 
ATOM     86  C   UNL     1      -3.949 -20.693  -3.972  1.00  0.00     0.001 A 
ATOM     87  C   UNL     1      -4.643 -21.011  -5.138  1.00  0.00     0.000 A 
ENDBRANCH  69  82
ENDBRANCH  43  44
ENDBRANCH  36  38
ENDBRANCH  35  36
ENDBRANCH  34  35
ENDBRANCH  33  34
ENDBRANCH  32  33
ENDBRANCH  31  32
ENDBRANCH   1  31
TORSDOF 20
