REMARK SMILES C[C@H](C(=O)OCCOCCOCCOC(=O)c1ccc(-c2c3nc(c(-c4ccccc4)c4ccc([nH]4)c(-c4ccccc4)c4nc(c(-c5ccccc5)c5ccc2[nH]5)C=C4)C=C3)cc1)c1ccc(-c2ccccc2)c(F)c1
REMARK SMILES IDX 9 1 8 2 7 3 6 4 5 5 3 6 4 7 2 8 1 9 65 10 66 11 77 12 67 13
REMARK SMILES IDX 75 14 68 15 76 16 69 17 70 18 74 19 71 20 73 21 72 22 10 23
REMARK SMILES IDX 11 24 12 25 13 26 14 27 15 28 16 29 17 30 18 31 64 32 19 33
REMARK SMILES IDX 63 34 20 35 21 36 22 37 57 38 23 39 62 40 56 41 58 42 24 43
REMARK SMILES IDX 61 44 55 45 54 46 25 48 47 49 32 50 46 51 33 52 36 53 45 54
REMARK SMILES IDX 59 55 34 56 35 57 44 59 60 60 37 61 26 62 27 63 31 64 28 65
REMARK SMILES IDX 30 66 29 67 48 68 49 69 53 70 50 71 52 72 51 73 38 74 39 75
REMARK SMILES IDX 43 76 40 77 42 78 41 79
REMARK H PARENT 58 47 36 58
REMARK Flexibility Score: inf
ROOT
ATOM      1  C   UNL     1       0.401   0.851  -1.874  1.00  0.00     0.188 C 
ENDROOT
BRANCH   1   2
ATOM      2  O   UNL     1       1.442   0.316  -2.685  1.00  0.00    -0.376 OA
BRANCH   2   3
ATOM      3  C   UNL     1       1.779  -1.058  -2.536  1.00  0.00     0.202 C 
BRANCH   3   4
ATOM      4  C   UNL     1       2.163  -1.551  -1.131  1.00  0.00     0.261 C 
BRANCH   4   5
ATOM      5  O   UNL     1       1.275  -1.149  -0.056  1.00  0.00    -0.463 OA
BRANCH   5   6
ATOM      6  C   UNL     1       1.864  -0.530   0.996  1.00  0.00     0.313 C 
ATOM      7  O   UNL     1       3.086  -0.408   1.087  1.00  0.00    -0.252 OA
BRANCH   6   8
ATOM      8  C   UNL     1       0.943   0.021   2.099  1.00  0.00     0.126 C 
ATOM      9  C   UNL     1       1.500   1.423   2.433  1.00  0.00     0.025 C 
BRANCH   8  10
ATOM     10  C   UNL     1      -0.592   0.027   1.962  1.00  0.00    -0.031 A 
ATOM     11  C   UNL     1      -1.350   1.214   2.042  1.00  0.00     0.005 A 
ATOM     12  C   UNL     1      -1.326  -1.169   1.877  1.00  0.00     0.044 A 
ATOM     13  C   UNL     1      -2.755   1.209   2.024  1.00  0.00     0.012 A 
ATOM     14  C   UNL     1      -2.738  -1.163   1.834  1.00  0.00     0.131 A 
ATOM     15  C   UNL     1      -3.484   0.021   1.898  1.00  0.00     0.017 A 
ATOM     16  F   UNL     1      -3.368  -2.343   1.722  1.00  0.00    -0.206 F 
BRANCH  15  17
ATOM     17  C   UNL     1      -4.961   0.066   1.853  1.00  0.00    -0.015 A 
ATOM     18  C   UNL     1      -5.633   0.815   0.869  1.00  0.00     0.009 A 
ATOM     19  C   UNL     1      -5.747  -0.583   2.818  1.00  0.00     0.009 A 
ATOM     20  C   UNL     1      -7.028   0.920   0.850  1.00  0.00     0.001 A 
ATOM     21  C   UNL     1      -7.145  -0.475   2.806  1.00  0.00     0.001 A 
ATOM     22  C   UNL     1      -7.785   0.278   1.824  1.00  0.00     0.000 A 
ENDBRANCH  15  17
ENDBRANCH   8  10
ENDBRANCH   6   8
ENDBRANCH   5   6
ENDBRANCH   4   5
ENDBRANCH   3   4
ENDBRANCH   2   3
ENDBRANCH   1   2
BRANCH   1  23
ATOM     23  C   UNL     1      -0.816  -0.026  -1.543  1.00  0.00     0.188 C 
BRANCH  23  24
ATOM     24  O   UNL     1      -0.910  -1.190  -2.336  1.00  0.00    -0.376 OA
BRANCH  24  25
ATOM     25  C   UNL     1      -2.211  -1.565  -2.741  1.00  0.00     0.202 C 
BRANCH  25  26
ATOM     26  C   UNL     1      -2.712  -0.720  -3.920  1.00  0.00     0.261 C 
BRANCH  26  27
ATOM     27  O   UNL     1      -2.620   0.709  -3.730  1.00  0.00    -0.460 OA
BRANCH  27  28
ATOM     28  C   UNL     1      -3.535   1.273  -2.914  1.00  0.00     0.338 C 
ATOM     29  O   UNL     1      -4.471   0.707  -2.361  1.00  0.00    -0.246 OA
BRANCH  28  30
ATOM     30  C   UNL     1      -3.108   2.654  -2.598  1.00  0.00     0.060 A 
ATOM     31  C   UNL     1      -2.786   2.980  -1.272  1.00  0.00     0.016 A 
ATOM     32  C   UNL     1      -3.044   3.632  -3.588  1.00  0.00     0.016 A 
ATOM     33  C   UNL     1      -2.423   4.281  -0.922  1.00  0.00     0.010 A 
ATOM     34  C   UNL     1      -2.703   4.944  -3.235  1.00  0.00     0.010 A 
ATOM     35  C   UNL     1      -2.419   5.284  -1.897  1.00  0.00    -0.014 A 
BRANCH  35  36
ATOM     36  C   UNL     1      -2.308   6.712  -1.503  1.00  0.00     0.031 A 
ATOM     37  C   UNL     1      -3.567   7.536  -1.444  1.00  0.00     0.074 A 
ATOM     38  C   UNL     1      -1.128   7.278  -1.195  1.00  0.00     0.049 A 
ATOM     39  N   UNL     1      -3.712   8.823  -1.257  1.00  0.00    -0.248 NA
ATOM     40  C   UNL     1      -4.832   6.805  -1.624  1.00  0.00     0.031 C 
ATOM     41  C   UNL     1       0.158   6.588  -1.133  1.00  0.00     0.029 A 
ATOM     42  N   UNL     1      -0.824   8.584  -0.890  1.00  0.00    -0.354 N 
ATOM     43  C   UNL     1      -5.080   9.059  -1.324  1.00  0.00     0.074 A 
ATOM     44  C   UNL     1      -5.719   7.787  -1.585  1.00  0.00     0.031 C 
ATOM     45  C   UNL     1       1.117   7.480  -0.827  1.00  0.00     0.029 A 
ATOM     46  C   UNL     1       0.520   8.811  -0.721  1.00  0.00     0.049 A 
ATOM     47  H   UNL     1      -1.506   9.289  -0.800  1.00  0.00     0.167 HD
ATOM     48  C   UNL     1      -5.747  10.229  -1.183  1.00  0.00     0.031 A 
ATOM     49  C   UNL     1       1.195   9.965  -0.541  1.00  0.00     0.031 A 
ATOM     50  C   UNL     1      -5.117  11.497  -0.933  1.00  0.00     0.049 A 
ATOM     51  C   UNL     1       0.441  11.270  -0.490  1.00  0.00     0.074 A 
ATOM     52  C   UNL     1      -5.710  12.738  -0.773  1.00  0.00     0.029 A 
ATOM     53  N   UNL     1      -3.750  11.689  -0.812  1.00  0.00    -0.354 N 
ATOM     54  N   UNL     1      -0.851  11.485  -0.559  1.00  0.00    -0.248 NA
ATOM     55  C   UNL     1       1.243  12.494  -0.336  1.00  0.00     0.031 C 
ATOM     56  C   UNL     1      -4.698  13.690  -0.618  1.00  0.00     0.029 A 
ATOM     57  C   UNL     1      -3.479  13.032  -0.608  1.00  0.00     0.049 A 
ATOM     58  H   UNL     1      -3.072  10.977  -0.863  1.00  0.00     0.167 HD
ATOM     59  C   UNL     1      -1.017  12.859  -0.422  1.00  0.00     0.074 A 
ATOM     60  C   UNL     1       0.304  13.426  -0.252  1.00  0.00     0.031 C 
ATOM     61  C   UNL     1      -2.161  13.586  -0.434  1.00  0.00     0.031 A 
BRANCH  48  62
ATOM     62  C   UNL     1      -7.242  10.196  -1.346  1.00  0.00    -0.014 A 
ATOM     63  C   UNL     1      -8.073   9.598  -0.387  1.00  0.00     0.009 A 
ATOM     64  C   UNL     1      -7.827  10.803  -2.469  1.00  0.00     0.009 A 
ATOM     65  C   UNL     1      -9.458   9.577  -0.566  1.00  0.00     0.001 A 
ATOM     66  C   UNL     1      -9.213  10.809  -2.630  1.00  0.00     0.001 A 
ATOM     67  C   UNL     1     -10.027  10.188  -1.684  1.00  0.00     0.000 A 
ENDBRANCH  48  62
BRANCH  49  68
ATOM     68  C   UNL     1       2.681   9.958  -0.439  1.00  0.00    -0.014 A 
ATOM     69  C   UNL     1       3.320  10.322   0.757  1.00  0.00     0.009 A 
ATOM     70  C   UNL     1       3.470   9.630  -1.553  1.00  0.00     0.009 A 
ATOM     71  C   UNL     1       4.714  10.386   0.825  1.00  0.00     0.001 A 
ATOM     72  C   UNL     1       4.864   9.661  -1.472  1.00  0.00     0.001 A 
ATOM     73  C   UNL     1       5.485  10.051  -0.287  1.00  0.00     0.000 A 
ENDBRANCH  49  68
BRANCH  61  74
ATOM     74  C   UNL     1      -2.048  15.070  -0.205  1.00  0.00    -0.014 A 
ATOM     75  C   UNL     1      -1.498  15.924  -1.174  1.00  0.00     0.009 A 
ATOM     76  C   UNL     1      -2.545  15.626   0.985  1.00  0.00     0.009 A 
ATOM     77  C   UNL     1      -1.417  17.299  -0.939  1.00  0.00     0.001 A 
ATOM     78  C   UNL     1      -2.494  17.003   1.202  1.00  0.00     0.001 A 
ATOM     79  C   UNL     1      -1.920  17.838   0.245  1.00  0.00     0.000 A 
ENDBRANCH  61  74
ENDBRANCH  35  36
ENDBRANCH  28  30
ENDBRANCH  27  28
ENDBRANCH  26  27
ENDBRANCH  25  26
ENDBRANCH  24  25
ENDBRANCH  23  24
ENDBRANCH   1  23
TORSDOF 19
