REMARK SMILES COc1ccc(-c2cc(Cl)cc3c2O[C@@H](C(F)(F)F)C(C(=O)OCCOCCOCCOC(=O)c2ccc(-c4c5nc(c(-c6ccccc6)c6ccc([nH]6)c(-c6ccccc6)c6nc(c(-c7ccccc7)c7ccc4[nH]7)C=C6)C=C5)cc2)=C3)cc1C
REMARK SMILES IDX 27 1 26 2 25 3 24 4 23 5 21 6 22 7 20 8 7 9 8 10 13 11 9 12
REMARK SMILES IDX 12 13 14 14 10 15 11 16 83 17 15 18 6 19 3 20 4 21 85 22
REMARK SMILES IDX 5 23 84 24 86 25 2 26 1 27 16 28 17 29 18 30 19 31 28 32
REMARK SMILES IDX 29 33 30 34 31 35 32 36 33 37 34 38 35 39 36 40 82 41 37 42
REMARK SMILES IDX 81 43 38 44 39 45 40 46 75 47 41 48 80 49 74 50 76 51 42 52
REMARK SMILES IDX 79 53 73 54 72 55 43 57 65 58 50 59 64 60 51 61 54 62 63 63
REMARK SMILES IDX 77 64 52 65 53 66 62 68 78 69 55 70 44 71 45 72 49 73 46 74
REMARK SMILES IDX 48 75 47 76 66 77 67 78 71 79 68 80 70 81 69 82 56 83 57 84
REMARK SMILES IDX 61 85 58 86 60 87 59 88
REMARK H PARENT 76 56 54 67
REMARK Flexibility Score: inf
ROOT
ATOM      1  C   UNL     1      -3.220   0.385   4.610  1.00  0.00     0.188 C 
ENDROOT
BRANCH   1   2
ATOM      2  O   UNL     1      -3.414  -1.002   4.788  1.00  0.00    -0.376 OA
BRANCH   2   3
ATOM      3  C   UNL     1      -2.999  -1.635   6.035  1.00  0.00     0.202 C 
BRANCH   3   4
ATOM      4  C   UNL     1      -3.691  -1.445   7.684  1.00  0.00     0.261 C 
BRANCH   4   5
ATOM      5  O   UNL     1      -2.993  -0.693   9.152  1.00  0.00    -0.460 OA
BRANCH   5   6
ATOM      6  C   UNL     1      -1.625  -0.314   9.051  1.00  0.00     0.338 C 
ATOM      7  O   UNL     1      -1.665  -0.701   7.890  1.00  0.00    -0.246 OA
BRANCH   6   8
ATOM      8  C   UNL     1      -0.245   0.853   9.478  1.00  0.00     0.087 C 
ATOM      9  C   UNL     1       2.228   4.012   6.709  1.00  0.00     0.026 A 
ATOM     10  C   UNL     1       3.418   4.425   7.253  1.00  0.00     0.033 A 
ATOM     11  C   UNL     1       1.445   2.942   7.768  1.00  0.00     0.135 A 
ATOM     12  C   UNL     1       3.861   3.775   8.441  1.00  0.00     0.042 A 
ATOM     13  C   UNL     1       2.027   2.068   8.695  1.00  0.00     0.019 A 
ATOM     14  O   UNL     1       0.145   3.402   8.671  1.00  0.00    -0.475 OA
ATOM     15  Cl  UNL     1       5.235   4.496   9.223  1.00  0.00    -0.084 Cl
ATOM     16  C   UNL     1       3.265   2.587   9.072  1.00  0.00     0.032 A 
ATOM     17  C   UNL     1       1.152   0.854   9.270  1.00  0.00     0.027 C 
ATOM     18  C   UNL     1      -0.301   2.351   9.828  1.00  0.00     0.316 C 
BRANCH   9  19
ATOM     19  C   UNL     1       2.170   4.187   4.813  1.00  0.00    -0.014 A 
ATOM     20  C   UNL     1       2.115   2.286   1.641  1.00  0.00     0.121 A 
ATOM     21  C   UNL     1       0.601   2.918   2.121  1.00  0.00     0.047 A 
ATOM     22  C   UNL     1       3.645   2.618   2.516  1.00  0.00    -0.008 A 
ATOM     23  C   UNL     1       0.538   3.895   3.607  1.00  0.00     0.013 A 
ATOM     24  C   UNL     1       3.727   3.549   4.082  1.00  0.00     0.016 A 
ATOM     25  C   UNL     1       4.828   2.246   1.673  1.00  0.00     0.048 C 
BRANCH  20  26
ATOM     26  O   UNL     1       2.200   1.530   0.489  1.00  0.00    -0.496 OA
ATOM     27  C   UNL     1       1.235   0.474   0.409  1.00  0.00     0.278 C 
ENDBRANCH  20  26
ENDBRANCH   9  19
BRANCH  18  28
ATOM     28  C   UNL     1      -1.134   2.447  11.129  1.00  0.00     0.430 C 
ATOM     29  F   UNL     1      -0.454   1.749  12.109  1.00  0.00    -0.167 F 
ATOM     30  F   UNL     1      -1.298   3.687  11.608  1.00  0.00    -0.167 F 
ATOM     31  F   UNL     1      -2.335   1.835  11.059  1.00  0.00    -0.167 F 
ENDBRANCH  18  28
ENDBRANCH   6   8
ENDBRANCH   5   6
ENDBRANCH   4   5
ENDBRANCH   3   4
ENDBRANCH   2   3
ENDBRANCH   1   2
BRANCH   1  32
ATOM     32  C   UNL     1      -4.143   1.057   5.559  1.00  0.00     0.188 C 
BRANCH  32  33
ATOM     33  O   UNL     1      -5.506   0.735   5.447  1.00  0.00    -0.376 OA
BRANCH  33  34
ATOM     34  C   UNL     1      -6.279   1.662   4.706  1.00  0.00     0.202 C 
BRANCH  34  35
ATOM     35  C   UNL     1      -6.003   3.158   4.967  1.00  0.00     0.261 C 
BRANCH  35  36
ATOM     36  O   UNL     1      -5.817   3.417   6.378  1.00  0.00    -0.460 OA
BRANCH  36  37
ATOM     37  C   UNL     1      -4.882   4.380   6.627  1.00  0.00     0.338 C 
ATOM     38  O   UNL     1      -4.823   5.470   6.083  1.00  0.00    -0.246 OA
BRANCH  37  39
ATOM     39  C   UNL     1      -3.714   3.701   7.227  1.00  0.00     0.060 A 
ATOM     40  C   UNL     1      -2.512   3.817   6.607  1.00  0.00     0.016 A 
ATOM     41  C   UNL     1      -3.729   2.686   8.118  1.00  0.00     0.016 A 
ATOM     42  C   UNL     1      -1.546   2.699   6.618  1.00  0.00     0.010 A 
ATOM     43  C   UNL     1      -2.630   1.716   8.099  1.00  0.00     0.010 A 
ATOM     44  C   UNL     1      -1.501   1.436   7.161  1.00  0.00    -0.014 A 
BRANCH  44  45
ATOM     45  C   UNL     1      -0.167   0.103   6.870  1.00  0.00     0.031 A 
ATOM     46  C   UNL     1       0.336  -1.398   7.906  1.00  0.00     0.074 A 
ATOM     47  C   UNL     1       0.189  -0.350   5.641  1.00  0.00     0.049 A 
ATOM     48  N   UNL     1       1.407  -1.659   8.648  1.00  0.00    -0.248 NA
ATOM     49  C   UNL     1      -0.644  -2.578   8.273  1.00  0.00     0.031 C 
ATOM     50  C   UNL     1       0.947  -1.579   5.342  1.00  0.00     0.029 A 
ATOM     51  N   UNL     1       0.186   0.305   4.417  1.00  0.00    -0.354 N 
ATOM     52  C   UNL     1       1.053  -2.766   9.489  1.00  0.00     0.074 A 
ATOM     53  C   UNL     1      -0.352  -2.716   9.568  1.00  0.00     0.031 C 
ATOM     54  C   UNL     1       1.673  -1.358   4.234  1.00  0.00     0.029 A 
ATOM     55  C   UNL     1       1.480   0.046   3.923  1.00  0.00     0.049 A 
ATOM     56  H   UNL     1      -0.539   0.822   3.997  1.00  0.00     0.167 HD
ATOM     57  C   UNL     1       1.592  -4.040   9.472  1.00  0.00     0.031 A 
ATOM     58  C   UNL     1       2.445   0.993   4.090  1.00  0.00     0.031 A 
ATOM     59  C   UNL     1       2.580  -4.085   8.438  1.00  0.00     0.049 A 
ATOM     60  C   UNL     1       3.649   0.481   5.038  1.00  0.00     0.074 A 
ATOM     61  C   UNL     1       2.605  -4.576   7.144  1.00  0.00     0.029 A 
ATOM     62  N   UNL     1       3.569  -3.151   8.539  1.00  0.00    -0.354 N 
ATOM     63  N   UNL     1       3.590  -0.547   5.869  1.00  0.00    -0.248 NA
ATOM     64  C   UNL     1       5.018   1.022   5.063  1.00  0.00     0.031 C 
ATOM     65  C   UNL     1       3.571  -3.811   6.429  1.00  0.00     0.029 A 
ATOM     66  C   UNL     1       4.110  -2.893   7.309  1.00  0.00     0.049 A 
ATOM     67  H   UNL     1       3.854  -2.723   9.378  1.00  0.00     0.167 HD
ATOM     68  C   UNL     1       4.828  -0.792   6.463  1.00  0.00     0.074 A 
ATOM     69  C   UNL     1       5.666   0.263   5.962  1.00  0.00     0.031 C 
ATOM     70  C   UNL     1       5.117  -1.863   7.275  1.00  0.00     0.031 A 
BRANCH  57  71
ATOM     71  C   UNL     1       0.853  -5.292  10.018  1.00  0.00    -0.014 A 
ATOM     72  C   UNL     1       1.041  -6.547   9.411  1.00  0.00     0.009 A 
ATOM     73  C   UNL     1      -0.065  -5.287  11.097  1.00  0.00     0.009 A 
ATOM     74  C   UNL     1       0.301  -7.688   9.779  1.00  0.00     0.001 A 
ATOM     75  C   UNL     1      -0.850  -6.410  11.435  1.00  0.00     0.001 A 
ATOM     76  C   UNL     1      -0.667  -7.614  10.771  1.00  0.00     0.000 A 
ENDBRANCH  57  71
BRANCH  58  77
ATOM     77  C   UNL     1       1.855   2.526   3.907  1.00  0.00    -0.014 A 
ATOM     78  C   UNL     1       2.223   4.194   2.832  1.00  0.00     0.009 A 
ATOM     79  C   UNL     1       0.721   2.833   5.261  1.00  0.00     0.009 A 
ATOM     80  C   UNL     1       1.580   5.771   3.238  1.00  0.00     0.001 A 
ATOM     81  C   UNL     1       0.189   4.588   5.576  1.00  0.00     0.001 A 
ATOM     82  C   UNL     1       0.615   5.937   4.579  1.00  0.00     0.000 A 
ENDBRANCH  58  77
BRANCH  70  83
ATOM     83  C   UNL     1       6.332  -2.139   8.194  1.00  0.00    -0.014 A 
ATOM     84  C   UNL     1       7.323  -1.220   8.535  1.00  0.00     0.009 A 
ATOM     85  C   UNL     1       6.396  -3.382   8.905  1.00  0.00     0.009 A 
ATOM     86  C   UNL     1       8.303  -1.526   9.505  1.00  0.00     0.001 A 
ATOM     87  C   UNL     1       7.306  -3.655   9.930  1.00  0.00     0.001 A 
ATOM     88  C   UNL     1       8.281  -2.725  10.218  1.00  0.00     0.000 A 
ENDBRANCH  70  83
ENDBRANCH  44  45
ENDBRANCH  37  39
ENDBRANCH  36  37
ENDBRANCH  35  36
ENDBRANCH  34  35
ENDBRANCH  33  34
ENDBRANCH  32  33
ENDBRANCH   1  32
TORSDOF 20
