REMARK SMILES Cc1ccc2oc(C(=O)N[C@@H]3C=C[C@H](C(=O)OCCOCCOCCOC(=O)c4ccc(-c5c6nc(c(-c7ccccc7)c7ccc([nH]7)c(-c7ccccc7)c7nc(c(-c8ccccc8)c8ccc5[nH]8)C=C7)C=C6)cc4)C3)cc2c1
REMARK SMILES IDX 21 1 20 2 19 3 18 4 17 5 15 6 16 7 14 8 11 9 12 10 77 11
REMARK SMILES IDX 13 12 10 13 8 14 9 15 7 17 1 18 2 19 3 20 80 21 4 22 79 23
REMARK SMILES IDX 5 24 78 25 6 26 22 27 23 28 24 29 25 30 26 31 27 32 28 33
REMARK SMILES IDX 29 34 30 35 76 36 31 37 75 38 32 39 33 40 34 41 69 42 35 43
REMARK SMILES IDX 74 44 68 45 70 46 36 47 73 48 67 49 66 50 37 52 59 53 44 54
REMARK SMILES IDX 58 55 45 56 48 57 57 58 71 59 46 60 47 61 56 63 72 64 49 65
REMARK SMILES IDX 38 66 39 67 43 68 40 69 42 70 41 71 60 72 61 73 65 74 62 75
REMARK SMILES IDX 64 76 63 77 50 78 51 79 55 80 52 81 54 82 53 83
REMARK H PARENT 10 16 70 51 48 62
REMARK Flexibility Score: inf
ROOT
ATOM      1  C   UNL     1      -0.337  -4.009   3.092  1.00  0.00     0.188 C 
ENDROOT
BRANCH   1   2
ATOM      2  O   UNL     1      -1.489  -4.761   2.765  1.00  0.00    -0.376 OA
BRANCH   2   3
ATOM      3  C   UNL     1      -1.514  -5.357   1.477  1.00  0.00     0.202 C 
BRANCH   3   4
ATOM      4  C   UNL     1      -0.418  -6.393   1.145  1.00  0.00     0.261 C 
BRANCH   4   5
ATOM      5  O   UNL     1       0.949  -5.996   1.396  1.00  0.00    -0.463 OA
BRANCH   5   6
ATOM      6  C   UNL     1       1.434  -5.002   0.610  1.00  0.00     0.312 C 
ATOM      7  O   UNL     1       0.793  -4.509  -0.309  1.00  0.00    -0.252 OA
BRANCH   6   8
ATOM      8  C   UNL     1       2.761  -4.426   1.153  1.00  0.00     0.124 C 
ATOM      9  C   UNL     1       3.816  -3.073  -0.564  1.00  0.00     0.106 C 
ATOM     10  C   UNL     1       4.683  -4.210  -0.181  1.00  0.00    -0.006 C 
ATOM     11  C   UNL     1       2.896  -2.981   0.657  1.00  0.00     0.048 C 
ATOM     12  C   UNL     1       4.086  -4.987   0.737  1.00  0.00    -0.014 C 
BRANCH   9  13
ATOM     13  N   UNL     1       3.159  -3.222  -1.865  1.00  0.00    -0.343 N 
ATOM     14  C   UNL     1       2.522  -4.185  -2.632  1.00  0.00     0.287 C 
ATOM     15  O   UNL     1       1.869  -3.722  -3.575  1.00  0.00    -0.266 OA
ATOM     16  H   UNL     1       3.175  -2.364  -2.348  1.00  0.00     0.164 HD
BRANCH  14  17
ATOM     17  C   UNL     1       2.596  -5.616  -2.378  1.00  0.00     0.192 A 
ATOM     18  C   UNL     1       2.501 -10.918   0.403  1.00  0.00     0.044 C 
ATOM     19  C   UNL     1       2.290  -9.826  -0.608  1.00  0.00    -0.050 A 
ATOM     20  C   UNL     1       1.238  -9.879  -1.537  1.00  0.00     0.007 A 
ATOM     21  C   UNL     1       3.131  -8.705  -0.577  1.00  0.00     0.015 A 
ATOM     22  C   UNL     1       0.928  -8.787  -2.369  1.00  0.00     0.048 A 
ATOM     23  C   UNL     1       2.871  -7.639  -1.449  1.00  0.00     0.021 A 
ATOM     24  C   UNL     1       1.737  -7.661  -2.239  1.00  0.00     0.135 A 
ATOM     25  C   UNL     1       3.531  -6.443  -1.792  1.00  0.00     0.065 A 
ATOM     26  O   UNL     1       1.553  -6.429  -2.807  1.00  0.00    -0.451 OA
ENDBRANCH  14  17
ENDBRANCH   9  13
ENDBRANCH   6   8
ENDBRANCH   5   6
ENDBRANCH   4   5
ENDBRANCH   3   4
ENDBRANCH   2   3
ENDBRANCH   1   2
BRANCH   1  27
ATOM     27  C   UNL     1       0.631  -4.764   4.027  1.00  0.00     0.188 C 
BRANCH  27  28
ATOM     28  O   UNL     1       0.224  -5.955   4.676  1.00  0.00    -0.376 OA
BRANCH  28  29
ATOM     29  C   UNL     1      -1.062  -5.994   5.261  1.00  0.00     0.202 C 
BRANCH  29  30
ATOM     30  C   UNL     1      -1.461  -4.892   6.260  1.00  0.00     0.261 C 
BRANCH  30  31
ATOM     31  O   UNL     1      -1.161  -3.534   5.874  1.00  0.00    -0.460 OA
BRANCH  31  32
ATOM     32  C   UNL     1      -0.129  -2.936   6.521  1.00  0.00     0.338 C 
ATOM     33  O   UNL     1       0.553  -3.411   7.420  1.00  0.00    -0.246 OA
BRANCH  32  34
ATOM     34  C   UNL     1       0.222  -1.659   5.853  1.00  0.00     0.060 A 
ATOM     35  C   UNL     1       1.492  -1.518   5.268  1.00  0.00     0.016 A 
ATOM     36  C   UNL     1      -0.665  -0.583   5.855  1.00  0.00     0.016 A 
ATOM     37  C   UNL     1       1.883  -0.304   4.696  1.00  0.00     0.010 A 
ATOM     38  C   UNL     1      -0.259   0.644   5.314  1.00  0.00     0.010 A 
ATOM     39  C   UNL     1       1.026   0.800   4.758  1.00  0.00    -0.014 A 
BRANCH  39  40
ATOM     40  C   UNL     1       1.537   2.159   4.439  1.00  0.00     0.031 A 
ATOM     41  C   UNL     1       1.982   3.041   5.576  1.00  0.00     0.074 A 
ATOM     42  C   UNL     1       1.613   2.613   3.175  1.00  0.00     0.049 A 
ATOM     43  N   UNL     1       2.379   4.288   5.557  1.00  0.00    -0.248 NA
ATOM     44  C   UNL     1       1.974   2.430   6.916  1.00  0.00     0.031 C 
ATOM     45  C   UNL     1       1.276   1.851   1.975  1.00  0.00     0.029 A 
ATOM     46  N   UNL     1       1.990   3.846   2.698  1.00  0.00    -0.354 N 
ATOM     47  C   UNL     1       2.648   4.617   6.881  1.00  0.00     0.074 A 
ATOM     48  C   UNL     1       2.349   3.447   7.677  1.00  0.00     0.031 C 
ATOM     49  C   UNL     1       1.445   2.640   0.898  1.00  0.00     0.029 A 
ATOM     50  C   UNL     1       1.862   3.972   1.336  1.00  0.00     0.049 A 
ATOM     51  H   UNL     1       2.319   4.570   3.277  1.00  0.00     0.167 HD
ATOM     52  C   UNL     1       3.104   5.785   7.391  1.00  0.00     0.031 A 
ATOM     53  C   UNL     1       2.032   5.046   0.538  1.00  0.00     0.031 A 
ATOM     54  C   UNL     1       3.384   6.959   6.608  1.00  0.00     0.049 A 
ATOM     55  C   UNL     1       2.443   6.366   1.141  1.00  0.00     0.074 A 
ATOM     56  C   UNL     1       3.860   8.186   7.035  1.00  0.00     0.029 A 
ATOM     57  N   UNL     1       3.201   7.056   5.238  1.00  0.00    -0.354 N 
ATOM     58  N   UNL     1       2.717   6.659   2.390  1.00  0.00    -0.248 NA
ATOM     59  C   UNL     1       2.574   7.504   0.218  1.00  0.00     0.031 C 
ATOM     60  C   UNL     1       3.902   9.046   5.933  1.00  0.00     0.029 A 
ATOM     61  C   UNL     1       3.524   8.332   4.808  1.00  0.00     0.049 A 
ATOM     62  H   UNL     1       2.888   6.326   4.656  1.00  0.00     0.167 HD
ATOM     63  C   UNL     1       3.085   8.001   2.395  1.00  0.00     0.074 A 
ATOM     64  C   UNL     1       3.014   8.460   1.024  1.00  0.00     0.031 C 
ATOM     65  C   UNL     1       3.454   8.780   3.441  1.00  0.00     0.031 A 
BRANCH  52  66
ATOM     66  C   UNL     1       3.284   5.864   8.883  1.00  0.00    -0.014 A 
ATOM     67  C   UNL     1       4.304   5.155   9.537  1.00  0.00     0.009 A 
ATOM     68  C   UNL     1       2.435   6.686   9.641  1.00  0.00     0.009 A 
ATOM     69  C   UNL     1       4.444   5.237  10.924  1.00  0.00     0.001 A 
ATOM     70  C   UNL     1       2.599   6.792  11.023  1.00  0.00     0.001 A 
ATOM     71  C   UNL     1       3.596   6.060  11.665  1.00  0.00     0.000 A 
ENDBRANCH  52  66
BRANCH  53  72
ATOM     72  C   UNL     1       1.790   4.938  -0.927  1.00  0.00    -0.014 A 
ATOM     73  C   UNL     1       2.849   5.069  -1.839  1.00  0.00     0.009 A 
ATOM     74  C   UNL     1       0.491   4.744  -1.423  1.00  0.00     0.009 A 
ATOM     75  C   UNL     1       2.608   5.035  -3.215  1.00  0.00     0.001 A 
ATOM     76  C   UNL     1       0.258   4.677  -2.799  1.00  0.00     0.001 A 
ATOM     77  C   UNL     1       1.315   4.833  -3.693  1.00  0.00     0.000 A 
ENDBRANCH  53  72
BRANCH  65  78
ATOM     78  C   UNL     1       3.861  10.200   3.145  1.00  0.00    -0.014 A 
ATOM     79  C   UNL     1       2.924  11.168   2.749  1.00  0.00     0.009 A 
ATOM     80  C   UNL     1       5.201  10.584   3.312  1.00  0.00     0.009 A 
ATOM     81  C   UNL     1       3.329  12.480   2.493  1.00  0.00     0.001 A 
ATOM     82  C   UNL     1       5.597  11.904   3.088  1.00  0.00     0.001 A 
ATOM     83  C   UNL     1       4.663  12.848   2.668  1.00  0.00     0.000 A 
ENDBRANCH  65  78
ENDBRANCH  39  40
ENDBRANCH  32  34
ENDBRANCH  31  32
ENDBRANCH  30  31
ENDBRANCH  29  30
ENDBRANCH  28  29
ENDBRANCH  27  28
ENDBRANCH   1  27
TORSDOF 19
