REMARK SMILES CCCCc1cc(S(F)(F)(F)(F)F)cc2c1O[C@@H](C(F)(F)F)C(C(=O)OCCOCCOCCOC(=O)c1ccc(-c3c4nc(c(-c5ccccc5)c5ccc([nH]5)c(-c5ccccc5)c5nc(c(-c6ccccc6)c6ccc3[nH]6)C=C5)C=C4)cc1)=C2
REMARK SMILES IDX 30 1 29 2 28 3 27 4 26 5 24 6 25 7 23 8 5 9 6 10 16 11 7 12
REMARK SMILES IDX 15 13 17 14 14 15 86 16 18 17 4 18 3 19 2 20 1 21 8 22 9 23
REMARK SMILES IDX 10 24 11 25 12 26 13 27 19 28 20 29 21 30 22 31 31 32 32 33
REMARK SMILES IDX 33 34 34 35 35 36 36 37 37 38 38 39 39 40 85 41 40 42 84 43
REMARK SMILES IDX 41 44 42 45 43 46 78 47 44 48 83 49 77 50 79 51 45 52 82 53
REMARK SMILES IDX 76 54 75 55 46 57 68 58 53 59 67 60 54 61 57 62 66 63 80 64
REMARK SMILES IDX 55 65 56 66 65 68 81 69 58 70 47 71 48 72 52 73 49 74 51 75
REMARK SMILES IDX 50 76 69 77 70 78 74 79 71 80 73 81 72 82 59 83 60 84 64 85
REMARK SMILES IDX 61 86 63 87 62 88
REMARK H PARENT 79 56 57 67
REMARK Flexibility Score: inf
ROOT
ATOM      1  C   UNL     1      -3.659  -8.736  -2.000  1.00  0.00     0.188 C 
ENDROOT
BRANCH   1   2
ATOM      2  O   UNL     1      -4.298  -9.984  -1.775  1.00  0.00    -0.376 OA
BRANCH   2   3
ATOM      3  C   UNL     1      -5.669  -9.767  -1.477  1.00  0.00     0.202 C 
BRANCH   3   4
ATOM      4  C   UNL     1      -5.786  -8.905  -0.230  1.00  0.00     0.261 C 
BRANCH   4   5
ATOM      5  O   UNL     1      -5.147  -7.657  -0.456  1.00  0.00    -0.460 OA
BRANCH   5   6
ATOM      6  C   UNL     1      -3.764  -7.615  -0.773  1.00  0.00     0.338 C 
ATOM      7  O   UNL     1      -3.097  -8.694  -0.855  1.00  0.00    -0.246 OA
BRANCH   6   8
ATOM      8  C   UNL     1      -3.080  -6.279  -1.014  1.00  0.00     0.087 C 
ATOM      9  C   UNL     1      -1.031  -2.643  -1.196  1.00  0.00    -0.004 A 
ATOM     10  C   UNL     1      -1.736  -1.459  -1.308  1.00  0.00     0.032 A 
ATOM     11  C   UNL     1      -1.731  -3.820  -1.084  1.00  0.00     0.131 A 
ATOM     12  C   UNL     1      -3.106  -1.451  -1.304  1.00  0.00     0.108 A 
ATOM     13  C   UNL     1      -3.114  -3.853  -1.095  1.00  0.00     0.019 A 
ATOM     14  O   UNL     1      -1.021  -4.974  -0.860  1.00  0.00    -0.475 OA
ATOM     15  C   UNL     1      -3.792  -2.644  -1.204  1.00  0.00     0.036 A 
ATOM     16  C   UNL     1      -3.762  -5.143  -0.932  1.00  0.00     0.027 C 
ATOM     17  C   UNL     1      -1.597  -6.215  -1.356  1.00  0.00     0.316 C 
BRANCH   9  18
ATOM     18  C   UNL     1       0.489  -2.643  -1.196  1.00  0.00     0.039 C 
BRANCH  18  19
ATOM     19  C   UNL     1       0.996  -1.452  -1.993  1.00  0.00     0.005 C 
BRANCH  19  20
ATOM     20  C   UNL     1       0.489  -0.167  -1.360  1.00  0.00    -0.003 C 
ATOM     21  C   UNL     1       0.996  -0.071   0.070  1.00  0.00     0.004 C 
ENDBRANCH  19  20
ENDBRANCH  18  19
ENDBRANCH   9  18
BRANCH  12  22
ATOM     22  S   UNL     1      -4.010   0.112  -1.427  1.00  0.00     0.310 S 
ATOM     23  F   UNL     1      -4.326   0.126   0.127  1.00  0.00    -0.094 F 
ATOM     24  F   UNL     1      -5.344  -0.701  -1.622  1.00  0.00    -0.094 F 
ATOM     25  F   UNL     1      -4.781   1.458  -1.534  1.00  0.00    -0.094 F 
ATOM     26  F   UNL     1      -2.687   0.907  -1.091  1.00  0.00    -0.094 F 
ATOM     27  F   UNL     1      -3.232  -1.246  -1.205  1.00  0.00    -0.094 F 
ENDBRANCH  12  22
BRANCH  17  28
ATOM     28  C   UNL     1      -0.886  -7.388  -0.702  1.00  0.00     0.430 C 
ATOM     29  F   UNL     1      -1.404  -8.527  -1.152  1.00  0.00    -0.167 F 
ATOM     30  F   UNL     1       0.410  -7.342  -0.998  1.00  0.00    -0.167 F 
ATOM     31  F   UNL     1      -1.042  -7.321   0.618  1.00  0.00    -0.167 F 
ENDBRANCH  17  28
ENDBRANCH   6   8
ENDBRANCH   5   6
ENDBRANCH   4   5
ENDBRANCH   3   4
ENDBRANCH   2   3
ENDBRANCH   1   2
BRANCH   1  32
ATOM     32  C   UNL     1      -4.325  -8.029  -3.169  1.00  0.00     0.188 C 
BRANCH  32  33
ATOM     33  O   UNL     1      -5.697  -7.812  -2.871  1.00  0.00    -0.376 OA
BRANCH  33  34
ATOM     34  C   UNL     1      -6.336  -9.060  -2.646  1.00  0.00     0.202 C 
BRANCH  34  35
ATOM     35  C   UNL     1      -6.219  -9.921  -3.892  1.00  0.00     0.261 C 
BRANCH  35  36
ATOM     36  O   UNL     1      -4.847 -10.139  -4.190  1.00  0.00    -0.460 OA
BRANCH  36  37
ATOM     37  C   UNL     1      -3.995  -9.035  -4.455  1.00  0.00     0.338 C 
ATOM     38  O   UNL     1      -4.459  -7.852  -4.426  1.00  0.00    -0.246 OA
BRANCH  37  39
ATOM     39  C   UNL     1      -2.527  -9.268  -4.774  1.00  0.00     0.060 A 
ATOM     40  C   UNL     1      -1.567  -8.477  -4.165  1.00  0.00     0.016 A 
ATOM     41  C   UNL     1      -2.189 -10.225  -5.630  1.00  0.00     0.016 A 
ATOM     42  C   UNL     1      -0.282  -8.584  -4.747  1.00  0.00     0.010 A 
ATOM     43  C   UNL     1      -0.889 -10.358  -6.053  1.00  0.00     0.010 A 
ATOM     44  C   UNL     1       0.103  -9.571  -5.537  1.00  0.00    -0.014 A 
BRANCH  44  45
ATOM     45  C   UNL     1       1.569  -9.817  -5.854  1.00  0.00     0.031 A 
ATOM     46  C   UNL     1       1.971  -9.756  -7.190  1.00  0.00     0.074 A 
ATOM     47  C   UNL     1       2.423 -10.091  -4.801  1.00  0.00     0.049 A 
ATOM     48  N   UNL     1       3.204  -9.909  -7.676  1.00  0.00    -0.248 NA
ATOM     49  C   UNL     1       1.059  -9.499  -8.314  1.00  0.00     0.031 C 
ATOM     50  C   UNL     1       2.027 -10.146  -3.450  1.00  0.00     0.029 A 
ATOM     51  N   UNL     1       3.774 -10.355  -4.854  1.00  0.00    -0.354 N 
ATOM     52  C   UNL     1       3.197  -9.762  -9.003  1.00  0.00     0.074 A 
ATOM     53  C   UNL     1       1.817  -9.503  -9.433  1.00  0.00     0.031 C 
ATOM     54  C   UNL     1       3.120 -10.450  -2.702  1.00  0.00     0.029 A 
ATOM     55  C   UNL     1       4.218 -10.590  -3.571  1.00  0.00     0.049 A 
ATOM     56  H   UNL     1       4.327 -10.373  -5.669  1.00  0.00     0.167 HD
ATOM     57  C   UNL     1       4.289  -9.833  -9.870  1.00  0.00     0.031 A 
ATOM     58  C   UNL     1       5.503 -10.910  -3.163  1.00  0.00     0.031 A 
ATOM     59  C   UNL     1       5.582 -10.111  -9.456  1.00  0.00     0.049 A 
ATOM     60  C   UNL     1       6.585 -11.039  -4.038  1.00  0.00     0.074 A 
ATOM     61  C   UNL     1       6.695 -10.178 -10.316  1.00  0.00     0.029 A 
ATOM     62  N   UNL     1       6.021 -10.369  -8.177  1.00  0.00    -0.354 N 
ATOM     63  N   UNL     1       6.585 -10.853  -5.359  1.00  0.00    -0.248 NA
ATOM     64  C   UNL     1       7.943 -11.409  -3.621  1.00  0.00     0.031 C 
ATOM     65  C   UNL     1       7.789 -10.482  -9.568  1.00  0.00     0.029 A 
ATOM     66  C   UNL     1       7.377 -10.611  -8.227  1.00  0.00     0.049 A 
ATOM     67  H   UNL     1       5.463 -10.380  -7.366  1.00  0.00     0.167 HD
ATOM     68  C   UNL     1       7.811 -11.047  -5.850  1.00  0.00     0.074 A 
ATOM     69  C   UNL     1       8.701 -11.415  -4.740  1.00  0.00     0.031 C 
ATOM     70  C   UNL     1       8.224 -10.928  -7.178  1.00  0.00     0.031 A 
BRANCH  57  71
ATOM     71  C   UNL     1       4.045  -9.592 -11.351  1.00  0.00    -0.014 A 
ATOM     72  C   UNL     1       3.580  -8.351 -11.755  1.00  0.00     0.009 A 
ATOM     73  C   UNL     1       4.332 -10.541 -12.233  1.00  0.00     0.009 A 
ATOM     74  C   UNL     1       3.171  -8.306 -13.109  1.00  0.00     0.001 A 
ATOM     75  C   UNL     1       4.028 -10.375 -13.563  1.00  0.00     0.001 A 
ATOM     76  C   UNL     1       3.511  -9.196 -14.024  1.00  0.00     0.000 A 
ENDBRANCH  57  71
BRANCH  58  77
ATOM     77  C   UNL     1       5.749 -11.135  -1.681  1.00  0.00    -0.014 A 
ATOM     78  C   UNL     1       6.697 -10.367  -1.025  1.00  0.00     0.009 A 
ATOM     79  C   UNL     1       5.089 -12.100  -1.051  1.00  0.00     0.009 A 
ATOM     80  C   UNL     1       7.088 -10.888   0.231  1.00  0.00     0.001 A 
ATOM     81  C   UNL     1       5.436 -12.466   0.227  1.00  0.00     0.001 A 
ATOM     82  C   UNL     1       6.405 -11.789   0.914  1.00  0.00     0.000 A 
ENDBRANCH  58  77
BRANCH  70  83
ATOM     83  C   UNL     1       9.693 -11.161  -7.492  1.00  0.00    -0.014 A 
ATOM     84  C   UNL     1      10.263 -12.390  -7.200  1.00  0.00     0.009 A 
ATOM     85  C   UNL     1      10.406 -10.185  -8.041  1.00  0.00     0.009 A 
ATOM     86  C   UNL     1      11.676 -12.395  -7.261  1.00  0.00     0.001 A 
ATOM     87  C   UNL     1      11.765 -10.312  -8.195  1.00  0.00     0.001 A 
ATOM     88  C   UNL     1      12.403 -11.478  -7.872  1.00  0.00     0.000 A 
ENDBRANCH  70  83
ENDBRANCH  44  45
ENDBRANCH  37  39
ENDBRANCH  36  37
ENDBRANCH  35  36
ENDBRANCH  34  35
ENDBRANCH  33  34
ENDBRANCH  32  33
ENDBRANCH   1  32
TORSDOF 22
