REMARK SMILES CC1(C)[C@H](O)CC[C@@]2(C)[C@H]3Cc4c(oc(C(=O)OCCOCCOCCOC(=O)c5ccc(-c6c7nc(c(-c8ccccc8)c8ccc([nH]8)c(-c8ccccc8)c8nc(c(-c9ccccc9)c9ccc6[nH]9)C=C8)C=C7)cc5)cc4=O)O[C@@]3(C)CC[C@@H]12
REMARK SMILES IDX 23 1 22 2 21 3 20 4 19 5 18 6 16 7 17 8 15 9 1 10 2 11 3 12
REMARK SMILES IDX 4 13 86 14 6 15 8 16 85 17 7 18 9 19 10 20 84 21 82 22 11 23
REMARK SMILES IDX 83 24 81 25 12 26 13 27 79 28 14 29 78 30 80 31 5 32 24 34
REMARK SMILES IDX 25 35 26 36 27 37 28 38 29 39 30 40 31 41 77 42 32 43 76 44
REMARK SMILES IDX 33 45 34 46 35 47 70 48 36 49 75 50 69 51 71 52 37 53 74 54
REMARK SMILES IDX 68 55 67 56 38 58 60 59 45 60 59 61 46 62 49 63 58 64 72 65
REMARK SMILES IDX 47 66 48 67 57 69 73 70 50 71 39 72 40 73 44 74 41 75 43 76
REMARK SMILES IDX 42 77 61 78 62 79 66 80 63 81 65 82 64 83 51 84 52 85 56 86
REMARK SMILES IDX 53 87 55 88 54 89
REMARK H PARENT 5 33 71 57 49 68
REMARK Flexibility Score: inf
ROOT
ATOM      1  C   UNL     1       1.356   8.791   2.805  1.00  0.00     0.188 C 
ENDROOT
BRANCH   1   2
ATOM      2  C   UNL     1       1.286   9.418   4.213  1.00  0.00     0.188 C 
BRANCH   2   3
ATOM      3  O   UNL     1       1.584  10.785   4.399  1.00  0.00    -0.376 OA
BRANCH   3   4
ATOM      4  C   UNL     1       2.882  11.283   4.127  1.00  0.00     0.202 C 
BRANCH   4   5
ATOM      5  C   UNL     1       4.162  10.460   4.343  1.00  0.00     0.261 C 
BRANCH   5   6
ATOM      6  O   UNL     1       4.115   9.103   3.884  1.00  0.00    -0.457 OA
BRANCH   6   7
ATOM      7  C   UNL     1       4.221   8.148   4.848  1.00  0.00     0.374 C 
ATOM      8  O   UNL     1       4.380   8.347   6.043  1.00  0.00    -0.242 OA
BRANCH   7   9
ATOM      9  C   UNL     1       3.935   6.801   4.284  1.00  0.00     0.219 A 
ATOM     10  C   UNL     1       0.924   0.808   0.828  1.00  0.00     0.014 C 
ATOM     11  C   UNL     1       0.566  -0.223   1.922  1.00  0.00    -0.006 C 
ATOM     12  C   UNL     1      -0.956  -0.468   1.728  1.00  0.00     0.014 C 
ATOM     13  C   UNL     1       1.348  -1.547   1.660  1.00  0.00     0.120 C 
ATOM     14  C   UNL     1       0.889   0.186   3.422  1.00  0.00     0.004 C 
ATOM     15  C   UNL     1       2.860  -1.438   1.926  1.00  0.00     0.033 C 
ATOM     16  C   UNL     1       2.423   0.383   3.759  1.00  0.00    -0.022 C 
ATOM     17  C   UNL     1      -0.112   1.154   4.101  1.00  0.00     0.009 C 
ATOM     18  C   UNL     1       3.327  -0.132   2.592  1.00  0.00     0.010 C 
ATOM     19  C   UNL     1       2.821  -0.568   4.937  1.00  0.00     0.012 C 
ATOM     20  C   UNL     1       2.784   1.871   4.197  1.00  0.00     0.044 C 
ATOM     21  C   UNL     1       0.366   2.553   4.443  1.00  0.00     0.049 C 
ATOM     22  C   UNL     1       1.737   2.566   5.125  1.00  0.00     0.113 C 
ATOM     23  C   UNL     1       3.068   2.812   2.997  1.00  0.00     0.055 C 
ATOM     24  C   UNL     1       1.631   1.952   6.533  1.00  0.00     0.057 C 
ATOM     25  O   UNL     1       2.075   3.936   5.446  1.00  0.00    -0.458 OA
ATOM     26  C   UNL     1       3.287   4.223   3.432  1.00  0.00     0.081 A 
ATOM     27  C   UNL     1       2.846   4.692   4.604  1.00  0.00     0.292 A 
ATOM     28  C   UNL     1       4.070   5.124   2.558  1.00  0.00     0.192 A 
ATOM     29  O   UNL     1       3.148   5.966   5.057  1.00  0.00    -0.418 OA
ATOM     30  C   UNL     1       4.396   6.461   3.075  1.00  0.00     0.107 A 
ATOM     31  O   UNL     1       4.441   4.786   1.441  1.00  0.00    -0.289 OA
BRANCH  13  32
ATOM     32  O   UNL     1       0.869  -2.604   2.506  1.00  0.00    -0.393 OA
ATOM     33  H   UNL     1       1.038  -2.377   3.434  1.00  0.00     0.210 HD
ENDBRANCH  13  32
ENDBRANCH   7   9
ENDBRANCH   6   7
ENDBRANCH   5   6
ENDBRANCH   4   5
ENDBRANCH   3   4
ENDBRANCH   2   3
ENDBRANCH   1   2
BRANCH   1  34
ATOM     34  O   UNL     1       1.866   9.536   1.724  1.00  0.00    -0.376 OA
BRANCH  34  35
ATOM     35  C   UNL     1       1.140  10.654   1.236  1.00  0.00     0.202 C 
BRANCH  35  36
ATOM     36  C   UNL     1      -0.390  10.802   1.325  1.00  0.00     0.261 C 
BRANCH  36  37
ATOM     37  O   UNL     1      -1.024  10.282   2.500  1.00  0.00    -0.460 OA
BRANCH  37  38
ATOM     38  C   UNL     1      -1.851   9.227   2.301  1.00  0.00     0.338 C 
ATOM     39  O   UNL     1      -2.110   8.665   1.245  1.00  0.00    -0.246 OA
BRANCH  38  40
ATOM     40  C   UNL     1      -2.295   8.722   3.608  1.00  0.00     0.060 A 
ATOM     41  C   UNL     1      -1.718   7.550   4.120  1.00  0.00     0.016 A 
ATOM     42  C   UNL     1      -3.296   9.391   4.310  1.00  0.00     0.016 A 
ATOM     43  C   UNL     1      -2.124   7.058   5.357  1.00  0.00     0.010 A 
ATOM     44  C   UNL     1      -3.738   8.869   5.527  1.00  0.00     0.010 A 
ATOM     45  C   UNL     1      -3.165   7.693   6.044  1.00  0.00    -0.014 A 
BRANCH  45  46
ATOM     46  C   UNL     1      -3.800   6.998   7.184  1.00  0.00     0.031 A 
ATOM     47  C   UNL     1      -4.944   6.072   6.893  1.00  0.00     0.074 A 
ATOM     48  C   UNL     1      -3.350   7.150   8.441  1.00  0.00     0.049 A 
ATOM     49  N   UNL     1      -5.650   5.347   7.720  1.00  0.00    -0.248 NA
ATOM     50  C   UNL     1      -5.339   5.937   5.479  1.00  0.00     0.031 C 
ATOM     51  C   UNL     1      -2.209   7.970   8.839  1.00  0.00     0.029 A 
ATOM     52  N   UNL     1      -3.805   6.604   9.615  1.00  0.00    -0.354 N 
ATOM     53  C   UNL     1      -6.561   4.663   6.927  1.00  0.00     0.074 A 
ATOM     54  C   UNL     1      -6.347   5.082   5.561  1.00  0.00     0.031 C 
ATOM     55  C   UNL     1      -2.051   7.871  10.171  1.00  0.00     0.029 A 
ATOM     56  C   UNL     1      -3.093   7.002  10.718  1.00  0.00     0.049 A 
ATOM     57  H   UNL     1      -4.571   5.986   9.661  1.00  0.00     0.167 HD
ATOM     58  C   UNL     1      -7.486   3.754   7.304  1.00  0.00     0.031 A 
ATOM     59  C   UNL     1      -3.265   6.703  12.021  1.00  0.00     0.031 A 
ATOM     60  C   UNL     1      -7.717   3.353   8.662  1.00  0.00     0.049 A 
ATOM     61  C   UNL     1      -4.378   5.778  12.434  1.00  0.00     0.074 A 
ATOM     62  C   UNL     1      -8.639   2.439   9.138  1.00  0.00     0.029 A 
ATOM     63  N   UNL     1      -7.029   3.846   9.757  1.00  0.00    -0.354 N 
ATOM     64  N   UNL     1      -5.228   5.127  11.677  1.00  0.00    -0.248 NA
ATOM     65  C   UNL     1      -4.561   5.545  13.875  1.00  0.00     0.031 C 
ATOM     66  C   UNL     1      -8.544   2.417  10.530  1.00  0.00     0.029 A 
ATOM     67  C   UNL     1      -7.527   3.277  10.914  1.00  0.00     0.049 A 
ATOM     68  H   UNL     1      -6.296   4.502   9.718  1.00  0.00     0.167 HD
ATOM     69  C   UNL     1      -6.033   4.398  12.544  1.00  0.00     0.074 A 
ATOM     70  C   UNL     1      -5.570   4.681  13.886  1.00  0.00     0.031 C 
ATOM     71  C   UNL     1      -7.061   3.568  12.245  1.00  0.00     0.031 A 
BRANCH  58  72
ATOM     72  C   UNL     1      -8.328   3.134   6.230  1.00  0.00    -0.014 A 
ATOM     73  C   UNL     1      -7.791   2.164   5.370  1.00  0.00     0.009 A 
ATOM     74  C   UNL     1      -9.685   3.471   6.122  1.00  0.00     0.009 A 
ATOM     75  C   UNL     1      -8.598   1.550   4.411  1.00  0.00     0.001 A 
ATOM     76  C   UNL     1     -10.495   2.838   5.179  1.00  0.00     0.001 A 
ATOM     77  C   UNL     1      -9.950   1.881   4.323  1.00  0.00     0.000 A 
ENDBRANCH  58  72
BRANCH  59  78
ATOM     78  C   UNL     1      -2.338   7.285  13.024  1.00  0.00    -0.014 A 
ATOM     79  C   UNL     1      -1.335   6.494  13.603  1.00  0.00     0.009 A 
ATOM     80  C   UNL     1      -2.404   8.649  13.353  1.00  0.00     0.009 A 
ATOM     81  C   UNL     1      -0.410   7.060  14.483  1.00  0.00     0.001 A 
ATOM     82  C   UNL     1      -1.466   9.215  14.219  1.00  0.00     0.001 A 
ATOM     83  C   UNL     1      -0.469   8.421  14.782  1.00  0.00     0.000 A 
ENDBRANCH  59  78
BRANCH  71  84
ATOM     84  C   UNL     1      -7.787   2.885  13.369  1.00  0.00    -0.014 A 
ATOM     85  C   UNL     1      -8.765   3.570  14.103  1.00  0.00     0.009 A 
ATOM     86  C   UNL     1      -7.628   1.503  13.561  1.00  0.00     0.009 A 
ATOM     87  C   UNL     1      -9.582   2.879  15.000  1.00  0.00     0.001 A 
ATOM     88  C   UNL     1      -8.460   0.812  14.443  1.00  0.00     0.001 A 
ATOM     89  C   UNL     1      -9.439   1.500  15.159  1.00  0.00     0.000 A 
ENDBRANCH  71  84
ENDBRANCH  45  46
ENDBRANCH  38  40
ENDBRANCH  37  38
ENDBRANCH  36  37
ENDBRANCH  35  36
ENDBRANCH  34  35
ENDBRANCH   1  34
TORSDOF 18
