REMARK SMILES C=CCN1C(=O)/C(=C\c2cccn2-c2ccc(C(=O)OCCOCCOCCOC(=O)c3ccc(-c4c5nc(c(-c6ccccc6)c6ccc([nH]6)c(-c6ccccc6)c6nc(c(-c7ccccc7)c7ccc4[nH]7)C=C6)C=C5)cc3)cc2)C(O)=NC1=S
REMARK SMILES IDX 24 1 23 2 22 3 21 4 20 5 18 6 19 7 17 8 14 9 15 10 81 11
REMARK SMILES IDX 16 12 80 13 13 14 9 15 10 16 11 17 12 18 8 19 4 20 5 21
REMARK SMILES IDX 85 22 6 23 7 24 84 25 86 26 82 27 3 28 2 29 1 30 83 31 25 33
REMARK SMILES IDX 26 34 27 35 28 36 29 37 30 38 31 39 32 40 33 41 79 42 34 43
REMARK SMILES IDX 78 44 35 45 36 46 37 47 72 48 38 49 77 50 71 51 73 52 39 53
REMARK SMILES IDX 76 54 70 55 69 56 40 58 62 59 47 60 61 61 48 62 51 63 60 64
REMARK SMILES IDX 74 65 49 66 50 67 59 69 75 70 52 71 41 72 42 73 46 74 43 75
REMARK SMILES IDX 45 76 44 77 63 78 64 79 68 80 65 81 67 82 66 83 53 84 54 85
REMARK SMILES IDX 58 86 55 87 57 88 56 89
REMARK H PARENT 83 32 73 57 51 68
REMARK Flexibility Score: inf
ROOT
ATOM      1  C   UNL     1      -6.013 -10.112  -1.508  1.00  0.00     0.188 C 
ENDROOT
BRANCH   1   2
ATOM      2  O   UNL     1      -7.414 -10.260  -1.335  1.00  0.00    -0.376 OA
BRANCH   2   3
ATOM      3  C   UNL     1      -7.856 -10.276   0.017  1.00  0.00     0.202 C 
BRANCH   3   4
ATOM      4  C   UNL     1      -7.767  -8.950   0.793  1.00  0.00     0.261 C 
BRANCH   4   5
ATOM      5  O   UNL     1      -6.538  -8.218   0.659  1.00  0.00    -0.460 OA
BRANCH   5   6
ATOM      6  C   UNL     1      -5.496  -8.599   1.426  1.00  0.00     0.338 C 
ATOM      7  O   UNL     1      -5.473  -9.533   2.212  1.00  0.00    -0.246 OA
BRANCH   6   8
ATOM      8  C   UNL     1      -4.303  -7.797   1.056  1.00  0.00     0.060 A 
ATOM      9  C   UNL     1      -1.995  -6.358   0.426  1.00  0.00     0.046 A 
ATOM     10  C   UNL     1      -1.932  -7.751   0.531  1.00  0.00     0.027 A 
ATOM     11  C   UNL     1      -3.219  -5.688   0.567  1.00  0.00     0.027 A 
ATOM     12  C   UNL     1      -3.082  -8.464   0.880  1.00  0.00     0.018 A 
ATOM     13  C   UNL     1      -4.379  -6.412   0.864  1.00  0.00     0.018 A 
BRANCH   9  14
ATOM     14  N   UNL     1      -0.793  -5.622   0.253  1.00  0.00    -0.317 N 
ATOM     15  C   UNL     1      -0.346  -4.560   1.036  1.00  0.00     0.047 A 
ATOM     16  C   UNL     1       0.866  -4.134   0.522  1.00  0.00     0.028 A 
ATOM     17  C   UNL     1       1.203  -4.987  -0.553  1.00  0.00     0.020 A 
ATOM     18  C   UNL     1       0.193  -5.915  -0.669  1.00  0.00     0.092 A 
BRANCH  15  19
ATOM     19  C   UNL     1      -1.034  -4.194   2.225  1.00  0.00     0.046 C 
ATOM     20  N   UNL     1      -1.622  -0.627   1.985  1.00  0.00    -0.279 N 
ATOM     21  C   UNL     1      -1.622  -1.904   1.427  1.00  0.00     0.265 C 
ATOM     22  C   UNL     1      -2.008  -0.376   3.312  1.00  0.00     0.206 C 
ATOM     23  O   UNL     1      -1.672  -2.134   0.221  1.00  0.00    -0.268 OA
ATOM     24  C   UNL     1      -1.611  -2.996   2.427  1.00  0.00     0.104 C 
ATOM     25  N   UNL     1      -2.412  -1.429   4.098  1.00  0.00    -0.184 NA
ATOM     26  S   UNL     1      -2.038   1.169   4.009  1.00  0.00    -0.038 S 
ATOM     27  C   UNL     1      -2.215  -2.632   3.705  1.00  0.00     0.226 C 
BRANCH  20  28
ATOM     28  C   UNL     1      -1.225   0.436   1.060  1.00  0.00     0.155 C 
BRANCH  28  29
ATOM     29  C   UNL     1       0.281   0.520   1.068  1.00  0.00    -0.013 C 
ATOM     30  C   UNL     1       1.062   0.142   0.046  1.00  0.00     0.006 C 
ENDBRANCH  28  29
ENDBRANCH  20  28
BRANCH  27  31
ATOM     31  O   UNL     1      -2.638  -3.623   4.510  1.00  0.00    -0.493 OA
ATOM     32  H   UNL     1      -2.512  -4.517   4.258  1.00  0.00     0.295 HD
ENDBRANCH  27  31
ENDBRANCH  15  19
ENDBRANCH   9  14
ENDBRANCH   6   8
ENDBRANCH   5   6
ENDBRANCH   4   5
ENDBRANCH   3   4
ENDBRANCH   2   3
ENDBRANCH   1   2
BRANCH   1  33
ATOM     33  C   UNL     1      -5.627  -8.796  -2.195  1.00  0.00     0.188 C 
BRANCH  33  34
ATOM     34  O   UNL     1      -6.599  -7.778  -2.342  1.00  0.00    -0.376 OA
BRANCH  34  35
ATOM     35  C   UNL     1      -7.882  -8.029  -2.895  1.00  0.00     0.202 C 
BRANCH  35  36
ATOM     36  C   UNL     1      -8.198  -9.158  -3.890  1.00  0.00     0.261 C 
BRANCH  36  37
ATOM     37  O   UNL     1      -7.126  -9.940  -4.393  1.00  0.00    -0.460 OA
BRANCH  37  38
ATOM     38  C   UNL     1      -6.331  -9.293  -5.258  1.00  0.00     0.338 C 
ATOM     39  O   UNL     1      -6.262  -8.088  -5.474  1.00  0.00    -0.246 OA
BRANCH  38  40
ATOM     40  C   UNL     1      -5.563 -10.289  -5.995  1.00  0.00     0.060 A 
ATOM     41  C   UNL     1      -4.194 -10.091  -6.177  1.00  0.00     0.016 A 
ATOM     42  C   UNL     1      -6.267 -11.300  -6.661  1.00  0.00     0.016 A 
ATOM     43  C   UNL     1      -3.531 -10.868  -7.111  1.00  0.00     0.010 A 
ATOM     44  C   UNL     1      -5.614 -12.045  -7.624  1.00  0.00     0.010 A 
ATOM     45  C   UNL     1      -4.257 -11.799  -7.867  1.00  0.00    -0.014 A 
BRANCH  45  46
ATOM     46  C   UNL     1      -3.569 -12.518  -8.952  1.00  0.00     0.031 A 
ATOM     47  C   UNL     1      -2.999 -13.857  -8.527  1.00  0.00     0.074 A 
ATOM     48  C   UNL     1      -3.522 -11.875 -10.155  1.00  0.00     0.049 A 
ATOM     49  N   UNL     1      -2.072 -14.565  -9.092  1.00  0.00    -0.248 NA
ATOM     50  C   UNL     1      -3.494 -14.489  -7.276  1.00  0.00     0.031 C 
ATOM     51  C   UNL     1      -4.149 -10.561 -10.411  1.00  0.00     0.029 A 
ATOM     52  N   UNL     1      -2.955 -12.161 -11.380  1.00  0.00    -0.354 N 
ATOM     53  C   UNL     1      -1.983 -15.773  -8.380  1.00  0.00     0.074 A 
ATOM     54  C   UNL     1      -2.818 -15.636  -7.224  1.00  0.00     0.031 C 
ATOM     55  C   UNL     1      -3.877 -10.139 -11.660  1.00  0.00     0.029 A 
ATOM     56  C   UNL     1      -3.079 -11.136 -12.346  1.00  0.00     0.049 A 
ATOM     57  H   UNL     1      -2.499 -13.013 -11.567  1.00  0.00     0.167 HD
ATOM     58  C   UNL     1      -1.325 -16.868  -8.847  1.00  0.00     0.031 A 
ATOM     59  C   UNL     1      -2.558 -11.061 -13.606  1.00  0.00     0.031 A 
ATOM     60  C   UNL     1      -0.605 -16.574 -10.040  1.00  0.00     0.049 A 
ATOM     61  C   UNL     1      -1.913 -12.354 -13.889  1.00  0.00     0.074 A 
ATOM     62  C   UNL     1       0.517 -15.833 -10.309  1.00  0.00     0.029 A 
ATOM     63  N   UNL     1      -1.241 -16.847 -11.226  1.00  0.00    -0.354 N 
ATOM     64  N   UNL     1      -2.543 -13.460 -14.143  1.00  0.00    -0.248 NA
ATOM     65  C   UNL     1      -0.448 -12.450 -13.844  1.00  0.00     0.031 C 
ATOM     66  C   UNL     1       0.304 -15.328 -11.614  1.00  0.00     0.029 A 
ATOM     67  C   UNL     1      -0.896 -15.848 -12.105  1.00  0.00     0.049 A 
ATOM     68  H   UNL     1      -1.831 -17.613 -11.411  1.00  0.00     0.167 HD
ATOM     69  C   UNL     1      -1.585 -14.415 -13.898  1.00  0.00     0.074 A 
ATOM     70  C   UNL     1      -0.306 -13.759 -14.041  1.00  0.00     0.031 C 
ATOM     71  C   UNL     1      -1.881 -15.465 -13.091  1.00  0.00     0.031 A 
BRANCH  58  72
ATOM     72  C   UNL     1      -1.465 -18.302  -8.430  1.00  0.00    -0.014 A 
ATOM     73  C   UNL     1      -0.486 -19.217  -8.876  1.00  0.00     0.009 A 
ATOM     74  C   UNL     1      -2.643 -18.834  -7.890  1.00  0.00     0.009 A 
ATOM     75  C   UNL     1      -0.710 -20.595  -8.866  1.00  0.00     0.001 A 
ATOM     76  C   UNL     1      -2.853 -20.218  -7.843  1.00  0.00     0.001 A 
ATOM     77  C   UNL     1      -1.901 -21.095  -8.358  1.00  0.00     0.000 A 
ENDBRANCH  58  72
BRANCH  59  78
ATOM     78  C   UNL     1      -2.462 -10.012 -14.683  1.00  0.00    -0.014 A 
ATOM     79  C   UNL     1      -3.125  -8.782 -14.685  1.00  0.00     0.009 A 
ATOM     80  C   UNL     1      -1.609 -10.246 -15.794  1.00  0.00     0.009 A 
ATOM     81  C   UNL     1      -2.891  -7.822 -15.690  1.00  0.00     0.001 A 
ATOM     82  C   UNL     1      -1.351  -9.290 -16.780  1.00  0.00     0.001 A 
ATOM     83  C   UNL     1      -1.988  -8.066 -16.721  1.00  0.00     0.000 A 
ENDBRANCH  59  78
BRANCH  71  84
ATOM     84  C   UNL     1      -3.365 -15.768 -12.975  1.00  0.00    -0.014 A 
ATOM     85  C   UNL     1      -4.094 -16.197 -14.093  1.00  0.00     0.009 A 
ATOM     86  C   UNL     1      -4.083 -15.514 -11.793  1.00  0.00     0.009 A 
ATOM     87  C   UNL     1      -5.487 -16.348 -14.032  1.00  0.00     0.001 A 
ATOM     88  C   UNL     1      -5.473 -15.668 -11.726  1.00  0.00     0.001 A 
ATOM     89  C   UNL     1      -6.176 -16.081 -12.851  1.00  0.00     0.000 A 
ENDBRANCH  71  84
ENDBRANCH  45  46
ENDBRANCH  38  40
ENDBRANCH  37  38
ENDBRANCH  36  37
ENDBRANCH  35  36
ENDBRANCH  34  35
ENDBRANCH  33  34
ENDBRANCH   1  33
TORSDOF 22
