REMARK SMILES O=C(OCCOCCOCCOC(=O)c1[nH]ncc1C[N@H+]1CCC[C@@H](C(=O)c2ccc(Oc3ccccc3)cc2)C1)c1ccc(-c2c3nc(c(-c4ccccc4)c4ccc([nH]4)c(-c4ccccc4)c4nc(c(-c5ccccc5)c5ccc2[nH]5)C=C4)C=C3)cc1
REMARK SMILES IDX 10 1 9 2 8 3 7 4 6 5 5 6 4 7 3 8 2 9 1 10 42 11 43 12 89 13
REMARK SMILES IDX 44 14 88 15 45 16 46 17 47 18 82 19 48 20 87 21 81 22 83 23
REMARK SMILES IDX 49 24 86 25 80 26 79 27 50 29 72 30 57 31 71 32 58 33 61 34
REMARK SMILES IDX 70 35 84 36 59 37 60 38 69 40 85 41 62 42 51 43 52 44 56 45
REMARK SMILES IDX 53 46 55 47 54 48 73 49 74 50 78 51 75 52 77 53 76 54 63 55
REMARK SMILES IDX 64 56 68 57 65 58 67 59 66 60 11 61 12 62 13 63 14 64 15 65
REMARK SMILES IDX 16 66 19 67 17 68 18 70 20 71 21 72 22 73 41 74 23 76 25 77
REMARK SMILES IDX 24 78 26 79 27 80 28 81 29 82 40 83 30 84 39 85 31 86 32 87
REMARK SMILES IDX 33 88 34 89 38 90 35 91 37 92 36 93
REMARK H PARENT 83 28 61 39 16 69 21 75
REMARK Flexibility Score: inf
ROOT
ATOM      1  C   UNL     1       4.136  -4.626   0.155  1.00  0.00     0.202 C 
ENDROOT
BRANCH   1   2
ATOM      2  O   UNL     1       2.835  -4.461   0.718  1.00  0.00    -0.376 OA
BRANCH   2   3
ATOM      3  C   UNL     1       2.267  -3.156   0.572  1.00  0.00     0.188 C 
BRANCH   3   4
ATOM      4  C   UNL     1       2.821  -2.171   1.601  1.00  0.00     0.188 C 
BRANCH   4   5
ATOM      5  O   UNL     1       4.024  -1.560   1.102  1.00  0.00    -0.376 OA
BRANCH   5   6
ATOM      6  C   UNL     1       4.553  -0.597   2.020  1.00  0.00     0.202 C 
BRANCH   6   7
ATOM      7  C   UNL     1       4.284   0.838   1.558  1.00  0.00     0.261 C 
BRANCH   7   8
ATOM      8  O   UNL     1       2.876   1.028   1.319  1.00  0.00    -0.460 OA
BRANCH   8   9
ATOM      9  C   UNL     1       2.267   0.921   0.109  1.00  0.00     0.338 C 
ATOM     10  O   UNL     1       1.076   0.643   0.022  1.00  0.00    -0.246 OA
BRANCH   9  11
ATOM     11  C   UNL     1       2.995   1.343  -1.109  1.00  0.00     0.060 A 
ATOM     12  C   UNL     1       4.103   0.654  -1.604  1.00  0.00     0.016 A 
ATOM     13  C   UNL     1       2.470   2.422  -1.831  1.00  0.00     0.016 A 
ATOM     14  C   UNL     1       4.756   1.115  -2.753  1.00  0.00     0.010 A 
ATOM     15  C   UNL     1       3.086   2.845  -3.012  1.00  0.00     0.010 A 
ATOM     16  C   UNL     1       4.254   2.215  -3.468  1.00  0.00    -0.014 A 
BRANCH  16  17
ATOM     17  C   UNL     1       4.934   2.708  -4.695  1.00  0.00     0.031 A 
ATOM     18  C   UNL     1       5.597   4.055  -4.710  1.00  0.00     0.074 A 
ATOM     19  C   UNL     1       4.939   1.963  -5.816  1.00  0.00     0.049 A 
ATOM     20  N   UNL     1       6.152   4.689  -5.713  1.00  0.00    -0.248 NA
ATOM     21  C   UNL     1       5.643   4.784  -3.434  1.00  0.00     0.031 C 
ATOM     22  C   UNL     1       4.338   0.639  -5.947  1.00  0.00     0.029 A 
ATOM     23  N   UNL     1       5.454   2.221  -7.062  1.00  0.00    -0.354 N 
ATOM     24  C   UNL     1       6.601   5.894  -5.195  1.00  0.00     0.074 A 
ATOM     25  C   UNL     1       6.239   5.912  -3.792  1.00  0.00     0.031 C 
ATOM     26  C   UNL     1       4.511   0.199  -7.203  1.00  0.00     0.029 A 
ATOM     27  C   UNL     1       5.205   1.225  -7.973  1.00  0.00     0.049 A 
ATOM     28  H   UNL     1       5.954   3.040  -7.280  1.00  0.00     0.167 HD
ATOM     29  C   UNL     1       7.265   6.895  -5.821  1.00  0.00     0.031 A 
ATOM     30  C   UNL     1       5.476   1.149  -9.288  1.00  0.00     0.031 A 
ATOM     31  C   UNL     1       7.645   6.891  -7.206  1.00  0.00     0.049 A 
ATOM     32  C   UNL     1       6.171   2.285  -9.973  1.00  0.00     0.074 A 
ATOM     33  C   UNL     1       8.346   7.854  -7.913  1.00  0.00     0.029 A 
ATOM     34  N   UNL     1       7.357   5.871  -8.097  1.00  0.00    -0.354 N 
ATOM     35  N   UNL     1       6.583   3.420  -9.466  1.00  0.00    -0.248 NA
ATOM     36  C   UNL     1       6.434   2.130 -11.411  1.00  0.00     0.031 C 
ATOM     37  C   UNL     1       8.469   7.420  -9.240  1.00  0.00     0.029 A 
ATOM     38  C   UNL     1       7.855   6.183  -9.350  1.00  0.00     0.049 A 
ATOM     39  H   UNL     1       6.870   5.045  -7.872  1.00  0.00     0.167 HD
ATOM     40  C   UNL     1       7.155   4.117 -10.520  1.00  0.00     0.074 A 
ATOM     41  C   UNL     1       7.043   3.275 -11.694  1.00  0.00     0.031 C 
ATOM     42  C   UNL     1       7.724   5.345 -10.511  1.00  0.00     0.031 A 
BRANCH  29  43
ATOM     43  C   UNL     1       7.616   8.086  -4.984  1.00  0.00    -0.014 A 
ATOM     44  C   UNL     1       8.751   8.069  -4.159  1.00  0.00     0.009 A 
ATOM     45  C   UNL     1       6.800   9.226  -5.007  1.00  0.00     0.009 A 
ATOM     46  C   UNL     1       9.046   9.165  -3.347  1.00  0.00     0.001 A 
ATOM     47  C   UNL     1       7.103  10.324  -4.201  1.00  0.00     0.001 A 
ATOM     48  C   UNL     1       8.221  10.290  -3.367  1.00  0.00     0.000 A 
ENDBRANCH  29  43
BRANCH  30  49
ATOM     49  C   UNL     1       5.043  -0.044 -10.051  1.00  0.00    -0.014 A 
ATOM     50  C   UNL     1       5.927  -1.111 -10.262  1.00  0.00     0.009 A 
ATOM     51  C   UNL     1       3.732  -0.128 -10.544  1.00  0.00     0.009 A 
ATOM     52  C   UNL     1       5.505  -2.244 -10.961  1.00  0.00     0.001 A 
ATOM     53  C   UNL     1       3.314  -1.262 -11.240  1.00  0.00     0.001 A 
ATOM     54  C   UNL     1       4.200  -2.319 -11.447  1.00  0.00     0.000 A 
ENDBRANCH  30  49
BRANCH  42  55
ATOM     55  C   UNL     1       8.265   5.847 -11.814  1.00  0.00    -0.014 A 
ATOM     56  C   UNL     1       7.423   6.484 -12.737  1.00  0.00     0.009 A 
ATOM     57  C   UNL     1       9.627   5.700 -12.113  1.00  0.00     0.009 A 
ATOM     58  C   UNL     1       7.934   6.952 -13.948  1.00  0.00     0.001 A 
ATOM     59  C   UNL     1      10.137   6.176 -13.322  1.00  0.00     0.001 A 
ATOM     60  C   UNL     1       9.290   6.797 -14.239  1.00  0.00     0.000 A 
ENDBRANCH  42  55
ENDBRANCH  16  17
ENDBRANCH   9  11
ENDBRANCH   8   9
ENDBRANCH   7   8
ENDBRANCH   6   7
ENDBRANCH   5   6
ENDBRANCH   4   5
ENDBRANCH   3   4
ENDBRANCH   2   3
ENDBRANCH   1   2
BRANCH   1  61
ATOM     61  C   UNL     1       4.083  -5.415  -1.157  1.00  0.00     0.261 C 
BRANCH  61  62
ATOM     62  O   UNL     1       3.714  -4.571  -2.263  1.00  0.00    -0.459 OA
BRANCH  62  63
ATOM     63  C   UNL     1       2.385  -4.474  -2.525  1.00  0.00     0.356 C 
ATOM     64  O   UNL     1       1.489  -5.071  -1.942  1.00  0.00    -0.244 OA
BRANCH  63  65
ATOM     65  C   UNL     1       2.164  -3.469  -3.520  1.00  0.00     0.152 A 
ATOM     66  N   UNL     1       1.136  -2.572  -3.409  1.00  0.00    -0.271 N 
ATOM     67  C   UNL     1       2.789  -3.186  -4.725  1.00  0.00     0.059 A 
ATOM     68  N   UNL     1       1.094  -1.675  -4.405  1.00  0.00    -0.183 NA
ATOM     69  H   UNL     1       0.488  -2.584  -2.667  1.00  0.00     0.190 HD
ATOM     70  C   UNL     1       2.082  -2.059  -5.209  1.00  0.00     0.145 A 
BRANCH  67  71
ATOM     71  C   UNL     1       3.911  -3.907  -5.405  1.00  0.00     0.303 C 
BRANCH  71  72
ATOM     72  N   UNL     1       3.455  -4.902  -6.395  1.00  0.00    -0.330 N 
ATOM     73  C   UNL     1       2.683  -6.003  -5.806  1.00  0.00     0.262 C 
ATOM     74  C   UNL     1       2.755  -4.296  -7.536  1.00  0.00     0.274 C 
ATOM     75  H   UNL     1       4.312  -5.317  -6.761  1.00  0.00     0.348 HD
ATOM     76  C   UNL     1       2.339  -7.070  -6.849  1.00  0.00     0.062 C 
ATOM     77  C   UNL     1       2.446  -5.312  -8.634  1.00  0.00     0.116 C 
ATOM     78  C   UNL     1       1.624  -6.470  -8.060  1.00  0.00     0.023 C 
BRANCH  77  79
ATOM     79  C   UNL     1       1.782  -4.742  -9.890  1.00  0.00     0.171 C 
ATOM     80  O   UNL     1       2.142  -5.104 -11.013  1.00  0.00    -0.294 OA
BRANCH  79  81
ATOM     81  C   UNL     1       0.586  -3.859  -9.816  1.00  0.00     0.018 A 
ATOM     82  C   UNL     1      -0.546  -4.231 -10.548  1.00  0.00     0.015 A 
ATOM     83  C   UNL     1       0.582  -2.648  -9.122  1.00  0.00     0.015 A 
ATOM     84  C   UNL     1      -1.682  -3.415 -10.549  1.00  0.00     0.048 A 
ATOM     85  C   UNL     1      -0.569  -1.852  -9.091  1.00  0.00     0.048 A 
ATOM     86  C   UNL     1      -1.701  -2.222  -9.820  1.00  0.00     0.127 A 
BRANCH  86  87
ATOM     87  O   UNL     1      -2.882  -1.514  -9.891  1.00  0.00    -0.457 OA
BRANCH  87  88
ATOM     88  C   UNL     1      -2.959  -0.281  -9.294  1.00  0.00     0.127 A 
ATOM     89  C   UNL     1      -3.866  -0.123  -8.247  1.00  0.00     0.047 A 
ATOM     90  C   UNL     1      -2.227   0.812  -9.765  1.00  0.00     0.047 A 
ATOM     91  C   UNL     1      -4.004   1.120  -7.630  1.00  0.00     0.004 A 
ATOM     92  C   UNL     1      -2.356   2.051  -9.136  1.00  0.00     0.004 A 
ATOM     93  C   UNL     1      -3.241   2.203  -8.068  1.00  0.00     0.000 A 
ENDBRANCH  87  88
ENDBRANCH  86  87
ENDBRANCH  79  81
ENDBRANCH  77  79
ENDBRANCH  71  72
ENDBRANCH  67  71
ENDBRANCH  63  65
ENDBRANCH  62  63
ENDBRANCH  61  62
ENDBRANCH   1  61
TORSDOF 23
