REMARK SMILES CCC[C@H](C)C(=O)N1CC[C@H](C(=O)OCCOCCOCCOC(=O)c2ccc(-c3c4nc(c(-c5ccccc5)c5ccc([nH]5)c(-c5ccccc5)c5nc(c(-c6ccccc6)c6ccc3[nH]6)C=C5)C=C4)cc2)[C@@H]1C
REMARK SMILES IDX 18 1 17 2 16 3 15 4 14 5 12 6 13 7 11 8 8 9 9 10 74 11 10 12
REMARK SMILES IDX 75 13 6 14 7 15 4 16 5 17 3 18 2 19 1 20 19 21 20 22 21 23
REMARK SMILES IDX 22 24 23 25 24 26 25 27 26 28 27 29 73 30 28 31 72 32 29 33
REMARK SMILES IDX 30 34 31 35 66 36 32 37 71 38 65 39 67 40 33 41 70 42 64 43
REMARK SMILES IDX 63 44 34 46 56 47 41 48 55 49 42 50 45 51 54 52 68 53 43 54
REMARK SMILES IDX 44 55 53 57 69 58 46 59 35 60 36 61 40 62 37 63 39 64 38 65
REMARK SMILES IDX 57 66 58 67 62 68 59 69 61 70 60 71 47 72 48 73 52 74 49 75
REMARK SMILES IDX 51 76 50 77
REMARK H PARENT 67 45 45 56
REMARK Flexibility Score: inf
ROOT
ATOM      1  C   UNL     1       2.214   2.228   9.079  1.00  0.00     0.188 C 
ENDROOT
BRANCH   1   2
ATOM      2  O   UNL     1       2.825   1.355  10.017  1.00  0.00    -0.376 OA
BRANCH   2   3
ATOM      3  C   UNL     1       3.099   0.016   9.617  1.00  0.00     0.202 C 
BRANCH   3   4
ATOM      4  C   UNL     1       1.891  -0.813   9.186  1.00  0.00     0.261 C 
BRANCH   4   5
ATOM      5  O   UNL     1       1.395  -0.379   7.903  1.00  0.00    -0.463 OA
BRANCH   5   6
ATOM      6  C   UNL     1       0.057  -0.438   7.731  1.00  0.00     0.311 C 
ATOM      7  O   UNL     1      -0.724  -0.824   8.596  1.00  0.00    -0.252 OA
BRANCH   6   8
ATOM      8  C   UNL     1      -0.456   0.114   6.410  1.00  0.00     0.123 C 
ATOM      9  N   UNL     1       0.341   1.555   4.666  1.00  0.00    -0.339 N 
ATOM     10  C   UNL     1      -0.227   2.426   5.667  1.00  0.00     0.121 C 
ATOM     11  C   UNL     1       0.349   0.150   5.092  1.00  0.00     0.096 C 
ATOM     12  C   UNL     1      -1.001   1.533   6.612  1.00  0.00     0.039 C 
ATOM     13  C   UNL     1       1.756  -0.445   5.118  1.00  0.00     0.032 C 
BRANCH   9  14
ATOM     14  C   UNL     1       0.738   2.133   3.478  1.00  0.00     0.225 C 
ATOM     15  O   UNL     1       1.146   3.300   3.470  1.00  0.00    -0.275 OA
BRANCH  14  16
ATOM     16  C   UNL     1       0.397   1.462   2.142  1.00  0.00     0.075 C 
ATOM     17  C   UNL     1       1.031   0.116   1.832  1.00  0.00     0.018 C 
BRANCH  16  18
ATOM     18  C   UNL     1      -1.140   1.435   1.977  1.00  0.00     0.013 C 
BRANCH  18  19
ATOM     19  C   UNL     1      -1.632   2.270   0.789  1.00  0.00    -0.003 C 
ATOM     20  C   UNL     1      -1.238   1.684  -0.558  1.00  0.00     0.004 C 
ENDBRANCH  18  19
ENDBRANCH  16  18
ENDBRANCH  14  16
ENDBRANCH   9  14
ENDBRANCH   6   8
ENDBRANCH   5   6
ENDBRANCH   4   5
ENDBRANCH   3   4
ENDBRANCH   2   3
ENDBRANCH   1   2
BRANCH   1  21
ATOM     21  C   UNL     1       2.781   2.317   7.651  1.00  0.00     0.188 C 
BRANCH  21  22
ATOM     22  O   UNL     1       4.109   1.917   7.368  1.00  0.00    -0.376 OA
BRANCH  22  23
ATOM     23  C   UNL     1       5.154   2.430   8.179  1.00  0.00     0.202 C 
BRANCH  23  24
ATOM     24  C   UNL     1       5.354   3.946   8.186  1.00  0.00     0.261 C 
BRANCH  24  25
ATOM     25  O   UNL     1       4.202   4.653   8.675  1.00  0.00    -0.460 OA
BRANCH  25  26
ATOM     26  C   UNL     1       3.675   5.559   7.814  1.00  0.00     0.338 C 
ATOM     27  O   UNL     1       4.096   5.880   6.719  1.00  0.00    -0.246 OA
BRANCH  26  28
ATOM     28  C   UNL     1       2.384   6.036   8.341  1.00  0.00     0.060 A 
ATOM     29  C   UNL     1       1.226   5.792   7.592  1.00  0.00     0.016 A 
ATOM     30  C   UNL     1       2.331   6.796   9.509  1.00  0.00     0.016 A 
ATOM     31  C   UNL     1       0.006   6.330   8.000  1.00  0.00     0.010 A 
ATOM     32  C   UNL     1       1.114   7.358   9.901  1.00  0.00     0.010 A 
ATOM     33  C   UNL     1      -0.047   7.152   9.133  1.00  0.00    -0.014 A 
BRANCH  33  34
ATOM     34  C   UNL     1      -1.264   7.951   9.412  1.00  0.00     0.031 A 
ATOM     35  C   UNL     1      -1.310   9.379   8.939  1.00  0.00     0.074 A 
ATOM     36  C   UNL     1      -2.314   7.421  10.062  1.00  0.00     0.049 A 
ATOM     37  N   UNL     1      -2.216  10.296   9.156  1.00  0.00    -0.248 NA
ATOM     38  C   UNL     1      -0.180   9.829   8.108  1.00  0.00     0.031 C 
ATOM     39  C   UNL     1      -2.426   6.034  10.507  1.00  0.00     0.029 A 
ATOM     40  N   UNL     1      -3.491   8.002  10.466  1.00  0.00    -0.354 N 
ATOM     41  C   UNL     1      -1.763  11.433   8.498  1.00  0.00     0.074 A 
ATOM     42  C   UNL     1      -0.493  11.097   7.892  1.00  0.00     0.031 C 
ATOM     43  C   UNL     1      -3.606   5.872  11.132  1.00  0.00     0.029 A 
ATOM     44  C   UNL     1      -4.309   7.154  11.170  1.00  0.00     0.049 A 
ATOM     45  H   UNL     1      -3.725   8.938  10.269  1.00  0.00     0.167 HD
ATOM     46  C   UNL     1      -2.351  12.649   8.406  1.00  0.00     0.031 A 
ATOM     47  C   UNL     1      -5.475   7.396  11.799  1.00  0.00     0.031 A 
ATOM     48  C   UNL     1      -3.604  12.991   9.023  1.00  0.00     0.049 A 
ATOM     49  C   UNL     1      -6.055   8.787  11.774  1.00  0.00     0.074 A 
ATOM     50  C   UNL     1      -4.272  14.203   9.005  1.00  0.00     0.029 A 
ATOM     51  N   UNL     1      -4.377  12.117   9.770  1.00  0.00    -0.354 N 
ATOM     52  N   UNL     1      -5.612   9.859  11.163  1.00  0.00    -0.248 NA
ATOM     53  C   UNL     1      -7.298   8.999  12.531  1.00  0.00     0.031 C 
ATOM     54  C   UNL     1      -5.428  14.075   9.782  1.00  0.00     0.029 A 
ATOM     55  C   UNL     1      -5.506  12.768  10.236  1.00  0.00     0.049 A 
ATOM     56  H   UNL     1      -4.155  11.174   9.944  1.00  0.00     0.167 HD
ATOM     57  C   UNL     1      -6.537  10.861  11.434  1.00  0.00     0.074 A 
ATOM     58  C   UNL     1      -7.571  10.266  12.254  1.00  0.00     0.031 C 
ATOM     59  C   UNL     1      -6.531  12.158  11.041  1.00  0.00     0.031 A 
BRANCH  46  60
ATOM     60  C   UNL     1      -1.619  13.713   7.639  1.00  0.00    -0.014 A 
ATOM     61  C   UNL     1      -1.536  13.674   6.238  1.00  0.00     0.009 A 
ATOM     62  C   UNL     1      -1.026  14.783   8.326  1.00  0.00     0.009 A 
ATOM     63  C   UNL     1      -0.850  14.672   5.543  1.00  0.00     0.001 A 
ATOM     64  C   UNL     1      -0.364  15.793   7.627  1.00  0.00     0.001 A 
ATOM     65  C   UNL     1      -0.269  15.733   6.238  1.00  0.00     0.000 A 
ENDBRANCH  46  60
BRANCH  47  66
ATOM     66  C   UNL     1      -6.167   6.313  12.548  1.00  0.00    -0.014 A 
ATOM     67  C   UNL     1      -7.407   5.820  12.113  1.00  0.00     0.009 A 
ATOM     68  C   UNL     1      -5.614   5.802  13.733  1.00  0.00     0.009 A 
ATOM     69  C   UNL     1      -8.093   4.864  12.865  1.00  0.00     0.001 A 
ATOM     70  C   UNL     1      -6.288   4.824  14.467  1.00  0.00     0.001 A 
ATOM     71  C   UNL     1      -7.532   4.364  14.040  1.00  0.00     0.000 A 
ENDBRANCH  47  66
BRANCH  59  72
ATOM     72  C   UNL     1      -7.703  13.008  11.446  1.00  0.00    -0.014 A 
ATOM     73  C   UNL     1      -7.870  13.441  12.771  1.00  0.00     0.009 A 
ATOM     74  C   UNL     1      -8.630  13.416  10.475  1.00  0.00     0.009 A 
ATOM     75  C   UNL     1      -8.961  14.239  13.119  1.00  0.00     0.001 A 
ATOM     76  C   UNL     1      -9.704  14.238  10.820  1.00  0.00     0.001 A 
ATOM     77  C   UNL     1      -9.874  14.640  12.144  1.00  0.00     0.000 A 
ENDBRANCH  59  72
ENDBRANCH  33  34
ENDBRANCH  26  28
ENDBRANCH  25  26
ENDBRANCH  24  25
ENDBRANCH  23  24
ENDBRANCH  22  23
ENDBRANCH  21  22
ENDBRANCH   1  21
TORSDOF 21
