REMARK SMILES CCOc1cc(OCC)cc(-c2ccc([C@@H](C)C(=O)OCCOCCOCCOC(=O)c3ccc(-c4c5nc(c(-c6ccccc6)c6ccc([nH]6)c(-c6ccccc6)c6nc(c(-c7ccccc7)c7ccc4[nH]7)C=C6)C=C5)cc3)cc2F)c1
REMARK SMILES IDX 24 1 23 2 22 3 21 4 20 5 18 6 19 7 16 8 17 9 15 10 12 11
REMARK SMILES IDX 13 12 81 13 14 14 80 15 82 16 11 17 4 18 5 19 83 20 6 21
REMARK SMILES IDX 10 22 3 23 2 24 1 25 7 26 8 27 9 28 25 29 26 30 27 31 28 32
REMARK SMILES IDX 29 33 30 34 31 35 32 36 33 37 79 38 34 39 78 40 35 41 36 42
REMARK SMILES IDX 37 43 72 44 38 45 77 46 71 47 73 48 39 49 76 50 70 51 69 52
REMARK SMILES IDX 40 54 62 55 47 56 61 57 48 58 51 59 60 60 74 61 49 62 50 63
REMARK SMILES IDX 59 65 75 66 52 67 41 68 42 69 46 70 43 71 45 72 44 73 63 74
REMARK SMILES IDX 64 75 68 76 65 77 67 78 66 79 53 80 54 81 58 82 55 83 57 84
REMARK SMILES IDX 56 85
REMARK H PARENT 73 53 51 64
REMARK Flexibility Score: inf
ROOT
ATOM      1  C   UNL     1       5.977  -4.358  -2.433  1.00  0.00     0.188 C 
ENDROOT
BRANCH   1   2
ATOM      2  O   UNL     1       6.608  -5.521  -1.911  1.00  0.00    -0.376 OA
BRANCH   2   3
ATOM      3  C   UNL     1       7.597  -5.381  -0.898  1.00  0.00     0.202 C 
BRANCH   3   4
ATOM      4  C   UNL     1       8.811  -4.478  -1.177  1.00  0.00     0.261 C 
BRANCH   4   5
ATOM      5  O   UNL     1       8.512  -3.120  -1.578  1.00  0.00    -0.463 OA
BRANCH   5   6
ATOM      6  C   UNL     1       8.958  -2.732  -2.800  1.00  0.00     0.313 C 
ATOM      7  O   UNL     1       9.627  -3.458  -3.534  1.00  0.00    -0.252 OA
BRANCH   6   8
ATOM      8  C   UNL     1       8.570  -1.318  -3.252  1.00  0.00     0.126 C 
ATOM      9  C   UNL     1       9.844  -0.511  -3.492  1.00  0.00     0.025 C 
BRANCH   8  10
ATOM     10  C   UNL     1       7.555  -0.487  -2.469  1.00  0.00    -0.031 A 
ATOM     11  C   UNL     1       5.566   1.049  -1.088  1.00  0.00     0.018 A 
ATOM     12  C   UNL     1       6.702   0.539  -0.428  1.00  0.00     0.012 A 
ATOM     13  C   UNL     1       5.453   0.776  -2.452  1.00  0.00     0.131 A 
ATOM     14  C   UNL     1       7.687  -0.203  -1.105  1.00  0.00     0.005 A 
ATOM     15  C   UNL     1       6.426   0.035  -3.135  1.00  0.00     0.044 A 
ATOM     16  F   UNL     1       4.406   1.238  -3.153  1.00  0.00    -0.206 F 
BRANCH  11  17
ATOM     17  C   UNL     1       4.601   1.897  -0.361  1.00  0.00    -0.008 A 
ATOM     18  C   UNL     1       2.375   2.432   0.468  1.00  0.00     0.123 A 
ATOM     19  C   UNL     1       2.875   3.554   1.129  1.00  0.00     0.092 A 
ATOM     20  C   UNL     1       3.228   1.613  -0.283  1.00  0.00     0.055 A 
ATOM     21  C   UNL     1       4.227   3.878   1.033  1.00  0.00     0.123 A 
ATOM     22  C   UNL     1       5.070   3.054   0.286  1.00  0.00     0.055 A 
BRANCH  18  23
ATOM     23  O   UNL     1       1.014   2.278   0.444  1.00  0.00    -0.494 OA
BRANCH  23  24
ATOM     24  C   UNL     1       0.525   1.144   1.166  1.00  0.00     0.226 C 
ATOM     25  C   UNL     1       0.468  -0.086   0.286  1.00  0.00     0.049 C 
ENDBRANCH  23  24
ENDBRANCH  18  23
BRANCH  21  26
ATOM     26  O   UNL     1       4.622   4.997   1.714  1.00  0.00    -0.494 OA
BRANCH  26  27
ATOM     27  C   UNL     1       5.881   5.577   1.362  1.00  0.00     0.226 C 
ATOM     28  C   UNL     1       7.021   4.974   2.170  1.00  0.00     0.049 C 
ENDBRANCH  26  27
ENDBRANCH  21  26
ENDBRANCH  11  17
ENDBRANCH   8  10
ENDBRANCH   6   8
ENDBRANCH   5   6
ENDBRANCH   4   5
ENDBRANCH   3   4
ENDBRANCH   2   3
ENDBRANCH   1   2
BRANCH   1  29
ATOM     29  C   UNL     1       5.668  -3.183  -1.494  1.00  0.00     0.188 C 
BRANCH  29  30
ATOM     30  O   UNL     1       5.865  -3.456  -0.125  1.00  0.00    -0.376 OA
BRANCH  30  31
ATOM     31  C   UNL     1       4.747  -3.314   0.725  1.00  0.00     0.202 C 
BRANCH  31  32
ATOM     32  C   UNL     1       3.565  -4.259   0.458  1.00  0.00     0.261 C 
BRANCH  32  33
ATOM     33  O   UNL     1       3.143  -4.395  -0.913  1.00  0.00    -0.460 OA
BRANCH  33  34
ATOM     34  C   UNL     1       2.493  -3.343  -1.450  1.00  0.00     0.338 C 
ATOM     35  O   UNL     1       2.236  -2.286  -0.891  1.00  0.00    -0.246 OA
BRANCH  34  36
ATOM     36  C   UNL     1       2.328  -3.547  -2.900  1.00  0.00     0.060 A 
ATOM     37  C   UNL     1       2.895  -2.619  -3.788  1.00  0.00     0.016 A 
ATOM     38  C   UNL     1       1.598  -4.633  -3.379  1.00  0.00     0.016 A 
ATOM     39  C   UNL     1       2.725  -2.773  -5.163  1.00  0.00     0.010 A 
ATOM     40  C   UNL     1       1.406  -4.771  -4.755  1.00  0.00     0.010 A 
ATOM     41  C   UNL     1       1.950  -3.831  -5.652  1.00  0.00    -0.014 A 
BRANCH  41  42
ATOM     42  C   UNL     1       1.559  -3.881  -7.080  1.00  0.00     0.031 A 
ATOM     43  C   UNL     1       0.190  -3.397  -7.467  1.00  0.00     0.074 A 
ATOM     44  C   UNL     1       2.394  -4.368  -8.014  1.00  0.00     0.049 A 
ATOM     45  N   UNL     1      -0.415  -3.456  -8.625  1.00  0.00    -0.248 NA
ATOM     46  C   UNL     1      -0.605  -2.769  -6.399  1.00  0.00     0.031 C 
ATOM     47  C   UNL     1       3.765  -4.816  -7.778  1.00  0.00     0.029 A 
ATOM     48  N   UNL     1       2.194  -4.581  -9.355  1.00  0.00    -0.354 N 
ATOM     49  C   UNL     1      -1.667  -2.889  -8.421  1.00  0.00     0.074 A 
ATOM     50  C   UNL     1      -1.744  -2.517  -7.025  1.00  0.00     0.031 C 
ATOM     51  C   UNL     1       4.279  -5.267  -8.935  1.00  0.00     0.029 A 
ATOM     52  C   UNL     1       3.259  -5.181  -9.979  1.00  0.00     0.049 A 
ATOM     53  H   UNL     1       1.366  -4.328  -9.824  1.00  0.00     0.167 HD
ATOM     54  C   UNL     1      -2.664  -2.696  -9.317  1.00  0.00     0.031 A 
ATOM     55  C   UNL     1       3.383  -5.639 -11.241  1.00  0.00     0.031 A 
ATOM     56  C   UNL     1      -2.593  -3.085 -10.700  1.00  0.00     0.049 A 
ATOM     57  C   UNL     1       2.224  -5.503 -12.194  1.00  0.00     0.074 A 
ATOM     58  C   UNL     1      -3.545  -2.924 -11.691  1.00  0.00     0.029 A 
ATOM     59  N   UNL     1      -1.510  -3.723 -11.285  1.00  0.00    -0.354 N 
ATOM     60  N   UNL     1       1.050  -4.952 -11.999  1.00  0.00    -0.248 NA
ATOM     61  C   UNL     1       2.411  -6.051 -13.546  1.00  0.00     0.031 C 
ATOM     62  C   UNL     1      -3.065  -3.524 -12.859  1.00  0.00     0.029 A 
ATOM     63  C   UNL     1      -1.783  -3.991 -12.616  1.00  0.00     0.049 A 
ATOM     64  H   UNL     1      -0.671  -3.951 -10.823  1.00  0.00     0.167 HD
ATOM     65  C   UNL     1       0.375  -5.055 -13.210  1.00  0.00     0.074 A 
ATOM     66  C   UNL     1       1.274  -5.710 -14.136  1.00  0.00     0.031 C 
ATOM     67  C   UNL     1      -0.877  -4.641 -13.528  1.00  0.00     0.031 A 
BRANCH  54  68
ATOM     68  C   UNL     1      -3.936  -2.074  -8.812  1.00  0.00    -0.014 A 
ATOM     69  C   UNL     1      -3.989  -0.727  -8.418  1.00  0.00     0.009 A 
ATOM     70  C   UNL     1      -5.109  -2.843  -8.752  1.00  0.00     0.009 A 
ATOM     71  C   UNL     1      -5.179  -0.176  -7.940  1.00  0.00     0.001 A 
ATOM     72  C   UNL     1      -6.305  -2.281  -8.305  1.00  0.00     0.001 A 
ATOM     73  C   UNL     1      -6.337  -0.951  -7.889  1.00  0.00     0.000 A 
ENDBRANCH  54  68
BRANCH  55  74
ATOM     74  C   UNL     1       4.644  -6.297 -11.677  1.00  0.00    -0.014 A 
ATOM     75  C   UNL     1       5.470  -5.693 -12.638  1.00  0.00     0.009 A 
ATOM     76  C   UNL     1       5.015  -7.548 -11.157  1.00  0.00     0.009 A 
ATOM     77  C   UNL     1       6.624  -6.339 -13.087  1.00  0.00     0.001 A 
ATOM     78  C   UNL     1       6.186  -8.176 -11.584  1.00  0.00     0.001 A 
ATOM     79  C   UNL     1       6.984  -7.576 -12.556  1.00  0.00     0.000 A 
ENDBRANCH  55  74
BRANCH  67  80
ATOM     80  C   UNL     1      -1.333  -4.834 -14.949  1.00  0.00    -0.014 A 
ATOM     81  C   UNL     1      -1.625  -6.107 -15.462  1.00  0.00     0.009 A 
ATOM     82  C   UNL     1      -1.521  -3.712 -15.773  1.00  0.00     0.009 A 
ATOM     83  C   UNL     1      -2.064  -6.255 -16.780  1.00  0.00     0.001 A 
ATOM     84  C   UNL     1      -1.992  -3.859 -17.079  1.00  0.00     0.001 A 
ATOM     85  C   UNL     1      -2.253  -5.131 -17.584  1.00  0.00     0.000 A 
ENDBRANCH  67  80
ENDBRANCH  41  42
ENDBRANCH  34  36
ENDBRANCH  33  34
ENDBRANCH  32  33
ENDBRANCH  31  32
ENDBRANCH  30  31
ENDBRANCH  29  30
ENDBRANCH   1  29
TORSDOF 23
