REMARK SMILES Cc1ccccc1C(=O)Nc1ccc(N2CCC(n3c(C)nc4cccnc43)CC2)c(C(=O)OCCOCCOCCOC(=O)c2ccc(-c3c4nc(c(-c5ccccc5)c5ccc([nH]5)c(-c5ccccc5)c5nc(c(-c6ccccc6)c6ccc3[nH]6)C=C5)C=C4)cc2)c1
REMARK SMILES IDX 38 1 37 2 36 3 35 4 34 5 32 6 33 7 31 8 11 9 12 10 94 11
REMARK SMILES IDX 13 12 14 13 10 14 8 15 9 16 7 18 1 19 2 20 3 21 4 22 6 23
REMARK SMILES IDX 5 24 15 25 16 26 30 27 17 28 29 29 18 30 19 31 20 32 28 33
REMARK SMILES IDX 21 34 22 35 23 36 27 37 24 38 26 39 25 40 39 41 40 42 41 43
REMARK SMILES IDX 42 44 43 45 44 46 45 47 46 48 47 49 93 50 48 51 92 52 49 53
REMARK SMILES IDX 50 54 51 55 86 56 52 57 91 58 85 59 87 60 53 61 90 62 84 63
REMARK SMILES IDX 83 64 54 66 76 67 61 68 75 69 62 70 65 71 74 72 88 73 63 74
REMARK SMILES IDX 64 75 73 77 89 78 66 79 55 80 56 81 60 82 57 83 59 84 58 85
REMARK SMILES IDX 77 86 78 87 82 88 79 89 81 90 80 91 67 92 68 93 72 94 69 95
REMARK SMILES IDX 71 96 70 97
REMARK H PARENT 10 17 87 65 65 76
REMARK Flexibility Score: inf
ROOT
ATOM      1  C   UNL     1      10.153   0.404   2.874  1.00  0.00     0.188 C 
ENDROOT
BRANCH   1   2
ATOM      2  O   UNL     1       9.663  -0.874   3.325  1.00  0.00    -0.376 OA
BRANCH   2   3
ATOM      3  C   UNL     1       9.360  -2.055   2.555  1.00  0.00     0.202 C 
BRANCH   3   4
ATOM      4  C   UNL     1       7.899  -2.630   1.856  1.00  0.00     0.261 C 
BRANCH   4   5
ATOM      5  O   UNL     1       6.762  -1.941   0.831  1.00  0.00    -0.460 OA
BRANCH   5   6
ATOM      6  C   UNL     1       5.618  -1.140   0.649  1.00  0.00     0.340 C 
ATOM      7  O   UNL     1       4.965  -0.532   1.495  1.00  0.00    -0.246 OA
BRANCH   6   8
ATOM      8  C   UNL     1       4.959  -0.857  -0.652  1.00  0.00     0.085 A 
ATOM      9  C   UNL     1       3.106   0.608  -1.401  1.00  0.00     0.042 A 
ATOM     10  C   UNL     1       2.777  -0.342  -2.347  1.00  0.00     0.028 A 
ATOM     11  C   UNL     1       4.271   0.407  -0.671  1.00  0.00     0.044 A 
ATOM     12  C   UNL     1       3.568  -1.514  -2.467  1.00  0.00     0.029 A 
ATOM     13  C   UNL     1       4.609  -1.848  -1.565  1.00  0.00     0.051 A 
BRANCH   9  14
ATOM     14  N   UNL     1       2.343   1.739  -1.057  1.00  0.00    -0.322 N 
ATOM     15  C   UNL     1       1.036   1.907  -0.631  1.00  0.00     0.255 C 
ATOM     16  O   UNL     1       0.679   3.057  -0.353  1.00  0.00    -0.269 OA
ATOM     17  H   UNL     1       2.840   2.585  -1.136  1.00  0.00     0.170 HD
BRANCH  15  18
ATOM     18  C   UNL     1       0.043   0.813  -0.423  1.00  0.00     0.043 A 
ATOM     19  C   UNL     1       1.532  -0.732   0.981  1.00  0.00     0.045 C 
ATOM     20  C   UNL     1       0.291  -0.420   0.200  1.00  0.00    -0.038 A 
ATOM     21  C   UNL     1      -0.727  -1.396   0.224  1.00  0.00     0.004 A 
ATOM     22  C   UNL     1      -2.024  -1.090  -0.179  1.00  0.00     0.000 A 
ATOM     23  C   UNL     1      -1.294   1.136  -0.737  1.00  0.00     0.014 A 
ATOM     24  C   UNL     1      -2.322   0.199  -0.599  1.00  0.00     0.001 A 
ENDBRANCH  15  18
ENDBRANCH   9  14
BRANCH  13  25
ATOM     25  N   UNL     1       5.073  -3.159  -1.537  1.00  0.00    -0.371 N 
ATOM     26  C   UNL     1       5.804  -3.677  -2.679  1.00  0.00     0.118 C 
ATOM     27  C   UNL     1       5.595  -3.683  -0.300  1.00  0.00     0.118 C 
ATOM     28  C   UNL     1       5.532  -5.180  -2.706  1.00  0.00     0.047 C 
ATOM     29  C   UNL     1       5.415  -5.123  -0.116  1.00  0.00     0.047 C 
ATOM     30  C   UNL     1       5.754  -5.889  -1.349  1.00  0.00     0.094 C 
BRANCH  30  31
ATOM     31  N   UNL     1       5.163  -7.216  -1.296  1.00  0.00    -0.310 N 
ATOM     32  C   UNL     1       3.966  -7.708  -0.784  1.00  0.00     0.108 A 
ATOM     33  C   UNL     1       5.867  -8.278  -1.795  1.00  0.00     0.160 A 
ATOM     34  C   UNL     1       2.893  -6.987  -0.030  1.00  0.00     0.088 C 
ATOM     35  N   UNL     1       3.865  -9.003  -1.038  1.00  0.00    -0.232 NA
ATOM     36  C   UNL     1       5.025  -9.362  -1.657  1.00  0.00     0.108 A 
ATOM     37  N   UNL     1       7.107  -8.244  -2.321  1.00  0.00    -0.237 NA
ATOM     38  C   UNL     1       5.472 -10.589  -2.138  1.00  0.00     0.034 A 
ATOM     39  C   UNL     1       7.510  -9.456  -2.751  1.00  0.00     0.113 A 
ATOM     40  C   UNL     1       6.753 -10.623  -2.695  1.00  0.00     0.022 A 
ENDBRANCH  30  31
ENDBRANCH  13  25
ENDBRANCH   6   8
ENDBRANCH   5   6
ENDBRANCH   4   5
ENDBRANCH   3   4
ENDBRANCH   2   3
ENDBRANCH   1   2
BRANCH   1  41
ATOM     41  C   UNL     1      11.056   0.622   1.664  1.00  0.00     0.188 C 
BRANCH  41  42
ATOM     42  O   UNL     1      10.881  -0.388   0.698  1.00  0.00    -0.376 OA
BRANCH  42  43
ATOM     43  C   UNL     1      11.730  -0.304  -0.432  1.00  0.00     0.202 C 
BRANCH  43  44
ATOM     44  C   UNL     1      11.565   0.975  -1.287  1.00  0.00     0.261 C 
BRANCH  44  45
ATOM     45  O   UNL     1      10.204   1.132  -1.773  1.00  0.00    -0.460 OA
BRANCH  45  46
ATOM     46  C   UNL     1       9.465   2.211  -1.318  1.00  0.00     0.338 C 
ATOM     47  O   UNL     1       9.819   3.364  -1.383  1.00  0.00    -0.246 OA
BRANCH  46  48
ATOM     48  C   UNL     1       8.287   1.720  -0.507  1.00  0.00     0.060 A 
ATOM     49  C   UNL     1       7.448   2.434   0.366  1.00  0.00     0.016 A 
ATOM     50  C   UNL     1       8.281   0.394  -0.314  1.00  0.00     0.016 A 
ATOM     51  C   UNL     1       6.802   1.793   1.534  1.00  0.00     0.010 A 
ATOM     52  C   UNL     1       7.997  -0.002   0.987  1.00  0.00     0.010 A 
ATOM     53  C   UNL     1       7.144   0.520   1.984  1.00  0.00    -0.014 A 
BRANCH  53  54
ATOM     54  C   UNL     1       6.650  -0.390   3.339  1.00  0.00     0.031 A 
ATOM     55  C   UNL     1       5.712  -1.784   3.501  1.00  0.00     0.074 A 
ATOM     56  C   UNL     1       7.341  -0.185   4.475  1.00  0.00     0.049 A 
ATOM     57  N   UNL     1       6.166  -2.962   3.890  1.00  0.00    -0.248 NA
ATOM     58  C   UNL     1       4.250  -1.949   3.214  1.00  0.00     0.031 C 
ATOM     59  C   UNL     1       7.409  -0.987   5.698  1.00  0.00     0.029 A 
ATOM     60  N   UNL     1       7.959   0.999   4.858  1.00  0.00    -0.354 N 
ATOM     61  C   UNL     1       5.234  -3.992   3.632  1.00  0.00     0.074 A 
ATOM     62  C   UNL     1       4.066  -3.278   3.128  1.00  0.00     0.031 C 
ATOM     63  C   UNL     1       7.558  -0.139   6.734  1.00  0.00     0.029 A 
ATOM     64  C   UNL     1       7.476   1.200   6.163  1.00  0.00     0.049 A 
ATOM     65  H   UNL     1       8.582   1.560   4.343  1.00  0.00     0.167 HD
ATOM     66  C   UNL     1       5.043  -5.026   4.516  1.00  0.00     0.031 A 
ATOM     67  C   UNL     1       6.423   2.063   6.283  1.00  0.00     0.031 A 
ATOM     68  C   UNL     1       5.039  -4.507   5.849  1.00  0.00     0.049 A 
ATOM     69  C   UNL     1       5.182   1.308   6.742  1.00  0.00     0.074 A 
ATOM     70  C   UNL     1       6.000  -4.334   6.816  1.00  0.00     0.029 A 
ATOM     71  N   UNL     1       3.980  -3.686   6.162  1.00  0.00    -0.354 N 
ATOM     72  N   UNL     1       4.932   0.040   6.503  1.00  0.00    -0.248 NA
ATOM     73  C   UNL     1       4.206   1.898   7.649  1.00  0.00     0.031 C 
ATOM     74  C   UNL     1       5.592  -3.187   7.568  1.00  0.00     0.029 A 
ATOM     75  C   UNL     1       4.369  -2.743   7.082  1.00  0.00     0.049 A 
ATOM     76  H   UNL     1       3.076  -3.763   5.782  1.00  0.00     0.167 HD
ATOM     77  C   UNL     1       3.881  -0.373   7.278  1.00  0.00     0.074 A 
ATOM     78  C   UNL     1       3.439   0.836   7.949  1.00  0.00     0.031 C 
ATOM     79  C   UNL     1       3.443  -1.664   7.391  1.00  0.00     0.031 A 
BRANCH  66  80
ATOM     80  C   UNL     1       4.800  -6.482   4.172  1.00  0.00    -0.014 A 
ATOM     81  C   UNL     1       4.320  -7.396   5.130  1.00  0.00     0.009 A 
ATOM     82  C   UNL     1       5.197  -7.050   2.952  1.00  0.00     0.009 A 
ATOM     83  C   UNL     1       4.252  -8.783   4.879  1.00  0.00     0.001 A 
ATOM     84  C   UNL     1       5.114  -8.430   2.680  1.00  0.00     0.001 A 
ATOM     85  C   UNL     1       4.650  -9.302   3.652  1.00  0.00     0.000 A 
ENDBRANCH  66  80
BRANCH  67  86
ATOM     86  C   UNL     1       6.548   3.245   5.335  1.00  0.00    -0.014 A 
ATOM     87  C   UNL     1       7.836   3.852   5.232  1.00  0.00     0.009 A 
ATOM     88  C   UNL     1       5.624   3.577   4.340  1.00  0.00     0.009 A 
ATOM     89  C   UNL     1       8.244   4.566   4.099  1.00  0.00     0.001 A 
ATOM     90  C   UNL     1       6.009   4.396   3.249  1.00  0.00     0.001 A 
ATOM     91  C   UNL     1       7.331   4.825   3.093  1.00  0.00     0.000 A 
ENDBRANCH  67  86
BRANCH  79  92
ATOM     92  C   UNL     1       2.017  -2.016   7.770  1.00  0.00    -0.014 A 
ATOM     93  C   UNL     1       0.963  -1.098   7.669  1.00  0.00     0.009 A 
ATOM     94  C   UNL     1       1.659  -3.358   8.036  1.00  0.00     0.009 A 
ATOM     95  C   UNL     1      -0.365  -1.478   7.883  1.00  0.00     0.001 A 
ATOM     96  C   UNL     1       0.326  -3.759   8.165  1.00  0.00     0.001 A 
ATOM     97  C   UNL     1      -0.686  -2.811   8.112  1.00  0.00     0.000 A 
ENDBRANCH  79  92
ENDBRANCH  53  54
ENDBRANCH  46  48
ENDBRANCH  45  46
ENDBRANCH  44  45
ENDBRANCH  43  44
ENDBRANCH  42  43
ENDBRANCH  41  42
ENDBRANCH   1  41
TORSDOF 21
