REMARK SMILES CSc1ccc(/C=C2\C(C)=C(CC(=O)OCCOCCOCCOC(=O)c3ccc(-c4c5nc(c(-c6ccccc6)c6ccc([nH]6)c(-c6ccccc6)c6nc(c(-c7ccccc7)c7ccc4[nH]7)C=C6)C=C5)cc3)c3cc(F)ccc32)cc1
REMARK SMILES IDX 19 1 18 2 17 3 16 4 15 5 13 6 14 7 12 8 11 9 7 10 8 11 9 12
REMARK SMILES IDX 81 13 10 14 75 15 80 16 76 17 79 18 77 19 78 20 6 21 3 22
REMARK SMILES IDX 4 23 83 24 5 25 82 26 2 27 1 28 20 29 21 30 22 31 23 32
REMARK SMILES IDX 24 33 25 34 26 35 27 36 28 37 74 38 29 39 73 40 30 41 31 42
REMARK SMILES IDX 32 43 67 44 33 45 72 46 66 47 68 48 34 49 71 50 65 51 64 52
REMARK SMILES IDX 35 54 57 55 42 56 56 57 43 58 46 59 55 60 69 61 44 62 45 63
REMARK SMILES IDX 54 65 70 66 47 67 36 68 37 69 41 70 38 71 40 72 39 73 58 74
REMARK SMILES IDX 59 75 63 76 60 77 62 78 61 79 48 80 49 81 53 82 50 83 52 84
REMARK SMILES IDX 51 85
REMARK H PARENT 68 53 46 64
REMARK Flexibility Score: inf
ROOT
ATOM      1  C   UNL     1      -0.345 -13.207   1.738  1.00  0.00     0.188 C 
ENDROOT
BRANCH   1   2
ATOM      2  O   UNL     1       0.791 -13.914   2.209  1.00  0.00    -0.376 OA
BRANCH   2   3
ATOM      3  C   UNL     1       2.017 -13.200   2.354  1.00  0.00     0.202 C 
BRANCH   3   4
ATOM      4  C   UNL     1       2.505 -12.440   1.119  1.00  0.00     0.261 C 
BRANCH   4   5
ATOM      5  O   UNL     1       1.775 -11.210   0.889  1.00  0.00    -0.463 OA
BRANCH   5   6
ATOM      6  C   UNL     1       1.319 -11.032  -0.375  1.00  0.00     0.310 C 
ATOM      7  O   UNL     1       1.484 -11.841  -1.286  1.00  0.00    -0.252 OA
BRANCH   6   8
ATOM      8  C   UNL     1       0.600  -9.715  -0.640  1.00  0.00     0.159 C 
BRANCH   8   9
ATOM      9  C   UNL     1       0.042  -8.822   0.485  1.00  0.00    -0.025 C 
ATOM     10  C   UNL     1       0.262  -5.773  -1.264  1.00  0.00     0.017 C 
ATOM     11  C   UNL     1      -0.122  -6.816  -0.518  1.00  0.00    -0.014 C 
ATOM     12  C   UNL     1       0.523  -7.550   0.609  1.00  0.00    -0.039 C 
ATOM     13  C   UNL     1      -1.485  -7.383  -0.623  1.00  0.00    -0.010 A 
ATOM     14  C   UNL     1       0.338  -6.887   1.979  1.00  0.00     0.045 C 
ATOM     15  C   UNL     1      -1.406  -8.486   0.240  1.00  0.00    -0.011 A 
ATOM     16  C   UNL     1      -2.680  -6.709  -0.873  1.00  0.00     0.012 A 
ATOM     17  C   UNL     1      -2.487  -8.746   1.060  1.00  0.00     0.048 A 
ATOM     18  C   UNL     1      -3.809  -7.095  -0.151  1.00  0.00     0.040 A 
ATOM     19  C   UNL     1      -3.690  -8.074   0.836  1.00  0.00     0.123 A 
ATOM     20  F   UNL     1      -4.732  -8.309   1.646  1.00  0.00    -0.207 F 
BRANCH  10  21
ATOM     21  C   UNL     1       1.268  -4.732  -0.982  1.00  0.00    -0.025 A 
ATOM     22  C   UNL     1       1.793  -2.174   0.030  1.00  0.00     0.007 A 
ATOM     23  C   UNL     1       2.036  -3.308   0.806  1.00  0.00     0.015 A 
ATOM     24  C   UNL     1       1.513  -2.349  -1.327  1.00  0.00     0.015 A 
ATOM     25  C   UNL     1       1.840  -4.581   0.277  1.00  0.00     0.009 A 
ATOM     26  C   UNL     1       1.254  -3.624  -1.834  1.00  0.00     0.009 A 
BRANCH  22  27
ATOM     27  S   UNL     1       1.763  -0.614   0.897  1.00  0.00    -0.130 SA
ATOM     28  C   UNL     1       1.355   0.571  -0.406  1.00  0.00     0.091 C 
ENDBRANCH  22  27
ENDBRANCH  10  21
ENDBRANCH   8   9
ENDBRANCH   6   8
ENDBRANCH   5   6
ENDBRANCH   4   5
ENDBRANCH   3   4
ENDBRANCH   2   3
ENDBRANCH   1   2
BRANCH   1  29
ATOM     29  C   UNL     1      -0.696 -11.872   2.400  1.00  0.00     0.188 C 
BRANCH  29  30
ATOM     30  O   UNL     1       0.000 -11.624   3.608  1.00  0.00    -0.376 OA
BRANCH  30  31
ATOM     31  C   UNL     1      -0.681 -10.768   4.519  1.00  0.00     0.202 C 
BRANCH  31  32
ATOM     32  C   UNL     1      -1.621 -11.603   5.398  1.00  0.00     0.261 C 
BRANCH  32  33
ATOM     33  O   UNL     1      -2.752 -12.132   4.674  1.00  0.00    -0.460 OA
BRANCH  33  34
ATOM     34  C   UNL     1      -3.646 -11.205   4.260  1.00  0.00     0.338 C 
ATOM     35  O   UNL     1      -3.633 -10.013   4.505  1.00  0.00    -0.246 OA
BRANCH  34  36
ATOM     36  C   UNL     1      -4.544 -11.822   3.267  1.00  0.00     0.060 A 
ATOM     37  C   UNL     1      -4.358 -11.508   1.919  1.00  0.00     0.016 A 
ATOM     38  C   UNL     1      -5.604 -12.631   3.652  1.00  0.00     0.016 A 
ATOM     39  C   UNL     1      -5.262 -11.910   0.951  1.00  0.00     0.010 A 
ATOM     40  C   UNL     1      -6.499 -13.077   2.674  1.00  0.00     0.010 A 
ATOM     41  C   UNL     1      -6.349 -12.690   1.327  1.00  0.00    -0.014 A 
BRANCH  41  42
ATOM     42  C   UNL     1      -7.396 -13.005   0.334  1.00  0.00     0.031 A 
ATOM     43  C   UNL     1      -8.741 -12.364   0.482  1.00  0.00     0.074 A 
ATOM     44  C   UNL     1      -7.143 -13.822  -0.704  1.00  0.00     0.049 A 
ATOM     45  N   UNL     1      -9.870 -12.667  -0.101  1.00  0.00    -0.248 NA
ATOM     46  C   UNL     1      -8.823 -11.228   1.416  1.00  0.00     0.031 C 
ATOM     47  C   UNL     1      -5.840 -14.393  -1.046  1.00  0.00     0.029 A 
ATOM     48  N   UNL     1      -7.990 -14.318  -1.660  1.00  0.00    -0.354 N 
ATOM     49  C   UNL     1     -10.809 -11.797   0.437  1.00  0.00     0.074 A 
ATOM     50  C   UNL     1     -10.117 -10.951   1.385  1.00  0.00     0.031 C 
ATOM     51  C   UNL     1      -5.978 -15.171  -2.132  1.00  0.00     0.029 A 
ATOM     52  C   UNL     1      -7.388 -15.215  -2.506  1.00  0.00     0.049 A 
ATOM     53  H   UNL     1      -8.937 -14.056  -1.733  1.00  0.00     0.167 HD
ATOM     54  C   UNL     1     -12.133 -11.727   0.169  1.00  0.00     0.031 A 
ATOM     55  C   UNL     1      -7.926 -16.028  -3.433  1.00  0.00     0.031 A 
ATOM     56  C   UNL     1     -12.803 -12.569  -0.784  1.00  0.00     0.049 A 
ATOM     57  C   UNL     1      -9.418 -16.028  -3.622  1.00  0.00     0.074 A 
ATOM     58  C   UNL     1     -14.146 -12.605  -1.114  1.00  0.00     0.029 A 
ATOM     59  N   UNL     1     -12.170 -13.521  -1.569  1.00  0.00    -0.354 N 
ATOM     60  N   UNL     1     -10.325 -15.277  -3.046  1.00  0.00    -0.248 NA
ATOM     61  C   UNL     1      -9.960 -17.007  -4.574  1.00  0.00     0.031 C 
ATOM     62  C   UNL     1     -14.331 -13.611  -2.069  1.00  0.00     0.029 A 
ATOM     63  C   UNL     1     -13.096 -14.164  -2.371  1.00  0.00     0.049 A 
ATOM     64  H   UNL     1     -11.204 -13.711  -1.558  1.00  0.00     0.167 HD
ATOM     65  C   UNL     1     -11.542 -15.674  -3.583  1.00  0.00     0.074 A 
ATOM     66  C   UNL     1     -11.255 -16.727  -4.536  1.00  0.00     0.031 C 
ATOM     67  C   UNL     1     -12.786 -15.206  -3.314  1.00  0.00     0.031 A 
BRANCH  54  68
ATOM     68  C   UNL     1     -12.942 -10.753   0.975  1.00  0.00    -0.014 A 
ATOM     69  C   UNL     1     -12.855  -9.369   0.763  1.00  0.00     0.009 A 
ATOM     70  C   UNL     1     -13.804 -11.237   1.972  1.00  0.00     0.009 A 
ATOM     71  C   UNL     1     -13.589  -8.487   1.560  1.00  0.00     0.001 A 
ATOM     72  C   UNL     1     -14.556 -10.355   2.748  1.00  0.00     0.001 A 
ATOM     73  C   UNL     1     -14.441  -8.980   2.549  1.00  0.00     0.000 A 
ENDBRANCH  54  68
BRANCH  55  74
ATOM     74  C   UNL     1      -7.060 -16.958  -4.200  1.00  0.00    -0.014 A 
ATOM     75  C   UNL     1      -6.844 -16.758  -5.571  1.00  0.00     0.009 A 
ATOM     76  C   UNL     1      -6.448 -18.052  -3.567  1.00  0.00     0.009 A 
ATOM     77  C   UNL     1      -6.044 -17.644  -6.296  1.00  0.00     0.001 A 
ATOM     78  C   UNL     1      -5.627 -18.920  -4.289  1.00  0.00     0.001 A 
ATOM     79  C   UNL     1      -5.432 -18.720  -5.654  1.00  0.00     0.000 A 
ENDBRANCH  55  74
BRANCH  67  80
ATOM     80  C   UNL     1     -13.921 -15.797  -4.098  1.00  0.00    -0.014 A 
ATOM     81  C   UNL     1     -14.411 -17.082  -3.818  1.00  0.00     0.009 A 
ATOM     82  C   UNL     1     -14.534 -15.036  -5.106  1.00  0.00     0.009 A 
ATOM     83  C   UNL     1     -15.478 -17.602  -4.553  1.00  0.00     0.001 A 
ATOM     84  C   UNL     1     -15.616 -15.549  -5.821  1.00  0.00     0.001 A 
ATOM     85  C   UNL     1     -16.082 -16.835  -5.549  1.00  0.00     0.000 A 
ENDBRANCH  67  80
ENDBRANCH  41  42
ENDBRANCH  34  36
ENDBRANCH  33  34
ENDBRANCH  32  33
ENDBRANCH  31  32
ENDBRANCH  30  31
ENDBRANCH  29  30
ENDBRANCH   1  29
TORSDOF 20
