REMARK SMILES CC(C)(C)c1cc(Nc2ccccc2C(=O)OCCOCCOCCOC(=O)c2ccc(-c3c4nc(c(-c5ccccc5)c5ccc([nH]5)c(-c5ccccc5)c5nc(c(-c6ccccc6)c6ccc3[nH]6)C=C5)C=C4)cc2)cc2c1OCC2(C)C
REMARK SMILES IDX 21 1 20 2 19 3 18 4 17 5 15 6 16 7 14 8 9 9 10 10 11 11
REMARK SMILES IDX 13 12 12 13 8 14 7 16 5 17 6 18 79 19 78 20 80 21 77 22
REMARK SMILES IDX 82 23 81 24 83 25 84 26 2 27 1 28 3 29 4 30 22 31 23 32
REMARK SMILES IDX 24 33 25 34 26 35 27 36 28 37 29 38 30 39 76 40 31 41 75 42
REMARK SMILES IDX 32 43 33 44 34 45 69 46 35 47 74 48 68 49 70 50 36 51 73 52
REMARK SMILES IDX 67 53 66 54 37 56 59 57 44 58 58 59 45 60 48 61 57 62 71 63
REMARK SMILES IDX 46 64 47 65 56 67 72 68 49 69 38 70 39 71 43 72 40 73 42 74
REMARK SMILES IDX 41 75 60 76 61 77 65 78 62 79 64 80 63 81 50 82 51 83 55 84
REMARK SMILES IDX 52 85 54 86 53 87
REMARK H PARENT 8 15 70 55 48 66
REMARK Flexibility Score: inf
ROOT
ATOM      1  C   UNL     1       2.905   7.255   1.302  1.00  0.00     0.188 C 
ENDROOT
BRANCH   1   2
ATOM      2  O   UNL     1       2.638   7.041   2.680  1.00  0.00    -0.376 OA
BRANCH   2   3
ATOM      3  C   UNL     1       1.576   6.180   3.070  1.00  0.00     0.202 C 
BRANCH   3   4
ATOM      4  C   UNL     1       0.175   6.354   2.466  1.00  0.00     0.261 C 
BRANCH   4   5
ATOM      5  O   UNL     1       0.142   6.375   1.030  1.00  0.00    -0.460 OA
BRANCH   5   6
ATOM      6  C   UNL     1      -0.276   7.540   0.475  1.00  0.00     0.340 C 
ATOM      7  O   UNL     1      -0.711   8.507   1.083  1.00  0.00    -0.246 OA
BRANCH   6   8
ATOM      8  C   UNL     1       0.013   7.602  -0.981  1.00  0.00     0.083 A 
ATOM      9  C   UNL     1      -0.096   6.524  -1.878  1.00  0.00     0.053 A 
ATOM     10  C   UNL     1       0.084   6.804  -3.249  1.00  0.00     0.027 A 
ATOM     11  C   UNL     1       0.537   8.046  -3.697  1.00  0.00     0.002 A 
ATOM     12  C   UNL     1       0.471   8.855  -1.441  1.00  0.00     0.018 A 
ATOM     13  C   UNL     1       0.773   9.062  -2.785  1.00  0.00     0.001 A 
BRANCH   9  14
ATOM     14  N   UNL     1      -0.192   5.176  -1.452  1.00  0.00    -0.355 N 
ATOM     15  H   UNL     1      -0.858   4.991  -0.751  1.00  0.00     0.167 HD
BRANCH  14  16
ATOM     16  C   UNL     1       0.552   4.059  -1.913  1.00  0.00     0.039 A 
ATOM     17  C   UNL     1       0.827   1.583  -2.031  1.00  0.00     0.002 A 
ATOM     18  C   UNL     1       0.181   2.752  -1.533  1.00  0.00     0.034 A 
ATOM     19  C   UNL     1       1.863   1.806  -2.939  1.00  0.00     0.127 A 
ATOM     20  C   UNL     1       2.251   3.082  -3.312  1.00  0.00     0.006 A 
ATOM     21  O   UNL     1       2.597   0.839  -3.572  1.00  0.00    -0.492 OA
ATOM     22  C   UNL     1       1.624   4.200  -2.797  1.00  0.00     0.034 A 
ATOM     23  C   UNL     1       3.336   3.044  -4.333  1.00  0.00     0.028 C 
ATOM     24  C   UNL     1       3.590   1.527  -4.367  1.00  0.00     0.240 C 
ATOM     25  C   UNL     1       2.828   3.567  -5.684  1.00  0.00     0.020 C 
ATOM     26  C   UNL     1       4.583   3.821  -3.901  1.00  0.00     0.020 C 
BRANCH  17  27
ATOM     27  C   UNL     1       0.392   0.191  -1.535  1.00  0.00    -0.009 C 
ATOM     28  C   UNL     1       0.933  -0.002  -0.102  1.00  0.00     0.016 C 
ATOM     29  C   UNL     1       0.900  -0.996  -2.385  1.00  0.00     0.016 C 
ATOM     30  C   UNL     1      -1.150   0.067  -1.509  1.00  0.00     0.016 C 
ENDBRANCH  17  27
ENDBRANCH  14  16
ENDBRANCH   9  14
ENDBRANCH   6   8
ENDBRANCH   5   6
ENDBRANCH   4   5
ENDBRANCH   3   4
ENDBRANCH   2   3
ENDBRANCH   1   2
BRANCH   1  31
ATOM     31  C   UNL     1       3.034   6.062   0.332  1.00  0.00     0.188 C 
BRANCH  31  32
ATOM     32  O   UNL     1       2.754   4.796   0.870  1.00  0.00    -0.376 OA
BRANCH  32  33
ATOM     33  C   UNL     1       3.780   3.993   1.421  1.00  0.00     0.202 C 
BRANCH  33  34
ATOM     34  C   UNL     1       5.230   4.436   1.705  1.00  0.00     0.261 C 
BRANCH  34  35
ATOM     35  O   UNL     1       5.568   5.812   1.536  1.00  0.00    -0.460 OA
BRANCH  35  36
ATOM     36  C   UNL     1       6.277   6.117   0.421  1.00  0.00     0.338 C 
ATOM     37  O   UNL     1       6.601   5.369  -0.485  1.00  0.00    -0.246 OA
BRANCH  36  38
ATOM     38  C   UNL     1       6.447   7.581   0.382  1.00  0.00     0.060 A 
ATOM     39  C   UNL     1       7.150   8.232   1.396  1.00  0.00     0.016 A 
ATOM     40  C   UNL     1       5.872   8.307  -0.670  1.00  0.00     0.016 A 
ATOM     41  C   UNL     1       7.287   9.620   1.350  1.00  0.00     0.010 A 
ATOM     42  C   UNL     1       6.002   9.697  -0.707  1.00  0.00     0.010 A 
ATOM     43  C   UNL     1       6.724  10.361   0.295  1.00  0.00    -0.014 A 
BRANCH  43  44
ATOM     44  C   UNL     1       7.040  11.804   0.169  1.00  0.00     0.031 A 
ATOM     45  C   UNL     1       6.069  12.872   0.569  1.00  0.00     0.074 A 
ATOM     46  C   UNL     1       8.254  12.141  -0.308  1.00  0.00     0.049 A 
ATOM     47  N   UNL     1       6.262  14.165   0.634  1.00  0.00    -0.248 NA
ATOM     48  C   UNL     1       4.713  12.443   0.939  1.00  0.00     0.031 C 
ATOM     49  C   UNL     1       9.271  11.185  -0.748  1.00  0.00     0.029 A 
ATOM     50  N   UNL     1       8.846  13.366  -0.481  1.00  0.00    -0.354 N 
ATOM     51  C   UNL     1       5.063  14.707   1.077  1.00  0.00     0.074 A 
ATOM     52  C   UNL     1       4.132  13.605   1.215  1.00  0.00     0.031 C 
ATOM     53  C   UNL     1      10.376  11.856  -1.101  1.00  0.00     0.029 A 
ATOM     54  C   UNL     1      10.137  13.288  -0.942  1.00  0.00     0.049 A 
ATOM     55  H   UNL     1       8.390  14.218  -0.293  1.00  0.00     0.167 HD
ATOM     56  C   UNL     1       4.779  16.002   1.359  1.00  0.00     0.031 A 
ATOM     57  C   UNL     1      11.040  14.255  -1.197  1.00  0.00     0.031 A 
ATOM     58  C   UNL     1       5.708  17.093   1.194  1.00  0.00     0.049 A 
ATOM     59  C   UNL     1      10.681  15.688  -0.923  1.00  0.00     0.074 A 
ATOM     60  C   UNL     1       5.519  18.431   1.498  1.00  0.00     0.029 A 
ATOM     61  N   UNL     1       6.986  16.982   0.669  1.00  0.00    -0.354 N 
ATOM     62  N   UNL     1       9.574  16.176  -0.419  1.00  0.00    -0.248 NA
ATOM     63  C   UNL     1      11.698  16.701  -1.235  1.00  0.00     0.031 C 
ATOM     64  C   UNL     1       6.648  19.140   1.083  1.00  0.00     0.029 A 
ATOM     65  C   UNL     1       7.579  18.234   0.600  1.00  0.00     0.049 A 
ATOM     66  H   UNL     1       7.411  16.140   0.387  1.00  0.00     0.167 HD
ATOM     67  C   UNL     1       9.767  17.549  -0.335  1.00  0.00     0.074 A 
ATOM     68  C   UNL     1      11.106  17.813  -0.819  1.00  0.00     0.031 C 
ATOM     69  C   UNL     1       8.908  18.499   0.106  1.00  0.00     0.031 A 
BRANCH  56  70
ATOM     70  C   UNL     1       3.409  16.334   1.889  1.00  0.00    -0.014 A 
ATOM     71  C   UNL     1       2.543  17.147   1.139  1.00  0.00     0.009 A 
ATOM     72  C   UNL     1       3.028  15.957   3.187  1.00  0.00     0.009 A 
ATOM     73  C   UNL     1       1.337  17.593   1.684  1.00  0.00     0.001 A 
ATOM     74  C   UNL     1       1.806  16.379   3.717  1.00  0.00     0.001 A 
ATOM     75  C   UNL     1       0.968  17.206   2.971  1.00  0.00     0.000 A 
ENDBRANCH  56  70
BRANCH  57  76
ATOM     76  C   UNL     1      12.386  13.872  -1.696  1.00  0.00    -0.014 A 
ATOM     77  C   UNL     1      12.539  13.302  -2.971  1.00  0.00     0.009 A 
ATOM     78  C   UNL     1      13.516  14.009  -0.877  1.00  0.00     0.009 A 
ATOM     79  C   UNL     1      13.786  12.847  -3.402  1.00  0.00     0.001 A 
ATOM     80  C   UNL     1      14.770  13.585  -1.324  1.00  0.00     0.001 A 
ATOM     81  C   UNL     1      14.902  12.993  -2.579  1.00  0.00     0.000 A 
ENDBRANCH  57  76
BRANCH  69  82
ATOM     82  C   UNL     1       9.369  19.933   0.091  1.00  0.00    -0.014 A 
ATOM     83  C   UNL     1       9.536  20.627   1.301  1.00  0.00     0.009 A 
ATOM     84  C   UNL     1       9.532  20.630  -1.116  1.00  0.00     0.009 A 
ATOM     85  C   UNL     1       9.833  21.991   1.304  1.00  0.00     0.001 A 
ATOM     86  C   UNL     1       9.863  21.988  -1.111  1.00  0.00     0.001 A 
ATOM     87  C   UNL     1      10.000  22.669   0.098  1.00  0.00     0.000 A 
ENDBRANCH  69  82
ENDBRANCH  43  44
ENDBRANCH  36  38
ENDBRANCH  35  36
ENDBRANCH  34  35
ENDBRANCH  33  34
ENDBRANCH  32  33
ENDBRANCH  31  32
ENDBRANCH   1  31
TORSDOF 20
