REMARK SMILES Cc1ccc(-c2c(C(=O)OCCOCCOCCOC(=O)c3ccc(-c4c5nc(c(-c6ccccc6)c6ccc([nH]6)c(-c6ccccc6)c6nc(c(-c7ccccc7)c7ccc4[nH]7)C=C6)C=C5)cc3)nnn2Cc2c(F)cccc2Cl)cc1
REMARK SMILES IDX 14 1 13 2 12 3 11 4 10 5 8 6 9 7 7 8 6 9 72 10 70 11 71 12
REMARK SMILES IDX 5 13 1 14 2 15 3 16 83 17 4 18 82 19 73 20 74 21 75 22 80 23
REMARK SMILES IDX 76 24 77 25 79 26 81 27 78 28 15 29 16 30 17 31 18 32 19 33
REMARK SMILES IDX 20 34 21 35 22 36 23 37 69 38 24 39 68 40 25 41 26 42 27 43
REMARK SMILES IDX 62 44 28 45 67 46 61 47 63 48 29 49 66 50 60 51 59 52 30 54
REMARK SMILES IDX 52 55 37 56 51 57 38 58 41 59 50 60 64 61 39 62 40 63 49 65
REMARK SMILES IDX 65 66 42 67 31 68 32 69 36 70 33 71 35 72 34 73 53 74 54 75
REMARK SMILES IDX 58 76 55 77 57 78 56 79 43 80 44 81 48 82 45 83 47 84 46 85
REMARK H PARENT 63 53 41 64
REMARK Flexibility Score: inf
ROOT
ATOM      1  C   UNL     1      -2.739  -1.069   6.487  1.00  0.00     0.188 C 
ENDROOT
BRANCH   1   2
ATOM      2  O   UNL     1      -1.822  -1.389   5.443  1.00  0.00    -0.376 OA
BRANCH   2   3
ATOM      3  C   UNL     1      -0.643  -0.647   5.138  1.00  0.00     0.202 C 
BRANCH   3   4
ATOM      4  C   UNL     1      -0.360  -0.510   3.592  1.00  0.00     0.261 C 
BRANCH   4   5
ATOM      5  O   UNL     1      -1.126   0.499   2.820  1.00  0.00    -0.458 OA
BRANCH   5   6
ATOM      6  C   UNL     1      -1.629   0.065   1.620  1.00  0.00     0.361 C 
ATOM      7  O   UNL     1      -1.402  -1.105   1.203  1.00  0.00    -0.244 OA
BRANCH   6   8
ATOM      8  C   UNL     1      -2.396   0.939   0.731  1.00  0.00     0.198 A 
ATOM      9  C   UNL     1      -1.939   1.296  -0.540  1.00  0.00     0.104 A 
ATOM     10  N   UNL     1      -3.069   1.517  -1.272  1.00  0.00    -0.239 N 
ATOM     11  N   UNL     1      -3.769   1.127   0.743  1.00  0.00    -0.122 NA
ATOM     12  N   UNL     1      -4.151   1.547  -0.461  1.00  0.00    -0.066 NA
BRANCH   9  13
ATOM     13  C   UNL     1      -0.559   1.231  -0.970  1.00  0.00     0.002 A 
ATOM     14  C   UNL     1       3.586   1.060   0.003  1.00  0.00     0.044 C 
ATOM     15  C   UNL     1       2.170   1.132  -0.477  1.00  0.00    -0.051 A 
ATOM     16  C   UNL     1       1.444  -0.051  -0.617  1.00  0.00     0.004 A 
ATOM     17  C   UNL     1       1.547   2.361  -0.726  1.00  0.00     0.004 A 
ATOM     18  C   UNL     1       0.093  -0.004  -0.923  1.00  0.00     0.011 A 
ATOM     19  C   UNL     1       0.176   2.414  -0.962  1.00  0.00     0.011 A 
ENDBRANCH   9  13
BRANCH  10  20
ATOM     20  C   UNL     1      -3.232   1.648  -2.717  1.00  0.00     0.187 C 
BRANCH  20  21
ATOM     21  C   UNL     1      -2.512   0.590  -3.526  1.00  0.00     0.028 A 
ATOM     22  C   UNL     1      -1.567   0.995  -4.478  1.00  0.00     0.129 A 
ATOM     23  C   UNL     1      -2.743  -0.789  -3.402  1.00  0.00     0.049 A 
ATOM     24  F   UNL     1      -1.348   2.302  -4.682  1.00  0.00    -0.207 F 
ATOM     25  C   UNL     1      -0.839   0.082  -5.241  1.00  0.00     0.040 A 
ATOM     26  C   UNL     1      -2.002  -1.715  -4.151  1.00  0.00     0.021 A 
ATOM     27  Cl  UNL     1      -3.963  -1.423  -2.361  1.00  0.00    -0.084 Cl
ATOM     28  C   UNL     1      -1.045  -1.282  -5.066  1.00  0.00     0.005 A 
ENDBRANCH  20  21
ENDBRANCH  10  20
ENDBRANCH   6   8
ENDBRANCH   5   6
ENDBRANCH   4   5
ENDBRANCH   3   4
ENDBRANCH   2   3
ENDBRANCH   1   2
BRANCH   1  29
ATOM     29  C   UNL     1      -2.887   0.325   7.126  1.00  0.00     0.188 C 
BRANCH  29  30
ATOM     30  O   UNL     1      -2.366   1.363   6.324  1.00  0.00    -0.376 OA
BRANCH  30  31
ATOM     31  C   UNL     1      -2.546   2.683   6.830  1.00  0.00     0.202 C 
BRANCH  31  32
ATOM     32  C   UNL     1      -3.941   3.263   6.534  1.00  0.00     0.261 C 
BRANCH  32  33
ATOM     33  O   UNL     1      -4.260   3.088   5.133  1.00  0.00    -0.460 OA
BRANCH  33  34
ATOM     34  C   UNL     1      -5.432   2.489   4.846  1.00  0.00     0.338 C 
ATOM     35  O   UNL     1      -6.535   2.806   5.364  1.00  0.00    -0.246 OA
BRANCH  34  36
ATOM     36  C   UNL     1      -5.234   1.266   4.029  1.00  0.00     0.060 A 
ATOM     37  C   UNL     1      -6.247   0.381   3.622  1.00  0.00     0.016 A 
ATOM     38  C   UNL     1      -3.937   0.840   3.849  1.00  0.00     0.016 A 
ATOM     39  C   UNL     1      -5.939  -0.947   3.181  1.00  0.00     0.010 A 
ATOM     40  C   UNL     1      -3.699  -0.481   3.508  1.00  0.00     0.010 A 
ATOM     41  C   UNL     1      -4.640  -1.431   3.205  1.00  0.00    -0.014 A 
BRANCH  41  42
ATOM     42  C   UNL     1      -4.044  -2.804   3.213  1.00  0.00     0.031 A 
ATOM     43  C   UNL     1      -3.009  -3.261   2.230  1.00  0.00     0.074 A 
ATOM     44  C   UNL     1      -4.134  -3.543   4.340  1.00  0.00     0.049 A 
ATOM     45  N   UNL     1      -1.800  -3.669   2.500  1.00  0.00    -0.248 NA
ATOM     46  C   UNL     1      -3.353  -3.321   0.811  1.00  0.00     0.031 C 
ATOM     47  C   UNL     1      -3.422  -4.777   4.678  1.00  0.00     0.029 A 
ATOM     48  N   UNL     1      -5.175  -3.499   5.267  1.00  0.00    -0.354 N 
ATOM     49  C   UNL     1      -1.188  -4.039   1.308  1.00  0.00     0.074 A 
ATOM     50  C   UNL     1      -2.213  -3.781   0.285  1.00  0.00     0.031 C 
ATOM     51  C   UNL     1      -4.261  -5.553   5.386  1.00  0.00     0.029 A 
ATOM     52  C   UNL     1      -5.538  -4.854   5.420  1.00  0.00     0.049 A 
ATOM     53  H   UNL     1      -5.565  -2.711   5.710  1.00  0.00     0.167 HD
ATOM     54  C   UNL     1      -0.475  -5.201   1.217  1.00  0.00     0.031 A 
ATOM     55  C   UNL     1      -6.689  -5.276   4.818  1.00  0.00     0.031 A 
ATOM     56  C   UNL     1      -1.162  -6.343   1.757  1.00  0.00     0.049 A 
ATOM     57  C   UNL     1      -6.446  -6.304   3.731  1.00  0.00     0.074 A 
ATOM     58  C   UNL     1      -1.038  -7.128   2.884  1.00  0.00     0.029 A 
ATOM     59  N   UNL     1      -2.329  -6.725   1.127  1.00  0.00    -0.354 N 
ATOM     60  N   UNL     1      -5.295  -6.519   3.148  1.00  0.00    -0.248 NA
ATOM     61  C   UNL     1      -7.493  -7.181   3.220  1.00  0.00     0.031 C 
ATOM     62  C   UNL     1      -2.245  -7.877   3.007  1.00  0.00     0.029 A 
ATOM     63  C   UNL     1      -3.056  -7.570   1.926  1.00  0.00     0.049 A 
ATOM     64  H   UNL     1      -2.603  -6.432   0.228  1.00  0.00     0.167 HD
ATOM     65  C   UNL     1      -5.423  -7.534   2.236  1.00  0.00     0.074 A 
ATOM     66  C   UNL     1      -6.819  -7.914   2.317  1.00  0.00     0.031 C 
ATOM     67  C   UNL     1      -4.376  -7.983   1.484  1.00  0.00     0.031 A 
BRANCH  54  68
ATOM     68  C   UNL     1       0.952  -5.159   0.744  1.00  0.00    -0.014 A 
ATOM     69  C   UNL     1       1.803  -6.270   0.888  1.00  0.00     0.009 A 
ATOM     70  C   UNL     1       1.506  -4.014   0.140  1.00  0.00     0.009 A 
ATOM     71  C   UNL     1       3.141  -6.235   0.461  1.00  0.00     0.001 A 
ATOM     72  C   UNL     1       2.841  -3.978  -0.293  1.00  0.00     0.001 A 
ATOM     73  C   UNL     1       3.660  -5.089  -0.130  1.00  0.00     0.000 A 
ENDBRANCH  54  68
BRANCH  55  74
ATOM     74  C   UNL     1      -7.777  -4.238   4.844  1.00  0.00    -0.014 A 
ATOM     75  C   UNL     1      -8.068  -3.629   6.091  1.00  0.00     0.009 A 
ATOM     76  C   UNL     1      -8.280  -3.623   3.692  1.00  0.00     0.009 A 
ATOM     77  C   UNL     1      -8.698  -2.383   6.173  1.00  0.00     0.001 A 
ATOM     78  C   UNL     1      -8.968  -2.396   3.784  1.00  0.00     0.001 A 
ATOM     79  C   UNL     1      -9.131  -1.756   5.014  1.00  0.00     0.000 A 
ENDBRANCH  55  74
BRANCH  67  80
ATOM     80  C   UNL     1      -4.485  -8.854   0.252  1.00  0.00    -0.014 A 
ATOM     81  C   UNL     1      -5.655  -8.986  -0.506  1.00  0.00     0.009 A 
ATOM     82  C   UNL     1      -3.320  -9.456  -0.279  1.00  0.00     0.009 A 
ATOM     83  C   UNL     1      -5.681  -9.735  -1.690  1.00  0.00     0.001 A 
ATOM     84  C   UNL     1      -3.329 -10.159  -1.488  1.00  0.00     0.001 A 
ATOM     85  C   UNL     1      -4.518 -10.314  -2.185  1.00  0.00     0.000 A 
ENDBRANCH  67  80
ENDBRANCH  41  42
ENDBRANCH  34  36
ENDBRANCH  33  34
ENDBRANCH  32  33
ENDBRANCH  31  32
ENDBRANCH  30  31
ENDBRANCH  29  30
ENDBRANCH   1  29
TORSDOF 20
