REMARK SMILES COC(=O)c1sc(SCC(=O)OCCOCCOCCOC(=O)c2ccc(-c3c4nc(c(-c5ccccc5)c5ccc([nH]5)c(-c5ccccc5)c5nc(c(-c6ccccc6)c6ccc3[nH]6)C=C5)C=C4)cc2)c(NC(=O)c2ccccc2)c1O
REMARK SMILES IDX 16 1 15 2 14 3 13 4 12 5 10 6 11 7 9 8 8 9 7 10 5 11 6 12
REMARK SMILES IDX 82 13 72 14 3 15 4 16 2 17 1 18 83 19 73 21 74 22 75 24
REMARK SMILES IDX 76 25 77 26 81 27 78 28 80 29 79 30 17 31 18 32 19 33 20 34
REMARK SMILES IDX 21 35 22 36 23 37 24 38 25 39 71 40 26 41 70 42 27 43 28 44
REMARK SMILES IDX 29 45 64 46 30 47 69 48 63 49 65 50 31 51 68 52 62 53 61 54
REMARK SMILES IDX 32 56 54 57 39 58 53 59 40 60 43 61 52 62 66 63 41 64 42 65
REMARK SMILES IDX 51 67 67 68 44 69 33 70 34 71 38 72 35 73 37 74 36 75 55 76
REMARK SMILES IDX 56 77 60 78 57 79 59 80 58 81 45 82 46 83 50 84 47 85 49 86
REMARK SMILES IDX 48 87
REMARK H PARENT 83 20 73 23 65 55 43 66
REMARK Flexibility Score: inf
ROOT
ATOM      1  C   UNL     1      -3.176   1.065  -7.333  1.00  0.00     0.188 C 
ENDROOT
BRANCH   1   2
ATOM      2  O   UNL     1      -3.198   0.498  -8.634  1.00  0.00    -0.376 OA
BRANCH   2   3
ATOM      3  C   UNL     1      -2.598   1.250  -9.691  1.00  0.00     0.202 C 
BRANCH   3   4
ATOM      4  C   UNL     1      -2.937   2.742  -9.743  1.00  0.00     0.261 C 
BRANCH   4   5
ATOM      5  O   UNL     1      -1.924   3.538  -9.088  1.00  0.00    -0.463 OA
BRANCH   5   6
ATOM      6  C   UNL     1      -2.303   4.820  -8.759  1.00  0.00     0.316 C 
ATOM      7  O   UNL     1      -3.448   5.242  -8.888  1.00  0.00    -0.251 OA
BRANCH   6   8
ATOM      8  C   UNL     1      -0.943   5.793  -8.449  1.00  0.00     0.198 C 
BRANCH   8   9
ATOM      9  S   UNL     1       0.073   6.625  -6.223  1.00  0.00    -0.101 SA
BRANCH   9  10
ATOM     10  C   UNL     1       0.350   5.444  -4.853  1.00  0.00     0.089 A 
ATOM     11  C   UNL     1       1.434   4.106  -3.041  1.00  0.00     0.157 A 
ATOM     12  S   UNL     1       1.955   5.192  -4.265  1.00  0.00    -0.116 S 
ATOM     13  C   UNL     1       0.056   4.076  -2.990  1.00  0.00     0.166 A 
ATOM     14  C   UNL     1      -0.567   4.728  -4.093  1.00  0.00     0.109 A 
BRANCH  11  15
ATOM     15  C   UNL     1       2.409   3.361  -2.264  1.00  0.00     0.352 C 
ATOM     16  O   UNL     1       3.627   3.439  -2.351  1.00  0.00    -0.245 OA
BRANCH  15  17
ATOM     17  O   UNL     1       1.745   2.491  -1.440  1.00  0.00    -0.465 OA
ATOM     18  C   UNL     1       2.527   1.516  -0.739  1.00  0.00     0.282 C 
ENDBRANCH  15  17
ENDBRANCH  11  15
BRANCH  13  19
ATOM     19  O   UNL     1      -0.652   3.385  -2.068  1.00  0.00    -0.504 OA
ATOM     20  H   UNL     1      -0.210   2.968  -1.355  1.00  0.00     0.293 HD
ENDBRANCH  13  19
BRANCH  14  21
ATOM     21  N   UNL     1      -1.927   4.554  -4.322  1.00  0.00    -0.317 N 
ATOM     22  C   UNL     1      -2.585   4.804  -5.492  1.00  0.00     0.255 C 
ATOM     23  H   UNL     1      -2.467   4.220  -3.570  1.00  0.00     0.170 HD
ATOM     24  O   UNL     1      -3.783   4.615  -5.642  1.00  0.00    -0.269 OA
BRANCH  22  25
ATOM     25  C   UNL     1      -1.760   5.299  -6.596  1.00  0.00     0.040 A 
ATOM     26  C   UNL     1      -2.052   7.003  -7.112  1.00  0.00     0.014 A 
ATOM     27  C   UNL     1      -0.213   4.454  -7.088  1.00  0.00     0.014 A 
ATOM     28  C   UNL     1      -0.779   7.896  -8.008  1.00  0.00     0.001 A 
ATOM     29  C   UNL     1       1.069   5.369  -7.960  1.00  0.00     0.001 A 
ATOM     30  C   UNL     1       0.757   7.071  -8.445  1.00  0.00     0.000 A 
ENDBRANCH  22  25
ENDBRANCH  14  21
ENDBRANCH   9  10
ENDBRANCH   8   9
ENDBRANCH   6   8
ENDBRANCH   5   6
ENDBRANCH   4   5
ENDBRANCH   3   4
ENDBRANCH   2   3
ENDBRANCH   1   2
BRANCH   1  31
ATOM     31  C   UNL     1      -1.810   1.389  -6.734  1.00  0.00     0.188 C 
BRANCH  31  32
ATOM     32  O   UNL     1      -0.714   1.081  -7.581  1.00  0.00    -0.376 OA
BRANCH  32  33
ATOM     33  C   UNL     1       0.372   0.396  -6.969  1.00  0.00     0.202 C 
BRANCH  33  34
ATOM     34  C   UNL     1       0.050  -1.089  -6.745  1.00  0.00     0.261 C 
BRANCH  34  35
ATOM     35  O   UNL     1      -0.909  -1.290  -5.693  1.00  0.00    -0.460 OA
BRANCH  35  36
ATOM     36  C   UNL     1      -0.441  -0.886  -4.498  1.00  0.00     0.338 C 
ATOM     37  O   UNL     1       0.687  -0.498  -4.233  1.00  0.00    -0.246 OA
BRANCH  36  38
ATOM     38  C   UNL     1      -1.499  -0.862  -3.493  1.00  0.00     0.060 A 
ATOM     39  C   UNL     1      -1.620   0.328  -2.767  1.00  0.00     0.016 A 
ATOM     40  C   UNL     1      -1.962  -2.074  -3.002  1.00  0.00     0.016 A 
ATOM     41  C   UNL     1      -1.926   0.270  -1.422  1.00  0.00     0.010 A 
ATOM     42  C   UNL     1      -2.300  -2.126  -1.663  1.00  0.00     0.010 A 
ATOM     43  C   UNL     1      -2.116  -0.984  -0.856  1.00  0.00    -0.014 A 
BRANCH  43  44
ATOM     44  C   UNL     1      -1.890  -1.153   0.586  1.00  0.00     0.031 A 
ATOM     45  C   UNL     1      -2.950  -0.739   1.542  1.00  0.00     0.074 A 
ATOM     46  C   UNL     1      -0.831  -1.906   0.968  1.00  0.00     0.049 A 
ATOM     47  N   UNL     1      -2.824  -0.455   2.804  1.00  0.00    -0.248 NA
ATOM     48  C   UNL     1      -4.331  -0.654   1.038  1.00  0.00     0.031 C 
ATOM     49  C   UNL     1       0.169  -2.504   0.069  1.00  0.00     0.029 A 
ATOM     50  N   UNL     1      -0.550  -2.489   2.179  1.00  0.00    -0.354 N 
ATOM     51  C   UNL     1      -4.122  -0.346   3.289  1.00  0.00     0.074 A 
ATOM     52  C   UNL     1      -5.009  -0.407   2.155  1.00  0.00     0.031 C 
ATOM     53  C   UNL     1       0.710  -3.576   0.674  1.00  0.00     0.029 A 
ATOM     54  C   UNL     1       0.161  -3.676   2.016  1.00  0.00     0.049 A 
ATOM     55  H   UNL     1      -0.817  -2.116   3.050  1.00  0.00     0.167 HD
ATOM     56  C   UNL     1      -4.451  -0.427   4.603  1.00  0.00     0.031 A 
ATOM     57  C   UNL     1       0.202  -4.750   2.838  1.00  0.00     0.031 A 
ATOM     58  C   UNL     1      -3.405  -0.089   5.514  1.00  0.00     0.049 A 
ATOM     59  C   UNL     1      -0.297  -4.371   4.172  1.00  0.00     0.074 A 
ATOM     60  C   UNL     1      -2.663   1.045   5.768  1.00  0.00     0.029 A 
ATOM     61  N   UNL     1      -2.827  -1.094   6.245  1.00  0.00    -0.354 N 
ATOM     62  N   UNL     1       0.360  -3.652   5.032  1.00  0.00    -0.248 NA
ATOM     63  C   UNL     1      -1.694  -4.620   4.501  1.00  0.00     0.031 C 
ATOM     64  C   UNL     1      -1.447   0.596   6.354  1.00  0.00     0.029 A 
ATOM     65  C   UNL     1      -1.492  -0.798   6.376  1.00  0.00     0.049 A 
ATOM     66  H   UNL     1      -3.285  -1.885   6.611  1.00  0.00     0.167 HD
ATOM     67  C   UNL     1      -0.619  -3.031   5.787  1.00  0.00     0.074 A 
ATOM     68  C   UNL     1      -1.830  -3.795   5.540  1.00  0.00     0.031 C 
ATOM     69  C   UNL     1      -0.429  -1.775   6.284  1.00  0.00     0.031 A 
BRANCH  56  70
ATOM     70  C   UNL     1      -5.708  -1.128   5.016  1.00  0.00    -0.014 A 
ATOM     71  C   UNL     1      -6.351  -0.815   6.216  1.00  0.00     0.009 A 
ATOM     72  C   UNL     1      -6.168  -2.258   4.307  1.00  0.00     0.009 A 
ATOM     73  C   UNL     1      -7.437  -1.579   6.662  1.00  0.00     0.001 A 
ATOM     74  C   UNL     1      -7.269  -2.999   4.731  1.00  0.00     0.001 A 
ATOM     75  C   UNL     1      -7.903  -2.659   5.915  1.00  0.00     0.000 A 
ENDBRANCH  56  70
BRANCH  57  76
ATOM     76  C   UNL     1       0.463  -6.163   2.480  1.00  0.00    -0.014 A 
ATOM     77  C   UNL     1       0.879  -7.083   3.453  1.00  0.00     0.009 A 
ATOM     78  C   UNL     1       0.119  -6.670   1.212  1.00  0.00     0.009 A 
ATOM     79  C   UNL     1       0.949  -8.453   3.167  1.00  0.00     0.001 A 
ATOM     80  C   UNL     1       0.207  -8.034   0.919  1.00  0.00     0.001 A 
ATOM     81  C   UNL     1       0.615  -8.927   1.901  1.00  0.00     0.000 A 
ENDBRANCH  57  76
BRANCH  69  82
ATOM     82  C   UNL     1       0.985  -1.261   6.360  1.00  0.00    -0.014 A 
ATOM     83  C   UNL     1       1.791  -1.108   5.219  1.00  0.00     0.009 A 
ATOM     84  C   UNL     1       1.480  -0.806   7.591  1.00  0.00     0.009 A 
ATOM     85  C   UNL     1       3.071  -0.557   5.313  1.00  0.00     0.001 A 
ATOM     86  C   UNL     1       2.752  -0.234   7.681  1.00  0.00     0.001 A 
ATOM     87  C   UNL     1       3.550  -0.117   6.544  1.00  0.00     0.000 A 
ENDBRANCH  69  82
ENDBRANCH  43  44
ENDBRANCH  36  38
ENDBRANCH  35  36
ENDBRANCH  34  35
ENDBRANCH  33  34
ENDBRANCH  32  33
ENDBRANCH  31  32
ENDBRANCH   1  31
TORSDOF 24
