REMARK SMILES C[C@H](C[N@@H+](C)[C@@H](C)[C@@H](C)O)C(=O)OCCOCCOCCOC(=O)c1ccc(-c2c3nc(c(-c4ccccc4)c4ccc([nH]4)c(-c4ccccc4)c4nc(c(-c5ccccc5)c5ccc2[nH]5)C=C4)C=C3)cc1
REMARK SMILES IDX 16 1 15 2 14 3 13 4 11 5 12 6 2 7 1 8 3 9 4 10 5 11 6 13
REMARK SMILES IDX 7 14 8 15 9 16 10 17 17 19 18 20 19 21 20 22 21 23 22 24
REMARK SMILES IDX 23 25 24 26 25 27 26 28 72 29 27 30 71 31 28 32 29 33 30 34
REMARK SMILES IDX 65 35 31 36 70 37 64 38 66 39 32 40 69 41 63 42 62 43 33 45
REMARK SMILES IDX 55 46 40 47 54 48 41 49 44 50 53 51 67 52 42 53 43 54 52 56
REMARK SMILES IDX 68 57 45 58 34 59 35 60 39 61 36 62 38 63 37 64 56 65 57 66
REMARK SMILES IDX 61 67 58 68 60 69 59 70 46 71 47 72 51 73 48 74 50 75 49 76
REMARK H PARENT 4 12 10 18 66 44 44 55
REMARK Flexibility Score: inf
ROOT
ATOM      1  O   UNL     1      -3.959   1.710  -0.037  1.00  0.00    -0.376 OA
ENDROOT
BRANCH   1   2
ATOM      2  C   UNL     1      -4.021   0.540  -0.849  1.00  0.00     0.202 C 
BRANCH   2   3
ATOM      3  C   UNL     1      -3.023   0.362  -2.002  1.00  0.00     0.261 C 
BRANCH   3   4
ATOM      4  O   UNL     1      -1.658   0.266  -1.548  1.00  0.00    -0.463 OA
BRANCH   4   5
ATOM      5  C   UNL     1      -0.728   0.968  -2.245  1.00  0.00     0.314 C 
ATOM      6  O   UNL     1      -0.992   1.674  -3.213  1.00  0.00    -0.252 OA
BRANCH   5   7
ATOM      7  C   UNL     1       0.669   0.907  -1.626  1.00  0.00     0.151 C 
ATOM      8  C   UNL     1       1.759   1.125  -2.680  1.00  0.00     0.026 C 
BRANCH   7   9
ATOM      9  C   UNL     1       1.001  -0.217  -0.609  1.00  0.00     0.277 C 
BRANCH   9  10
ATOM     10  N   UNL     1       1.624  -1.493  -1.032  1.00  0.00    -0.332 N 
ATOM     11  C   UNL     1       2.349  -2.056   0.126  1.00  0.00     0.333 C 
ATOM     12  H   UNL     1       2.245  -1.266  -1.808  1.00  0.00     0.348 HD
BRANCH  10  13
ATOM     13  C   UNL     1       0.688  -2.514  -1.587  1.00  0.00     0.209 C 
ATOM     14  C   UNL     1      -0.503  -2.872  -0.676  1.00  0.00     0.078 C 
BRANCH  13  15
ATOM     15  C   UNL     1       0.234  -2.199  -3.043  1.00  0.00     0.169 C 
ATOM     16  C   UNL     1       1.394  -2.163  -4.035  1.00  0.00     0.045 C 
BRANCH  15  17
ATOM     17  O   UNL     1      -0.729  -3.147  -3.514  1.00  0.00    -0.387 OA
ATOM     18  H   UNL     1      -0.322  -4.026  -3.556  1.00  0.00     0.211 HD
ENDBRANCH  15  17
ENDBRANCH  13  15
ENDBRANCH  10  13
ENDBRANCH   9  10
ENDBRANCH   7   9
ENDBRANCH   5   7
ENDBRANCH   4   5
ENDBRANCH   3   4
ENDBRANCH   2   3
ENDBRANCH   1   2
BRANCH   1  19
ATOM     19  C   UNL     1      -2.688   2.188   0.353  1.00  0.00     0.188 C 
BRANCH  19  20
ATOM     20  C   UNL     1      -1.755   1.264   1.137  1.00  0.00     0.188 C 
BRANCH  20  21
ATOM     21  O   UNL     1      -2.063  -0.087   1.363  1.00  0.00    -0.376 OA
BRANCH  21  22
ATOM     22  C   UNL     1      -2.998  -0.491   2.349  1.00  0.00     0.202 C 
BRANCH  22  23
ATOM     23  C   UNL     1      -3.433   0.339   3.574  1.00  0.00     0.261 C 
BRANCH  23  24
ATOM     24  O   UNL     1      -2.967   1.683   3.675  1.00  0.00    -0.460 OA
BRANCH  24  25
ATOM     25  C   UNL     1      -1.791   1.854   4.330  1.00  0.00     0.338 C 
ATOM     26  O   UNL     1      -1.115   1.000   4.877  1.00  0.00    -0.246 OA
BRANCH  25  27
ATOM     27  C   UNL     1      -1.323   3.225   4.022  1.00  0.00     0.060 A 
ATOM     28  C   UNL     1      -0.067   3.377   3.412  1.00  0.00     0.016 A 
ATOM     29  C   UNL     1      -2.146   4.332   4.235  1.00  0.00     0.016 A 
ATOM     30  C   UNL     1       0.376   4.642   3.028  1.00  0.00     0.010 A 
ATOM     31  C   UNL     1      -1.687   5.602   3.883  1.00  0.00     0.010 A 
ATOM     32  C   UNL     1      -0.413   5.764   3.305  1.00  0.00    -0.014 A 
BRANCH  32  33
ATOM     33  C   UNL     1       0.183   7.117   3.231  1.00  0.00     0.031 A 
ATOM     34  C   UNL     1       0.761   7.691   4.495  1.00  0.00     0.074 A 
ATOM     35  C   UNL     1       0.219   7.824   2.088  1.00  0.00     0.049 A 
ATOM     36  N   UNL     1       1.265   8.877   4.716  1.00  0.00    -0.248 NA
ATOM     37  C   UNL     1       0.763   6.802   5.669  1.00  0.00     0.031 C 
ATOM     38  C   UNL     1      -0.251   7.362   0.784  1.00  0.00     0.029 A 
ATOM     39  N   UNL     1       0.670   9.099   1.854  1.00  0.00    -0.354 N 
ATOM     40  C   UNL     1       1.631   8.880   6.056  1.00  0.00     0.074 A 
ATOM     41  C   UNL     1       1.267   7.592   6.603  1.00  0.00     0.031 C 
ATOM     42  C   UNL     1      -0.074   8.348  -0.114  1.00  0.00     0.029 A 
ATOM     43  C   UNL     1       0.484   9.520   0.560  1.00  0.00     0.049 A 
ATOM     44  H   UNL     1       1.088   9.659   2.548  1.00  0.00     0.167 HD
ATOM     45  C   UNL     1       2.218   9.867   6.771  1.00  0.00     0.031 A 
ATOM     46  C   UNL     1       0.713  10.722  -0.003  1.00  0.00     0.031 A 
ATOM     47  C   UNL     1       2.557  11.156   6.238  1.00  0.00     0.049 A 
ATOM     48  C   UNL     1       1.276  11.841   0.838  1.00  0.00     0.074 A 
ATOM     49  C   UNL     1       3.160  12.223   6.880  1.00  0.00     0.029 A 
ATOM     50  N   UNL     1       2.309  11.558   4.935  1.00  0.00    -0.354 N 
ATOM     51  N   UNL     1       1.636  11.830   2.099  1.00  0.00    -0.248 NA
ATOM     52  C   UNL     1       1.465  13.139   0.172  1.00  0.00     0.031 C 
ATOM     53  C   UNL     1       3.221  13.293   5.982  1.00  0.00     0.029 A 
ATOM     54  C   UNL     1       2.719  12.869   4.761  1.00  0.00     0.049 A 
ATOM     55  H   UNL     1       1.903  10.996   4.237  1.00  0.00     0.167 HD
ATOM     56  C   UNL     1       2.123  13.105   2.367  1.00  0.00     0.074 A 
ATOM     57  C   UNL     1       2.024  13.859   1.135  1.00  0.00     0.031 C 
ATOM     58  C   UNL     1       2.613  13.607   3.528  1.00  0.00     0.031 A 
BRANCH  45  59
ATOM     59  C   UNL     1       2.479   9.595   8.226  1.00  0.00    -0.014 A 
ATOM     60  C   UNL     1       3.462   8.678   8.635  1.00  0.00     0.009 A 
ATOM     61  C   UNL     1       1.731  10.270   9.202  1.00  0.00     0.009 A 
ATOM     62  C   UNL     1       3.662   8.416   9.992  1.00  0.00     0.001 A 
ATOM     63  C   UNL     1       1.955  10.030  10.558  1.00  0.00     0.001 A 
ATOM     64  C   UNL     1       2.912   9.095  10.951  1.00  0.00     0.000 A 
ENDBRANCH  45  59
BRANCH  46  65
ATOM     65  C   UNL     1       0.387  10.952  -1.436  1.00  0.00    -0.014 A 
ATOM     66  C   UNL     1       1.406  11.169  -2.376  1.00  0.00     0.009 A 
ATOM     67  C   UNL     1      -0.949  10.987  -1.867  1.00  0.00     0.009 A 
ATOM     68  C   UNL     1       1.093  11.440  -3.711  1.00  0.00     0.001 A 
ATOM     69  C   UNL     1      -1.258  11.228  -3.207  1.00  0.00     0.001 A 
ATOM     70  C   UNL     1      -0.237  11.464  -4.126  1.00  0.00     0.000 A 
ENDBRANCH  46  65
BRANCH  58  71
ATOM     71  C   UNL     1       3.119  15.024   3.516  1.00  0.00    -0.014 A 
ATOM     72  C   UNL     1       2.242  16.115   3.425  1.00  0.00     0.009 A 
ATOM     73  C   UNL     1       4.495  15.268   3.651  1.00  0.00     0.009 A 
ATOM     74  C   UNL     1       2.737  17.422   3.437  1.00  0.00     0.001 A 
ATOM     75  C   UNL     1       4.984  16.574   3.695  1.00  0.00     0.001 A 
ATOM     76  C   UNL     1       4.106  17.650   3.578  1.00  0.00     0.000 A 
ENDBRANCH  58  71
ENDBRANCH  32  33
ENDBRANCH  25  27
ENDBRANCH  24  25
ENDBRANCH  23  24
ENDBRANCH  22  23
ENDBRANCH  21  22
ENDBRANCH  20  21
ENDBRANCH  19  20
ENDBRANCH   1  19
TORSDOF 22
