REMARK SMILES O=C(CSCc1ccc(Cl)s1)Nc1ccsc1C(=O)OCCOCCOCCOC(=O)c1ccc(-c2c3nc(c(-c4ccccc4)c4ccc([nH]4)c(-c4ccccc4)c4nc(c(-c5ccccc5)c5ccc2[nH]5)C=C4)C=C3)cc1
REMARK SMILES IDX 23 1 22 2 21 3 20 4 18 5 19 6 17 7 13 8 14 9 15 10 16 11
REMARK SMILES IDX 12 12 1 13 2 14 3 16 4 17 5 18 6 19 7 20 11 21 8 22 9 23
REMARK SMILES IDX 10 24 24 25 25 26 26 27 27 28 28 29 29 30 30 31 31 32 32 33
REMARK SMILES IDX 33 34 79 35 34 36 78 37 35 38 36 39 37 40 72 41 38 42 77 43
REMARK SMILES IDX 71 44 73 45 39 46 76 47 70 48 69 49 40 51 62 52 47 53 61 54
REMARK SMILES IDX 48 55 51 56 60 57 74 58 49 59 50 60 59 62 75 63 52 64 41 65
REMARK SMILES IDX 42 66 46 67 43 68 45 69 44 70 63 71 64 72 68 73 65 74 67 75
REMARK SMILES IDX 66 76 53 77 54 78 58 79 55 80 57 81 56 82
REMARK H PARENT 12 15 73 50 51 61
REMARK Flexibility Score: inf
ROOT
ATOM      1  O   UNL     1       4.980  -4.461   3.685  1.00  0.00    -0.376 OA
ENDROOT
BRANCH   1   2
ATOM      2  C   UNL     1       5.952  -3.511   3.270  1.00  0.00     0.202 C 
BRANCH   2   3
ATOM      3  C   UNL     1       6.202  -3.392   1.766  1.00  0.00     0.261 C 
BRANCH   3   4
ATOM      4  O   UNL     1       5.018  -3.029   1.032  1.00  0.00    -0.459 OA
BRANCH   4   5
ATOM      5  C   UNL     1       4.678  -3.883   0.018  1.00  0.00     0.350 C 
ATOM      6  O   UNL     1       5.399  -4.789  -0.385  1.00  0.00    -0.245 OA
BRANCH   5   7
ATOM      7  C   UNL     1       3.321  -3.622  -0.430  1.00  0.00     0.136 A 
ATOM      8  C   UNL     1       2.551  -2.464  -0.476  1.00  0.00     0.066 A 
ATOM      9  C   UNL     1       1.226  -2.754  -0.943  1.00  0.00     0.039 A 
ATOM     10  C   UNL     1       1.031  -4.081  -1.244  1.00  0.00     0.068 A 
ATOM     11  S   UNL     1       2.436  -4.996  -0.984  1.00  0.00    -0.135 S 
BRANCH   8  12
ATOM     12  N   UNL     1       3.034  -1.194  -0.148  1.00  0.00    -0.324 N 
ATOM     13  O   UNL     1       1.029  -0.009  -0.079  1.00  0.00    -0.274 OA
ATOM     14  C   UNL     1       2.258  -0.045  -0.074  1.00  0.00     0.234 C 
ATOM     15  H   UNL     1       3.995  -1.108   0.045  1.00  0.00     0.170 HD
BRANCH  14  16
ATOM     16  C   UNL     1       3.064   1.241  -0.042  1.00  0.00     0.170 C 
BRANCH  16  17
ATOM     17  S   UNL     1       4.231   1.301   1.347  1.00  0.00    -0.146 SA
BRANCH  17  18
ATOM     18  C   UNL     1       3.081   1.195   2.754  1.00  0.00     0.116 C 
BRANCH  18  19
ATOM     19  C   UNL     1       2.058   2.287   2.837  1.00  0.00     0.016 A 
ATOM     20  C   UNL     1       0.680   2.151   2.858  1.00  0.00     0.018 A 
ATOM     21  S   UNL     1       2.518   3.933   3.028  1.00  0.00    -0.128 S 
ATOM     22  C   UNL     1       0.009   3.400   3.025  1.00  0.00     0.033 A 
ATOM     23  C   UNL     1       0.905   4.432   3.114  1.00  0.00     0.093 A 
ATOM     24  Cl  UNL     1       0.532   6.096   3.313  1.00  0.00    -0.072 Cl
ENDBRANCH  18  19
ENDBRANCH  17  18
ENDBRANCH  16  17
ENDBRANCH  14  16
ENDBRANCH   8  12
ENDBRANCH   5   7
ENDBRANCH   4   5
ENDBRANCH   3   4
ENDBRANCH   2   3
ENDBRANCH   1   2
BRANCH   1  25
ATOM     25  C   UNL     1       3.609  -4.269   3.351  1.00  0.00     0.188 C 
BRANCH  25  26
ATOM     26  C   UNL     1       3.003  -2.852   3.358  1.00  0.00     0.188 C 
BRANCH  26  27
ATOM     27  O   UNL     1       3.726  -1.907   4.134  1.00  0.00    -0.376 OA
BRANCH  27  28
ATOM     28  C   UNL     1       3.054  -1.377   5.267  1.00  0.00     0.202 C 
BRANCH  28  29
ATOM     29  C   UNL     1       3.056  -2.321   6.470  1.00  0.00     0.261 C 
BRANCH  29  30
ATOM     30  O   UNL     1       2.361  -3.558   6.260  1.00  0.00    -0.460 OA
BRANCH  30  31
ATOM     31  C   UNL     1       1.032  -3.483   6.024  1.00  0.00     0.338 C 
ATOM     32  O   UNL     1       0.347  -2.481   5.943  1.00  0.00    -0.246 OA
BRANCH  31  33
ATOM     33  C   UNL     1       0.562  -4.848   5.727  1.00  0.00     0.060 A 
ATOM     34  C   UNL     1      -0.147  -5.083   4.544  1.00  0.00     0.016 A 
ATOM     35  C   UNL     1       0.830  -5.888   6.621  1.00  0.00     0.016 A 
ATOM     36  C   UNL     1      -0.611  -6.370   4.263  1.00  0.00     0.010 A 
ATOM     37  C   UNL     1       0.356  -7.169   6.344  1.00  0.00     0.010 A 
ATOM     38  C   UNL     1      -0.386  -7.410   5.177  1.00  0.00    -0.014 A 
BRANCH  38  39
ATOM     39  C   UNL     1      -1.048  -8.721   5.000  1.00  0.00     0.031 A 
ATOM     40  C   UNL     1      -2.358  -8.965   5.693  1.00  0.00     0.074 A 
ATOM     41  C   UNL     1      -0.484  -9.688   4.257  1.00  0.00     0.049 A 
ATOM     42  N   UNL     1      -3.096 -10.045   5.715  1.00  0.00    -0.248 NA
ATOM     43  C   UNL     1      -2.908  -7.840   6.467  1.00  0.00     0.031 C 
ATOM     44  C   UNL     1       0.771  -9.569   3.518  1.00  0.00     0.029 A 
ATOM     45  N   UNL     1      -0.900 -10.973   4.015  1.00  0.00    -0.354 N 
ATOM     46  C   UNL     1      -4.197  -9.730   6.499  1.00  0.00     0.074 A 
ATOM     47  C   UNL     1      -4.018  -8.369   6.959  1.00  0.00     0.031 C 
ATOM     48  C   UNL     1       1.027 -10.740   2.907  1.00  0.00     0.029 A 
ATOM     49  C   UNL     1      -0.030 -11.694   3.235  1.00  0.00     0.049 A 
ATOM     50  H   UNL     1      -1.742 -11.343   4.367  1.00  0.00     0.167 HD
ATOM     51  C   UNL     1      -5.267 -10.500   6.807  1.00  0.00     0.031 A 
ATOM     52  C   UNL     1      -0.077 -12.982   2.846  1.00  0.00     0.031 A 
ATOM     53  C   UNL     1      -5.434 -11.862   6.382  1.00  0.00     0.049 A 
ATOM     54  C   UNL     1      -1.234 -13.845   3.273  1.00  0.00     0.074 A 
ATOM     55  C   UNL     1      -6.488 -12.722   6.635  1.00  0.00     0.029 A 
ATOM     56  N   UNL     1      -4.512 -12.568   5.626  1.00  0.00    -0.354 N 
ATOM     57  N   UNL     1      -2.288 -13.525   3.983  1.00  0.00    -0.248 NA
ATOM     58  C   UNL     1      -1.205 -15.251   2.840  1.00  0.00     0.031 C 
ATOM     59  C   UNL     1      -6.182 -13.965   6.069  1.00  0.00     0.029 A 
ATOM     60  C   UNL     1      -4.960 -13.862   5.425  1.00  0.00     0.049 A 
ATOM     61  H   UNL     1      -3.665 -12.203   5.283  1.00  0.00     0.167 HD
ATOM     62  C   UNL     1      -3.059 -14.678   4.060  1.00  0.00     0.074 A 
ATOM     63  C   UNL     1      -2.356 -15.704   3.318  1.00  0.00     0.031 C 
ATOM     64  C   UNL     1      -4.245 -14.870   4.687  1.00  0.00     0.031 A 
BRANCH  51  65
ATOM     65  C   UNL     1      -6.323  -9.881   7.675  1.00  0.00    -0.014 A 
ATOM     66  C   UNL     1      -7.201  -8.912   7.164  1.00  0.00     0.009 A 
ATOM     67  C   UNL     1      -6.445 -10.274   9.015  1.00  0.00     0.009 A 
ATOM     68  C   UNL     1      -8.159  -8.323   7.991  1.00  0.00     0.001 A 
ATOM     69  C   UNL     1      -7.419  -9.700   9.834  1.00  0.00     0.001 A 
ATOM     70  C   UNL     1      -8.269  -8.719   9.324  1.00  0.00     0.000 A 
ENDBRANCH  51  65
BRANCH  52  71
ATOM     71  C   UNL     1       1.012 -13.547   2.010  1.00  0.00    -0.014 A 
ATOM     72  C   UNL     1       0.789 -13.848   0.658  1.00  0.00     0.009 A 
ATOM     73  C   UNL     1       2.274 -13.807   2.566  1.00  0.00     0.009 A 
ATOM     74  C   UNL     1       1.803 -14.417  -0.116  1.00  0.00     0.001 A 
ATOM     75  C   UNL     1       3.293 -14.356   1.783  1.00  0.00     0.001 A 
ATOM     76  C   UNL     1       3.054 -14.667   0.446  1.00  0.00     0.000 A 
ENDBRANCH  52  71
BRANCH  64  77
ATOM     77  C   UNL     1      -4.872 -16.230   4.572  1.00  0.00    -0.014 A 
ATOM     78  C   UNL     1      -4.381 -17.321   5.306  1.00  0.00     0.009 A 
ATOM     79  C   UNL     1      -5.997 -16.410   3.752  1.00  0.00     0.009 A 
ATOM     80  C   UNL     1      -4.991 -18.573   5.200  1.00  0.00     0.001 A 
ATOM     81  C   UNL     1      -6.618 -17.657   3.667  1.00  0.00     0.001 A 
ATOM     82  C   UNL     1      -6.110 -18.738   4.384  1.00  0.00     0.000 A 
ENDBRANCH  64  77
ENDBRANCH  38  39
ENDBRANCH  31  33
ENDBRANCH  30  31
ENDBRANCH  29  30
ENDBRANCH  28  29
ENDBRANCH  27  28
ENDBRANCH  26  27
ENDBRANCH  25  26
ENDBRANCH   1  25
TORSDOF 22
