REMARK SMILES Cc1ccccc1/[NH+]=C1\S[C@@H](CC(=O)Nc2ccc(C(=O)OCCOCCOCCOC(=O)c3ccc(-c4c5nc(c(-c6ccccc6)c6ccc([nH]6)c(-c6ccccc6)c6nc(c(-c7ccccc7)c7ccc4[nH]7)C=C6)C=C5)cc3)cc2)C(=O)N1C
REMARK SMILES IDX 26 1 25 2 24 3 23 4 22 5 20 6 21 7 19 8 16 9 17 10 83 11
REMARK SMILES IDX 18 12 82 13 15 14 13 15 14 16 12 18 11 19 8 20 9 21 10 23
REMARK SMILES IDX 86 24 84 25 87 26 85 27 7 28 1 29 2 30 3 31 4 32 6 33 5 34
REMARK SMILES IDX 27 35 28 36 29 37 30 38 31 39 32 40 33 41 34 42 35 43 81 44
REMARK SMILES IDX 36 45 80 46 37 47 38 48 39 49 74 50 40 51 79 52 73 53 75 54
REMARK SMILES IDX 41 55 78 56 72 57 71 58 42 60 64 61 49 62 63 63 50 64 53 65
REMARK SMILES IDX 62 66 76 67 51 68 52 69 61 71 77 72 54 73 43 74 44 75 48 76
REMARK SMILES IDX 45 77 47 78 46 79 65 80 66 81 70 82 67 83 69 84 68 85 55 86
REMARK SMILES IDX 56 87 60 88 57 89 59 90 58 91
REMARK H PARENT 15 17 8 22 75 59 53 70
REMARK Flexibility Score: inf
ROOT
ATOM      1  C   UNL     1       3.652   9.459  -4.398  1.00  0.00     0.188 C 
ENDROOT
BRANCH   1   2
ATOM      2  O   UNL     1       3.208   8.174  -3.983  1.00  0.00    -0.376 OA
BRANCH   2   3
ATOM      3  C   UNL     1       1.888   7.856  -3.591  1.00  0.00     0.202 C 
BRANCH   3   4
ATOM      4  C   UNL     1       1.709   7.111  -2.148  1.00  0.00     0.261 C 
BRANCH   4   5
ATOM      5  O   UNL     1       2.226   5.628  -1.776  1.00  0.00    -0.460 OA
BRANCH   5   6
ATOM      6  C   UNL     1       3.119   4.664  -1.323  1.00  0.00     0.338 C 
ATOM      7  O   UNL     1       2.749   3.488  -1.381  1.00  0.00    -0.246 OA
BRANCH   6   8
ATOM      8  C   UNL     1       4.518   4.747  -0.710  1.00  0.00     0.060 A 
ATOM      9  C   UNL     1       6.798   4.115   0.817  1.00  0.00     0.041 A 
ATOM     10  C   UNL     1       5.854   5.007   1.318  1.00  0.00     0.027 A 
ATOM     11  C   UNL     1       6.776   3.779  -0.532  1.00  0.00     0.027 A 
ATOM     12  C   UNL     1       4.700   5.290   0.568  1.00  0.00     0.018 A 
ATOM     13  C   UNL     1       5.622   4.066  -1.286  1.00  0.00     0.018 A 
BRANCH   9  14
ATOM     14  N   UNL     1       7.496   3.326   1.753  1.00  0.00    -0.326 N 
ATOM     15  C   UNL     1       7.061   2.069   2.139  1.00  0.00     0.226 C 
ATOM     16  O   UNL     1       7.438   1.596   3.214  1.00  0.00    -0.275 OA
ATOM     17  H   UNL     1       8.325   3.682   2.148  1.00  0.00     0.169 HD
BRANCH  15  18
ATOM     18  C   UNL     1       6.118   1.280   1.249  1.00  0.00     0.128 C 
BRANCH  18  19
ATOM     19  C   UNL     1       4.657   1.289   1.670  1.00  0.00     0.183 C 
ATOM     20  N   UNL     1       1.007   1.508   0.786  1.00  0.00    -0.234 N 
ATOM     21  C   UNL     1       2.274   1.694   0.858  1.00  0.00     0.319 C 
ATOM     22  H   UNL     1       0.496   2.262   1.159  1.00  0.00     0.313 HD
ATOM     23  S   UNL     1       3.622   0.793   0.261  1.00  0.00    -0.022 SA
ATOM     24  N   UNL     1       2.749   2.747   1.599  1.00  0.00    -0.193 N 
ATOM     25  C   UNL     1       3.997   2.567   2.166  1.00  0.00     0.324 C 
ATOM     26  C   UNL     1       1.912   3.893   1.904  1.00  0.00     0.301 C 
ATOM     27  O   UNL     1       4.444   3.253   3.080  1.00  0.00    -0.245 OA
BRANCH  20  28
ATOM     28  C   UNL     1       0.178   0.490   0.305  1.00  0.00     0.128 A 
ATOM     29  C   UNL     1       1.737  -1.579   0.267  1.00  0.00     0.049 C 
ATOM     30  C   UNL     1       0.409  -0.894   0.170  1.00  0.00    -0.004 A 
ATOM     31  C   UNL     1      -0.683  -1.760  -0.067  1.00  0.00     0.008 A 
ATOM     32  C   UNL     1      -1.991  -1.294  -0.141  1.00  0.00     0.001 A 
ATOM     33  C   UNL     1      -1.157   0.933   0.174  1.00  0.00     0.052 A 
ATOM     34  C   UNL     1      -2.230   0.063  -0.030  1.00  0.00     0.004 A 
ENDBRANCH  20  28
ENDBRANCH  18  19
ENDBRANCH  15  18
ENDBRANCH   9  14
ENDBRANCH   6   8
ENDBRANCH   5   6
ENDBRANCH   4   5
ENDBRANCH   3   4
ENDBRANCH   2   3
ENDBRANCH   1   2
BRANCH   1  35
ATOM     35  C   UNL     1       3.345  10.632  -3.476  1.00  0.00     0.188 C 
BRANCH  35  36
ATOM     36  O   UNL     1       2.905  10.152  -2.216  1.00  0.00    -0.376 OA
BRANCH  36  37
ATOM     37  C   UNL     1       2.626  11.165  -1.264  1.00  0.00     0.202 C 
BRANCH  37  38
ATOM     38  C   UNL     1       3.898  11.777  -0.651  1.00  0.00     0.261 C 
BRANCH  38  39
ATOM     39  O   UNL     1       4.761  10.727  -0.167  1.00  0.00    -0.460 OA
BRANCH  39  40
ATOM     40  C   UNL     1       5.928  10.527  -0.876  1.00  0.00     0.338 C 
ATOM     41  O   UNL     1       6.684  11.378  -1.226  1.00  0.00    -0.246 OA
BRANCH  40  42
ATOM     42  C   UNL     1       5.952   9.102  -1.364  1.00  0.00     0.060 A 
ATOM     43  C   UNL     1       6.744   8.644  -2.411  1.00  0.00     0.016 A 
ATOM     44  C   UNL     1       4.966   8.260  -0.970  1.00  0.00     0.016 A 
ATOM     45  C   UNL     1       6.382   7.468  -3.177  1.00  0.00     0.010 A 
ATOM     46  C   UNL     1       4.607   7.209  -1.832  1.00  0.00     0.010 A 
ATOM     47  C   UNL     1       5.184   6.756  -3.023  1.00  0.00    -0.014 A 
BRANCH  47  48
ATOM     48  C   UNL     1       4.494   5.846  -4.183  1.00  0.00     0.031 A 
ATOM     49  C   UNL     1       3.523   4.603  -4.223  1.00  0.00     0.074 A 
ATOM     50  C   UNL     1       4.770   6.174  -5.470  1.00  0.00     0.049 A 
ATOM     51  N   UNL     1       3.875   3.381  -4.585  1.00  0.00    -0.248 NA
ATOM     52  C   UNL     1       2.043   4.658  -4.101  1.00  0.00     0.031 C 
ATOM     53  C   UNL     1       4.261   5.568  -6.705  1.00  0.00     0.029 A 
ATOM     54  N   UNL     1       5.747   7.054  -5.921  1.00  0.00    -0.354 N 
ATOM     55  C   UNL     1       2.708   2.598  -4.661  1.00  0.00     0.074 A 
ATOM     56  C   UNL     1       1.639   3.391  -4.143  1.00  0.00     0.031 C 
ATOM     57  C   UNL     1       5.131   5.838  -7.693  1.00  0.00     0.029 A 
ATOM     58  C   UNL     1       6.260   6.542  -7.110  1.00  0.00     0.049 A 
ATOM     59  H   UNL     1       6.027   7.889  -5.480  1.00  0.00     0.167 HD
ATOM     60  C   UNL     1       2.442   1.528  -5.471  1.00  0.00     0.031 A 
ATOM     61  C   UNL     1       7.577   6.201  -7.194  1.00  0.00     0.031 A 
ATOM     62  C   UNL     1       3.272   1.521  -6.640  1.00  0.00     0.049 A 
ATOM     63  C   UNL     1       7.801   4.751  -7.546  1.00  0.00     0.074 A 
ATOM     64  C   UNL     1       3.049   1.942  -7.940  1.00  0.00     0.029 A 
ATOM     65  N   UNL     1       4.622   1.313  -6.499  1.00  0.00    -0.354 N 
ATOM     66  N   UNL     1       6.870   3.839  -7.546  1.00  0.00    -0.248 NA
ATOM     67  C   UNL     1       9.116   4.202  -7.867  1.00  0.00     0.031 C 
ATOM     68  C   UNL     1       4.311   2.068  -8.568  1.00  0.00     0.029 A 
ATOM     69  C   UNL     1       5.270   1.653  -7.665  1.00  0.00     0.049 A 
ATOM     70  H   UNL     1       5.061   0.973  -5.686  1.00  0.00     0.167 HD
ATOM     71  C   UNL     1       7.434   2.613  -7.792  1.00  0.00     0.074 A 
ATOM     72  C   UNL     1       8.835   2.897  -8.022  1.00  0.00     0.031 C 
ATOM     73  C   UNL     1       6.701   1.465  -7.748  1.00  0.00     0.031 A 
BRANCH  60  74
ATOM     74  C   UNL     1       1.141   0.753  -5.335  1.00  0.00    -0.014 A 
ATOM     75  C   UNL     1       0.303   0.435  -6.419  1.00  0.00     0.009 A 
ATOM     76  C   UNL     1       0.721   0.312  -4.062  1.00  0.00     0.009 A 
ATOM     77  C   UNL     1      -0.934  -0.210  -6.228  1.00  0.00     0.001 A 
ATOM     78  C   UNL     1      -0.517  -0.320  -3.870  1.00  0.00     0.001 A 
ATOM     79  C   UNL     1      -1.354  -0.568  -4.951  1.00  0.00     0.000 A 
ENDBRANCH  60  74
BRANCH  61  80
ATOM     80  C   UNL     1       8.506   7.038  -6.368  1.00  0.00    -0.014 A 
ATOM     81  C   UNL     1       8.502   8.437  -6.572  1.00  0.00     0.009 A 
ATOM     82  C   UNL     1       9.165   6.544  -5.232  1.00  0.00     0.009 A 
ATOM     83  C   UNL     1       9.059   9.314  -5.634  1.00  0.00     0.001 A 
ATOM     84  C   UNL     1       9.737   7.427  -4.299  1.00  0.00     0.001 A 
ATOM     85  C   UNL     1       9.669   8.808  -4.492  1.00  0.00     0.000 A 
ENDBRANCH  61  80
BRANCH  73  86
ATOM     86  C   UNL     1       7.206   0.044  -7.785  1.00  0.00    -0.014 A 
ATOM     87  C   UNL     1       8.514  -0.340  -7.479  1.00  0.00     0.009 A 
ATOM     88  C   UNL     1       6.274  -1.002  -8.003  1.00  0.00     0.009 A 
ATOM     89  C   UNL     1       8.881  -1.692  -7.430  1.00  0.00     0.001 A 
ATOM     90  C   UNL     1       6.623  -2.350  -7.905  1.00  0.00     0.001 A 
ATOM     91  C   UNL     1       7.936  -2.695  -7.630  1.00  0.00     0.000 A 
ENDBRANCH  73  86
ENDBRANCH  47  48
ENDBRANCH  40  42
ENDBRANCH  39  40
ENDBRANCH  38  39
ENDBRANCH  37  38
ENDBRANCH  36  37
ENDBRANCH  35  36
ENDBRANCH   1  35
TORSDOF 21
