REMARK SMILES Cc1nc2sc3c(c2c2nc(CCC(=O)OCCOCCOCCOC(=O)c4ccc(-c5c6nc(c(-c7ccccc7)c7ccc([nH]7)c(-c7ccccc7)c7nc(c(-c8ccccc8)c8ccc5[nH]8)C=C7)C=C6)cc4)nn12)[C@@H](C)CCC3
REMARK SMILES IDX 20 1 19 2 18 3 17 4 16 5 14 6 15 7 13 8 12 9 11 10 1 11 2 12
REMARK SMILES IDX 3 13 77 14 4 15 9 16 76 17 5 18 8 19 10 20 6 21 7 22 82 23
REMARK SMILES IDX 78 24 81 25 79 26 80 27 21 28 22 29 23 30 24 31 25 32 26 33
REMARK SMILES IDX 27 34 28 35 29 36 75 37 30 38 74 39 31 40 32 41 33 42 68 43
REMARK SMILES IDX 34 44 73 45 67 46 69 47 35 48 72 49 66 50 65 51 36 53 58 54
REMARK SMILES IDX 43 55 57 56 44 57 47 58 56 59 70 60 45 61 46 62 55 64 71 65
REMARK SMILES IDX 48 66 37 67 38 68 42 69 39 70 41 71 40 72 59 73 60 74 64 75
REMARK SMILES IDX 61 76 63 77 62 78 49 79 50 80 54 81 51 82 53 83 52 84
REMARK H PARENT 69 52 47 63
REMARK Flexibility Score: inf
ROOT
ATOM      1  C   UNL     1      -0.102   6.379  -4.965  1.00  0.00     0.188 C 
ENDROOT
BRANCH   1   2
ATOM      2  O   UNL     1      -0.192   6.511  -6.378  1.00  0.00    -0.376 OA
BRANCH   2   3
ATOM      3  C   UNL     1       0.426   5.441  -7.097  1.00  0.00     0.202 C 
BRANCH   3   4
ATOM      4  C   UNL     1       1.903   5.112  -6.756  1.00  0.00     0.261 C 
BRANCH   4   5
ATOM      5  O   UNL     1       2.112   4.599  -5.407  1.00  0.00    -0.463 OA
BRANCH   5   6
ATOM      6  C   UNL     1       2.737   5.428  -4.530  1.00  0.00     0.306 C 
ATOM      7  O   UNL     1       3.270   6.483  -4.863  1.00  0.00    -0.252 OA
BRANCH   6   8
ATOM      8  C   UNL     1       2.755   4.959  -3.081  1.00  0.00     0.131 C 
BRANCH   8   9
ATOM      9  C   UNL     1       1.463   4.566  -2.362  1.00  0.00     0.091 C 
BRANCH   9  10
ATOM     10  C   UNL     1       1.049   3.141  -2.502  1.00  0.00     0.152 A 
ATOM     11  C   UNL     1       0.965  -0.227  -0.079  1.00  0.00     0.090 C 
ATOM     12  C   UNL     1       0.448  -0.114  -1.478  1.00  0.00     0.131 A 
ATOM     13  N   UNL     1      -0.086  -1.127  -2.115  1.00  0.00    -0.222 NA
ATOM     14  N   UNL     1       0.595   1.152  -2.059  1.00  0.00    -0.199 N 
ATOM     15  C   UNL     1      -0.490  -0.881  -3.406  1.00  0.00     0.129 A 
ATOM     16  C   UNL     1       0.170   1.423  -3.329  1.00  0.00     0.168 A 
ATOM     17  N   UNL     1       1.185   2.240  -1.511  1.00  0.00    -0.150 NA
ATOM     18  S   UNL     1      -1.144  -2.114  -4.397  1.00  0.00    -0.120 S 
ATOM     19  C   UNL     1      -0.422   0.313  -4.109  1.00  0.00     0.060 A 
ATOM     20  N   UNL     1       0.418   2.674  -3.626  1.00  0.00    -0.211 NA
ATOM     21  C   UNL     1      -1.307  -1.057  -5.727  1.00  0.00     0.011 A 
ATOM     22  C   UNL     1      -0.881   0.232  -5.455  1.00  0.00    -0.018 A 
ATOM     23  C   UNL     1      -1.812  -1.529  -7.058  1.00  0.00     0.047 C 
ATOM     24  C   UNL     1      -0.928   1.311  -6.506  1.00  0.00     0.018 C 
ATOM     25  C   UNL     1      -2.292  -0.339  -7.899  1.00  0.00     0.006 C 
ATOM     26  C   UNL     1       0.374   2.091  -6.588  1.00  0.00     0.013 C 
ATOM     27  C   UNL     1      -1.242   0.769  -7.916  1.00  0.00     0.008 C 
ENDBRANCH   9  10
ENDBRANCH   8   9
ENDBRANCH   6   8
ENDBRANCH   5   6
ENDBRANCH   4   5
ENDBRANCH   3   4
ENDBRANCH   2   3
ENDBRANCH   1   2
BRANCH   1  28
ATOM     28  C   UNL     1      -1.437   6.440  -4.263  1.00  0.00     0.188 C 
BRANCH  28  29
ATOM     29  O   UNL     1      -1.839   5.152  -3.758  1.00  0.00    -0.376 OA
BRANCH  29  30
ATOM     30  C   UNL     1      -2.302   4.200  -4.719  1.00  0.00     0.202 C 
BRANCH  30  31
ATOM     31  C   UNL     1      -3.798   4.244  -5.022  1.00  0.00     0.261 C 
BRANCH  31  32
ATOM     32  O   UNL     1      -4.233   5.581  -5.117  1.00  0.00    -0.460 OA
BRANCH  32  33
ATOM     33  C   UNL     1      -4.387   6.162  -3.899  1.00  0.00     0.338 C 
ATOM     34  O   UNL     1      -4.437   5.633  -2.814  1.00  0.00    -0.246 OA
BRANCH  33  35
ATOM     35  C   UNL     1      -4.499   7.605  -4.125  1.00  0.00     0.060 A 
ATOM     36  C   UNL     1      -4.538   8.410  -2.989  1.00  0.00     0.016 A 
ATOM     37  C   UNL     1      -4.837   8.067  -5.403  1.00  0.00     0.016 A 
ATOM     38  C   UNL     1      -5.285   9.552  -3.071  1.00  0.00     0.010 A 
ATOM     39  C   UNL     1      -5.603   9.188  -5.481  1.00  0.00     0.010 A 
ATOM     40  C   UNL     1      -5.924   9.816  -4.285  1.00  0.00    -0.014 A 
BRANCH  40  41
ATOM     41  C   UNL     1      -6.960  10.807  -4.304  1.00  0.00     0.031 A 
ATOM     42  C   UNL     1      -6.391  12.156  -4.378  1.00  0.00     0.074 A 
ATOM     43  C   UNL     1      -8.259  10.462  -4.313  1.00  0.00     0.049 A 
ATOM     44  N   UNL     1      -6.224  12.969  -3.392  1.00  0.00    -0.248 NA
ATOM     45  C   UNL     1      -5.670  12.526  -5.607  1.00  0.00     0.031 C 
ATOM     46  C   UNL     1      -8.868   9.140  -4.496  1.00  0.00     0.029 A 
ATOM     47  N   UNL     1      -9.335  11.278  -4.242  1.00  0.00    -0.354 N 
ATOM     48  C   UNL     1      -5.605  14.074  -3.952  1.00  0.00     0.074 A 
ATOM     49  C   UNL     1      -5.042  13.628  -5.198  1.00  0.00     0.031 C 
ATOM     50  C   UNL     1     -10.189   9.291  -4.759  1.00  0.00     0.029 A 
ATOM     51  C   UNL     1     -10.537  10.695  -4.620  1.00  0.00     0.049 A 
ATOM     52  H   UNL     1      -9.271  12.215  -3.946  1.00  0.00     0.167 HD
ATOM     53  C   UNL     1      -5.952  15.323  -3.542  1.00  0.00     0.031 A 
ATOM     54  C   UNL     1     -11.695  11.364  -4.852  1.00  0.00     0.031 A 
ATOM     55  C   UNL     1      -6.620  15.280  -2.259  1.00  0.00     0.049 A 
ATOM     56  C   UNL     1     -11.571  12.684  -4.183  1.00  0.00     0.074 A 
ATOM     57  C   UNL     1      -6.276  14.821  -1.003  1.00  0.00     0.029 A 
ATOM     58  N   UNL     1      -7.994  15.355  -2.277  1.00  0.00    -0.354 N 
ATOM     59  N   UNL     1     -11.520  12.825  -2.889  1.00  0.00    -0.248 NA
ATOM     60  C   UNL     1     -11.020  13.788  -4.955  1.00  0.00     0.031 C 
ATOM     61  C   UNL     1      -7.466  14.237  -0.478  1.00  0.00     0.029 A 
ATOM     62  C   UNL     1      -8.498  14.434  -1.397  1.00  0.00     0.049 A 
ATOM     63  H   UNL     1      -8.527  15.970  -2.831  1.00  0.00     0.167 HD
ATOM     64  C   UNL     1     -10.549  13.795  -2.679  1.00  0.00     0.074 A 
ATOM     65  C   UNL     1     -10.350  14.421  -3.987  1.00  0.00     0.031 C 
ATOM     66  C   UNL     1      -9.787  13.788  -1.545  1.00  0.00     0.031 A 
BRANCH  53  67
ATOM     67  C   UNL     1      -6.150  16.459  -4.521  1.00  0.00    -0.014 A 
ATOM     68  C   UNL     1      -6.611  17.687  -4.022  1.00  0.00     0.009 A 
ATOM     69  C   UNL     1      -6.171  16.306  -5.923  1.00  0.00     0.009 A 
ATOM     70  C   UNL     1      -7.151  18.660  -4.870  1.00  0.00     0.001 A 
ATOM     71  C   UNL     1      -6.674  17.288  -6.777  1.00  0.00     0.001 A 
ATOM     72  C   UNL     1      -7.193  18.455  -6.246  1.00  0.00     0.000 A 
ENDBRANCH  53  67
BRANCH  54  73
ATOM     73  C   UNL     1     -12.739  11.109  -5.873  1.00  0.00    -0.014 A 
ATOM     74  C   UNL     1     -13.959  11.808  -5.827  1.00  0.00     0.009 A 
ATOM     75  C   UNL     1     -12.431  10.417  -7.058  1.00  0.00     0.009 A 
ATOM     76  C   UNL     1     -14.805  11.863  -6.943  1.00  0.00     0.001 A 
ATOM     77  C   UNL     1     -13.279  10.468  -8.171  1.00  0.00     0.001 A 
ATOM     78  C   UNL     1     -14.457  11.207  -8.120  1.00  0.00     0.000 A 
ENDBRANCH  54  73
BRANCH  66  79
ATOM     79  C   UNL     1     -10.185  12.850  -0.428  1.00  0.00    -0.014 A 
ATOM     80  C   UNL     1     -10.134  11.448  -0.540  1.00  0.00     0.009 A 
ATOM     81  C   UNL     1     -10.429  13.407   0.836  1.00  0.00     0.009 A 
ATOM     82  C   UNL     1     -10.324  10.634   0.583  1.00  0.00     0.001 A 
ATOM     83  C   UNL     1     -10.597  12.595   1.959  1.00  0.00     0.001 A 
ATOM     84  C   UNL     1     -10.543  11.209   1.834  1.00  0.00     0.000 A 
ENDBRANCH  66  79
ENDBRANCH  40  41
ENDBRANCH  33  35
ENDBRANCH  32  33
ENDBRANCH  31  32
ENDBRANCH  30  31
ENDBRANCH  29  30
ENDBRANCH  28  29
ENDBRANCH   1  28
TORSDOF 19
