REMARK SMILES C[C@@H]1[C@@H](C(=O)OCCOCCOCCOC(=O)c2ccc(-c3c4nc(c(-c5ccccc5)c5ccc([nH]5)c(-c5ccccc5)c5nc(c(-c6ccccc6)c6ccc3[nH]6)C=C5)C=C4)cc2)CCN1C(=O)NC[C@@H]1COCCO1
REMARK SMILES IDX 10 1 9 2 8 3 7 4 6 5 4 6 5 7 3 8 1 9 2 10 68 11 66 12 67 13
REMARK SMILES IDX 69 14 70 15 71 16 72 18 73 19 74 20 78 21 75 22 77 23 76 24
REMARK SMILES IDX 11 25 12 26 13 27 14 28 15 29 16 30 17 31 18 32 19 33 65 34
REMARK SMILES IDX 20 35 64 36 21 37 22 38 23 39 58 40 24 41 63 42 57 43 59 44
REMARK SMILES IDX 25 45 62 46 56 47 55 48 26 50 48 51 33 52 47 53 34 54 37 55
REMARK SMILES IDX 46 56 60 57 35 58 36 59 45 61 61 62 38 63 27 64 28 65 32 66
REMARK SMILES IDX 29 67 31 68 30 69 49 70 50 71 54 72 51 73 53 74 52 75 39 76
REMARK SMILES IDX 40 77 44 78 41 79 43 80 42 81
REMARK H PARENT 71 17 59 49 37 60
REMARK Flexibility Score: inf
ROOT
ATOM      1  C   UNL     1       0.350   2.464  -3.417  1.00  0.00     0.188 C 
ENDROOT
BRANCH   1   2
ATOM      2  O   UNL     1      -0.397   2.547  -4.610  1.00  0.00    -0.376 OA
BRANCH   2   3
ATOM      3  C   UNL     1      -1.800   2.328  -4.611  1.00  0.00     0.202 C 
BRANCH   3   4
ATOM      4  C   UNL     1      -2.545   1.496  -3.558  1.00  0.00     0.261 C 
BRANCH   4   5
ATOM      5  O   UNL     1      -2.039   1.588  -2.222  1.00  0.00    -0.463 OA
BRANCH   5   6
ATOM      6  C   UNL     1      -1.663   0.400  -1.673  1.00  0.00     0.311 C 
ATOM      7  O   UNL     1      -1.794  -0.686  -2.220  1.00  0.00    -0.252 OA
BRANCH   6   8
ATOM      8  C   UNL     1      -0.986   0.605  -0.328  1.00  0.00     0.123 C 
ATOM      9  C   UNL     1       1.340   0.356   0.666  1.00  0.00     0.032 C 
ATOM     10  C   UNL     1       0.303  -0.232  -0.295  1.00  0.00     0.098 C 
ATOM     11  N   UNL     1      -0.144  -1.548   0.160  1.00  0.00    -0.321 N 
ATOM     12  C   UNL     1      -1.814   0.033   0.809  1.00  0.00     0.039 C 
ATOM     13  C   UNL     1      -1.466  -1.447   0.778  1.00  0.00     0.122 C 
BRANCH  11  14
ATOM     14  C   UNL     1       0.296  -2.797  -0.150  1.00  0.00     0.317 C 
ATOM     15  O   UNL     1      -0.343  -3.798   0.189  1.00  0.00    -0.249 OA
ATOM     16  N   UNL     1       1.418  -3.037  -0.847  1.00  0.00    -0.335 N 
ATOM     17  H   UNL     1       1.462  -3.974  -1.145  1.00  0.00     0.165 HD
BRANCH  16  18
ATOM     18  C   UNL     1       2.588  -2.286  -1.279  1.00  0.00     0.152 C 
BRANCH  18  19
ATOM     19  C   UNL     1       3.780  -2.549  -0.351  1.00  0.00     0.163 C 
ATOM     20  C   UNL     1       4.859  -1.478  -0.550  1.00  0.00     0.194 C 
ATOM     21  O   UNL     1       4.317  -3.853  -0.662  1.00  0.00    -0.372 OA
ATOM     22  O   UNL     1       6.000  -1.751   0.272  1.00  0.00    -0.376 OA
ATOM     23  C   UNL     1       5.471  -4.120   0.149  1.00  0.00     0.189 C 
ATOM     24  C   UNL     1       6.534  -3.042  -0.057  1.00  0.00     0.188 C 
ENDBRANCH  18  19
ENDBRANCH  16  18
ENDBRANCH  11  14
ENDBRANCH   6   8
ENDBRANCH   5   6
ENDBRANCH   4   5
ENDBRANCH   3   4
ENDBRANCH   2   3
ENDBRANCH   1   2
BRANCH   1  25
ATOM     25  C   UNL     1       0.182   3.546  -2.332  1.00  0.00     0.188 C 
BRANCH  25  26
ATOM     26  O   UNL     1      -0.906   4.439  -2.364  1.00  0.00    -0.376 OA
BRANCH  26  27
ATOM     27  C   UNL     1      -1.006   5.401  -3.402  1.00  0.00     0.202 C 
BRANCH  27  28
ATOM     28  C   UNL     1       0.204   6.068  -4.080  1.00  0.00     0.261 C 
BRANCH  28  29
ATOM     29  O   UNL     1       1.373   5.259  -4.254  1.00  0.00    -0.460 OA
BRANCH  29  30
ATOM     30  C   UNL     1       2.437   5.623  -3.500  1.00  0.00     0.338 C 
ATOM     31  O   UNL     1       2.503   6.549  -2.701  1.00  0.00    -0.246 OA
BRANCH  30  32
ATOM     32  C   UNL     1       3.492   4.606  -3.620  1.00  0.00     0.060 A 
ATOM     33  C   UNL     1       3.837   3.861  -2.483  1.00  0.00     0.016 A 
ATOM     34  C   UNL     1       4.177   4.431  -4.822  1.00  0.00     0.016 A 
ATOM     35  C   UNL     1       4.883   2.944  -2.541  1.00  0.00     0.010 A 
ATOM     36  C   UNL     1       5.247   3.534  -4.870  1.00  0.00     0.010 A 
ATOM     37  C   UNL     1       5.619   2.807  -3.725  1.00  0.00    -0.014 A 
BRANCH  37  38
ATOM     38  C   UNL     1       6.890   2.047  -3.716  1.00  0.00     0.031 A 
ATOM     39  C   UNL     1       8.171   2.796  -3.475  1.00  0.00     0.074 A 
ATOM     40  C   UNL     1       6.908   0.718  -3.914  1.00  0.00     0.049 A 
ATOM     41  N   UNL     1       9.403   2.357  -3.490  1.00  0.00    -0.248 NA
ATOM     42  C   UNL     1       8.044   4.235  -3.187  1.00  0.00     0.031 C 
ATOM     43  C   UNL     1       5.732  -0.125  -4.119  1.00  0.00     0.029 A 
ATOM     44  N   UNL     1       7.965  -0.153  -3.975  1.00  0.00    -0.354 N 
ATOM     45  C   UNL     1      10.198   3.466  -3.228  1.00  0.00     0.074 A 
ATOM     46  C   UNL     1       9.312   4.600  -3.075  1.00  0.00     0.031 C 
ATOM     47  C   UNL     1       6.135  -1.399  -4.276  1.00  0.00     0.029 A 
ATOM     48  C   UNL     1       7.595  -1.452  -4.223  1.00  0.00     0.049 A 
ATOM     49  H   UNL     1       8.901   0.126  -3.853  1.00  0.00     0.167 HD
ATOM     50  C   UNL     1      11.546   3.537  -3.127  1.00  0.00     0.031 A 
ATOM     51  C   UNL     1       8.352  -2.551  -4.407  1.00  0.00     0.031 A 
ATOM     52  C   UNL     1      12.430   2.418  -3.304  1.00  0.00     0.049 A 
ATOM     53  C   UNL     1       9.854  -2.429  -4.369  1.00  0.00     0.074 A 
ATOM     54  C   UNL     1      13.812   2.391  -3.236  1.00  0.00     0.029 A 
ATOM     55  N   UNL     1      12.018   1.126  -3.591  1.00  0.00    -0.354 N 
ATOM     56  N   UNL     1      10.595  -1.378  -4.113  1.00  0.00    -0.248 NA
ATOM     57  C   UNL     1      10.624  -3.650  -4.654  1.00  0.00     0.031 C 
ATOM     58  C   UNL     1      14.239   1.093  -3.532  1.00  0.00     0.029 A 
ATOM     59  C   UNL     1      13.119   0.299  -3.725  1.00  0.00     0.049 A 
ATOM     60  H   UNL     1      11.081   0.840  -3.685  1.00  0.00     0.167 HD
ATOM     61  C   UNL     1      11.913  -1.816  -4.183  1.00  0.00     0.074 A 
ATOM     62  C   UNL     1      11.870  -3.231  -4.484  1.00  0.00     0.031 C 
ATOM     63  C   UNL     1      13.058  -1.109  -4.017  1.00  0.00     0.031 A 
BRANCH  50  64
ATOM     64  C   UNL     1      12.146   4.886  -2.853  1.00  0.00    -0.014 A 
ATOM     65  C   UNL     1      12.031   5.492  -1.592  1.00  0.00     0.009 A 
ATOM     66  C   UNL     1      12.857   5.550  -3.865  1.00  0.00     0.009 A 
ATOM     67  C   UNL     1      12.592   6.750  -1.360  1.00  0.00     0.001 A 
ATOM     68  C   UNL     1      13.440   6.794  -3.622  1.00  0.00     0.001 A 
ATOM     69  C   UNL     1      13.300   7.397  -2.373  1.00  0.00     0.000 A 
ENDBRANCH  50  64
BRANCH  51  70
ATOM     70  C   UNL     1       7.716  -3.869  -4.672  1.00  0.00    -0.014 A 
ATOM     71  C   UNL     1       7.820  -4.910  -3.736  1.00  0.00     0.009 A 
ATOM     72  C   UNL     1       7.039  -4.106  -5.878  1.00  0.00     0.009 A 
ATOM     73  C   UNL     1       7.283  -6.169  -4.016  1.00  0.00     0.001 A 
ATOM     74  C   UNL     1       6.477  -5.357  -6.141  1.00  0.00     0.001 A 
ATOM     75  C   UNL     1       6.608  -6.390  -5.215  1.00  0.00     0.000 A 
ENDBRANCH  51  70
BRANCH  63  76
ATOM     76  C   UNL     1      14.357  -1.862  -4.113  1.00  0.00    -0.014 A 
ATOM     77  C   UNL     1      14.846  -2.321  -5.345  1.00  0.00     0.009 A 
ATOM     78  C   UNL     1      15.124  -2.070  -2.955  1.00  0.00     0.009 A 
ATOM     79  C   UNL     1      16.064  -3.003  -5.410  1.00  0.00     0.001 A 
ATOM     80  C   UNL     1      16.354  -2.726  -3.028  1.00  0.00     0.001 A 
ATOM     81  C   UNL     1      16.818  -3.200  -4.254  1.00  0.00     0.000 A 
ENDBRANCH  63  76
ENDBRANCH  37  38
ENDBRANCH  30  32
ENDBRANCH  29  30
ENDBRANCH  28  29
ENDBRANCH  27  28
ENDBRANCH  26  27
ENDBRANCH  25  26
ENDBRANCH   1  25
TORSDOF 20
