REMARK SMILES O=C(OCCOCCOCCOC(=O)c1nnn(-c2cccc(Br)c2)c1[C@@H]1COc2ccccc2O1)c1ccc(-c2c3nc(c(-c4ccccc4)c4ccc([nH]4)c(-c4ccccc4)c4nc(c(-c5ccccc5)c5ccc2[nH]5)C=C4)C=C3)cc1
REMARK SMILES IDX 7 1 6 2 5 3 4 4 3 5 2 6 1 7 37 8 38 9 84 10 39 11 83 12
REMARK SMILES IDX 40 13 41 14 42 15 77 16 43 17 82 18 76 19 78 20 44 21 81 22
REMARK SMILES IDX 75 23 74 24 45 26 67 27 52 28 66 29 53 30 56 31 65 32 79 33
REMARK SMILES IDX 54 34 55 35 64 37 80 38 57 39 46 40 47 41 51 42 48 43 50 44
REMARK SMILES IDX 49 45 68 46 69 47 73 48 70 49 72 50 71 51 58 52 59 53 63 54
REMARK SMILES IDX 60 55 62 56 61 57 8 58 9 59 10 60 11 61 12 62 13 63 14 64
REMARK SMILES IDX 15 65 16 66 26 67 17 68 18 69 27 70 28 71 36 72 29 73 35 74
REMARK SMILES IDX 30 75 34 76 31 77 33 78 32 79 19 80 20 81 25 82 21 83 23 84
REMARK SMILES IDX 22 85 24 86
REMARK H PARENT 78 25 56 36
REMARK Flexibility Score: inf
ROOT
ATOM      1  C   UNL     1       2.882  -0.956  -1.084  1.00  0.00     0.188 C 
ENDROOT
BRANCH   1   2
ATOM      2  O   UNL     1       3.850  -0.048  -0.566  1.00  0.00    -0.376 OA
BRANCH   2   3
ATOM      3  C   UNL     1       4.820  -0.540   0.335  1.00  0.00     0.202 C 
BRANCH   3   4
ATOM      4  C   UNL     1       4.607   0.067   1.718  1.00  0.00     0.261 C 
BRANCH   4   5
ATOM      5  O   UNL     1       3.239   0.027   2.169  1.00  0.00    -0.460 OA
BRANCH   5   6
ATOM      6  C   UNL     1       2.145   0.699   1.745  1.00  0.00     0.338 C 
ATOM      7  O   UNL     1       1.047   0.338   2.175  1.00  0.00    -0.246 OA
BRANCH   6   8
ATOM      8  C   UNL     1       2.140   1.884   0.831  1.00  0.00     0.060 A 
ATOM      9  C   UNL     1       3.252   2.648   0.481  1.00  0.00     0.016 A 
ATOM     10  C   UNL     1       0.869   2.318   0.392  1.00  0.00     0.016 A 
ATOM     11  C   UNL     1       3.095   3.882  -0.132  1.00  0.00     0.010 A 
ATOM     12  C   UNL     1       0.703   3.552  -0.226  1.00  0.00     0.010 A 
ATOM     13  C   UNL     1       1.815   4.364  -0.402  1.00  0.00    -0.014 A 
BRANCH  13  14
ATOM     14  C   UNL     1       1.713   5.768  -0.767  1.00  0.00     0.031 A 
ATOM     15  C   UNL     1       2.295   6.175  -2.066  1.00  0.00     0.074 A 
ATOM     16  C   UNL     1       1.143   6.673   0.051  1.00  0.00     0.049 A 
ATOM     17  N   UNL     1       3.298   6.967  -2.273  1.00  0.00    -0.248 NA
ATOM     18  C   UNL     1       1.721   5.588  -3.282  1.00  0.00     0.031 C 
ATOM     19  C   UNL     1       0.314   6.425   1.233  1.00  0.00     0.029 A 
ATOM     20  N   UNL     1       1.117   8.030  -0.073  1.00  0.00    -0.354 N 
ATOM     21  C   UNL     1       3.396   7.105  -3.653  1.00  0.00     0.074 A 
ATOM     22  C   UNL     1       2.469   6.159  -4.227  1.00  0.00     0.031 C 
ATOM     23  C   UNL     1      -0.318   7.570   1.574  1.00  0.00     0.029 A 
ATOM     24  C   UNL     1       0.169   8.645   0.726  1.00  0.00     0.049 A 
ATOM     25  H   UNL     1       1.717   8.527  -0.676  1.00  0.00     0.167 HD
ATOM     26  C   UNL     1       4.093   8.119  -4.234  1.00  0.00     0.031 A 
ATOM     27  C   UNL     1      -0.241   9.932   0.648  1.00  0.00     0.031 A 
ATOM     28  C   UNL     1       5.009   8.755  -3.328  1.00  0.00     0.049 A 
ATOM     29  C   UNL     1       0.795  10.708  -0.068  1.00  0.00     0.074 A 
ATOM     30  C   UNL     1       6.106   8.345  -2.598  1.00  0.00     0.029 A 
ATOM     31  N   UNL     1       4.657   9.981  -2.820  1.00  0.00    -0.354 N 
ATOM     32  N   UNL     1       1.960  10.998   0.436  1.00  0.00    -0.248 NA
ATOM     33  C   UNL     1       0.692  10.849  -1.512  1.00  0.00     0.031 C 
ATOM     34  C   UNL     1       6.064   9.116  -1.400  1.00  0.00     0.029 A 
ATOM     35  C   UNL     1       4.959   9.965  -1.484  1.00  0.00     0.049 A 
ATOM     36  H   UNL     1       4.261  10.730  -3.321  1.00  0.00     0.167 HD
ATOM     37  C   UNL     1       2.837  10.938  -0.637  1.00  0.00     0.074 A 
ATOM     38  C   UNL     1       1.986  10.971  -1.821  1.00  0.00     0.031 C 
ATOM     39  C   UNL     1       4.144  10.583  -0.461  1.00  0.00     0.031 A 
BRANCH  26  40
ATOM     40  C   UNL     1       3.684   8.766  -5.532  1.00  0.00    -0.014 A 
ATOM     41  C   UNL     1       4.537   9.714  -6.125  1.00  0.00     0.009 A 
ATOM     42  C   UNL     1       2.373   8.685  -6.037  1.00  0.00     0.009 A 
ATOM     43  C   UNL     1       4.079  10.574  -7.131  1.00  0.00     0.001 A 
ATOM     44  C   UNL     1       1.926   9.511  -7.070  1.00  0.00     0.001 A 
ATOM     45  C   UNL     1       2.772  10.475  -7.600  1.00  0.00     0.000 A 
ENDBRANCH  26  40
BRANCH  27  46
ATOM     46  C   UNL     1      -1.586  10.467   0.939  1.00  0.00    -0.014 A 
ATOM     47  C   UNL     1      -1.789  11.841   1.130  1.00  0.00     0.009 A 
ATOM     48  C   UNL     1      -2.722   9.650   0.788  1.00  0.00     0.009 A 
ATOM     49  C   UNL     1      -3.083  12.379   1.139  1.00  0.00     0.001 A 
ATOM     50  C   UNL     1      -4.013  10.184   0.807  1.00  0.00     0.001 A 
ATOM     51  C   UNL     1      -4.192  11.552   0.968  1.00  0.00     0.000 A 
ENDBRANCH  27  46
BRANCH  39  52
ATOM     52  C   UNL     1       4.681  10.531   0.948  1.00  0.00    -0.014 A 
ATOM     53  C   UNL     1       4.139   9.687   1.934  1.00  0.00     0.009 A 
ATOM     54  C   UNL     1       5.854  11.238   1.249  1.00  0.00     0.009 A 
ATOM     55  C   UNL     1       4.730   9.588   3.196  1.00  0.00     0.001 A 
ATOM     56  C   UNL     1       6.458  11.121   2.503  1.00  0.00     0.001 A 
ATOM     57  C   UNL     1       5.892  10.302   3.479  1.00  0.00     0.000 A 
ENDBRANCH  39  52
ENDBRANCH  13  14
ENDBRANCH   6   8
ENDBRANCH   5   6
ENDBRANCH   4   5
ENDBRANCH   3   4
ENDBRANCH   2   3
ENDBRANCH   1   2
BRANCH   1  58
ATOM     58  C   UNL     1       2.156  -1.979  -0.175  1.00  0.00     0.188 C 
BRANCH  58  59
ATOM     59  O   UNL     1       2.923  -2.842   0.657  1.00  0.00    -0.376 OA
BRANCH  59  60
ATOM     60  C   UNL     1       3.656  -3.926   0.092  1.00  0.00     0.202 C 
BRANCH  60  61
ATOM     61  C   UNL     1       3.096  -4.582  -1.163  1.00  0.00     0.261 C 
BRANCH  61  62
ATOM     62  O   UNL     1       3.223  -3.667  -2.259  1.00  0.00    -0.458 OA
BRANCH  62  63
ATOM     63  C   UNL     1       2.427  -3.936  -3.325  1.00  0.00     0.361 C 
ATOM     64  O   UNL     1       1.725  -4.930  -3.438  1.00  0.00    -0.244 OA
BRANCH  63  65
ATOM     65  C   UNL     1       2.492  -2.909  -4.345  1.00  0.00     0.198 A 
ATOM     66  N   UNL     1       1.654  -1.817  -4.361  1.00  0.00    -0.122 NA
ATOM     67  C   UNL     1       3.313  -2.857  -5.456  1.00  0.00     0.123 A 
ATOM     68  N   UNL     1       1.879  -1.137  -5.481  1.00  0.00    -0.061 NA
ATOM     69  N   UNL     1       2.719  -1.879  -6.232  1.00  0.00    -0.213 N 
BRANCH  67  70
ATOM     70  C   UNL     1       4.579  -3.535  -5.864  1.00  0.00     0.262 C 
ATOM     71  C   UNL     1       4.707  -5.020  -5.540  1.00  0.00     0.281 C 
ATOM     72  O   UNL     1       5.650  -2.728  -5.367  1.00  0.00    -0.477 OA
ATOM     73  O   UNL     1       5.021  -5.306  -4.180  1.00  0.00    -0.485 OA
ATOM     74  C   UNL     1       6.192  -3.175  -4.198  1.00  0.00     0.162 A 
ATOM     75  C   UNL     1       5.916  -4.422  -3.645  1.00  0.00     0.161 A 
ATOM     76  C   UNL     1       7.054  -2.295  -3.542  1.00  0.00     0.050 A 
ATOM     77  C   UNL     1       6.509  -4.795  -2.440  1.00  0.00     0.050 A 
ATOM     78  C   UNL     1       7.631  -2.660  -2.325  1.00  0.00     0.004 A 
ATOM     79  C   UNL     1       7.364  -3.914  -1.777  1.00  0.00     0.004 A 
ENDBRANCH  67  70
BRANCH  69  80
ATOM     80  C   UNL     1       2.781  -1.754  -7.636  1.00  0.00     0.068 A 
ATOM     81  C   UNL     1       2.709  -2.922  -8.416  1.00  0.00     0.028 A 
ATOM     82  C   UNL     1       2.970  -0.507  -8.230  1.00  0.00     0.044 A 
ATOM     83  C   UNL     1       2.915  -2.856  -9.789  1.00  0.00     0.003 A 
ATOM     84  C   UNL     1       3.203  -0.461  -9.606  1.00  0.00     0.020 A 
ATOM     85  C   UNL     1       3.188  -1.626 -10.382  1.00  0.00     0.016 A 
ATOM     86  Br  UNL     1       3.605   1.190 -10.435  1.00  0.00    -0.051 Br
ENDBRANCH  69  80
ENDBRANCH  63  65
ENDBRANCH  62  63
ENDBRANCH  61  62
ENDBRANCH  60  61
ENDBRANCH  59  60
ENDBRANCH  58  59
ENDBRANCH   1  58
TORSDOF 19
