REMARK SMILES O=C(OCCOCCOCCOC(=O)c1ccc(S(=O)(=O)Cc2cccs2)c(F)c1)c1ccc(-c2c3nc(c(-c4ccccc4)c4ccc([nH]4)c(-c4ccccc4)c4nc(c(-c5ccccc5)c5ccc2[nH]5)C=C4)C=C3)cc1
REMARK SMILES IDX 8 1 7 2 6 3 5 4 4 5 3 6 2 7 1 8 31 9 32 10 78 11 33 12 77 13
REMARK SMILES IDX 34 14 35 15 36 16 71 17 37 18 76 19 70 20 72 21 38 22 75 23
REMARK SMILES IDX 69 24 68 25 39 27 61 28 46 29 60 30 47 31 50 32 59 33 73 34
REMARK SMILES IDX 48 35 49 36 58 38 74 39 51 40 40 41 41 42 45 43 42 44 44 45
REMARK SMILES IDX 43 46 62 47 63 48 67 49 64 50 66 51 65 52 52 53 53 54 57 55
REMARK SMILES IDX 54 56 56 57 55 58 9 59 10 60 11 61 12 62 13 63 14 64 15 65
REMARK SMILES IDX 16 66 30 67 17 68 28 69 18 70 29 71 19 72 20 73 21 74 22 75
REMARK SMILES IDX 23 76 24 77 27 78 25 79 26 80
REMARK H PARENT 72 26 50 37
REMARK Flexibility Score: inf
ROOT
ATOM      1  C   UNL     1       1.987   0.669   3.228  1.00  0.00     0.188 C 
ENDROOT
BRANCH   1   2
ATOM      2  C   UNL     1       2.520   1.035   1.839  1.00  0.00     0.188 C 
BRANCH   2   3
ATOM      3  O   UNL     1       3.821   0.478   1.601  1.00  0.00    -0.376 OA
BRANCH   3   4
ATOM      4  C   UNL     1       4.672   1.330   0.822  1.00  0.00     0.202 C 
BRANCH   4   5
ATOM      5  C   UNL     1       4.450   1.251  -0.697  1.00  0.00     0.261 C 
BRANCH   5   6
ATOM      6  O   UNL     1       3.081   0.989  -1.044  1.00  0.00    -0.460 OA
BRANCH   6   7
ATOM      7  C   UNL     1       2.495  -0.206  -1.309  1.00  0.00     0.338 C 
ATOM      8  O   UNL     1       1.319  -0.215  -1.670  1.00  0.00    -0.246 OA
BRANCH   7   9
ATOM      9  C   UNL     1       3.199  -1.524  -1.202  1.00  0.00     0.060 A 
ATOM     10  C   UNL     1       4.339  -1.766  -0.437  1.00  0.00     0.016 A 
ATOM     11  C   UNL     1       2.634  -2.614  -1.890  1.00  0.00     0.016 A 
ATOM     12  C   UNL     1       4.973  -2.999  -0.443  1.00  0.00     0.010 A 
ATOM     13  C   UNL     1       3.230  -3.881  -1.851  1.00  0.00     0.010 A 
ATOM     14  C   UNL     1       4.429  -4.064  -1.153  1.00  0.00    -0.014 A 
BRANCH  14  15
ATOM     15  C   UNL     1       5.211  -5.312  -1.237  1.00  0.00     0.031 A 
ATOM     16  C   UNL     1       5.915  -5.630  -2.519  1.00  0.00     0.074 A 
ATOM     17  C   UNL     1       5.409  -6.059  -0.136  1.00  0.00     0.049 A 
ATOM     18  N   UNL     1       6.650  -6.665  -2.821  1.00  0.00    -0.248 NA
ATOM     19  C   UNL     1       5.809  -4.629  -3.595  1.00  0.00     0.031 C 
ATOM     20  C   UNL     1       4.910  -5.736   1.200  1.00  0.00     0.029 A 
ATOM     21  N   UNL     1       6.096  -7.229   0.045  1.00  0.00    -0.354 N 
ATOM     22  C   UNL     1       7.092  -6.443  -4.117  1.00  0.00     0.074 A 
ATOM     23  C   UNL     1       6.527  -5.188  -4.557  1.00  0.00     0.031 C 
ATOM     24  C   UNL     1       5.275  -6.700   2.058  1.00  0.00     0.029 A 
ATOM     25  C   UNL     1       5.995  -7.728   1.322  1.00  0.00     0.049 A 
ATOM     26  H   UNL     1       6.612  -7.670  -0.669  1.00  0.00     0.167 HD
ATOM     27  C   UNL     1       7.903  -7.221  -4.867  1.00  0.00     0.031 A 
ATOM     28  C   UNL     1       6.407  -8.903   1.828  1.00  0.00     0.031 A 
ATOM     29  C   UNL     1       8.436  -8.476  -4.414  1.00  0.00     0.049 A 
ATOM     30  C   UNL     1       7.160  -9.830   0.920  1.00  0.00     0.074 A 
ATOM     31  C   UNL     1       9.222  -9.381  -5.102  1.00  0.00     0.029 A 
ATOM     32  N   UNL     1       8.227  -9.002  -3.146  1.00  0.00    -0.354 N 
ATOM     33  N   UNL     1       7.538  -9.636  -0.322  1.00  0.00    -0.248 NA
ATOM     34  C   UNL     1       7.555 -11.127   1.480  1.00  0.00     0.031 C 
ATOM     35  C   UNL     1       9.445 -10.481  -4.266  1.00  0.00     0.029 A 
ATOM     36  C   UNL     1       8.845 -10.234  -3.039  1.00  0.00     0.049 A 
ATOM     37  H   UNL     1       7.714  -8.563  -2.430  1.00  0.00     0.167 HD
ATOM     38  C   UNL     1       8.242 -10.773  -0.684  1.00  0.00     0.074 A 
ATOM     39  C   UNL     1       8.249 -11.645   0.475  1.00  0.00     0.031 C 
ATOM     40  C   UNL     1       8.835 -11.070  -1.866  1.00  0.00     0.031 A 
BRANCH  27  41
ATOM     41  C   UNL     1       8.190  -6.758  -6.265  1.00  0.00    -0.014 A 
ATOM     42  C   UNL     1       9.053  -5.680  -6.519  1.00  0.00     0.009 A 
ATOM     43  C   UNL     1       7.565  -7.399  -7.345  1.00  0.00     0.009 A 
ATOM     44  C   UNL     1       9.259  -5.235  -7.827  1.00  0.00     0.001 A 
ATOM     45  C   UNL     1       7.790  -6.966  -8.652  1.00  0.00     0.001 A 
ATOM     46  C   UNL     1       8.629  -5.879  -8.892  1.00  0.00     0.000 A 
ENDBRANCH  27  41
BRANCH  28  47
ATOM     47  C   UNL     1       6.067  -9.286   3.224  1.00  0.00    -0.014 A 
ATOM     48  C   UNL     1       7.059  -9.419   4.206  1.00  0.00     0.009 A 
ATOM     49  C   UNL     1       4.731  -9.545   3.575  1.00  0.00     0.009 A 
ATOM     50  C   UNL     1       6.724  -9.831   5.500  1.00  0.00     0.001 A 
ATOM     51  C   UNL     1       4.395  -9.927   4.875  1.00  0.00     0.001 A 
ATOM     52  C   UNL     1       5.393 -10.082   5.834  1.00  0.00     0.000 A 
ENDBRANCH  28  47
BRANCH  40  53
ATOM     53  C   UNL     1       9.576 -12.370  -1.937  1.00  0.00    -0.014 A 
ATOM     54  C   UNL     1       8.894 -13.593  -2.007  1.00  0.00     0.009 A 
ATOM     55  C   UNL     1      10.979 -12.362  -1.970  1.00  0.00     0.009 A 
ATOM     56  C   UNL     1       9.607 -14.790  -2.078  1.00  0.00     0.001 A 
ATOM     57  C   UNL     1      11.688 -13.557  -2.071  1.00  0.00     0.001 A 
ATOM     58  C   UNL     1      11.002 -14.770  -2.116  1.00  0.00     0.000 A 
ENDBRANCH  40  53
ENDBRANCH  14  15
ENDBRANCH   7   9
ENDBRANCH   6   7
ENDBRANCH   5   6
ENDBRANCH   4   5
ENDBRANCH   3   4
ENDBRANCH   2   3
ENDBRANCH   1   2
BRANCH   1  59
ATOM     59  O   UNL     1       2.655   1.280   4.331  1.00  0.00    -0.376 OA
BRANCH  59  60
ATOM     60  C   UNL     1       4.054   1.047   4.448  1.00  0.00     0.202 C 
BRANCH  60  61
ATOM     61  C   UNL     1       4.494  -0.360   4.874  1.00  0.00     0.261 C 
BRANCH  61  62
ATOM     62  O   UNL     1       3.910  -1.443   4.123  1.00  0.00    -0.460 OA
BRANCH  62  63
ATOM     63  C   UNL     1       3.155  -2.288   4.863  1.00  0.00     0.338 C 
ATOM     64  O   UNL     1       2.888  -2.177   6.056  1.00  0.00    -0.246 OA
BRANCH  63  65
ATOM     65  C   UNL     1       2.731  -3.487   4.109  1.00  0.00     0.063 A 
ATOM     66  C   UNL     1       2.810  -4.711   4.786  1.00  0.00     0.017 A 
ATOM     67  C   UNL     1       2.181  -3.439   2.824  1.00  0.00     0.056 A 
ATOM     68  C   UNL     1       2.307  -5.874   4.205  1.00  0.00     0.024 A 
ATOM     69  C   UNL     1       1.682  -4.614   2.246  1.00  0.00     0.142 A 
ATOM     70  C   UNL     1       1.717  -5.820   2.937  1.00  0.00     0.103 A 
ATOM     71  F   UNL     1       1.206  -4.547   0.997  1.00  0.00    -0.206 F 
BRANCH  70  72
ATOM     72  S   UNL     1       1.080  -7.327   2.267  1.00  0.00     0.186 S 
ATOM     73  O   UNL     1       2.173  -7.904   1.504  1.00  0.00    -0.223 OA
ATOM     74  O   UNL     1       0.544  -8.077   3.394  1.00  0.00    -0.223 OA
BRANCH  72  75
ATOM     75  C   UNL     1      -0.247  -7.013   1.130  1.00  0.00     0.188 C 
BRANCH  75  76
ATOM     76  C   UNL     1      -1.474  -6.481   1.801  1.00  0.00     0.020 A 
ATOM     77  C   UNL     1      -2.459  -7.190   2.466  1.00  0.00     0.016 A 
ATOM     78  S   UNL     1      -1.873  -4.818   1.698  1.00  0.00    -0.148 S 
ATOM     79  C   UNL     1      -3.532  -6.359   2.898  1.00  0.00     0.012 A 
ATOM     80  C   UNL     1      -3.334  -5.042   2.551  1.00  0.00     0.065 A 
ENDBRANCH  75  76
ENDBRANCH  72  75
ENDBRANCH  70  72
ENDBRANCH  63  65
ENDBRANCH  62  63
ENDBRANCH  61  62
ENDBRANCH  60  61
ENDBRANCH  59  60
ENDBRANCH   1  59
TORSDOF 20
