REMARK SMILES O=C(OCCOCCOCCOC(=O)c1ccccc1Nc1nc(Cl)nc(Nc2ccc(N3CCOCC3=O)cc2)n1)c1ccc(-c2c3nc(c(-c4ccccc4)c4ccc([nH]4)c(-c4ccccc4)c4nc(c(-c5ccccc5)c5ccc2[nH]5)C=C4)C=C3)cc1
REMARK SMILES IDX 9 1 8 2 7 3 6 4 5 5 4 6 3 7 2 8 1 9 43 10 44 11 90 12 45 13
REMARK SMILES IDX 89 14 46 15 47 16 48 17 83 18 49 19 88 20 82 21 84 22 50 23
REMARK SMILES IDX 87 24 81 25 80 26 51 28 73 29 58 30 72 31 59 32 62 33 71 34
REMARK SMILES IDX 85 35 60 36 61 37 70 39 86 40 63 41 52 42 53 43 57 44 54 45
REMARK SMILES IDX 56 46 55 47 74 48 75 49 79 50 76 51 78 52 77 53 64 54 65 55
REMARK SMILES IDX 69 56 66 57 68 58 67 59 10 60 11 61 12 62 13 63 14 64 15 65
REMARK SMILES IDX 16 66 20 67 17 68 19 69 18 70 21 71 22 73 23 74 42 75 24 76
REMARK SMILES IDX 27 77 25 78 26 79 28 80 29 82 30 83 41 84 31 85 40 86 32 87
REMARK SMILES IDX 33 88 34 89 38 90 35 91 37 92 39 93 36 94
REMARK H PARENT 84 27 62 38 21 72 28 81
REMARK Flexibility Score: inf
ROOT
ATOM      1  O   UNL     1       2.702   0.789  -4.427  1.00  0.00    -0.376 OA
ENDROOT
BRANCH   1   2
ATOM      2  C   UNL     1       1.959   0.797  -3.209  1.00  0.00     0.188 C 
BRANCH   2   3
ATOM      3  C   UNL     1       2.480  -0.123  -2.105  1.00  0.00     0.188 C 
BRANCH   3   4
ATOM      4  O   UNL     1       3.752   0.305  -1.601  1.00  0.00    -0.376 OA
BRANCH   4   5
ATOM      5  C   UNL     1       4.658  -0.779  -1.368  1.00  0.00     0.202 C 
BRANCH   5   6
ATOM      6  C   UNL     1       4.495  -1.450   0.002  1.00  0.00     0.261 C 
BRANCH   6   7
ATOM      7  O   UNL     1       3.128  -1.452   0.449  1.00  0.00    -0.460 OA
BRANCH   7   8
ATOM      8  C   UNL     1       2.482  -0.513   1.186  1.00  0.00     0.338 C 
ATOM      9  O   UNL     1       1.283  -0.672   1.413  1.00  0.00    -0.246 OA
BRANCH   8  10
ATOM     10  C   UNL     1       3.156   0.668   1.813  1.00  0.00     0.060 A 
ATOM     11  C   UNL     1       4.319   1.284   1.349  1.00  0.00     0.016 A 
ATOM     12  C   UNL     1       2.545   1.206   2.961  1.00  0.00     0.016 A 
ATOM     13  C   UNL     1       4.960   2.267   2.098  1.00  0.00     0.010 A 
ATOM     14  C   UNL     1       3.147   2.242   3.683  1.00  0.00     0.010 A 
ATOM     15  C   UNL     1       4.402   2.719   3.294  1.00  0.00    -0.014 A 
BRANCH  15  16
ATOM     16  C   UNL     1       5.242   3.534   4.201  1.00  0.00     0.031 A 
ATOM     17  C   UNL     1       5.839   2.863   5.410  1.00  0.00     0.074 A 
ATOM     18  C   UNL     1       5.571   4.797   3.877  1.00  0.00     0.049 A 
ATOM     19  N   UNL     1       6.668   3.341   6.300  1.00  0.00    -0.248 NA
ATOM     20  C   UNL     1       5.461   1.456   5.640  1.00  0.00     0.031 C 
ATOM     21  C   UNL     1       5.114   5.509   2.683  1.00  0.00     0.029 A 
ATOM     22  N   UNL     1       6.401   5.692   4.502  1.00  0.00    -0.354 N 
ATOM     23  C   UNL     1       6.888   2.307   7.203  1.00  0.00     0.074 A 
ATOM     24  C   UNL     1       6.097   1.180   6.767  1.00  0.00     0.031 C 
ATOM     25  C   UNL     1       5.699   6.718   2.643  1.00  0.00     0.029 A 
ATOM     26  C   UNL     1       6.539   6.882   3.826  1.00  0.00     0.049 A 
ATOM     27  H   UNL     1       6.855   5.501   5.355  1.00  0.00     0.167 HD
ATOM     28  C   UNL     1       7.680   2.295   8.300  1.00  0.00     0.031 A 
ATOM     29  C   UNL     1       7.266   7.973   4.137  1.00  0.00     0.031 A 
ATOM     30  C   UNL     1       8.469   3.415   8.726  1.00  0.00     0.049 A 
ATOM     31  C   UNL     1       8.107   7.939   5.388  1.00  0.00     0.074 A 
ATOM     32  C   UNL     1       9.277   3.534   9.842  1.00  0.00     0.029 A 
ATOM     33  N   UNL     1       8.550   4.616   8.038  1.00  0.00    -0.354 N 
ATOM     34  N   UNL     1       8.307   6.950   6.227  1.00  0.00    -0.248 NA
ATOM     35  C   UNL     1       8.828   9.172   5.730  1.00  0.00     0.031 C 
ATOM     36  C   UNL     1       9.819   4.824   9.847  1.00  0.00     0.029 A 
ATOM     37  C   UNL     1       9.380   5.489   8.713  1.00  0.00     0.049 A 
ATOM     38  H   UNL     1       8.084   4.816   7.194  1.00  0.00     0.167 HD
ATOM     39  C   UNL     1       9.196   7.434   7.177  1.00  0.00     0.074 A 
ATOM     40  C   UNL     1       9.523   8.791   6.792  1.00  0.00     0.031 C 
ATOM     41  C   UNL     1       9.693   6.824   8.281  1.00  0.00     0.031 A 
BRANCH  28  42
ATOM     42  C   UNL     1       7.666   1.047   9.135  1.00  0.00    -0.014 A 
ATOM     43  C   UNL     1       8.316  -0.125   8.717  1.00  0.00     0.009 A 
ATOM     44  C   UNL     1       6.960   1.038  10.348  1.00  0.00     0.009 A 
ATOM     45  C   UNL     1       8.224  -1.292   9.479  1.00  0.00     0.001 A 
ATOM     46  C   UNL     1       6.889  -0.123  11.118  1.00  0.00     0.001 A 
ATOM     47  C   UNL     1       7.512  -1.290  10.679  1.00  0.00     0.000 A 
ENDBRANCH  28  42
BRANCH  29  48
ATOM     48  C   UNL     1       7.241   9.190   3.276  1.00  0.00    -0.014 A 
ATOM     49  C   UNL     1       8.413   9.664   2.664  1.00  0.00     0.009 A 
ATOM     50  C   UNL     1       6.054   9.918   3.097  1.00  0.00     0.009 A 
ATOM     51  C   UNL     1       8.402  10.844   1.914  1.00  0.00     0.001 A 
ATOM     52  C   UNL     1       6.037  11.079   2.319  1.00  0.00     0.001 A 
ATOM     53  C   UNL     1       7.213  11.546   1.735  1.00  0.00     0.000 A 
ENDBRANCH  29  48
BRANCH  41  54
ATOM     54  C   UNL     1      10.658   7.619   9.110  1.00  0.00    -0.014 A 
ATOM     55  C   UNL     1      10.215   8.676   9.920  1.00  0.00     0.009 A 
ATOM     56  C   UNL     1      12.023   7.298   9.086  1.00  0.00     0.009 A 
ATOM     57  C   UNL     1      11.130   9.424  10.661  1.00  0.00     0.001 A 
ATOM     58  C   UNL     1      12.932   8.031   9.849  1.00  0.00     0.001 A 
ATOM     59  C   UNL     1      12.486   9.100  10.626  1.00  0.00     0.000 A 
ENDBRANCH  41  54
ENDBRANCH  15  16
ENDBRANCH   8  10
ENDBRANCH   7   8
ENDBRANCH   6   7
ENDBRANCH   5   6
ENDBRANCH   4   5
ENDBRANCH   3   4
ENDBRANCH   2   3
ENDBRANCH   1   2
BRANCH   1  60
ATOM     60  C   UNL     1       4.044   1.266  -4.377  1.00  0.00     0.202 C 
BRANCH  60  61
ATOM     61  C   UNL     1       4.229   2.775  -4.191  1.00  0.00     0.261 C 
BRANCH  61  62
ATOM     62  O   UNL     1       3.692   3.285  -2.960  1.00  0.00    -0.460 OA
BRANCH  62  63
ATOM     63  C   UNL     1       2.626   4.113  -3.095  1.00  0.00     0.340 C 
ATOM     64  O   UNL     1       2.031   4.408  -4.117  1.00  0.00    -0.246 OA
BRANCH  63  65
ATOM     65  C   UNL     1       2.340   4.761  -1.809  1.00  0.00     0.083 A 
ATOM     66  C   UNL     1       1.271   4.312  -1.029  1.00  0.00     0.018 A 
ATOM     67  C   UNL     1       3.067   5.918  -1.474  1.00  0.00     0.055 A 
ATOM     68  C   UNL     1       0.935   5.009   0.129  1.00  0.00     0.001 A 
ATOM     69  C   UNL     1       2.754   6.565  -0.275  1.00  0.00     0.027 A 
ATOM     70  C   UNL     1       1.681   6.126   0.510  1.00  0.00     0.002 A 
BRANCH  67  71
ATOM     71  N   UNL     1       4.030   6.402  -2.368  1.00  0.00    -0.323 N 
ATOM     72  H   UNL     1       3.997   5.976  -3.256  1.00  0.00     0.170 HD
BRANCH  71  73
ATOM     73  C   UNL     1       5.019   7.359  -2.247  1.00  0.00     0.233 A 
ATOM     74  N   UNL     1       5.844   7.370  -1.219  1.00  0.00    -0.182 NA
ATOM     75  N   UNL     1       5.101   8.174  -3.290  1.00  0.00    -0.176 NA
ATOM     76  C   UNL     1       6.811   8.262  -1.353  1.00  0.00     0.228 A 
ATOM     77  C   UNL     1       6.040   9.104  -3.252  1.00  0.00     0.233 A 
ATOM     78  Cl  UNL     1       8.127   8.096  -0.281  1.00  0.00    -0.041 Cl
ATOM     79  N   UNL     1       6.959   9.168  -2.306  1.00  0.00    -0.182 NA
BRANCH  77  80
ATOM     80  N   UNL     1       5.938  10.056  -4.258  1.00  0.00    -0.324 N 
ATOM     81  H   UNL     1       5.261   9.853  -4.944  1.00  0.00     0.170 HD
BRANCH  80  82
ATOM     82  C   UNL     1       6.629  11.248  -4.463  1.00  0.00     0.041 A 
ATOM     83  C   UNL     1       5.937  12.346  -4.986  1.00  0.00     0.028 A 
ATOM     84  C   UNL     1       7.950  11.432  -4.057  1.00  0.00     0.028 A 
ATOM     85  C   UNL     1       6.537  13.606  -5.053  1.00  0.00     0.028 A 
ATOM     86  C   UNL     1       8.566  12.681  -4.158  1.00  0.00     0.028 A 
ATOM     87  C   UNL     1       7.856  13.790  -4.627  1.00  0.00     0.044 A 
BRANCH  87  88
ATOM     88  N   UNL     1       8.440  15.090  -4.607  1.00  0.00    -0.308 N 
ATOM     89  C   UNL     1       7.651  16.160  -3.982  1.00  0.00     0.154 C 
ATOM     90  C   UNL     1       9.806  15.277  -4.860  1.00  0.00     0.253 C 
ATOM     91  C   UNL     1       8.190  17.551  -4.278  1.00  0.00     0.183 C 
ATOM     92  C   UNL     1      10.321  16.716  -4.685  1.00  0.00     0.260 C 
ATOM     93  O   UNL     1      10.567  14.411  -5.295  1.00  0.00    -0.272 OA
ATOM     94  O   UNL     1       9.559  17.613  -3.894  1.00  0.00    -0.370 OA
ENDBRANCH  87  88
ENDBRANCH  80  82
ENDBRANCH  77  80
ENDBRANCH  71  73
ENDBRANCH  67  71
ENDBRANCH  63  65
ENDBRANCH  62  63
ENDBRANCH  61  62
ENDBRANCH  60  61
ENDBRANCH   1  60
TORSDOF 22
