REMARK SMILES NC(=O)c1cc(NC(=O)/C=C\C(=O)OCCOCCOCCOC(=O)c2ccc(-c3c4nc(c(-c5ccccc5)c5ccc([nH]5)c(-c5ccccc5)c5nc(c(-c6ccccc6)c6ccc3[nH]6)C=C5)C=C4)cc2)ccc1N1CCOCC1
REMARK SMILES IDX 18 1 17 2 16 3 15 4 14 5 12 6 13 7 11 8 10 9 8 10 7 11 9 13
REMARK SMILES IDX 6 14 4 15 5 16 76 17 75 18 74 19 2 20 1 21 3 24 77 25 78 26
REMARK SMILES IDX 82 27 79 28 81 29 80 30 19 31 20 32 21 33 22 34 23 35 24 36
REMARK SMILES IDX 25 37 26 38 27 39 73 40 28 41 72 42 29 43 30 44 31 45 66 46
REMARK SMILES IDX 32 47 71 48 65 49 67 50 33 51 70 52 64 53 63 54 34 56 56 57
REMARK SMILES IDX 41 58 55 59 42 60 45 61 54 62 68 63 43 64 44 65 53 67 69 68
REMARK SMILES IDX 46 69 35 70 36 71 40 72 37 73 39 74 38 75 57 76 58 77 62 78
REMARK SMILES IDX 59 79 61 80 60 81 47 82 48 83 52 84 49 85 51 86 50 87
REMARK H PARENT 7 12 1 22 1 23 67 55 45 66
REMARK Flexibility Score: inf
ROOT
ATOM      1  C   UNL     1       3.394  -3.659   0.639  1.00  0.00     0.188 C 
ENDROOT
BRANCH   1   2
ATOM      2  O   UNL     1       4.071  -3.780   1.874  1.00  0.00    -0.376 OA
BRANCH   2   3
ATOM      3  C   UNL     1       3.290  -3.620   3.045  1.00  0.00     0.202 C 
BRANCH   3   4
ATOM      4  C   UNL     1       2.231  -4.668   3.390  1.00  0.00     0.261 C 
BRANCH   4   5
ATOM      5  O   UNL     1       0.927  -4.732   2.764  1.00  0.00    -0.460 OA
BRANCH   5   6
ATOM      6  C   UNL     1       0.360  -3.825   1.955  1.00  0.00     0.331 C 
ATOM      7  O   UNL     1       0.865  -2.839   1.450  1.00  0.00    -0.247 OA
BRANCH   6   8
ATOM      8  C   UNL     1      -1.018  -4.216   1.630  1.00  0.00     0.099 C 
ATOM      9  C   UNL     1      -1.930  -4.543   2.555  1.00  0.00     0.079 C 
BRANCH   9  10
ATOM     10  C   UNL     1      -1.700  -4.645   4.015  1.00  0.00     0.248 C 
ATOM     11  N   UNL     1      -1.082  -3.671   4.752  1.00  0.00    -0.322 N 
ATOM     12  H   UNL     1      -0.963  -3.908   5.700  1.00  0.00     0.170 HD
ATOM     13  O   UNL     1      -2.048  -5.689   4.570  1.00  0.00    -0.270 OA
BRANCH  11  14
ATOM     14  C   UNL     1      -0.582  -2.395   4.420  1.00  0.00     0.042 A 
ATOM     15  C   UNL     1      -0.267  -0.595   2.818  1.00  0.00     0.064 A 
ATOM     16  C   UNL     1      -1.079  -1.601   3.395  1.00  0.00     0.042 A 
ATOM     17  C   UNL     1       1.033  -0.320   3.321  1.00  0.00     0.050 A 
ATOM     18  C   UNL     1       1.390  -0.981   4.508  1.00  0.00     0.029 A 
ATOM     19  C   UNL     1       0.592  -1.996   5.060  1.00  0.00     0.028 A 
BRANCH  15  20
ATOM     20  C   UNL     1      -0.789  -0.066   1.525  1.00  0.00     0.250 C 
ATOM     21  N   UNL     1       0.107   0.055   0.502  1.00  0.00    -0.366 N 
ATOM     22  H   UNL     1      -0.188   0.399  -0.372  1.00  0.00     0.159 HD
ATOM     23  H   UNL     1       1.047  -0.203   0.638  1.00  0.00     0.159 HD
ATOM     24  O   UNL     1      -1.979   0.173   1.361  1.00  0.00    -0.269 OA
ENDBRANCH  15  20
BRANCH  17  25
ATOM     25  N   UNL     1       1.949   0.497   2.657  1.00  0.00    -0.366 N 
ATOM     26  C   UNL     1       1.651   1.938   2.594  1.00  0.00     0.145 C 
ATOM     27  C   UNL     1       3.393   0.190   2.626  1.00  0.00     0.145 C 
ATOM     28  C   UNL     1       2.391   2.560   1.397  1.00  0.00     0.181 C 
ATOM     29  C   UNL     1       4.075   0.916   1.454  1.00  0.00     0.181 C 
ATOM     30  O   UNL     1       3.807   2.325   1.473  1.00  0.00    -0.378 OA
ENDBRANCH  17  25
ENDBRANCH  11  14
ENDBRANCH   9  10
ENDBRANCH   6   8
ENDBRANCH   5   6
ENDBRANCH   4   5
ENDBRANCH   3   4
ENDBRANCH   2   3
ENDBRANCH   1   2
BRANCH   1  31
ATOM     31  C   UNL     1       2.660  -4.941   0.195  1.00  0.00     0.188 C 
BRANCH  31  32
ATOM     32  O   UNL     1       3.049  -6.194   0.734  1.00  0.00    -0.376 OA
BRANCH  32  33
ATOM     33  C   UNL     1       4.432  -6.443   0.922  1.00  0.00     0.202 C 
BRANCH  33  34
ATOM     34  C   UNL     1       5.391  -6.294  -0.275  1.00  0.00     0.261 C 
BRANCH  34  35
ATOM     35  O   UNL     1       5.194  -5.137  -1.112  1.00  0.00    -0.460 OA
BRANCH  35  36
ATOM     36  C   UNL     1       4.529  -5.351  -2.284  1.00  0.00     0.338 C 
ATOM     37  O   UNL     1       4.189  -6.416  -2.741  1.00  0.00    -0.246 OA
BRANCH  36  38
ATOM     38  C   UNL     1       4.041  -4.048  -2.830  1.00  0.00     0.060 A 
ATOM     39  C   UNL     1       2.667  -3.913  -3.103  1.00  0.00     0.016 A 
ATOM     40  C   UNL     1       4.909  -2.992  -3.102  1.00  0.00     0.016 A 
ATOM     41  C   UNL     1       2.163  -2.753  -3.692  1.00  0.00     0.010 A 
ATOM     42  C   UNL     1       4.414  -1.848  -3.744  1.00  0.00     0.010 A 
ATOM     43  C   UNL     1       3.051  -1.751  -4.091  1.00  0.00    -0.014 A 
BRANCH  43  44
ATOM     44  C   UNL     1       2.635  -0.813  -5.165  1.00  0.00     0.031 A 
ATOM     45  C   UNL     1       2.938  -1.219  -6.586  1.00  0.00     0.074 A 
ATOM     46  C   UNL     1       1.988   0.340  -4.923  1.00  0.00     0.049 A 
ATOM     47  N   UNL     1       2.766  -0.559  -7.701  1.00  0.00    -0.248 NA
ATOM     48  C   UNL     1       3.525  -2.559  -6.764  1.00  0.00     0.031 C 
ATOM     49  C   UNL     1       1.551   0.817  -3.614  1.00  0.00     0.029 A 
ATOM     50  N   UNL     1       1.593   1.326  -5.793  1.00  0.00    -0.354 N 
ATOM     51  C   UNL     1       3.242  -1.394  -8.706  1.00  0.00     0.074 A 
ATOM     52  C   UNL     1       3.735  -2.593  -8.068  1.00  0.00     0.031 C 
ATOM     53  C   UNL     1       0.957   2.015  -3.766  1.00  0.00     0.029 A 
ATOM     54  C   UNL     1       1.009   2.404  -5.176  1.00  0.00     0.049 A 
ATOM     55  H   UNL     1       1.716   1.265  -6.768  1.00  0.00     0.167 HD
ATOM     56  C   UNL     1       3.268  -1.189 -10.044  1.00  0.00     0.031 A 
ATOM     57  C   UNL     1       0.590   3.578  -5.691  1.00  0.00     0.031 A 
ATOM     58  C   UNL     1       2.802   0.011 -10.683  1.00  0.00     0.049 A 
ATOM     59  C   UNL     1       0.730   3.836  -7.171  1.00  0.00     0.074 A 
ATOM     60  C   UNL     1       2.791   0.322 -12.030  1.00  0.00     0.029 A 
ATOM     61  N   UNL     1       2.273   1.102 -10.012  1.00  0.00    -0.354 N 
ATOM     62  N   UNL     1       1.185   3.045  -8.113  1.00  0.00    -0.248 NA
ATOM     63  C   UNL     1       0.290   5.153  -7.657  1.00  0.00     0.031 C 
ATOM     64  C   UNL     1       2.313   1.629 -12.170  1.00  0.00     0.029 A 
ATOM     65  C   UNL     1       1.957   2.102 -10.916  1.00  0.00     0.049 A 
ATOM     66  H   UNL     1       2.141   1.158  -9.038  1.00  0.00     0.167 HD
ATOM     67  C   UNL     1       1.051   3.752  -9.304  1.00  0.00     0.074 A 
ATOM     68  C   UNL     1       0.466   5.033  -8.966  1.00  0.00     0.031 C 
ATOM     69  C   UNL     1       1.375   3.372 -10.566  1.00  0.00     0.031 A 
BRANCH  56  70
ATOM     70  C   UNL     1       3.878  -2.274 -10.888  1.00  0.00    -0.014 A 
ATOM     71  C   UNL     1       3.256  -3.524 -11.041  1.00  0.00     0.009 A 
ATOM     72  C   UNL     1       5.106  -2.046 -11.527  1.00  0.00     0.009 A 
ATOM     73  C   UNL     1       3.876  -4.538 -11.774  1.00  0.00     0.001 A 
ATOM     74  C   UNL     1       5.707  -3.050 -12.289  1.00  0.00     0.001 A 
ATOM     75  C   UNL     1       5.099  -4.299 -12.400  1.00  0.00     0.000 A 
ENDBRANCH  56  70
BRANCH  57  76
ATOM     76  C   UNL     1       0.005   4.616  -4.801  1.00  0.00    -0.014 A 
ATOM     77  C   UNL     1      -1.356   4.947  -4.888  1.00  0.00     0.009 A 
ATOM     78  C   UNL     1       0.808   5.299  -3.873  1.00  0.00     0.009 A 
ATOM     79  C   UNL     1      -1.896   5.950  -4.080  1.00  0.00     0.001 A 
ATOM     80  C   UNL     1       0.259   6.282  -3.046  1.00  0.00     0.001 A 
ATOM     81  C   UNL     1      -1.090   6.612  -3.155  1.00  0.00     0.000 A 
ENDBRANCH  57  76
BRANCH  69  82
ATOM     82  C   UNL     1       1.058   4.328 -11.685  1.00  0.00    -0.014 A 
ATOM     83  C   UNL     1       1.777   5.520 -11.863  1.00  0.00     0.009 A 
ATOM     84  C   UNL     1       0.051   4.000 -12.607  1.00  0.00     0.009 A 
ATOM     85  C   UNL     1       1.468   6.380 -12.920  1.00  0.00     0.001 A 
ATOM     86  C   UNL     1      -0.233   4.844 -13.681  1.00  0.00     0.001 A 
ATOM     87  C   UNL     1       0.468   6.039 -13.831  1.00  0.00     0.000 A 
ENDBRANCH  69  82
ENDBRANCH  43  44
ENDBRANCH  36  38
ENDBRANCH  35  36
ENDBRANCH  34  35
ENDBRANCH  33  34
ENDBRANCH  32  33
ENDBRANCH  31  32
ENDBRANCH   1  31
TORSDOF 21
