REMARK SMILES C[C@]1(c2ccccc2C(=O)OCCOCCOCCOC(=O)c2ccc(-c3c4nc(c(-c5ccccc5)c5ccc([nH]5)c(-c5ccccc5)c5nc(c(-c6ccccc6)c6ccc3[nH]6)C=C5)C=C4)cc2)NN=C(c2ccccc2)S1
REMARK SMILES IDX 15 1 14 2 13 3 12 4 11 5 9 6 10 7 8 8 3 9 4 10 5 11 7 12
REMARK SMILES IDX 6 13 2 14 1 15 71 16 80 17 72 18 73 20 74 21 75 22 79 23
REMARK SMILES IDX 76 24 78 25 77 26 16 27 17 28 18 29 19 30 20 31 21 32 22 33
REMARK SMILES IDX 23 34 24 35 70 36 25 37 69 38 26 39 27 40 28 41 63 42 29 43
REMARK SMILES IDX 68 44 62 45 64 46 30 47 67 48 61 49 60 50 31 52 53 53 38 54
REMARK SMILES IDX 52 55 39 56 42 57 51 58 65 59 40 60 41 61 50 63 66 64 43 65
REMARK SMILES IDX 32 66 33 67 37 68 34 69 36 70 35 71 54 72 55 73 59 74 56 75
REMARK SMILES IDX 58 76 57 77 44 78 45 79 49 80 46 81 48 82 47 83
REMARK H PARENT 71 19 64 51 42 62
REMARK Flexibility Score: inf
ROOT
ATOM      1  C   UNL     1      -2.954   2.274  -0.297  1.00  0.00     0.188 C 
ENDROOT
BRANCH   1   2
ATOM      2  O   UNL     1      -4.153   1.823   0.271  1.00  0.00    -0.376 OA
BRANCH   2   3
ATOM      3  C   UNL     1      -4.051   2.064   1.659  1.00  0.00     0.202 C 
BRANCH   3   4
ATOM      4  C   UNL     1      -2.880   1.343   2.421  1.00  0.00     0.261 C 
BRANCH   4   5
ATOM      5  O   UNL     1      -1.694   0.816   1.712  1.00  0.00    -0.460 OA
BRANCH   5   6
ATOM      6  C   UNL     1      -1.826  -0.285   0.924  1.00  0.00     0.338 C 
ATOM      7  O   UNL     1      -2.882  -0.894   0.807  1.00  0.00    -0.246 OA
BRANCH   6   8
ATOM      8  C   UNL     1      -0.565  -0.765   0.203  1.00  0.00     0.066 A 
ATOM      9  C   UNL     1       0.753  -0.258   0.240  1.00  0.00     0.004 A 
ATOM     10  C   UNL     1       1.829  -1.133  -0.075  1.00  0.00     0.008 A 
ATOM     11  C   UNL     1       1.618  -2.251  -0.861  1.00  0.00     0.000 A 
ATOM     12  C   UNL     1      -0.752  -1.900  -0.616  1.00  0.00     0.016 A 
ATOM     13  C   UNL     1       0.321  -2.580  -1.209  1.00  0.00     0.001 A 
BRANCH   9  14
ATOM     14  C   UNL     1       1.163   1.228   0.181  1.00  0.00     0.129 C 
ATOM     15  C   UNL     1       1.528   1.707   1.592  1.00  0.00     0.054 C 
ATOM     16  N   UNL     1       2.228   1.406  -0.873  1.00  0.00    -0.288 NA
ATOM     17  S   UNL     1      -0.025   2.305  -0.633  1.00  0.00    -0.070 SA
ATOM     18  N   UNL     1       1.710   1.346  -2.211  1.00  0.00    -0.171 NA
ATOM     19  H   UNL     1       3.179   1.549  -0.664  1.00  0.00     0.185 HD
ATOM     20  C   UNL     1       0.466   1.735  -2.210  1.00  0.00     0.126 C 
BRANCH  20  21
ATOM     21  C   UNL     1      -0.462   1.887  -3.408  1.00  0.00     0.009 A 
ATOM     22  C   UNL     1       0.300   2.599  -4.900  1.00  0.00     0.011 A 
ATOM     23  C   UNL     1      -2.288   1.880  -3.307  1.00  0.00     0.011 A 
ATOM     24  C   UNL     1      -0.698   3.572  -6.064  1.00  0.00     0.001 A 
ATOM     25  C   UNL     1      -3.325   2.794  -4.502  1.00  0.00     0.001 A 
ATOM     26  C   UNL     1      -2.485   3.773  -5.819  1.00  0.00     0.000 A 
ENDBRANCH  20  21
ENDBRANCH   9  14
ENDBRANCH   6   8
ENDBRANCH   5   6
ENDBRANCH   4   5
ENDBRANCH   3   4
ENDBRANCH   2   3
ENDBRANCH   1   2
BRANCH   1  27
ATOM     27  C   UNL     1      -3.033   3.527  -1.117  1.00  0.00     0.188 C 
BRANCH  27  28
ATOM     28  O   UNL     1      -2.677   4.695  -0.415  1.00  0.00    -0.376 OA
BRANCH  28  29
ATOM     29  C   UNL     1      -2.420   5.797  -1.287  1.00  0.00     0.202 C 
BRANCH  29  30
ATOM     30  C   UNL     1      -2.261   5.711  -2.848  1.00  0.00     0.261 C 
BRANCH  30  31
ATOM     31  O   UNL     1      -2.526   4.473  -3.568  1.00  0.00    -0.460 OA
BRANCH  31  32
ATOM     32  C   UNL     1      -1.414   3.574  -4.121  1.00  0.00     0.338 C 
ATOM     33  O   UNL     1      -0.409   4.175  -3.659  1.00  0.00    -0.246 OA
BRANCH  32  34
ATOM     34  C   UNL     1      -1.675   1.795  -5.318  1.00  0.00     0.060 A 
ATOM     35  C   UNL     1      -1.146   0.371  -5.130  1.00  0.00     0.016 A 
ATOM     36  C   UNL     1      -2.631   1.551  -6.502  1.00  0.00     0.016 A 
ATOM     37  C   UNL     1      -1.497  -0.828  -5.812  1.00  0.00     0.010 A 
ATOM     38  C   UNL     1      -3.066   0.368  -7.106  1.00  0.00     0.010 A 
ATOM     39  C   UNL     1      -2.450  -0.815  -6.803  1.00  0.00    -0.014 A 
BRANCH  39  40
ATOM     40  C   UNL     1      -2.743  -1.949  -7.675  1.00  0.00     0.031 A 
ATOM     41  C   UNL     1      -2.380  -1.805  -9.126  1.00  0.00     0.074 A 
ATOM     42  C   UNL     1      -3.441  -2.979  -7.176  1.00  0.00     0.049 A 
ATOM     43  N   UNL     1      -2.673  -2.579 -10.131  1.00  0.00    -0.248 NA
ATOM     44  C   UNL     1      -1.648  -0.578  -9.511  1.00  0.00     0.031 C 
ATOM     45  C   UNL     1      -3.884  -3.106  -5.784  1.00  0.00     0.029 A 
ATOM     46  N   UNL     1      -3.915  -4.103  -7.784  1.00  0.00    -0.354 N 
ATOM     47  C   UNL     1      -2.190  -1.920 -11.256  1.00  0.00     0.074 A 
ATOM     48  C   UNL     1      -1.672  -0.646 -10.831  1.00  0.00     0.031 C 
ATOM     49  C   UNL     1      -4.536  -4.270  -5.638  1.00  0.00     0.029 A 
ATOM     50  C   UNL     1      -4.595  -4.935  -6.931  1.00  0.00     0.049 A 
ATOM     51  H   UNL     1      -3.784  -4.297  -8.740  1.00  0.00     0.167 HD
ATOM     52  C   UNL     1      -2.159  -2.370 -12.529  1.00  0.00     0.031 A 
ATOM     53  C   UNL     1      -5.197  -6.106  -7.197  1.00  0.00     0.031 A 
ATOM     54  C   UNL     1      -2.686  -3.657 -12.887  1.00  0.00     0.049 A 
ATOM     55  C   UNL     1      -5.126  -6.600  -8.614  1.00  0.00     0.074 A 
ATOM     56  C   UNL     1      -2.674  -4.291 -14.111  1.00  0.00     0.029 A 
ATOM     57  N   UNL     1      -3.324  -4.508 -11.989  1.00  0.00    -0.354 N 
ATOM     58  N   UNL     1      -4.592  -6.017  -9.665  1.00  0.00    -0.248 NA
ATOM     59  C   UNL     1      -5.716  -7.913  -8.882  1.00  0.00     0.031 C 
ATOM     60  C   UNL     1      -3.366  -5.499 -13.969  1.00  0.00     0.029 A 
ATOM     61  C   UNL     1      -3.734  -5.655 -12.637  1.00  0.00     0.049 A 
ATOM     62  H   UNL     1      -3.462  -4.320 -11.033  1.00  0.00     0.167 HD
ATOM     63  C   UNL     1      -4.754  -6.904 -10.717  1.00  0.00     0.074 A 
ATOM     64  C   UNL     1      -5.414  -8.074 -10.163  1.00  0.00     0.031 C 
ATOM     65  C   UNL     1      -4.398  -6.778 -12.021  1.00  0.00     0.031 A 
BRANCH  52  66
ATOM     66  C   UNL     1      -1.554  -1.476 -13.579  1.00  0.00    -0.014 A 
ATOM     67  C   UNL     1      -0.199  -1.101 -13.537  1.00  0.00     0.009 A 
ATOM     68  C   UNL     1      -2.347  -0.995 -14.632  1.00  0.00     0.009 A 
ATOM     69  C   UNL     1       0.334  -0.232 -14.493  1.00  0.00     0.001 A 
ATOM     70  C   UNL     1      -1.803  -0.157 -15.610  1.00  0.00     0.001 A 
ATOM     71  C   UNL     1      -0.468   0.233 -15.533  1.00  0.00     0.000 A 
ENDBRANCH  52  66
BRANCH  53  72
ATOM     72  C   UNL     1      -5.849  -6.876  -6.107  1.00  0.00    -0.014 A 
ATOM     73  C   UNL     1      -5.306  -8.095  -5.672  1.00  0.00     0.009 A 
ATOM     74  C   UNL     1      -6.988  -6.377  -5.455  1.00  0.00     0.009 A 
ATOM     75  C   UNL     1      -5.908  -8.811  -4.633  1.00  0.00     0.001 A 
ATOM     76  C   UNL     1      -7.567  -7.076  -4.393  1.00  0.00     0.001 A 
ATOM     77  C   UNL     1      -7.034  -8.298  -3.991  1.00  0.00     0.000 A 
ENDBRANCH  53  72
BRANCH  65  78
ATOM     78  C   UNL     1      -4.691  -7.955 -12.903  1.00  0.00    -0.014 A 
ATOM     79  C   UNL     1      -6.006  -8.303 -13.242  1.00  0.00     0.009 A 
ATOM     80  C   UNL     1      -3.623  -8.699 -13.428  1.00  0.00     0.009 A 
ATOM     81  C   UNL     1      -6.249  -9.412 -14.050  1.00  0.00     0.001 A 
ATOM     82  C   UNL     1      -3.868  -9.777 -14.274  1.00  0.00     0.001 A 
ATOM     83  C   UNL     1      -5.180 -10.142 -14.570  1.00  0.00     0.000 A 
ENDBRANCH  65  78
ENDBRANCH  39  40
ENDBRANCH  32  34
ENDBRANCH  31  32
ENDBRANCH  30  31
ENDBRANCH  29  30
ENDBRANCH  28  29
ENDBRANCH  27  28
ENDBRANCH   1  27
TORSDOF 19
