REMARK SMILES O=C(/C=C/c1ccc(C(=O)NC2CC2)cc1)NC1(C(=O)OCCOCCOCCOC(=O)c2ccc(-c3c4nc(c(-c5ccccc5)c5ccc([nH]5)c(-c5ccccc5)c5nc(c(-c6ccccc6)c6ccc3[nH]6)C=C5)C=C4)cc2)CCCC1
REMARK SMILES IDX 24 1 23 2 22 3 21 4 19 5 20 6 18 7 81 8 84 9 82 10 83 11
REMARK SMILES IDX 17 12 1 13 2 14 3 16 4 17 5 18 6 19 16 20 7 21 15 22 8 23
REMARK SMILES IDX 9 24 10 25 11 26 12 28 13 29 14 30 25 31 26 32 27 33 28 34
REMARK SMILES IDX 29 35 30 36 31 37 32 38 33 39 34 40 80 41 35 42 79 43 36 44
REMARK SMILES IDX 37 45 38 46 73 47 39 48 78 49 72 50 74 51 40 52 77 53 71 54
REMARK SMILES IDX 70 55 41 57 63 58 48 59 62 60 49 61 52 62 61 63 75 64 50 65
REMARK SMILES IDX 51 66 60 68 76 69 53 70 42 71 43 72 47 73 44 74 46 75 45 76
REMARK SMILES IDX 64 77 65 78 69 79 66 80 68 81 67 82 54 83 55 84 59 85 56 86
REMARK SMILES IDX 58 87 57 88
REMARK H PARENT 17 15 11 27 74 56 52 67
REMARK Flexibility Score: inf
ROOT
ATOM      1  O   UNL     1       2.754  -1.653   4.950  1.00  0.00    -0.376 OA
ENDROOT
BRANCH   1   2
ATOM      2  C   UNL     1       1.696  -2.602   5.075  1.00  0.00     0.202 C 
BRANCH   2   3
ATOM      3  C   UNL     1       0.653  -2.768   3.950  1.00  0.00     0.261 C 
BRANCH   3   4
ATOM      4  O   UNL     1       1.174  -3.101   2.641  1.00  0.00    -0.461 OA
BRANCH   4   5
ATOM      5  C   UNL     1       0.910  -2.206   1.649  1.00  0.00     0.331 C 
ATOM      6  O   UNL     1       0.269  -1.177   1.839  1.00  0.00    -0.249 OA
BRANCH   5   7
ATOM      7  C   UNL     1       1.585  -2.549   0.279  1.00  0.00     0.138 C 
ATOM      8  C   UNL     1       0.483  -2.774  -0.770  1.00  0.00     0.040 C 
ATOM      9  C   UNL     1       2.361  -3.874   0.160  1.00  0.00     0.040 C 
ATOM     10  C   UNL     1       0.084  -4.233  -0.598  1.00  0.00     0.003 C 
ATOM     11  C   UNL     1       1.353  -4.959  -0.189  1.00  0.00     0.003 C 
BRANCH   7  12
ATOM     12  N   UNL     1       2.500  -1.432  -0.057  1.00  0.00    -0.337 N 
ATOM     13  O   UNL     1       0.896   0.038  -0.803  1.00  0.00    -0.270 OA
ATOM     14  C   UNL     1       2.058  -0.225  -0.523  1.00  0.00     0.244 C 
ATOM     15  H   UNL     1       3.469  -1.565   0.060  1.00  0.00     0.164 HD
BRANCH  14  16
ATOM     16  C   UNL     1       3.067   0.849  -0.646  1.00  0.00     0.072 C 
ATOM     17  C   UNL     1       4.407   0.767  -0.716  1.00  0.00     0.014 C 
BRANCH  17  18
ATOM     18  C   UNL     1       5.182   2.006  -0.877  1.00  0.00    -0.025 A 
ATOM     19  C   UNL     1       6.251   2.097  -1.774  1.00  0.00     0.009 A 
ATOM     20  C   UNL     1       4.827   3.141  -0.146  1.00  0.00     0.009 A 
ATOM     21  C   UNL     1       6.851   3.341  -2.034  1.00  0.00     0.014 A 
ATOM     22  C   UNL     1       5.429   4.368  -0.402  1.00  0.00     0.014 A 
ATOM     23  C   UNL     1       6.391   4.501  -1.397  1.00  0.00     0.039 A 
BRANCH  23  24
ATOM     24  C   UNL     1       6.923   5.821  -1.837  1.00  0.00     0.251 C 
ATOM     25  O   UNL     1       8.041   5.891  -2.345  1.00  0.00    -0.269 OA
ATOM     26  N   UNL     1       6.154   6.969  -1.768  1.00  0.00    -0.349 N 
ATOM     27  H   UNL     1       6.563   7.767  -2.174  1.00  0.00     0.164 HD
BRANCH  26  28
ATOM     28  C   UNL     1       4.864   7.178  -1.202  1.00  0.00     0.082 C 
ATOM     29  C   UNL     1       3.903   8.162  -1.801  1.00  0.00     0.027 C 
ATOM     30  C   UNL     1       3.594   6.693  -1.828  1.00  0.00     0.027 C 
ENDBRANCH  26  28
ENDBRANCH  23  24
ENDBRANCH  17  18
ENDBRANCH  14  16
ENDBRANCH   7  12
ENDBRANCH   5   7
ENDBRANCH   4   5
ENDBRANCH   3   4
ENDBRANCH   2   3
ENDBRANCH   1   2
BRANCH   1  31
ATOM     31  C   UNL     1       3.443  -1.577   3.716  1.00  0.00     0.188 C 
BRANCH  31  32
ATOM     32  C   UNL     1       4.046  -2.860   3.139  1.00  0.00     0.188 C 
BRANCH  32  33
ATOM     33  O   UNL     1       3.519  -4.064   3.632  1.00  0.00    -0.376 OA
BRANCH  33  34
ATOM     34  C   UNL     1       4.301  -4.944   4.426  1.00  0.00     0.202 C 
BRANCH  34  35
ATOM     35  C   UNL     1       5.482  -4.514   5.326  1.00  0.00     0.261 C 
BRANCH  35  36
ATOM     36  O   UNL     1       6.235  -3.348   4.969  1.00  0.00    -0.460 OA
BRANCH  36  37
ATOM     37  C   UNL     1       7.120  -3.466   3.951  1.00  0.00     0.338 C 
ATOM     38  O   UNL     1       7.377  -4.478   3.315  1.00  0.00    -0.246 OA
BRANCH  37  39
ATOM     39  C   UNL     1       7.505  -2.091   3.542  1.00  0.00     0.060 A 
ATOM     40  C   UNL     1       7.247  -1.671   2.225  1.00  0.00     0.016 A 
ATOM     41  C   UNL     1       8.063  -1.205   4.463  1.00  0.00     0.016 A 
ATOM     42  C   UNL     1       7.576  -0.374   1.819  1.00  0.00     0.010 A 
ATOM     43  C   UNL     1       8.423   0.080   4.048  1.00  0.00     0.010 A 
ATOM     44  C   UNL     1       8.213   0.492   2.717  1.00  0.00    -0.014 A 
BRANCH  44  45
ATOM     45  C   UNL     1       8.907   1.713   2.227  1.00  0.00     0.031 A 
ATOM     46  C   UNL     1      10.352   1.566   1.835  1.00  0.00     0.074 A 
ATOM     47  C   UNL     1       8.318   2.924   2.234  1.00  0.00     0.049 A 
ATOM     48  N   UNL     1      11.209   2.476   1.457  1.00  0.00    -0.248 NA
ATOM     49  C   UNL     1      10.917   0.206   1.922  1.00  0.00     0.031 C 
ATOM     50  C   UNL     1       6.938   3.169   2.633  1.00  0.00     0.029 A 
ATOM     51  N   UNL     1       8.801   4.174   1.918  1.00  0.00    -0.354 N 
ATOM     52  C   UNL     1      12.423   1.813   1.324  1.00  0.00     0.074 A 
ATOM     53  C   UNL     1      12.193   0.425   1.650  1.00  0.00     0.031 C 
ATOM     54  C   UNL     1       6.688   4.487   2.546  1.00  0.00     0.029 A 
ATOM     55  C   UNL     1       7.891   5.197   2.102  1.00  0.00     0.049 A 
ATOM     56  H   UNL     1       9.717   4.327   1.589  1.00  0.00     0.167 HD
ATOM     57  C   UNL     1      13.628   2.325   0.986  1.00  0.00     0.031 A 
ATOM     58  C   UNL     1       8.023   6.535   1.919  1.00  0.00     0.031 A 
ATOM     59  C   UNL     1      13.847   3.707   0.664  1.00  0.00     0.049 A 
ATOM     60  C   UNL     1       9.378   7.036   1.428  1.00  0.00     0.074 A 
ATOM     61  C   UNL     1      15.024   4.330   0.291  1.00  0.00     0.029 A 
ATOM     62  N   UNL     1      12.861   4.680   0.681  1.00  0.00    -0.354 N 
ATOM     63  N   UNL     1      10.455   6.354   1.104  1.00  0.00    -0.248 NA
ATOM     64  C   UNL     1       9.537   8.489   1.252  1.00  0.00     0.031 C 
ATOM     65  C   UNL     1      14.764   5.694   0.142  1.00  0.00     0.029 A 
ATOM     66  C   UNL     1      13.412   5.907   0.361  1.00  0.00     0.049 A 
ATOM     67  H   UNL     1      11.912   4.522   0.889  1.00  0.00     0.167 HD
ATOM     68  C   UNL     1      11.373   7.289   0.631  1.00  0.00     0.074 A 
ATOM     69  C   UNL     1      10.700   8.567   0.627  1.00  0.00     0.031 C 
ATOM     70  C   UNL     1      12.679   7.141   0.293  1.00  0.00     0.031 A 
BRANCH  57  71
ATOM     71  C   UNL     1      14.812   1.400   1.013  1.00  0.00    -0.014 A 
ATOM     72  C   UNL     1      14.973   0.377   0.067  1.00  0.00     0.009 A 
ATOM     73  C   UNL     1      15.804   1.585   1.990  1.00  0.00     0.009 A 
ATOM     74  C   UNL     1      16.090  -0.460   0.117  1.00  0.00     0.001 A 
ATOM     75  C   UNL     1      16.936   0.769   2.017  1.00  0.00     0.001 A 
ATOM     76  C   UNL     1      17.073  -0.258   1.085  1.00  0.00     0.000 A 
ENDBRANCH  57  71
BRANCH  58  77
ATOM     77  C   UNL     1       6.872   7.495   2.132  1.00  0.00    -0.014 A 
ATOM     78  C   UNL     1       6.567   8.498   1.190  1.00  0.00     0.009 A 
ATOM     79  C   UNL     1       6.043   7.438   3.264  1.00  0.00     0.009 A 
ATOM     80  C   UNL     1       5.499   9.389   1.360  1.00  0.00     0.001 A 
ATOM     81  C   UNL     1       4.921   8.270   3.398  1.00  0.00     0.001 A 
ATOM     82  C   UNL     1       4.652   9.251   2.449  1.00  0.00     0.000 A 
ENDBRANCH  58  77
BRANCH  70  83
ATOM     83  C   UNL     1      13.427   8.375  -0.143  1.00  0.00    -0.014 A 
ATOM     84  C   UNL     1      13.687   9.422   0.758  1.00  0.00     0.009 A 
ATOM     85  C   UNL     1      13.908   8.479  -1.457  1.00  0.00     0.009 A 
ATOM     86  C   UNL     1      14.352  10.574   0.336  1.00  0.00     0.001 A 
ATOM     87  C   UNL     1      14.612   9.614  -1.865  1.00  0.00     0.001 A 
ATOM     88  C   UNL     1      14.819  10.667  -0.974  1.00  0.00     0.000 A 
ENDBRANCH  70  83
ENDBRANCH  44  45
ENDBRANCH  37  39
ENDBRANCH  36  37
ENDBRANCH  35  36
ENDBRANCH  34  35
ENDBRANCH  33  34
ENDBRANCH  32  33
ENDBRANCH  31  32
ENDBRANCH   1  31
TORSDOF 22
