REMARK SMILES C=C(CC)C[C@@H](Cc1ccccc1Br)C(=O)OCCOCCOCCOC(=O)c1ccc(-c2c3nc(c(-c4ccccc4)c4ccc([nH]4)c(-c4ccccc4)c4nc(c(-c5ccccc5)c5ccc2[nH]5)C=C4)C=C3)cc1
REMARK SMILES IDX 21 1 20 2 19 3 18 4 17 5 15 6 16 7 6 8 5 9 2 10 1 11 3 12
REMARK SMILES IDX 4 13 7 14 8 15 9 16 13 17 10 18 12 19 14 20 11 21 22 22
REMARK SMILES IDX 23 23 24 24 25 25 26 26 27 27 28 28 29 29 30 30 76 31 31 32
REMARK SMILES IDX 75 33 32 34 33 35 34 36 69 37 35 38 74 39 68 40 70 41 36 42
REMARK SMILES IDX 73 43 67 44 66 45 37 47 59 48 44 49 58 50 45 51 48 52 57 53
REMARK SMILES IDX 71 54 46 55 47 56 56 58 72 59 49 60 38 61 39 62 43 63 40 64
REMARK SMILES IDX 42 65 41 66 60 67 61 68 65 69 62 70 64 71 63 72 50 73 51 74
REMARK SMILES IDX 55 75 52 76 54 77 53 78
REMARK H PARENT 70 46 48 57
REMARK Flexibility Score: inf
ROOT
ATOM      1  C   UNL     1       1.550   4.988   3.879  1.00  0.00     0.188 C 
ENDROOT
BRANCH   1   2
ATOM      2  O   UNL     1       2.724   5.601   4.399  1.00  0.00    -0.376 OA
BRANCH   2   3
ATOM      3  C   UNL     1       3.924   5.538   3.642  1.00  0.00     0.202 C 
BRANCH   3   4
ATOM      4  C   UNL     1       4.450   4.151   3.249  1.00  0.00     0.261 C 
BRANCH   4   5
ATOM      5  O   UNL     1       3.543   3.318   2.493  1.00  0.00    -0.463 OA
BRANCH   5   6
ATOM      6  C   UNL     1       3.123   2.160   3.066  1.00  0.00     0.309 C 
ATOM      7  O   UNL     1       3.344   1.860   4.235  1.00  0.00    -0.252 OA
BRANCH   6   8
ATOM      8  C   UNL     1       2.437   1.184   2.096  1.00  0.00     0.107 C 
BRANCH   8   9
ATOM      9  C   UNL     1       1.196   1.693   1.317  1.00  0.00     0.046 C 
BRANCH   9  10
ATOM     10  C   UNL     1       0.297   0.721   0.549  1.00  0.00    -0.077 C 
ATOM     11  C   UNL     1       0.743  -0.251  -0.267  1.00  0.00     0.008 C 
BRANCH  10  12
ATOM     12  C   UNL     1      -1.206   0.976   0.581  1.00  0.00     0.027 C 
ATOM     13  C   UNL     1      -1.839   0.921   1.963  1.00  0.00     0.008 C 
ENDBRANCH  10  12
ENDBRANCH   9  10
ENDBRANCH   8   9
BRANCH   8  14
ATOM     14  C   UNL     1       3.542   0.437   1.335  1.00  0.00     0.052 C 
BRANCH  14  15
ATOM     15  C   UNL     1       4.218   1.014   0.103  1.00  0.00    -0.033 A 
ATOM     16  C   UNL     1       4.062   2.348  -0.306  1.00  0.00     0.005 A 
ATOM     17  C   UNL     1       5.107   0.217  -0.648  1.00  0.00     0.021 A 
ATOM     18  C   UNL     1       4.769   2.876  -1.391  1.00  0.00     0.000 A 
ATOM     19  C   UNL     1       5.812   0.743  -1.737  1.00  0.00     0.016 A 
ATOM     20  Br  UNL     1       5.427  -1.617  -0.241  1.00  0.00    -0.051 Br
ATOM     21  C   UNL     1       5.649   2.075  -2.103  1.00  0.00     0.001 A 
ENDBRANCH  14  15
ENDBRANCH   8  14
ENDBRANCH   6   8
ENDBRANCH   5   6
ENDBRANCH   4   5
ENDBRANCH   3   4
ENDBRANCH   2   3
ENDBRANCH   1   2
BRANCH   1  22
ATOM     22  C   UNL     1       1.265   5.084   2.369  1.00  0.00     0.188 C 
BRANCH  22  23
ATOM     23  O   UNL     1       2.032   6.066   1.705  1.00  0.00    -0.376 OA
BRANCH  23  24
ATOM     24  C   UNL     1       1.319   7.109   1.073  1.00  0.00     0.202 C 
BRANCH  24  25
ATOM     25  C   UNL     1       0.548   8.054   2.007  1.00  0.00     0.261 C 
BRANCH  25  26
ATOM     26  O   UNL     1      -0.237   7.429   3.041  1.00  0.00    -0.460 OA
BRANCH  26  27
ATOM     27  C   UNL     1      -1.412   6.869   2.677  1.00  0.00     0.338 C 
ATOM     28  O   UNL     1      -1.888   6.839   1.552  1.00  0.00    -0.246 OA
BRANCH  27  29
ATOM     29  C   UNL     1      -1.939   6.091   3.824  1.00  0.00     0.060 A 
ATOM     30  C   UNL     1      -2.150   4.714   3.667  1.00  0.00     0.016 A 
ATOM     31  C   UNL     1      -2.232   6.706   5.043  1.00  0.00     0.016 A 
ATOM     32  C   UNL     1      -2.691   3.957   4.711  1.00  0.00     0.010 A 
ATOM     33  C   UNL     1      -2.796   5.951   6.080  1.00  0.00     0.010 A 
ATOM     34  C   UNL     1      -3.066   4.580   5.908  1.00  0.00    -0.014 A 
BRANCH  34  35
ATOM     35  C   UNL     1      -3.943   3.864   6.874  1.00  0.00     0.031 A 
ATOM     36  C   UNL     1      -5.424   4.148   6.832  1.00  0.00     0.074 A 
ATOM     37  C   UNL     1      -3.467   2.960   7.750  1.00  0.00     0.049 A 
ATOM     38  N   UNL     1      -6.381   3.708   7.609  1.00  0.00    -0.248 NA
ATOM     39  C   UNL     1      -5.883   5.055   5.766  1.00  0.00     0.031 C 
ATOM     40  C   UNL     1      -2.076   2.529   7.859  1.00  0.00     0.029 A 
ATOM     41  N   UNL     1      -4.120   2.241   8.724  1.00  0.00    -0.354 N 
ATOM     42  C   UNL     1      -7.550   4.294   7.134  1.00  0.00     0.074 A 
ATOM     43  C   UNL     1      -7.178   5.143   6.024  1.00  0.00     0.031 C 
ATOM     44  C   UNL     1      -1.977   1.625   8.851  1.00  0.00     0.029 A 
ATOM     45  C   UNL     1      -3.288   1.443   9.473  1.00  0.00     0.049 A 
ATOM     46  H   UNL     1      -5.092   2.293   8.871  1.00  0.00     0.167 HD
ATOM     47  C   UNL     1      -8.821   4.138   7.574  1.00  0.00     0.031 A 
ATOM     48  C   UNL     1      -3.552   0.674  10.549  1.00  0.00     0.031 A 
ATOM     49  C   UNL     1      -9.201   3.307   8.684  1.00  0.00     0.049 A 
ATOM     50  C   UNL     1      -4.960   0.597  11.086  1.00  0.00     0.074 A 
ATOM     51  C   UNL     1     -10.464   3.092   9.208  1.00  0.00     0.029 A 
ATOM     52  N   UNL     1      -8.319   2.556   9.445  1.00  0.00    -0.354 N 
ATOM     53  N   UNL     1      -6.056   1.155  10.629  1.00  0.00    -0.248 NA
ATOM     54  C   UNL     1      -5.167  -0.227  12.287  1.00  0.00     0.031 C 
ATOM     55  C   UNL     1     -10.339   2.256  10.322  1.00  0.00     0.029 A 
ATOM     56  C   UNL     1      -9.008   1.893  10.447  1.00  0.00     0.049 A 
ATOM     57  H   UNL     1      -7.348   2.502   9.296  1.00  0.00     0.167 HD
ATOM     58  C   UNL     1      -7.082   0.715  11.459  1.00  0.00     0.074 A 
ATOM     59  C   UNL     1      -6.482  -0.164  12.439  1.00  0.00     0.031 C 
ATOM     60  C   UNL     1      -8.405   1.010  11.411  1.00  0.00     0.031 A 
BRANCH  47  61
ATOM     61  C   UNL     1      -9.895   4.918   6.868  1.00  0.00    -0.014 A 
ATOM     62  C   UNL     1     -10.290   4.601   5.558  1.00  0.00     0.009 A 
ATOM     63  C   UNL     1     -10.541   5.971   7.535  1.00  0.00     0.009 A 
ATOM     64  C   UNL     1     -11.285   5.345   4.920  1.00  0.00     0.001 A 
ATOM     65  C   UNL     1     -11.558   6.691   6.906  1.00  0.00     0.001 A 
ATOM     66  C   UNL     1     -11.922   6.385   5.596  1.00  0.00     0.000 A 
ENDBRANCH  47  61
BRANCH  48  67
ATOM     67  C   UNL     1      -2.459  -0.079  11.227  1.00  0.00    -0.014 A 
ATOM     68  C   UNL     1      -2.448  -1.483  11.226  1.00  0.00     0.009 A 
ATOM     69  C   UNL     1      -1.454   0.604  11.930  1.00  0.00     0.009 A 
ATOM     70  C   UNL     1      -1.475  -2.186  11.943  1.00  0.00     0.001 A 
ATOM     71  C   UNL     1      -0.463  -0.101  12.617  1.00  0.00     0.001 A 
ATOM     72  C   UNL     1      -0.482  -1.495  12.635  1.00  0.00     0.000 A 
ENDBRANCH  48  67
BRANCH  60  73
ATOM     73  C   UNL     1      -9.309   0.325  12.402  1.00  0.00    -0.014 A 
ATOM     74  C   UNL     1      -9.278   0.637  13.770  1.00  0.00     0.009 A 
ATOM     75  C   UNL     1     -10.235  -0.627  11.946  1.00  0.00     0.009 A 
ATOM     76  C   UNL     1     -10.125  -0.022  14.665  1.00  0.00     0.001 A 
ATOM     77  C   UNL     1     -11.105  -1.259  12.837  1.00  0.00     0.001 A 
ATOM     78  C   UNL     1     -11.040  -0.965  14.197  1.00  0.00     0.000 A 
ENDBRANCH  60  73
ENDBRANCH  34  35
ENDBRANCH  27  29
ENDBRANCH  26  27
ENDBRANCH  25  26
ENDBRANCH  24  25
ENDBRANCH  23  24
ENDBRANCH  22  23
ENDBRANCH   1  22
TORSDOF 22
