REMARK SMILES Nn1c(S[C@@H](C(=O)OCCOCCOCCOC(=O)c2ccc(-c3c4nc(c(-c5ccccc5)c5ccc([nH]5)c(-c5ccccc5)c5nc(c(-c6ccccc6)c6ccc3[nH]6)C=C5)C=C4)cc2)c2ccccc2)nc2ccc(Br)cc2c1=O
REMARK SMILES IDX 12 1 11 2 10 3 9 4 8 5 6 6 7 7 5 8 4 9 3 10 2 11 82 12 74 13
REMARK SMILES IDX 81 14 83 15 75 16 80 17 76 18 78 19 77 20 79 21 1 22 68 25
REMARK SMILES IDX 69 26 73 27 70 28 72 29 71 30 13 31 14 32 15 33 16 34 17 35
REMARK SMILES IDX 18 36 19 37 20 38 21 39 67 40 22 41 66 42 23 43 24 44 25 45
REMARK SMILES IDX 60 46 26 47 65 48 59 49 61 50 27 51 64 52 58 53 57 54 28 56
REMARK SMILES IDX 50 57 35 58 49 59 36 60 39 61 48 62 62 63 37 64 38 65 47 67
REMARK SMILES IDX 63 68 40 69 29 70 30 71 34 72 31 73 33 74 32 75 51 76 52 77
REMARK SMILES IDX 56 78 53 79 55 80 54 81 41 82 42 83 46 84 43 85 45 86 44 87
REMARK H PARENT 1 23 1 24 61 55 39 66
REMARK Flexibility Score: inf
ROOT
ATOM      1  C   UNL     1       2.958  -1.317  -1.703  1.00  0.00     0.188 C 
ENDROOT
BRANCH   1   2
ATOM      2  O   UNL     1       4.259  -0.885  -2.084  1.00  0.00    -0.376 OA
BRANCH   2   3
ATOM      3  C   UNL     1       5.314  -1.084  -1.152  1.00  0.00     0.202 C 
BRANCH   3   4
ATOM      4  C   UNL     1       5.354  -0.184   0.100  1.00  0.00     0.261 C 
BRANCH   4   5
ATOM      5  O   UNL     1       4.324  -0.357   1.114  1.00  0.00    -0.462 OA
BRANCH   5   6
ATOM      6  C   UNL     1       3.417   0.667   1.178  1.00  0.00     0.324 C 
ATOM      7  O   UNL     1       3.241   1.408   0.213  1.00  0.00    -0.251 OA
BRANCH   6   8
ATOM      8  C   UNL     1       2.751   0.898   2.572  1.00  0.00     0.194 C 
BRANCH   8   9
ATOM      9  S   UNL     1       2.323  -0.587   3.522  1.00  0.00    -0.066 SA
BRANCH   9  10
ATOM     10  C   UNL     1       0.928  -1.465   2.918  1.00  0.00     0.191 A 
ATOM     11  N   UNL     1       0.392  -1.246   1.663  1.00  0.00    -0.202 N 
ATOM     12  C   UNL     1      -0.301  -2.273   1.062  1.00  0.00     0.280 A 
ATOM     13  N   UNL     1       0.473  -2.418   3.691  1.00  0.00    -0.222 NA
ATOM     14  C   UNL     1      -1.058  -3.144   1.930  1.00  0.00     0.069 A 
ATOM     15  O   UNL     1      -0.247  -2.523  -0.132  1.00  0.00    -0.267 OA
ATOM     16  C   UNL     1      -0.617  -3.205   3.243  1.00  0.00     0.079 A 
ATOM     17  C   UNL     1      -2.146  -3.869   1.428  1.00  0.00     0.031 A 
ATOM     18  C   UNL     1      -1.279  -4.105   4.076  1.00  0.00     0.030 A 
ATOM     19  C   UNL     1      -2.813  -4.724   2.285  1.00  0.00     0.018 A 
ATOM     20  C   UNL     1      -2.372  -4.862   3.602  1.00  0.00     0.018 A 
ATOM     21  Br  UNL     1      -4.306  -5.694   1.656  1.00  0.00    -0.051 Br
BRANCH  11  22
ATOM     22  N   UNL     1       0.658  -0.136   0.856  1.00  0.00    -0.334 N 
ATOM     23  H   UNL     1       1.150   0.634   1.224  1.00  0.00     0.178 HD
ATOM     24  H   UNL     1       0.355  -0.123  -0.080  1.00  0.00     0.178 HD
ENDBRANCH  11  22
ENDBRANCH   9  10
ENDBRANCH   8   9
BRANCH   8  25
ATOM     25  C   UNL     1       1.769   2.092   2.567  1.00  0.00    -0.023 A 
ATOM     26  C   UNL     1       0.416   2.013   2.930  1.00  0.00     0.005 A 
ATOM     27  C   UNL     1       2.223   3.325   2.048  1.00  0.00     0.005 A 
ATOM     28  C   UNL     1      -0.472   3.052   2.627  1.00  0.00     0.000 A 
ATOM     29  C   UNL     1       1.339   4.364   1.749  1.00  0.00     0.000 A 
ATOM     30  C   UNL     1      -0.016   4.213   2.009  1.00  0.00     0.000 A 
ENDBRANCH   8  25
ENDBRANCH   6   8
ENDBRANCH   5   6
ENDBRANCH   4   5
ENDBRANCH   3   4
ENDBRANCH   2   3
ENDBRANCH   1   2
BRANCH   1  31
ATOM     31  C   UNL     1       2.873  -2.586  -0.855  1.00  0.00     0.188 C 
BRANCH  31  32
ATOM     32  O   UNL     1       3.062  -3.749  -1.656  1.00  0.00    -0.376 OA
BRANCH  32  33
ATOM     33  C   UNL     1       1.941  -4.641  -1.628  1.00  0.00     0.202 C 
BRANCH  33  34
ATOM     34  C   UNL     1       0.999  -4.446  -2.824  1.00  0.00     0.261 C 
BRANCH  34  35
ATOM     35  O   UNL     1       0.281  -3.192  -2.809  1.00  0.00    -0.460 OA
BRANCH  35  36
ATOM     36  C   UNL     1      -1.076  -3.273  -2.760  1.00  0.00     0.338 C 
ATOM     37  O   UNL     1      -1.758  -4.274  -2.635  1.00  0.00    -0.246 OA
BRANCH  36  38
ATOM     38  C   UNL     1      -1.666  -1.922  -2.891  1.00  0.00     0.060 A 
ATOM     39  C   UNL     1      -1.944  -1.383  -4.146  1.00  0.00     0.016 A 
ATOM     40  C   UNL     1      -2.078  -1.237  -1.747  1.00  0.00     0.016 A 
ATOM     41  C   UNL     1      -2.611  -0.152  -4.234  1.00  0.00     0.010 A 
ATOM     42  C   UNL     1      -2.635   0.026  -1.819  1.00  0.00     0.010 A 
ATOM     43  C   UNL     1      -2.949   0.554  -3.067  1.00  0.00    -0.014 A 
BRANCH  43  44
ATOM     44  C   UNL     1      -3.821   1.740  -3.082  1.00  0.00     0.031 A 
ATOM     45  C   UNL     1      -3.254   3.116  -3.143  1.00  0.00     0.074 A 
ATOM     46  C   UNL     1      -5.134   1.553  -2.854  1.00  0.00     0.049 A 
ATOM     47  N   UNL     1      -3.880   4.239  -3.371  1.00  0.00    -0.248 NA
ATOM     48  C   UNL     1      -1.814   3.260  -2.883  1.00  0.00     0.031 C 
ATOM     49  C   UNL     1      -5.763   0.259  -2.570  1.00  0.00     0.029 A 
ATOM     50  N   UNL     1      -6.166   2.448  -2.786  1.00  0.00    -0.354 N 
ATOM     51  C   UNL     1      -2.901   5.220  -3.352  1.00  0.00     0.074 A 
ATOM     52  C   UNL     1      -1.657   4.574  -2.994  1.00  0.00     0.031 C 
ATOM     53  C   UNL     1      -7.072   0.447  -2.351  1.00  0.00     0.029 A 
ATOM     54  C   UNL     1      -7.381   1.859  -2.544  1.00  0.00     0.049 A 
ATOM     55  H   UNL     1      -6.048   3.419  -2.900  1.00  0.00     0.167 HD
ATOM     56  C   UNL     1      -3.046   6.530  -3.654  1.00  0.00     0.031 A 
ATOM     57  C   UNL     1      -8.617   2.389  -2.549  1.00  0.00     0.031 A 
ATOM     58  C   UNL     1      -4.322   7.131  -3.947  1.00  0.00     0.049 A 
ATOM     59  C   UNL     1      -8.771   3.821  -2.964  1.00  0.00     0.074 A 
ATOM     60  C   UNL     1      -4.595   8.407  -4.405  1.00  0.00     0.029 A 
ATOM     61  N   UNL     1      -5.544   6.496  -3.777  1.00  0.00    -0.354 N 
ATOM     62  N   UNL     1      -7.836   4.705  -3.222  1.00  0.00    -0.248 NA
ATOM     63  C   UNL     1     -10.140   4.314  -3.155  1.00  0.00     0.031 C 
ATOM     64  C   UNL     1      -5.984   8.562  -4.453  1.00  0.00     0.029 A 
ATOM     65  C   UNL     1      -6.576   7.363  -4.085  1.00  0.00     0.049 A 
ATOM     66  H   UNL     1      -5.659   5.564  -3.480  1.00  0.00     0.167 HD
ATOM     67  C   UNL     1      -8.499   5.849  -3.638  1.00  0.00     0.074 A 
ATOM     68  C   UNL     1      -9.916   5.543  -3.605  1.00  0.00     0.031 C 
ATOM     69  C   UNL     1      -7.980   7.040  -4.023  1.00  0.00     0.031 A 
BRANCH  56  70
ATOM     70  C   UNL     1      -1.810   7.380  -3.752  1.00  0.00    -0.014 A 
ATOM     71  C   UNL     1      -1.635   8.490  -2.912  1.00  0.00     0.009 A 
ATOM     72  C   UNL     1      -0.868   7.147  -4.769  1.00  0.00     0.009 A 
ATOM     73  C   UNL     1      -0.550   9.352  -3.095  1.00  0.00     0.001 A 
ATOM     74  C   UNL     1       0.228   7.995  -4.933  1.00  0.00     0.001 A 
ATOM     75  C   UNL     1       0.381   9.103  -4.102  1.00  0.00     0.000 A 
ENDBRANCH  56  70
BRANCH  57  76
ATOM     76  C   UNL     1      -9.777   1.490  -2.331  1.00  0.00    -0.014 A 
ATOM     77  C   UNL     1     -10.084   1.008  -1.049  1.00  0.00     0.009 A 
ATOM     78  C   UNL     1     -10.506   1.011  -3.430  1.00  0.00     0.009 A 
ATOM     79  C   UNL     1     -11.090   0.055  -0.875  1.00  0.00     0.001 A 
ATOM     80  C   UNL     1     -11.523   0.072  -3.251  1.00  0.00     0.001 A 
ATOM     81  C   UNL     1     -11.809  -0.411  -1.975  1.00  0.00     0.000 A 
ENDBRANCH  57  76
BRANCH  69  82
ATOM     82  C   UNL     1      -8.944   8.118  -4.426  1.00  0.00    -0.014 A 
ATOM     83  C   UNL     1      -9.010   8.530  -5.766  1.00  0.00     0.009 A 
ATOM     84  C   UNL     1      -9.705   8.796  -3.463  1.00  0.00     0.009 A 
ATOM     85  C   UNL     1      -9.807   9.615  -6.132  1.00  0.00     0.001 A 
ATOM     86  C   UNL     1     -10.523   9.863  -3.837  1.00  0.00     0.001 A 
ATOM     87  C   UNL     1     -10.565  10.278  -5.168  1.00  0.00     0.000 A 
ENDBRANCH  69  82
ENDBRANCH  43  44
ENDBRANCH  36  38
ENDBRANCH  35  36
ENDBRANCH  34  35
ENDBRANCH  33  34
ENDBRANCH  32  33
ENDBRANCH  31  32
ENDBRANCH   1  31
TORSDOF 21
