REMARK SMILES C[N@@H+]1[C@H]2CC[C@@H]1[C@@H](C(=O)OCCOCCOCCOC(=O)c1ccc(-c3c4nc(c(-c5ccccc5)c5ccc([nH]5)c(-c5ccccc5)c5nc(c(-c6ccccc6)c6ccc3[nH]6)C=C5)C=C4)cc1)[C@@H](OC(=O)c1ccccc1)C2
REMARK SMILES IDX 14 1 13 2 12 3 11 4 10 5 8 6 9 7 7 8 1 9 2 10 3 11 6 12 4 14
REMARK SMILES IDX 80 15 5 16 70 17 71 18 72 19 73 20 74 21 75 22 79 23 76 24
REMARK SMILES IDX 78 25 77 26 15 27 16 28 17 29 18 30 19 31 20 32 21 33 22 34
REMARK SMILES IDX 23 35 69 36 24 37 68 38 25 39 26 40 27 41 62 42 28 43 67 44
REMARK SMILES IDX 61 45 63 46 29 47 66 48 60 49 59 50 30 52 52 53 37 54 51 55
REMARK SMILES IDX 38 56 41 57 50 58 64 59 39 60 40 61 49 63 65 64 42 65 31 66
REMARK SMILES IDX 32 67 36 68 33 69 35 70 34 71 53 72 54 73 58 74 55 75 57 76
REMARK SMILES IDX 56 77 43 78 44 79 48 80 45 81 47 82 46 83
REMARK H PARENT 2 13 63 51 41 62
REMARK Flexibility Score: inf
ROOT
ATOM      1  C   UNL     1      -1.545  -3.952   3.576  1.00  0.00     0.188 C 
ENDROOT
BRANCH   1   2
ATOM      2  O   UNL     1      -2.880  -4.374   3.363  1.00  0.00    -0.376 OA
BRANCH   2   3
ATOM      3  C   UNL     1      -3.638  -3.746   2.321  1.00  0.00     0.202 C 
BRANCH   3   4
ATOM      4  C   UNL     1      -3.422  -2.252   2.002  1.00  0.00     0.261 C 
BRANCH   4   5
ATOM      5  O   UNL     1      -2.341  -1.980   1.055  1.00  0.00    -0.463 OA
BRANCH   5   6
ATOM      6  C   UNL     1      -1.248  -1.367   1.559  1.00  0.00     0.318 C 
ATOM      7  O   UNL     1      -1.190  -0.993   2.736  1.00  0.00    -0.252 OA
BRANCH   6   8
ATOM      8  C   UNL     1      -0.079  -1.021   0.627  1.00  0.00     0.198 C 
ATOM      9  C   UNL     1      -2.363   0.396  -0.838  1.00  0.00     0.333 C 
ATOM     10  N   UNL     1      -1.016   0.918  -0.707  1.00  0.00    -0.332 N 
ATOM     11  C   UNL     1      -0.104   0.595  -1.796  1.00  0.00     0.188 C 
ATOM     12  C   UNL     1      -0.266   0.528   0.491  1.00  0.00     0.202 C 
ATOM     13  H   UNL     1      -1.260   1.908  -0.682  1.00  0.00     0.348 HD
ATOM     14  C   UNL     1       1.166   1.296  -1.288  1.00  0.00     0.071 C 
ATOM     15  C   UNL     1       0.082  -0.920  -1.977  1.00  0.00     0.111 C 
ATOM     16  C   UNL     1       1.055   1.256   0.235  1.00  0.00     0.072 C 
ATOM     17  C   UNL     1       0.506  -1.689  -0.713  1.00  0.00     0.203 C 
BRANCH  17  18
ATOM     18  O   UNL     1       0.474  -3.170  -0.926  1.00  0.00    -0.457 OA
BRANCH  18  19
ATOM     19  C   UNL     1       1.114  -3.763  -2.020  1.00  0.00     0.338 C 
ATOM     20  O   UNL     1       1.625  -3.148  -2.948  1.00  0.00    -0.246 OA
BRANCH  19  21
ATOM     21  C   UNL     1       1.173  -5.283  -2.080  1.00  0.00     0.060 A 
ATOM     22  C   UNL     1       0.109  -6.030  -2.609  1.00  0.00     0.015 A 
ATOM     23  C   UNL     1       2.290  -6.000  -1.601  1.00  0.00     0.015 A 
ATOM     24  C   UNL     1       0.070  -7.432  -2.466  1.00  0.00     0.001 A 
ATOM     25  C   UNL     1       2.233  -7.399  -1.423  1.00  0.00     0.001 A 
ATOM     26  C   UNL     1       1.106  -8.110  -1.824  1.00  0.00     0.000 A 
ENDBRANCH  19  21
ENDBRANCH  18  19
ENDBRANCH  17  18
ENDBRANCH   6   8
ENDBRANCH   5   6
ENDBRANCH   4   5
ENDBRANCH   3   4
ENDBRANCH   2   3
ENDBRANCH   1   2
BRANCH   1  27
ATOM     27  C   UNL     1      -0.602  -4.097   2.399  1.00  0.00     0.188 C 
BRANCH  27  28
ATOM     28  O   UNL     1      -1.260  -4.244   1.165  1.00  0.00    -0.376 OA
BRANCH  28  29
ATOM     29  C   UNL     1      -1.272  -5.464   0.454  1.00  0.00     0.202 C 
BRANCH  29  30
ATOM     30  C   UNL     1      -0.917  -6.778   1.146  1.00  0.00     0.261 C 
BRANCH  30  31
ATOM     31  O   UNL     1       0.401  -6.963   1.720  1.00  0.00    -0.460 OA
BRANCH  31  32
ATOM     32  C   UNL     1       1.390  -6.088   1.434  1.00  0.00     0.338 C 
ATOM     33  O   UNL     1       1.373  -5.176   0.641  1.00  0.00    -0.246 OA
BRANCH  32  34
ATOM     34  C   UNL     1       2.430  -6.060   2.455  1.00  0.00     0.060 A 
ATOM     35  C   UNL     1       3.087  -4.822   2.610  1.00  0.00     0.016 A 
ATOM     36  C   UNL     1       2.684  -7.140   3.288  1.00  0.00     0.016 A 
ATOM     37  C   UNL     1       4.024  -4.662   3.602  1.00  0.00     0.010 A 
ATOM     38  C   UNL     1       3.610  -6.972   4.301  1.00  0.00     0.010 A 
ATOM     39  C   UNL     1       4.271  -5.740   4.449  1.00  0.00    -0.014 A 
BRANCH  39  40
ATOM     40  C   UNL     1       5.250  -5.586   5.522  1.00  0.00     0.031 A 
ATOM     41  C   UNL     1       6.572  -6.251   5.369  1.00  0.00     0.074 A 
ATOM     42  C   UNL     1       4.881  -4.889   6.607  1.00  0.00     0.049 A 
ATOM     43  N   UNL     1       7.529  -6.376   6.242  1.00  0.00    -0.248 NA
ATOM     44  C   UNL     1       6.849  -6.880   4.063  1.00  0.00     0.031 C 
ATOM     45  C   UNL     1       3.600  -4.191   6.771  1.00  0.00     0.029 A 
ATOM     46  N   UNL     1       5.538  -4.666   7.779  1.00  0.00    -0.354 N 
ATOM     47  C   UNL     1       8.516  -7.111   5.603  1.00  0.00     0.074 A 
ATOM     48  C   UNL     1       8.032  -7.434   4.280  1.00  0.00     0.031 C 
ATOM     49  C   UNL     1       3.566  -3.622   7.986  1.00  0.00     0.029 A 
ATOM     50  C   UNL     1       4.792  -3.964   8.692  1.00  0.00     0.049 A 
ATOM     51  H   UNL     1       6.455  -4.977   7.954  1.00  0.00     0.167 HD
ATOM     52  C   UNL     1       9.719  -7.474   6.099  1.00  0.00     0.031 A 
ATOM     53  C   UNL     1       5.074  -3.669   9.971  1.00  0.00     0.031 A 
ATOM     54  C   UNL     1      10.135  -7.149   7.436  1.00  0.00     0.049 A 
ATOM     55  C   UNL     1       6.390  -4.147  10.512  1.00  0.00     0.074 A 
ATOM     56  C   UNL     1      11.321  -7.455   8.074  1.00  0.00     0.029 A 
ATOM     57  N   UNL     1       9.358  -6.438   8.344  1.00  0.00    -0.354 N 
ATOM     58  N   UNL     1       7.332  -4.831   9.904  1.00  0.00    -0.248 NA
ATOM     59  C   UNL     1       6.688  -3.806  11.905  1.00  0.00     0.031 C 
ATOM     60  C   UNL     1      11.239  -6.974   9.385  1.00  0.00     0.029 A 
ATOM     61  C   UNL     1      10.031  -6.310   9.544  1.00  0.00     0.049 A 
ATOM     62  H   UNL     1       8.460  -6.079   8.159  1.00  0.00     0.167 HD
ATOM     63  C   UNL     1       8.353  -4.976  10.831  1.00  0.00     0.074 A 
ATOM     64  C   UNL     1       7.915  -4.289  12.033  1.00  0.00     0.031 C 
ATOM     65  C   UNL     1       9.543  -5.614  10.710  1.00  0.00     0.031 A 
BRANCH  52  66
ATOM     66  C   UNL     1      10.625  -8.276   5.209  1.00  0.00    -0.014 A 
ATOM     67  C   UNL     1      11.209  -7.712   4.062  1.00  0.00     0.009 A 
ATOM     68  C   UNL     1      10.911  -9.613   5.524  1.00  0.00     0.009 A 
ATOM     69  C   UNL     1      12.036  -8.477   3.237  1.00  0.00     0.001 A 
ATOM     70  C   UNL     1      11.762 -10.367   4.714  1.00  0.00     0.001 A 
ATOM     71  C   UNL     1      12.318  -9.802   3.567  1.00  0.00     0.000 A 
ENDBRANCH  52  66
BRANCH  53  72
ATOM     72  C   UNL     1       4.107  -2.903  10.797  1.00  0.00    -0.014 A 
ATOM     73  C   UNL     1       4.418  -1.605  11.231  1.00  0.00     0.009 A 
ATOM     74  C   UNL     1       2.863  -3.452  11.146  1.00  0.00     0.009 A 
ATOM     75  C   UNL     1       3.519  -0.889  12.025  1.00  0.00     0.001 A 
ATOM     76  C   UNL     1       1.952  -2.721  11.912  1.00  0.00     0.001 A 
ATOM     77  C   UNL     1       2.286  -1.446  12.361  1.00  0.00     0.000 A 
ENDBRANCH  53  72
BRANCH  65  78
ATOM     78  C   UNL     1      10.456  -5.547  11.899  1.00  0.00    -0.014 A 
ATOM     79  C   UNL     1      10.174  -6.258  13.075  1.00  0.00     0.009 A 
ATOM     80  C   UNL     1      11.629  -4.781  11.822  1.00  0.00     0.009 A 
ATOM     81  C   UNL     1      11.032  -6.166  14.171  1.00  0.00     0.001 A 
ATOM     82  C   UNL     1      12.503  -4.722  12.905  1.00  0.00     0.001 A 
ATOM     83  C   UNL     1      12.197  -5.404  14.082  1.00  0.00     0.000 A 
ENDBRANCH  65  78
ENDBRANCH  39  40
ENDBRANCH  32  34
ENDBRANCH  31  32
ENDBRANCH  30  31
ENDBRANCH  29  30
ENDBRANCH  28  29
ENDBRANCH  27  28
ENDBRANCH   1  27
TORSDOF 20
