REMARK SMILES COc1cc(C)c(S(=O)(=O)Nc2cc(C(=O)OCCOCCOCCOC(=O)c3ccc(-c4c5nc(c(-c6ccccc6)c6ccc([nH]6)c(-c6ccccc6)c6nc(c(-c7ccccc7)c7ccc4[nH]7)C=C6)C=C5)cc3)ccc2F)cc1OC
REMARK SMILES IDX 21 1 20 2 19 3 18 4 17 5 15 6 16 7 14 8 12 9 13 10 79 11
REMARK SMILES IDX 78 12 80 13 77 14 11 15 8 17 9 18 10 19 7 20 3 21 4 22 82 23
REMARK SMILES IDX 5 24 81 25 6 26 2 27 1 28 83 29 84 30 22 31 23 32 24 33
REMARK SMILES IDX 25 34 26 35 27 36 28 37 29 38 30 39 76 40 31 41 75 42 32 43
REMARK SMILES IDX 33 44 34 45 69 46 35 47 74 48 68 49 70 50 36 51 73 52 67 53
REMARK SMILES IDX 66 54 37 56 59 57 44 58 58 59 45 60 48 61 57 62 71 63 46 64
REMARK SMILES IDX 47 65 56 67 72 68 49 69 38 70 39 71 43 72 40 73 42 74 41 75
REMARK SMILES IDX 60 76 61 77 65 78 62 79 64 80 63 81 50 82 51 83 55 84 52 85
REMARK SMILES IDX 54 86 53 87
REMARK H PARENT 11 16 70 55 48 66
REMARK Flexibility Score: inf
ROOT
ATOM      1  C   UNL     1       6.329   0.985  -4.574  1.00  0.00     0.188 C 
ENDROOT
BRANCH   1   2
ATOM      2  O   UNL     1       5.064   1.433  -4.079  1.00  0.00    -0.376 OA
BRANCH   2   3
ATOM      3  C   UNL     1       4.155   2.072  -4.960  1.00  0.00     0.202 C 
BRANCH   3   4
ATOM      4  C   UNL     1       2.894   2.777  -4.293  1.00  0.00     0.261 C 
BRANCH   4   5
ATOM      5  O   UNL     1       2.886   3.700  -3.090  1.00  0.00    -0.460 OA
BRANCH   5   6
ATOM      6  C   UNL     1       3.970   4.429  -2.725  1.00  0.00     0.338 C 
ATOM      7  O   UNL     1       4.802   4.582  -3.611  1.00  0.00    -0.246 OA
BRANCH   6   8
ATOM      8  C   UNL     1       4.215   5.019  -1.105  1.00  0.00     0.062 A 
ATOM      9  C   UNL     1       4.028   6.547   0.779  1.00  0.00     0.085 A 
ATOM     10  C   UNL     1       3.673   6.167  -0.568  1.00  0.00     0.045 A 
ATOM     11  C   UNL     1       5.150   6.054   1.464  1.00  0.00     0.147 A 
ATOM     12  C   UNL     1       5.643   4.872   1.068  1.00  0.00     0.042 A 
ATOM     13  F   UNL     1       5.495   6.523   2.675  1.00  0.00    -0.205 F 
ATOM     14  C   UNL     1       5.058   4.371  -0.091  1.00  0.00     0.019 A 
BRANCH   9  15
ATOM     15  N   UNL     1       3.163   7.260   1.654  1.00  0.00    -0.277 N 
ATOM     16  H   UNL     1       3.516   8.030   2.155  1.00  0.00     0.180 HD
BRANCH  15  17
ATOM     17  S   UNL     1       1.557   6.821   1.854  1.00  0.00     0.262 S 
ATOM     18  O   UNL     1       0.967   6.902   0.545  1.00  0.00    -0.201 OA
ATOM     19  O   UNL     1       1.074   7.654   2.954  1.00  0.00    -0.201 OA
BRANCH  17  20
ATOM     20  C   UNL     1       1.318   5.126   2.410  1.00  0.00     0.094 A 
ATOM     21  C   UNL     1       0.860   2.388   2.556  1.00  0.00     0.161 A 
ATOM     22  C   UNL     1       1.841   2.977   3.337  1.00  0.00     0.055 A 
ATOM     23  C   UNL     1      -0.147   3.178   2.028  1.00  0.00     0.162 A 
ATOM     24  C   UNL     1       2.136   4.343   3.233  1.00  0.00    -0.027 A 
ATOM     25  C   UNL     1       0.114   4.551   1.938  1.00  0.00     0.073 A 
ATOM     26  C   UNL     1       3.384   4.721   3.950  1.00  0.00     0.046 C 
BRANCH  21  27
ATOM     27  O   UNL     1       1.061   1.090   2.179  1.00  0.00    -0.493 OA
ATOM     28  C   UNL     1       2.458   0.788   1.887  1.00  0.00     0.278 C 
ENDBRANCH  21  27
BRANCH  23  29
ATOM     29  O   UNL     1      -1.296   2.802   1.405  1.00  0.00    -0.493 OA
ATOM     30  C   UNL     1      -1.962   1.616   1.811  1.00  0.00     0.278 C 
ENDBRANCH  23  29
ENDBRANCH  17  20
ENDBRANCH  15  17
ENDBRANCH   9  15
ENDBRANCH   6   8
ENDBRANCH   5   6
ENDBRANCH   4   5
ENDBRANCH   3   4
ENDBRANCH   2   3
ENDBRANCH   1   2
BRANCH   1  31
ATOM     31  C   UNL     1       7.377   2.051  -4.875  1.00  0.00     0.188 C 
BRANCH  31  32
ATOM     32  O   UNL     1       6.789   3.296  -5.154  1.00  0.00    -0.376 OA
BRANCH  32  33
ATOM     33  C   UNL     1       7.489   4.155  -6.027  1.00  0.00     0.202 C 
BRANCH  33  34
ATOM     34  C   UNL     1       8.986   4.346  -5.713  1.00  0.00     0.261 C 
BRANCH  34  35
ATOM     35  O   UNL     1       9.188   4.768  -4.343  1.00  0.00    -0.460 OA
BRANCH  35  36
ATOM     36  C   UNL     1       9.838   3.925  -3.474  1.00  0.00     0.338 C 
ATOM     37  O   UNL     1      10.725   3.143  -3.772  1.00  0.00    -0.246 OA
BRANCH  36  38
ATOM     38  C   UNL     1       9.067   3.860  -2.175  1.00  0.00     0.060 A 
ATOM     39  C   UNL     1       8.992   2.705  -1.388  1.00  0.00     0.016 A 
ATOM     40  C   UNL     1       7.945   4.600  -2.162  1.00  0.00     0.016 A 
ATOM     41  C   UNL     1       7.715   2.090  -1.042  1.00  0.00     0.010 A 
ATOM     42  C   UNL     1       6.754   3.874  -1.974  1.00  0.00     0.010 A 
ATOM     43  C   UNL     1       6.486   2.541  -1.522  1.00  0.00    -0.014 A 
BRANCH  43  44
ATOM     44  C   UNL     1       5.009   1.631  -1.427  1.00  0.00     0.031 A 
ATOM     45  C   UNL     1       3.362   1.948  -1.195  1.00  0.00     0.074 A 
ATOM     46  C   UNL     1       5.114   0.294  -1.628  1.00  0.00     0.049 A 
ATOM     47  N   UNL     1       2.329   1.299  -1.715  1.00  0.00    -0.248 NA
ATOM     48  C   UNL     1       2.750   2.970  -0.316  1.00  0.00     0.031 C 
ATOM     49  C   UNL     1       4.080  -0.668  -2.032  1.00  0.00     0.029 A 
ATOM     50  N   UNL     1       6.218  -0.509  -1.433  1.00  0.00    -0.354 N 
ATOM     51  C   UNL     1       1.130   1.969  -1.459  1.00  0.00     0.074 A 
ATOM     52  C   UNL     1       1.506   3.148  -0.759  1.00  0.00     0.031 C 
ATOM     53  C   UNL     1       4.506  -1.914  -1.819  1.00  0.00     0.029 A 
ATOM     54  C   UNL     1       5.765  -1.800  -1.144  1.00  0.00     0.049 A 
ATOM     55  H   UNL     1       7.159  -0.224  -1.487  1.00  0.00     0.167 HD
ATOM     56  C   UNL     1      -0.147   1.474  -1.458  1.00  0.00     0.031 A 
ATOM     57  C   UNL     1       6.106  -2.372   0.036  1.00  0.00     0.031 A 
ATOM     58  C   UNL     1      -0.107   0.033  -1.119  1.00  0.00     0.049 A 
ATOM     59  C   UNL     1       4.866  -2.622   0.880  1.00  0.00     0.074 A 
ATOM     60  C   UNL     1       0.115  -1.115  -1.856  1.00  0.00     0.029 A 
ATOM     61  N   UNL     1       0.162  -0.361   0.208  1.00  0.00    -0.354 N 
ATOM     62  N   UNL     1       3.651  -2.221   0.564  1.00  0.00    -0.248 NA
ATOM     63  C   UNL     1       4.880  -3.388   2.117  1.00  0.00     0.031 C 
ATOM     64  C   UNL     1       0.718  -2.098  -0.988  1.00  0.00     0.029 A 
ATOM     65  C   UNL     1       0.813  -1.603   0.310  1.00  0.00     0.049 A 
ATOM     66  H   UNL     1      -0.084   0.183   0.991  1.00  0.00     0.167 HD
ATOM     67  C   UNL     1       2.752  -2.588   1.527  1.00  0.00     0.074 A 
ATOM     68  C   UNL     1       3.573  -3.389   2.434  1.00  0.00     0.031 C 
ATOM     69  C   UNL     1       1.453  -2.116   1.588  1.00  0.00     0.031 A 
BRANCH  56  70
ATOM     70  C   UNL     1      -1.387   2.450  -1.568  1.00  0.00    -0.014 A 
ATOM     71  C   UNL     1      -2.725   2.034  -1.412  1.00  0.00     0.009 A 
ATOM     72  C   UNL     1      -1.269   3.838  -1.889  1.00  0.00     0.009 A 
ATOM     73  C   UNL     1      -3.827   2.940  -1.459  1.00  0.00     0.001 A 
ATOM     74  C   UNL     1      -2.353   4.752  -1.898  1.00  0.00     0.001 A 
ATOM     75  C   UNL     1      -3.640   4.303  -1.674  1.00  0.00     0.000 A 
ENDBRANCH  56  70
BRANCH  57  76
ATOM     76  C   UNL     1       7.552  -2.049   0.332  1.00  0.00    -0.014 A 
ATOM     77  C   UNL     1       8.442  -2.411  -0.726  1.00  0.00     0.009 A 
ATOM     78  C   UNL     1       7.962  -1.008   1.179  1.00  0.00     0.009 A 
ATOM     79  C   UNL     1       9.531  -1.608  -1.081  1.00  0.00     0.001 A 
ATOM     80  C   UNL     1       9.136  -0.276   0.883  1.00  0.00     0.001 A 
ATOM     81  C   UNL     1       9.871  -0.530  -0.282  1.00  0.00     0.000 A 
ENDBRANCH  57  76
BRANCH  69  82
ATOM     82  C   UNL     1       0.777  -2.029   2.975  1.00  0.00    -0.014 A 
ATOM     83  C   UNL     1       1.480  -2.141   4.202  1.00  0.00     0.009 A 
ATOM     84  C   UNL     1      -0.575  -1.679   3.109  1.00  0.00     0.009 A 
ATOM     85  C   UNL     1       0.871  -2.044   5.461  1.00  0.00     0.001 A 
ATOM     86  C   UNL     1      -1.178  -1.492   4.371  1.00  0.00     0.001 A 
ATOM     87  C   UNL     1      -0.465  -1.708   5.546  1.00  0.00     0.000 A 
ENDBRANCH  69  82
ENDBRANCH  43  44
ENDBRANCH  36  38
ENDBRANCH  35  36
ENDBRANCH  34  35
ENDBRANCH  33  34
ENDBRANCH  32  33
ENDBRANCH  31  32
ENDBRANCH   1  31
TORSDOF 22
