REMARK SMILES Cc1ccc(Nc2c(Cl)cccc2Cl)c(CC(=O)OCCOCCOCCOC(=O)c2ccc(-c3c4nc(c(-c5ccccc5)c5ccc([nH]5)c(-c5ccccc5)c5nc(c(-c6ccccc6)c6ccc3[nH]6)C=C5)C=C4)cc2)c1
REMARK SMILES IDX 23 1 22 2 21 3 20 4 19 5 17 6 18 7 16 8 15 9 1 10 2 11 3 12
REMARK SMILES IDX 79 13 4 14 5 15 6 16 7 18 8 19 13 20 9 21 10 22 12 23 14 24
REMARK SMILES IDX 11 25 24 26 25 27 26 28 27 29 28 30 29 31 30 32 31 33 32 34
REMARK SMILES IDX 78 35 33 36 77 37 34 38 35 39 36 40 71 41 37 42 76 43 70 44
REMARK SMILES IDX 72 45 38 46 75 47 69 48 68 49 39 51 61 52 46 53 60 54 47 55
REMARK SMILES IDX 50 56 59 57 73 58 48 59 49 60 58 62 74 63 51 64 40 65 41 66
REMARK SMILES IDX 45 67 42 68 44 69 43 70 62 71 63 72 67 73 64 74 66 75 65 76
REMARK SMILES IDX 52 77 53 78 57 79 54 80 56 81 55 82
REMARK H PARENT 6 17 72 50 50 61
REMARK Flexibility Score: inf
ROOT
ATOM      1  C   UNL     1      -4.834   0.830  -3.894  1.00  0.00     0.188 C 
ENDROOT
BRANCH   1   2
ATOM      2  O   UNL     1      -4.313   1.958  -4.556  1.00  0.00    -0.376 OA
BRANCH   2   3
ATOM      3  C   UNL     1      -2.938   2.074  -4.856  1.00  0.00     0.202 C 
BRANCH   3   4
ATOM      4  C   UNL     1      -1.640   2.544  -3.989  1.00  0.00     0.261 C 
BRANCH   4   5
ATOM      5  O   UNL     1      -1.046   2.418  -2.289  1.00  0.00    -0.463 OA
BRANCH   5   6
ATOM      6  C   UNL     1      -0.978   3.122  -0.811  1.00  0.00     0.310 C 
ATOM      7  O   UNL     1      -1.452   4.150  -0.308  1.00  0.00    -0.252 OA
BRANCH   6   8
ATOM      8  C   UNL     1      -0.473   2.245   0.194  1.00  0.00     0.160 C 
BRANCH   8   9
ATOM      9  C   UNL     1      -0.456   0.961  -0.555  1.00  0.00    -0.013 A 
ATOM     10  C   UNL     1       3.181  -0.124  -0.040  1.00  0.00     0.044 C 
ATOM     11  C   UNL     1       1.687  -0.159  -0.053  1.00  0.00    -0.051 A 
ATOM     12  C   UNL     1       0.943  -1.040   0.692  1.00  0.00     0.005 A 
ATOM     13  C   UNL     1       0.981   0.795  -0.745  1.00  0.00     0.009 A 
ATOM     14  C   UNL     1      -0.478  -0.951   0.695  1.00  0.00     0.026 A 
ATOM     15  C   UNL     1      -1.441   0.025  -0.149  1.00  0.00     0.042 A 
BRANCH  15  16
ATOM     16  N   UNL     1      -3.321  -0.416  -0.699  1.00  0.00    -0.353 N 
ATOM     17  H   UNL     1      -3.608   0.074  -1.503  1.00  0.00     0.167 HD
BRANCH  16  18
ATOM     18  C   UNL     1      -4.623  -1.530  -0.040  1.00  0.00     0.076 A 
ATOM     19  C   UNL     1      -4.486  -2.568   1.110  1.00  0.00     0.066 A 
ATOM     20  C   UNL     1      -5.751  -1.799  -0.851  1.00  0.00     0.066 A 
ATOM     21  Cl  UNL     1      -3.363  -2.807   2.483  1.00  0.00    -0.082 Cl
ATOM     22  C   UNL     1      -5.324  -3.706   1.215  1.00  0.00     0.023 A 
ATOM     23  C   UNL     1      -6.527  -2.995  -0.693  1.00  0.00     0.023 A 
ATOM     24  Cl  UNL     1      -6.496  -0.721  -1.925  1.00  0.00    -0.082 Cl
ATOM     25  C   UNL     1      -6.298  -3.952   0.287  1.00  0.00     0.003 A 
ENDBRANCH  16  18
ENDBRANCH  15  16
ENDBRANCH   8   9
ENDBRANCH   6   8
ENDBRANCH   5   6
ENDBRANCH   4   5
ENDBRANCH   3   4
ENDBRANCH   2   3
ENDBRANCH   1   2
BRANCH   1  26
ATOM     26  C   UNL     1      -4.437  -0.589  -4.287  1.00  0.00     0.188 C 
BRANCH  26  27
ATOM     27  O   UNL     1      -3.075  -0.750  -4.610  1.00  0.00    -0.376 OA
BRANCH  27  28
ATOM     28  C   UNL     1      -2.665  -2.101  -4.820  1.00  0.00     0.202 C 
BRANCH  28  29
ATOM     29  C   UNL     1      -3.055  -3.210  -3.752  1.00  0.00     0.261 C 
BRANCH  29  30
ATOM     30  O   UNL     1      -2.230  -3.249  -2.516  1.00  0.00    -0.460 OA
BRANCH  30  31
ATOM     31  C   UNL     1      -2.754  -3.223  -1.204  1.00  0.00     0.338 C 
ATOM     32  O   UNL     1      -3.510  -4.115  -0.875  1.00  0.00    -0.246 OA
BRANCH  31  33
ATOM     33  C   UNL     1      -2.221  -1.882  -0.315  1.00  0.00     0.060 A 
ATOM     34  C   UNL     1      -2.851  -0.617   1.042  1.00  0.00     0.016 A 
ATOM     35  C   UNL     1      -1.854  -1.096  -1.903  1.00  0.00     0.016 A 
ATOM     36  C   UNL     1      -3.214   1.171   0.517  1.00  0.00     0.010 A 
ATOM     37  C   UNL     1      -2.322   0.542  -2.264  1.00  0.00     0.010 A 
ATOM     38  C   UNL     1      -2.999   1.796  -1.192  1.00  0.00    -0.014 A 
BRANCH  38  39
ATOM     39  C   UNL     1      -3.023   3.495  -2.018  1.00  0.00     0.031 A 
ATOM     40  C   UNL     1      -1.556   4.632  -2.474  1.00  0.00     0.074 A 
ATOM     41  C   UNL     1      -4.095   3.970  -2.694  1.00  0.00     0.049 A 
ATOM     42  N   UNL     1      -1.338   5.876  -2.085  1.00  0.00    -0.248 NA
ATOM     43  C   UNL     1      -0.047   4.203  -3.004  1.00  0.00     0.031 C 
ATOM     44  C   UNL     1      -4.100   5.033  -3.719  1.00  0.00     0.029 A 
ATOM     45  N   UNL     1      -5.417   3.546  -2.691  1.00  0.00    -0.354 N 
ATOM     46  C   UNL     1       0.026   6.199  -2.404  1.00  0.00     0.074 A 
ATOM     47  C   UNL     1       0.787   5.020  -2.406  1.00  0.00     0.031 C 
ATOM     48  C   UNL     1      -5.372   5.375  -3.999  1.00  0.00     0.029 A 
ATOM     49  C   UNL     1      -6.208   4.653  -3.058  1.00  0.00     0.049 A 
ATOM     50  H   UNL     1      -5.741   2.642  -2.472  1.00  0.00     0.167 HD
ATOM     51  C   UNL     1       0.394   7.244  -3.208  1.00  0.00     0.031 A 
ATOM     52  C   UNL     1      -6.991   5.203  -2.092  1.00  0.00     0.031 A 
ATOM     53  C   UNL     1      -0.820   7.922  -3.578  1.00  0.00     0.049 A 
ATOM     54  C   UNL     1      -6.398   6.532  -1.667  1.00  0.00     0.074 A 
ATOM     55  C   UNL     1      -1.635   7.869  -4.693  1.00  0.00     0.029 A 
ATOM     56  N   UNL     1      -1.611   8.328  -2.525  1.00  0.00    -0.354 N 
ATOM     57  N   UNL     1      -5.163   6.893  -1.918  1.00  0.00    -0.248 NA
ATOM     58  C   UNL     1      -7.168   7.610  -1.060  1.00  0.00     0.031 C 
ATOM     59  C   UNL     1      -2.959   8.199  -4.258  1.00  0.00     0.029 A 
ATOM     60  C   UNL     1      -2.928   8.456  -2.896  1.00  0.00     0.049 A 
ATOM     61  H   UNL     1      -1.274   8.504  -1.617  1.00  0.00     0.167 HD
ATOM     62  C   UNL     1      -4.987   8.207  -1.611  1.00  0.00     0.074 A 
ATOM     63  C   UNL     1      -6.263   8.605  -1.046  1.00  0.00     0.031 C 
ATOM     64  C   UNL     1      -3.847   8.913  -1.865  1.00  0.00     0.031 A 
BRANCH  51  65
ATOM     65  C   UNL     1       1.756   7.373  -3.919  1.00  0.00    -0.014 A 
ATOM     66  C   UNL     1       1.849   8.162  -5.076  1.00  0.00     0.009 A 
ATOM     67  C   UNL     1       2.978   6.771  -3.518  1.00  0.00     0.009 A 
ATOM     68  C   UNL     1       3.049   8.311  -5.798  1.00  0.00     0.001 A 
ATOM     69  C   UNL     1       4.167   6.859  -4.269  1.00  0.00     0.001 A 
ATOM     70  C   UNL     1       4.205   7.645  -5.408  1.00  0.00     0.000 A 
ENDBRANCH  51  65
BRANCH  52  71
ATOM     71  C   UNL     1      -7.639   4.111  -1.290  1.00  0.00    -0.014 A 
ATOM     72  C   UNL     1      -8.556   3.280  -1.990  1.00  0.00     0.009 A 
ATOM     73  C   UNL     1      -7.039   3.584  -0.134  1.00  0.00     0.009 A 
ATOM     74  C   UNL     1      -8.812   1.964  -1.587  1.00  0.00     0.001 A 
ATOM     75  C   UNL     1      -7.307   2.264   0.272  1.00  0.00     0.001 A 
ATOM     76  C   UNL     1      -8.200   1.466  -0.443  1.00  0.00     0.000 A 
ENDBRANCH  52  71
BRANCH  64  77
ATOM     77  C   UNL     1      -3.447  10.145  -1.081  1.00  0.00    -0.014 A 
ATOM     78  C   UNL     1      -4.011  10.480   0.151  1.00  0.00     0.009 A 
ATOM     79  C   UNL     1      -2.315  10.898  -1.482  1.00  0.00     0.009 A 
ATOM     80  C   UNL     1      -3.536  11.563   0.894  1.00  0.00     0.001 A 
ATOM     81  C   UNL     1      -1.766  11.901  -0.690  1.00  0.00     0.001 A 
ATOM     82  C   UNL     1      -2.405  12.261   0.483  1.00  0.00     0.000 A 
ENDBRANCH  64  77
ENDBRANCH  38  39
ENDBRANCH  31  33
ENDBRANCH  30  31
ENDBRANCH  29  30
ENDBRANCH  28  29
ENDBRANCH  27  28
ENDBRANCH  26  27
ENDBRANCH   1  26
TORSDOF 20
