REMARK SMILES CCc1cccc(C)c1Nc1ccccc1CC(=O)OCCOCCOCCOC(=O)c1ccc(-c2c3nc(c(-c4ccccc4)c4ccc([nH]4)c(-c4ccccc4)c4nc(c(-c5ccccc5)c5ccc2[nH]5)C=C4)C=C3)cc1
REMARK SMILES IDX 24 1 23 2 22 3 21 4 20 5 18 6 19 7 17 8 16 9 11 10 12 11
REMARK SMILES IDX 13 12 15 13 14 14 10 15 9 17 3 18 4 19 5 20 7 21 6 22 8 23
REMARK SMILES IDX 2 24 1 25 25 26 26 27 27 28 28 29 29 30 30 31 31 32 32 33
REMARK SMILES IDX 33 34 79 35 34 36 78 37 35 38 36 39 37 40 72 41 38 42 77 43
REMARK SMILES IDX 71 44 73 45 39 46 76 47 70 48 69 49 40 51 62 52 47 53 61 54
REMARK SMILES IDX 48 55 51 56 60 57 74 58 49 59 50 60 59 62 75 63 52 64 41 65
REMARK SMILES IDX 42 66 46 67 43 68 45 69 44 70 63 71 64 72 68 73 65 74 67 75
REMARK SMILES IDX 66 76 53 77 54 78 58 79 55 80 57 81 56 82
REMARK H PARENT 10 16 73 50 51 61
REMARK Flexibility Score: inf
ROOT
ATOM      1  C   UNL     1      -4.425   2.238   4.286  1.00  0.00     0.188 C 
ENDROOT
BRANCH   1   2
ATOM      2  O   UNL     1      -4.229   3.678   4.135  1.00  0.00    -0.376 OA
BRANCH   2   3
ATOM      3  C   UNL     1      -3.646   4.435   5.210  1.00  0.00     0.202 C 
BRANCH   3   4
ATOM      4  C   UNL     1      -2.468   5.463   4.839  1.00  0.00     0.261 C 
BRANCH   4   5
ATOM      5  O   UNL     1      -2.219   5.861   3.420  1.00  0.00    -0.463 OA
BRANCH   5   6
ATOM      6  C   UNL     1      -0.885   6.133   3.125  1.00  0.00     0.310 C 
ATOM      7  O   UNL     1      -0.089   6.205   4.056  1.00  0.00    -0.252 OA
BRANCH   6   8
ATOM      8  C   UNL     1      -0.403   6.357   1.607  1.00  0.00     0.160 C 
BRANCH   8   9
ATOM      9  C   UNL     1      -0.008   5.518   0.175  1.00  0.00    -0.013 A 
ATOM     10  C   UNL     1       0.079   3.940  -0.328  1.00  0.00     0.042 A 
ATOM     11  C   UNL     1       0.106   4.022  -1.870  1.00  0.00     0.026 A 
ATOM     12  C   UNL     1       0.266   5.180  -2.667  1.00  0.00     0.002 A 
ATOM     13  C   UNL     1       0.397   6.567  -0.733  1.00  0.00     0.006 A 
ATOM     14  C   UNL     1       0.511   6.410  -2.106  1.00  0.00     0.000 A 
BRANCH  10  15
ATOM     15  N   UNL     1      -0.063   2.278   0.754  1.00  0.00    -0.355 N 
ATOM     16  H   UNL     1       0.164   1.582   0.096  1.00  0.00     0.167 HD
BRANCH  15  17
ATOM     17  C   UNL     1      -0.342   1.391   2.119  1.00  0.00     0.045 A 
ATOM     18  C   UNL     1      -0.242  -0.045   2.124  1.00  0.00    -0.024 A 
ATOM     19  C   UNL     1      -0.230  -0.752   3.393  1.00  0.00     0.006 A 
ATOM     20  C   UNL     1      -0.320  -0.148   4.624  1.00  0.00     0.001 A 
ATOM     21  C   UNL     1      -0.730   1.860   3.378  1.00  0.00    -0.027 A 
ATOM     22  C   UNL     1      -0.584   1.173   4.603  1.00  0.00     0.005 A 
ATOM     23  C   UNL     1      -1.599   2.989   3.644  1.00  0.00     0.046 C 
BRANCH  18  24
ATOM     24  C   UNL     1      -0.504  -1.054   1.015  1.00  0.00     0.034 C 
ATOM     25  C   UNL     1       0.195  -1.067  -0.315  1.00  0.00     0.009 C 
ENDBRANCH  18  24
ENDBRANCH  15  17
ENDBRANCH  10  15
ENDBRANCH   8   9
ENDBRANCH   6   8
ENDBRANCH   5   6
ENDBRANCH   4   5
ENDBRANCH   3   4
ENDBRANCH   2   3
ENDBRANCH   1   2
BRANCH   1  26
ATOM     26  C   UNL     1      -4.357   1.507   2.890  1.00  0.00     0.188 C 
BRANCH  26  27
ATOM     27  O   UNL     1      -4.381   2.456   1.822  1.00  0.00    -0.376 OA
BRANCH  27  28
ATOM     28  C   UNL     1      -5.023   2.108   0.605  1.00  0.00     0.202 C 
BRANCH  28  29
ATOM     29  C   UNL     1      -4.385   0.985  -0.256  1.00  0.00     0.261 C 
BRANCH  29  30
ATOM     30  O   UNL     1      -3.425   1.278  -1.382  1.00  0.00    -0.460 OA
BRANCH  30  31
ATOM     31  C   UNL     1      -2.102   1.311  -1.728  1.00  0.00     0.338 C 
ATOM     32  O   UNL     1      -1.716   0.847  -2.798  1.00  0.00    -0.246 OA
BRANCH  31  33
ATOM     33  C   UNL     1      -1.095   2.067  -0.945  1.00  0.00     0.060 A 
ATOM     34  C   UNL     1       0.757   1.919  -1.074  1.00  0.00     0.016 A 
ATOM     35  C   UNL     1      -1.813   3.115   0.291  1.00  0.00     0.016 A 
ATOM     36  C   UNL     1       1.831   2.737   0.189  1.00  0.00     0.010 A 
ATOM     37  C   UNL     1      -0.733   3.881   1.542  1.00  0.00     0.010 A 
ATOM     38  C   UNL     1       1.125   3.734   1.554  1.00  0.00    -0.014 A 
BRANCH  38  39
ATOM     39  C   UNL     1       2.007   4.287   2.764  1.00  0.00     0.031 A 
ATOM     40  C   UNL     1       2.403   5.782   3.329  1.00  0.00     0.074 A 
ATOM     41  C   UNL     1       2.158   3.343   3.729  1.00  0.00     0.049 A 
ATOM     42  N   UNL     1       2.817   6.010   4.567  1.00  0.00    -0.248 NA
ATOM     43  C   UNL     1       2.394   7.123   2.645  1.00  0.00     0.031 C 
ATOM     44  C   UNL     1       1.838   3.569   5.142  1.00  0.00     0.029 A 
ATOM     45  N   UNL     1       2.393   1.979   3.698  1.00  0.00    -0.354 N 
ATOM     46  C   UNL     1       2.502   7.336   4.884  1.00  0.00     0.074 A 
ATOM     47  C   UNL     1       2.496   8.018   3.639  1.00  0.00     0.031 C 
ATOM     48  C   UNL     1       2.002   2.438   5.833  1.00  0.00     0.029 A 
ATOM     49  C   UNL     1       2.669   1.492   4.977  1.00  0.00     0.049 A 
ATOM     50  H   UNL     1       2.368   1.427   2.884  1.00  0.00     0.167 HD
ATOM     51  C   UNL     1       2.007   7.708   6.110  1.00  0.00     0.031 A 
ATOM     52  C   UNL     1       3.756   0.753   5.341  1.00  0.00     0.031 A 
ATOM     53  C   UNL     1       2.319   6.724   7.126  1.00  0.00     0.049 A 
ATOM     54  C   UNL     1       4.593   1.486   6.386  1.00  0.00     0.074 A 
ATOM     55  C   UNL     1       1.627   5.889   7.979  1.00  0.00     0.029 A 
ATOM     56  N   UNL     1       3.638   6.332   7.187  1.00  0.00    -0.354 N 
ATOM     57  N   UNL     1       4.155   2.491   7.104  1.00  0.00    -0.248 NA
ATOM     58  C   UNL     1       6.012   1.236   6.647  1.00  0.00     0.031 C 
ATOM     59  C   UNL     1       2.550   4.874   8.409  1.00  0.00     0.029 A 
ATOM     60  C   UNL     1       3.803   5.158   7.884  1.00  0.00     0.049 A 
ATOM     61  H   UNL     1       4.378   6.836   6.779  1.00  0.00     0.167 HD
ATOM     62  C   UNL     1       5.223   3.219   7.548  1.00  0.00     0.074 A 
ATOM     63  C   UNL     1       6.339   2.307   7.394  1.00  0.00     0.031 C 
ATOM     64  C   UNL     1       5.139   4.555   7.835  1.00  0.00     0.031 A 
BRANCH  51  65
ATOM     65  C   UNL     1       1.121   8.931   6.372  1.00  0.00    -0.014 A 
ATOM     66  C   UNL     1       0.859   9.360   7.690  1.00  0.00     0.009 A 
ATOM     67  C   UNL     1       0.411   9.626   5.367  1.00  0.00     0.009 A 
ATOM     68  C   UNL     1      -0.020  10.426   7.978  1.00  0.00     0.001 A 
ATOM     69  C   UNL     1      -0.441  10.714   5.644  1.00  0.00     0.001 A 
ATOM     70  C   UNL     1      -0.658  11.115   6.954  1.00  0.00     0.000 A 
ENDBRANCH  51  65
BRANCH  52  71
ATOM     71  C   UNL     1       4.193  -0.174   4.257  1.00  0.00    -0.014 A 
ATOM     72  C   UNL     1       3.430  -1.354   4.124  1.00  0.00     0.009 A 
ATOM     73  C   UNL     1       4.816   0.351   3.113  1.00  0.00     0.009 A 
ATOM     74  C   UNL     1       3.107  -1.852   2.857  1.00  0.00     0.001 A 
ATOM     75  C   UNL     1       4.470  -0.139   1.846  1.00  0.00     0.001 A 
ATOM     76  C   UNL     1       3.581  -1.207   1.719  1.00  0.00     0.000 A 
ENDBRANCH  52  71
BRANCH  64  77
ATOM     77  C   UNL     1       6.358   5.471   7.918  1.00  0.00    -0.014 A 
ATOM     78  C   UNL     1       7.576   5.197   7.278  1.00  0.00     0.009 A 
ATOM     79  C   UNL     1       6.244   6.751   8.511  1.00  0.00     0.009 A 
ATOM     80  C   UNL     1       8.650   6.096   7.318  1.00  0.00     0.001 A 
ATOM     81  C   UNL     1       7.282   7.689   8.472  1.00  0.00     0.001 A 
ATOM     82  C   UNL     1       8.502   7.345   7.908  1.00  0.00     0.000 A 
ENDBRANCH  64  77
ENDBRANCH  38  39
ENDBRANCH  31  33
ENDBRANCH  30  31
ENDBRANCH  29  30
ENDBRANCH  28  29
ENDBRANCH  27  28
ENDBRANCH  26  27
ENDBRANCH   1  26
TORSDOF 21
