REMARK SMILES CCOC(=O)c1c(NC(=O)[C@H]2CCCC[C@@H]2C(=O)OCCOCCOCCOC(=O)c2ccc(-c3c4nc(c(-c5ccccc5)c5ccc([nH]5)c(-c5ccccc5)c5nc(c(-c6ccccc6)c6ccc3[nH]6)C=C5)C=C4)cc2)sc2c1CC[C@H](C)C2
REMARK SMILES IDX 22 1 21 2 20 3 19 4 17 5 18 6 16 7 11 8 12 9 13 10 15 11
REMARK SMILES IDX 14 12 9 13 8 14 10 16 7 17 6 18 81 19 79 20 80 21 82 22
REMARK SMILES IDX 86 23 83 24 84 25 85 26 4 27 5 28 3 29 2 30 1 31 23 32 24 33
REMARK SMILES IDX 25 34 26 35 27 36 28 37 29 38 30 39 31 40 32 41 78 42 33 43
REMARK SMILES IDX 77 44 34 45 35 46 36 47 71 48 37 49 76 50 70 51 72 52 38 53
REMARK SMILES IDX 75 54 69 55 68 56 39 58 61 59 46 60 60 61 47 62 50 63 59 64
REMARK SMILES IDX 73 65 48 66 49 67 58 69 74 70 51 71 40 72 41 73 45 74 42 75
REMARK SMILES IDX 44 76 43 77 62 78 63 79 67 80 64 81 66 82 65 83 52 84 53 85
REMARK SMILES IDX 57 86 54 87 56 88 55 89
REMARK H PARENT 8 15 72 57 50 68
REMARK Flexibility Score: inf
ROOT
ATOM      1  O   UNL     1      -2.182   2.244   5.259  1.00  0.00    -0.376 OA
ENDROOT
BRANCH   1   2
ATOM      2  C   UNL     1      -2.549   3.521   4.749  1.00  0.00     0.202 C 
BRANCH   2   3
ATOM      3  C   UNL     1      -1.393   4.521   4.590  1.00  0.00     0.261 C 
BRANCH   3   4
ATOM      4  O   UNL     1      -0.404   4.148   3.597  1.00  0.00    -0.463 OA
BRANCH   4   5
ATOM      5  C   UNL     1       0.875   3.928   4.031  1.00  0.00     0.309 C 
ATOM      6  O   UNL     1       1.220   4.038   5.203  1.00  0.00    -0.252 OA
BRANCH   5   7
ATOM      7  C   UNL     1       1.860   3.486   2.921  1.00  0.00     0.111 C 
ATOM      8  C   UNL     1       1.271   3.502   1.480  1.00  0.00     0.093 C 
ATOM      9  C   UNL     1       0.477   2.227   1.308  1.00  0.00     0.014 C 
ATOM     10  C   UNL     1       1.358   1.004   1.327  1.00  0.00     0.001 C 
ATOM     11  C   UNL     1       2.540   2.135   3.289  1.00  0.00     0.016 C 
ATOM     12  C   UNL     1       1.932   0.845   2.718  1.00  0.00     0.001 C 
BRANCH   8  13
ATOM     13  C   UNL     1       2.307   3.768   0.380  1.00  0.00     0.228 C 
ATOM     14  N   UNL     1       2.116   3.522  -0.953  1.00  0.00    -0.317 N 
ATOM     15  H   UNL     1       2.864   3.821  -1.518  1.00  0.00     0.170 HD
ATOM     16  O   UNL     1       3.417   4.225   0.688  1.00  0.00    -0.274 OA
BRANCH  14  17
ATOM     17  C   UNL     1       1.087   2.939  -1.665  1.00  0.00     0.110 A 
ATOM     18  C   UNL     1      -0.304   2.921  -1.688  1.00  0.00     0.098 A 
ATOM     19  C   UNL     1      -0.738   1.702  -2.369  1.00  0.00    -0.017 A 
ATOM     20  S   UNL     1       1.750   1.916  -2.883  1.00  0.00    -0.122 S 
ATOM     21  C   UNL     1       0.278   1.107  -3.090  1.00  0.00     0.011 A 
ATOM     22  C   UNL     1      -2.121   1.104  -2.341  1.00  0.00     0.038 C 
ATOM     23  C   UNL     1       0.129  -0.128  -3.940  1.00  0.00     0.050 C 
ATOM     24  C   UNL     1      -2.160  -0.323  -2.922  1.00  0.00     0.008 C 
ATOM     25  C   UNL     1      -1.369  -0.380  -4.239  1.00  0.00    -0.009 C 
ATOM     26  C   UNL     1      -1.593  -1.702  -4.966  1.00  0.00     0.008 C 
BRANCH  18  27
ATOM     27  C   UNL     1      -1.251   3.853  -1.039  1.00  0.00     0.341 C 
ATOM     28  O   UNL     1      -2.465   3.707  -1.119  1.00  0.00    -0.246 OA
BRANCH  27  29
ATOM     29  O   UNL     1      -0.652   4.869  -0.368  1.00  0.00    -0.462 OA
BRANCH  29  30
ATOM     30  C   UNL     1      -1.373   5.803   0.473  1.00  0.00     0.230 C 
ATOM     31  C   UNL     1      -2.781   5.460   0.926  1.00  0.00     0.049 C 
ENDBRANCH  29  30
ENDBRANCH  27  29
ENDBRANCH  18  27
ENDBRANCH  14  17
ENDBRANCH   8  13
ENDBRANCH   5   7
ENDBRANCH   4   5
ENDBRANCH   3   4
ENDBRANCH   2   3
ENDBRANCH   1   2
BRANCH   1  32
ATOM     32  C   UNL     1      -1.450   1.452   4.347  1.00  0.00     0.188 C 
BRANCH  32  33
ATOM     33  C   UNL     1      -2.240   1.030   3.116  1.00  0.00     0.188 C 
BRANCH  33  34
ATOM     34  O   UNL     1      -2.661   1.976   2.133  1.00  0.00    -0.376 OA
BRANCH  34  35
ATOM     35  C   UNL     1      -4.026   1.819   1.692  1.00  0.00     0.202 C 
BRANCH  35  36
ATOM     36  C   UNL     1      -4.468   0.502   1.023  1.00  0.00     0.261 C 
BRANCH  36  37
ATOM     37  O   UNL     1      -3.893  -0.634   1.651  1.00  0.00    -0.460 OA
BRANCH  37  38
ATOM     38  C   UNL     1      -2.692  -0.995   1.147  1.00  0.00     0.338 C 
ATOM     39  O   UNL     1      -2.228  -0.693   0.058  1.00  0.00    -0.246 OA
BRANCH  38  40
ATOM     40  C   UNL     1      -1.954  -1.827   2.126  1.00  0.00     0.060 A 
ATOM     41  C   UNL     1      -0.942  -2.574   1.536  1.00  0.00     0.016 A 
ATOM     42  C   UNL     1      -2.708  -2.301   3.195  1.00  0.00     0.016 A 
ATOM     43  C   UNL     1      -1.162  -3.920   1.514  1.00  0.00     0.010 A 
ATOM     44  C   UNL     1      -2.958  -3.631   3.157  1.00  0.00     0.010 A 
ATOM     45  C   UNL     1      -2.285  -4.384   2.196  1.00  0.00    -0.014 A 
BRANCH  45  46
ATOM     46  C   UNL     1      -2.731  -5.729   1.983  1.00  0.00     0.031 A 
ATOM     47  C   UNL     1      -2.039  -6.619   2.928  1.00  0.00     0.074 A 
ATOM     48  C   UNL     1      -3.749  -6.020   1.155  1.00  0.00     0.049 A 
ATOM     49  N   UNL     1      -0.929  -7.245   2.706  1.00  0.00    -0.248 NA
ATOM     50  C   UNL     1      -2.381  -6.479   4.359  1.00  0.00     0.031 C 
ATOM     51  C   UNL     1      -4.646  -5.131   0.410  1.00  0.00     0.029 A 
ATOM     52  N   UNL     1      -4.261  -7.240   0.887  1.00  0.00    -0.354 N 
ATOM     53  C   UNL     1      -0.609  -7.790   3.939  1.00  0.00     0.074 A 
ATOM     54  C   UNL     1      -1.265  -6.958   4.907  1.00  0.00     0.031 C 
ATOM     55  C   UNL     1      -5.728  -5.839  -0.003  1.00  0.00     0.029 A 
ATOM     56  C   UNL     1      -5.536  -7.237   0.347  1.00  0.00     0.049 A 
ATOM     57  H   UNL     1      -3.764  -8.072   1.062  1.00  0.00     0.167 HD
ATOM     58  C   UNL     1      -0.287  -9.108   4.048  1.00  0.00     0.031 A 
ATOM     59  C   UNL     1      -6.370  -8.309   0.302  1.00  0.00     0.031 A 
ATOM     60  C   UNL     1       0.011  -9.669   2.748  1.00  0.00     0.049 A 
ATOM     61  C   UNL     1      -5.538  -9.521   0.550  1.00  0.00     0.074 A 
ATOM     62  C   UNL     1       0.930  -9.394   1.755  1.00  0.00     0.029 A 
ATOM     63  N   UNL     1      -1.003 -10.385   2.151  1.00  0.00    -0.354 N 
ATOM     64  N   UNL     1      -4.630  -9.937  -0.289  1.00  0.00    -0.248 NA
ATOM     65  C   UNL     1      -5.336  -9.935   1.934  1.00  0.00     0.031 C 
ATOM     66  C   UNL     1       0.224  -9.588   0.531  1.00  0.00     0.029 A 
ATOM     67  C   UNL     1      -1.060 -10.053   0.824  1.00  0.00     0.049 A 
ATOM     68  H   UNL     1      -1.591 -11.031   2.605  1.00  0.00     0.167 HD
ATOM     69  C   UNL     1      -3.535 -10.268   0.501  1.00  0.00     0.074 A 
ATOM     70  C   UNL     1      -4.058 -10.326   1.868  1.00  0.00     0.031 C 
ATOM     71  C   UNL     1      -2.261 -10.138   0.021  1.00  0.00     0.031 A 
BRANCH  58  72
ATOM     72  C   UNL     1      -0.768  -9.976   5.196  1.00  0.00    -0.014 A 
ATOM     73  C   UNL     1      -0.450 -11.341   5.153  1.00  0.00     0.009 A 
ATOM     74  C   UNL     1      -1.728  -9.593   6.156  1.00  0.00     0.009 A 
ATOM     75  C   UNL     1      -1.143 -12.276   5.930  1.00  0.00     0.001 A 
ATOM     76  C   UNL     1      -2.403 -10.516   6.955  1.00  0.00     0.001 A 
ATOM     77  C   UNL     1      -2.134 -11.864   6.815  1.00  0.00     0.000 A 
ENDBRANCH  58  72
BRANCH  59  78
ATOM     78  C   UNL     1      -7.847  -8.328   0.429  1.00  0.00    -0.014 A 
ATOM     79  C   UNL     1      -8.602  -9.449   0.046  1.00  0.00     0.009 A 
ATOM     80  C   UNL     1      -8.502  -7.330   1.176  1.00  0.00     0.009 A 
ATOM     81  C   UNL     1      -9.952  -9.573   0.414  1.00  0.00     0.001 A 
ATOM     82  C   UNL     1      -9.847  -7.454   1.545  1.00  0.00     0.001 A 
ATOM     83  C   UNL     1     -10.570  -8.581   1.172  1.00  0.00     0.000 A 
ENDBRANCH  59  78
BRANCH  71  84
ATOM     84  C   UNL     1      -2.094  -9.838  -1.450  1.00  0.00    -0.014 A 
ATOM     85  C   UNL     1      -2.509  -8.635  -2.052  1.00  0.00     0.009 A 
ATOM     86  C   UNL     1      -1.335 -10.735  -2.214  1.00  0.00     0.009 A 
ATOM     87  C   UNL     1      -2.188  -8.354  -3.386  1.00  0.00     0.001 A 
ATOM     88  C   UNL     1      -0.998 -10.445  -3.537  1.00  0.00     0.001 A 
ATOM     89  C   UNL     1      -1.427  -9.258  -4.125  1.00  0.00     0.000 A 
ENDBRANCH  71  84
ENDBRANCH  45  46
ENDBRANCH  38  40
ENDBRANCH  37  38
ENDBRANCH  36  37
ENDBRANCH  35  36
ENDBRANCH  34  35
ENDBRANCH  33  34
ENDBRANCH  32  33
ENDBRANCH   1  32
TORSDOF 22
