REMARK SMILES Cc1cc2c(=O)c3ccccc3oc2c(C(=O)OCCOCCOCCOC(=O)c2ccc(-c3c4nc(c(-c5ccccc5)c5ccc([nH]5)c(-c5ccccc5)c5nc(c(-c6ccccc6)c6ccc3[nH]6)C=C5)C=C4)cc2)c1C
REMARK SMILES IDX 23 1 22 2 21 3 20 4 19 5 18 6 16 7 17 8 15 9 1 10 2 11 3 12
REMARK SMILES IDX 78 13 4 14 79 15 5 16 14 17 6 18 7 19 13 20 8 21 12 22 9 23
REMARK SMILES IDX 11 24 10 25 24 26 25 27 26 28 27 29 28 30 29 31 30 32 31 33
REMARK SMILES IDX 77 34 32 35 76 36 33 37 34 38 35 39 70 40 36 41 75 42 69 43
REMARK SMILES IDX 71 44 37 45 74 46 68 47 67 48 38 50 60 51 45 52 59 53 46 54
REMARK SMILES IDX 49 55 58 56 72 57 47 58 48 59 57 61 73 62 50 63 39 64 40 65
REMARK SMILES IDX 44 66 41 67 43 68 42 69 61 70 62 71 66 72 63 73 65 74 64 75
REMARK SMILES IDX 51 76 52 77 56 78 53 79 55 80 54 81
REMARK H PARENT 71 49 49 60
REMARK Flexibility Score: inf
ROOT
ATOM      1  C   UNL     1       1.734  -3.042   4.720  1.00  0.00     0.188 C 
ENDROOT
BRANCH   1   2
ATOM      2  C   UNL     1       0.582  -3.317   5.712  1.00  0.00     0.188 C 
BRANCH   2   3
ATOM      3  O   UNL     1       0.172  -4.644   5.985  1.00  0.00    -0.376 OA
BRANCH   3   4
ATOM      4  C   UNL     1      -0.286  -5.466   4.921  1.00  0.00     0.202 C 
BRANCH   4   5
ATOM      5  C   UNL     1      -1.200  -4.897   3.832  1.00  0.00     0.261 C 
BRANCH   5   6
ATOM      6  O   UNL     1      -0.696  -3.692   3.235  1.00  0.00    -0.460 OA
BRANCH   6   7
ATOM      7  C   UNL     1      -1.536  -2.628   3.212  1.00  0.00     0.342 C 
ATOM      8  O   UNL     1      -2.684  -2.613   3.623  1.00  0.00    -0.246 OA
BRANCH   7   9
ATOM      9  C   UNL     1      -0.838  -1.413   2.698  1.00  0.00     0.106 A 
ATOM     10  C   UNL     1       1.125  -0.096  -0.349  1.00  0.00     0.044 C 
ATOM     11  C   UNL     1       0.401  -0.208   0.966  1.00  0.00    -0.046 A 
ATOM     12  C   UNL     1       0.254   0.966   1.714  1.00  0.00     0.019 A 
ATOM     13  C   UNL     1      -0.092  -1.430   1.483  1.00  0.00    -0.030 A 
ATOM     14  C   UNL     1      -0.394   0.949   2.947  1.00  0.00     0.067 A 
ATOM     15  C   UNL     1       0.242  -2.736   0.801  1.00  0.00     0.046 C 
ATOM     16  C   UNL     1      -0.461   2.188   3.732  1.00  0.00     0.200 A 
ATOM     17  C   UNL     1      -0.966  -0.219   3.443  1.00  0.00     0.153 A 
ATOM     18  O   UNL     1       0.065   3.224   3.346  1.00  0.00    -0.288 OA
ATOM     19  C   UNL     1      -1.188   2.128   4.998  1.00  0.00     0.065 A 
ATOM     20  O   UNL     1      -1.610  -0.256   4.663  1.00  0.00    -0.455 OA
ATOM     21  C   UNL     1      -1.341   3.278   5.780  1.00  0.00     0.016 A 
ATOM     22  C   UNL     1      -1.745   0.910   5.380  1.00  0.00     0.138 A 
ATOM     23  C   UNL     1      -2.099   3.218   6.942  1.00  0.00     0.001 A 
ATOM     24  C   UNL     1      -2.501   0.855   6.549  1.00  0.00     0.048 A 
ATOM     25  C   UNL     1      -2.699   2.015   7.308  1.00  0.00     0.004 A 
ENDBRANCH   7   9
ENDBRANCH   6   7
ENDBRANCH   5   6
ENDBRANCH   4   5
ENDBRANCH   3   4
ENDBRANCH   2   3
ENDBRANCH   1   2
BRANCH   1  26
ATOM     26  O   UNL     1       2.331  -4.103   4.010  1.00  0.00    -0.376 OA
BRANCH  26  27
ATOM     27  C   UNL     1       3.125  -5.072   4.673  1.00  0.00     0.202 C 
BRANCH  27  28
ATOM     28  C   UNL     1       3.862  -4.847   6.003  1.00  0.00     0.261 C 
BRANCH  28  29
ATOM     29  O   UNL     1       3.257  -3.955   6.940  1.00  0.00    -0.460 OA
BRANCH  29  30
ATOM     30  C   UNL     1       3.889  -2.765   7.100  1.00  0.00     0.338 C 
ATOM     31  O   UNL     1       4.890  -2.371   6.524  1.00  0.00    -0.246 OA
BRANCH  30  32
ATOM     32  C   UNL     1       3.055  -1.908   7.962  1.00  0.00     0.060 A 
ATOM     33  C   UNL     1       2.749  -2.307   9.262  1.00  0.00     0.016 A 
ATOM     34  C   UNL     1       2.575  -0.691   7.454  1.00  0.00     0.016 A 
ATOM     35  C   UNL     1       1.993  -1.462  10.074  1.00  0.00     0.010 A 
ATOM     36  C   UNL     1       1.798   0.143   8.260  1.00  0.00     0.010 A 
ATOM     37  C   UNL     1       1.534  -0.224   9.588  1.00  0.00    -0.014 A 
BRANCH  37  38
ATOM     38  C   UNL     1       0.981   0.766  10.543  1.00  0.00     0.031 A 
ATOM     39  C   UNL     1      -0.488   0.959  10.742  1.00  0.00     0.074 A 
ATOM     40  C   UNL     1       1.863   1.464  11.282  1.00  0.00     0.049 A 
ATOM     41  N   UNL     1      -1.109   1.813  11.515  1.00  0.00    -0.248 NA
ATOM     42  C   UNL     1      -1.377   0.087   9.969  1.00  0.00     0.031 C 
ATOM     43  C   UNL     1       3.317   1.315  11.203  1.00  0.00     0.029 A 
ATOM     44  N   UNL     1       1.670   2.380  12.282  1.00  0.00    -0.354 N 
ATOM     45  C   UNL     1      -2.463   1.660  11.244  1.00  0.00     0.074 A 
ATOM     46  C   UNL     1      -2.571   0.564  10.305  1.00  0.00     0.031 C 
ATOM     47  C   UNL     1       3.880   2.035  12.183  1.00  0.00     0.029 A 
ATOM     48  C   UNL     1       2.833   2.739  12.918  1.00  0.00     0.049 A 
ATOM     49  H   UNL     1       0.787   2.744  12.520  1.00  0.00     0.167 HD
ATOM     50  C   UNL     1      -3.496   2.409  11.708  1.00  0.00     0.031 A 
ATOM     51  C   UNL     1       3.032   3.522  13.994  1.00  0.00     0.031 A 
ATOM     52  C   UNL     1      -3.360   3.393  12.760  1.00  0.00     0.049 A 
ATOM     53  C   UNL     1       1.847   4.156  14.662  1.00  0.00     0.074 A 
ATOM     54  C   UNL     1      -4.352   4.144  13.370  1.00  0.00     0.029 A 
ATOM     55  N   UNL     1      -2.172   3.717  13.399  1.00  0.00    -0.354 N 
ATOM     56  N   UNL     1       0.580   4.082  14.333  1.00  0.00    -0.248 NA
ATOM     57  C   UNL     1       2.114   4.968  15.856  1.00  0.00     0.031 C 
ATOM     58  C   UNL     1      -3.762   4.942  14.353  1.00  0.00     0.029 A 
ATOM     59  C   UNL     1      -2.413   4.635  14.409  1.00  0.00     0.049 A 
ATOM     60  H   UNL     1      -1.288   3.349  13.169  1.00  0.00     0.167 HD
ATOM     61  C   UNL     1      -0.102   4.838  15.276  1.00  0.00     0.074 A 
ATOM     62  C   UNL     1       0.887   5.319  16.219  1.00  0.00     0.031 C 
ATOM     63  C   UNL     1      -1.425   5.122  15.340  1.00  0.00     0.031 A 
BRANCH  50  64
ATOM     64  C   UNL     1      -4.861   2.260  11.075  1.00  0.00    -0.014 A 
ATOM     65  C   UNL     1      -5.444   3.383  10.453  1.00  0.00     0.009 A 
ATOM     66  C   UNL     1      -5.623   1.089  11.176  1.00  0.00     0.009 A 
ATOM     67  C   UNL     1      -6.756   3.346   9.976  1.00  0.00     0.001 A 
ATOM     68  C   UNL     1      -6.921   1.038  10.652  1.00  0.00     0.001 A 
ATOM     69  C   UNL     1      -7.491   2.168  10.069  1.00  0.00     0.000 A 
ENDBRANCH  50  64
BRANCH  51  70
ATOM     70  C   UNL     1       4.406   3.660  14.541  1.00  0.00    -0.014 A 
ATOM     71  C   UNL     1       5.410   4.317  13.812  1.00  0.00     0.009 A 
ATOM     72  C   UNL     1       4.742   3.052  15.760  1.00  0.00     0.009 A 
ATOM     73  C   UNL     1       6.727   4.332  14.275  1.00  0.00     0.001 A 
ATOM     74  C   UNL     1       6.051   3.102  16.240  1.00  0.00     0.001 A 
ATOM     75  C   UNL     1       7.045   3.729  15.491  1.00  0.00     0.000 A 
ENDBRANCH  51  70
BRANCH  63  76
ATOM     76  C   UNL     1      -1.899   6.001  16.467  1.00  0.00    -0.014 A 
ATOM     77  C   UNL     1      -2.761   5.481  17.446  1.00  0.00     0.009 A 
ATOM     78  C   UNL     1      -1.555   7.361  16.522  1.00  0.00     0.009 A 
ATOM     79  C   UNL     1      -3.268   6.302  18.454  1.00  0.00     0.001 A 
ATOM     80  C   UNL     1      -2.036   8.172  17.552  1.00  0.00     0.001 A 
ATOM     81  C   UNL     1      -2.898   7.644  18.512  1.00  0.00     0.000 A 
ENDBRANCH  63  76
ENDBRANCH  37  38
ENDBRANCH  30  32
ENDBRANCH  29  30
ENDBRANCH  28  29
ENDBRANCH  27  28
ENDBRANCH  26  27
ENDBRANCH   1  26
TORSDOF 17
