REMARK SMILES O=C1O[C@@H](c2ccc(O)c(O)c2)[C@H](C(=O)OCCOCCOCCOC(=O)c2ccc(-c3c4nc(c(-c5ccccc5)c5ccc([nH]5)c(-c5ccccc5)c5nc(c(-c6ccccc6)c6ccc3[nH]6)C=C5)C=C4)cc2)/C1=C\c1ccc(O)c(O)c1
REMARK SMILES IDX 20 1 19 2 18 3 17 4 16 5 14 6 15 7 13 8 1 9 2 10 3 11 76 12
REMARK SMILES IDX 4 13 77 14 5 15 6 16 12 17 7 18 10 19 8 20 11 21 9 23 78 25
REMARK SMILES IDX 79 26 85 27 80 28 83 29 81 30 84 31 82 33 21 35 22 36 23 37
REMARK SMILES IDX 24 38 25 39 26 40 27 41 28 42 29 43 75 44 30 45 74 46 31 47
REMARK SMILES IDX 32 48 33 49 68 50 34 51 73 52 67 53 69 54 35 55 72 56 66 57
REMARK SMILES IDX 65 58 36 60 58 61 43 62 57 63 44 64 47 65 56 66 70 67 45 68
REMARK SMILES IDX 46 69 55 71 71 72 48 73 37 74 38 75 42 76 39 77 41 78 40 79
REMARK SMILES IDX 59 80 60 81 64 82 61 83 63 84 62 85 49 86 50 87 54 88 51 89
REMARK SMILES IDX 53 90 52 91
REMARK H PARENT 11 22 9 24 84 32 82 34 69 59 47 70
REMARK Flexibility Score: inf
ROOT
ATOM      1  C   UNL     1       2.050   3.351   2.595  1.00  0.00     0.188 C 
ENDROOT
BRANCH   1   2
ATOM      2  O   UNL     1       2.280   3.214   3.974  1.00  0.00    -0.376 OA
BRANCH   2   3
ATOM      3  C   UNL     1       2.904   2.059   4.483  1.00  0.00     0.202 C 
BRANCH   3   4
ATOM      4  C   UNL     1       2.773   0.675   3.826  1.00  0.00     0.261 C 
BRANCH   4   5
ATOM      5  O   UNL     1       2.568   0.647   2.405  1.00  0.00    -0.463 OA
BRANCH   5   6
ATOM      6  C   UNL     1       1.311   0.316   1.975  1.00  0.00     0.317 C 
ATOM      7  O   UNL     1       0.399  -0.042   2.705  1.00  0.00    -0.251 OA
BRANCH   6   8
ATOM      8  C   UNL     1       1.212   0.499   0.462  1.00  0.00     0.182 C 
ATOM      9  O   UNL     1      -1.846  -1.087  -0.309  1.00  0.00    -0.247 OA
ATOM     10  C   UNL     1      -0.687  -0.743  -0.185  1.00  0.00     0.335 C 
ATOM     11  O   UNL     1       0.395  -1.574  -0.217  1.00  0.00    -0.453 OA
ATOM     12  C   UNL     1      -0.195   0.646   0.008  1.00  0.00     0.056 C 
ATOM     13  C   UNL     1       1.619  -0.815  -0.177  1.00  0.00     0.226 C 
ATOM     14  C   UNL     1      -0.954   1.711  -0.309  1.00  0.00     0.020 C 
BRANCH  13  15
ATOM     15  C   UNL     1       2.253  -0.689  -1.558  1.00  0.00    -0.002 A 
ATOM     16  C   UNL     1       3.359   0.162  -1.772  1.00  0.00     0.012 A 
ATOM     17  C   UNL     1       1.801  -1.470  -2.633  1.00  0.00     0.057 A 
ATOM     18  C   UNL     1       3.972   0.255  -3.029  1.00  0.00     0.050 A 
ATOM     19  C   UNL     1       2.419  -1.378  -3.873  1.00  0.00     0.157 A 
ATOM     20  C   UNL     1       3.496  -0.522  -4.075  1.00  0.00     0.157 A 
BRANCH  19  21
ATOM     21  O   UNL     1       1.964  -2.156  -4.899  1.00  0.00    -0.504 OA
ATOM     22  H   UNL     1       2.371  -2.106  -5.741  1.00  0.00     0.293 HD
ENDBRANCH  19  21
BRANCH  20  23
ATOM     23  O   UNL     1       4.061  -0.494  -5.319  1.00  0.00    -0.504 OA
ATOM     24  H   UNL     1       4.788   0.071  -5.491  1.00  0.00     0.293 HD
ENDBRANCH  20  23
ENDBRANCH  13  15
BRANCH  14  25
ATOM     25  C   UNL     1      -0.600   3.148  -0.266  1.00  0.00    -0.021 A 
ATOM     26  C   UNL     1       0.037   3.917  -1.732  1.00  0.00     0.012 A 
ATOM     27  C   UNL     1      -0.991   4.047   1.185  1.00  0.00     0.058 A 
ATOM     28  C   UNL     1       0.353   5.651  -1.880  1.00  0.00     0.051 A 
ATOM     29  C   UNL     1      -0.733   5.834   1.213  1.00  0.00     0.157 A 
ATOM     30  C   UNL     1       0.008   6.715  -0.457  1.00  0.00     0.157 A 
BRANCH  29  31
ATOM     31  O   UNL     1      -1.041   6.212   2.529  1.00  0.00    -0.504 OA
ATOM     32  H   UNL     1      -0.978   7.111   2.784  1.00  0.00     0.293 HD
ENDBRANCH  29  31
BRANCH  30  33
ATOM     33  O   UNL     1       0.474   7.990  -0.798  1.00  0.00    -0.504 OA
ATOM     34  H   UNL     1       0.777   8.161  -1.668  1.00  0.00     0.293 HD
ENDBRANCH  30  33
ENDBRANCH  14  25
ENDBRANCH   6   8
ENDBRANCH   5   6
ENDBRANCH   4   5
ENDBRANCH   3   4
ENDBRANCH   2   3
ENDBRANCH   1   2
BRANCH   1  35
ATOM     35  C   UNL     1       3.227   3.346   1.589  1.00  0.00     0.188 C 
BRANCH  35  36
ATOM     36  O   UNL     1       4.553   3.254   2.050  1.00  0.00    -0.376 OA
BRANCH  36  37
ATOM     37  C   UNL     1       5.051   4.309   2.856  1.00  0.00     0.202 C 
BRANCH  37  38
ATOM     38  C   UNL     1       4.612   5.771   2.651  1.00  0.00     0.261 C 
BRANCH  38  39
ATOM     39  O   UNL     1       3.198   5.971   2.507  1.00  0.00    -0.460 OA
BRANCH  39  40
ATOM     40  C   UNL     1       2.799   6.485   1.322  1.00  0.00     0.338 C 
ATOM     41  O   UNL     1       3.491   6.896   0.405  1.00  0.00    -0.246 OA
BRANCH  40  42
ATOM     42  C   UNL     1       1.350   6.362   1.173  1.00  0.00     0.060 A 
ATOM     43  C   UNL     1       0.617   5.048   0.156  1.00  0.00     0.016 A 
ATOM     44  C   UNL     1       0.395   7.793   1.526  1.00  0.00     0.016 A 
ATOM     45  C   UNL     1      -1.268   5.325  -0.524  1.00  0.00     0.010 A 
ATOM     46  C   UNL     1      -1.257   8.026   0.917  1.00  0.00     0.010 A 
ATOM     47  C   UNL     1      -2.107   6.860  -0.096  1.00  0.00    -0.014 A 
BRANCH  47  48
ATOM     48  C   UNL     1      -3.434   7.201  -0.631  1.00  0.00     0.031 A 
ATOM     49  C   UNL     1      -3.617   8.439  -1.462  1.00  0.00     0.074 A 
ATOM     50  C   UNL     1      -4.471   6.414  -0.300  1.00  0.00     0.049 A 
ATOM     51  N   UNL     1      -4.713   8.951  -1.961  1.00  0.00    -0.248 NA
ATOM     52  C   UNL     1      -2.414   9.229  -1.758  1.00  0.00     0.031 C 
ATOM     53  C   UNL     1      -4.391   5.221   0.541  1.00  0.00     0.029 A 
ATOM     54  N   UNL     1      -5.799   6.507  -0.612  1.00  0.00    -0.354 N 
ATOM     55  C   UNL     1      -4.324  10.122  -2.606  1.00  0.00     0.074 A 
ATOM     56  C   UNL     1      -2.907  10.275  -2.399  1.00  0.00     0.031 C 
ATOM     57  C   UNL     1      -5.607   4.671   0.653  1.00  0.00     0.029 A 
ATOM     58  C   UNL     1      -6.562   5.508  -0.057  1.00  0.00     0.049 A 
ATOM     59  H   UNL     1      -6.173   7.220  -1.179  1.00  0.00     0.167 HD
ATOM     60  C   UNL     1      -5.084  10.989  -3.316  1.00  0.00     0.031 A 
ATOM     61  C   UNL     1      -7.889   5.306  -0.101  1.00  0.00     0.031 A 
ATOM     62  C   UNL     1      -6.502  10.825  -3.478  1.00  0.00     0.049 A 
ATOM     63  C   UNL     1      -8.717   6.290  -0.874  1.00  0.00     0.074 A 
ATOM     64  C   UNL     1      -7.394  11.613  -4.180  1.00  0.00     0.029 A 
ATOM     65  N   UNL     1      -7.235   9.790  -2.910  1.00  0.00    -0.354 N 
ATOM     66  N   UNL     1      -8.329   7.366  -1.518  1.00  0.00    -0.248 NA
ATOM     67  C   UNL     1     -10.158   6.029  -0.936  1.00  0.00     0.031 C 
ATOM     68  C   UNL     1      -8.676  11.087  -3.986  1.00  0.00     0.029 A 
ATOM     69  C   UNL     1      -8.572   9.930  -3.226  1.00  0.00     0.049 A 
ATOM     70  H   UNL     1      -6.856   9.064  -2.363  1.00  0.00     0.167 HD
ATOM     71  C   UNL     1      -9.475   7.902  -2.084  1.00  0.00     0.074 A 
ATOM     72  C   UNL     1     -10.565   7.013  -1.726  1.00  0.00     0.031 C 
ATOM     73  C   UNL     1      -9.622   9.024  -2.832  1.00  0.00     0.031 A 
BRANCH  60  74
ATOM     74  C   UNL     1      -4.398  12.189  -3.918  1.00  0.00    -0.014 A 
ATOM     75  C   UNL     1      -3.449  12.055  -4.947  1.00  0.00     0.009 A 
ATOM     76  C   UNL     1      -4.694  13.477  -3.446  1.00  0.00     0.009 A 
ATOM     77  C   UNL     1      -2.780  13.174  -5.454  1.00  0.00     0.001 A 
ATOM     78  C   UNL     1      -4.049  14.598  -3.977  1.00  0.00     0.001 A 
ATOM     79  C   UNL     1      -3.083  14.445  -4.970  1.00  0.00     0.000 A 
ENDBRANCH  60  74
BRANCH  61  80
ATOM     80  C   UNL     1      -8.491   4.136   0.594  1.00  0.00    -0.014 A 
ATOM     81  C   UNL     1      -9.059   3.083  -0.138  1.00  0.00     0.009 A 
ATOM     82  C   UNL     1      -8.464   4.044   1.996  1.00  0.00     0.009 A 
ATOM     83  C   UNL     1      -9.608   1.977   0.517  1.00  0.00     0.001 A 
ATOM     84  C   UNL     1      -8.981   2.921   2.647  1.00  0.00     0.001 A 
ATOM     85  C   UNL     1      -9.562   1.894   1.908  1.00  0.00     0.000 A 
ENDBRANCH  61  80
BRANCH  73  86
ATOM     86  C   UNL     1     -11.007   9.314  -3.331  1.00  0.00    -0.014 A 
ATOM     87  C   UNL     1     -12.028   9.722  -2.459  1.00  0.00     0.009 A 
ATOM     88  C   UNL     1     -11.282   9.194  -4.702  1.00  0.00     0.009 A 
ATOM     89  C   UNL     1     -13.313   9.956  -2.947  1.00  0.00     0.001 A 
ATOM     90  C   UNL     1     -12.557   9.467  -5.191  1.00  0.00     0.001 A 
ATOM     91  C   UNL     1     -13.575   9.833  -4.312  1.00  0.00     0.000 A 
ENDBRANCH  73  86
ENDBRANCH  47  48
ENDBRANCH  40  42
ENDBRANCH  39  40
ENDBRANCH  38  39
ENDBRANCH  37  38
ENDBRANCH  36  37
ENDBRANCH  35  36
ENDBRANCH   1  35
TORSDOF 23
