REMARK SMILES C[C@@](NC(=O)CSCc1ccccc1)(C(=O)OCCOCCOCCOC(=O)c1ccc(-c2c3nc(c(-c4ccccc4)c4ccc([nH]4)c(-c4ccccc4)c4nc(c(-c5ccccc5)c5ccc2[nH]5)C=C4)C=C3)cc1)C1CC1
REMARK SMILES IDX 20 1 19 2 18 3 17 4 15 5 16 6 2 7 1 8 3 9 4 10 5 12 6 13
REMARK SMILES IDX 7 14 8 15 9 16 10 17 14 18 11 19 13 20 12 21 77 22 78 23
REMARK SMILES IDX 79 24 21 25 22 26 23 27 24 28 25 29 26 30 27 31 28 32 29 33
REMARK SMILES IDX 30 34 76 35 31 36 75 37 32 38 33 39 34 40 69 41 35 42 74 43
REMARK SMILES IDX 68 44 70 45 36 46 73 47 67 48 66 49 37 51 59 52 44 53 58 54
REMARK SMILES IDX 45 55 48 56 57 57 71 58 46 59 47 60 56 62 72 63 49 64 38 65
REMARK SMILES IDX 39 66 43 67 40 68 42 69 41 70 60 71 61 72 65 73 62 74 64 75
REMARK SMILES IDX 63 76 50 77 51 78 55 79 52 80 54 81 53 82
REMARK H PARENT 3 11 70 50 48 61
REMARK Flexibility Score: inf
ROOT
ATOM      1  O   UNL     1      -3.853  -1.311   1.999  1.00  0.00    -0.376 OA
ENDROOT
BRANCH   1   2
ATOM      2  C   UNL     1      -4.224  -0.111   1.322  1.00  0.00     0.202 C 
BRANCH   2   3
ATOM      3  C   UNL     1      -3.364   1.139   1.563  1.00  0.00     0.261 C 
BRANCH   3   4
ATOM      4  O   UNL     1      -1.965   0.958   1.230  1.00  0.00    -0.461 OA
BRANCH   4   5
ATOM      5  C   UNL     1      -1.047   1.595   2.000  1.00  0.00     0.331 C 
ATOM      6  O   UNL     1      -1.343   2.226   3.014  1.00  0.00    -0.249 OA
BRANCH   5   7
ATOM      7  C   UNL     1       0.452   1.475   1.482  1.00  0.00     0.138 C 
ATOM      8  C   UNL     1       0.744   0.800   0.123  1.00  0.00     0.048 C 
BRANCH   7   9
ATOM      9  N   UNL     1       1.041   2.843   1.383  1.00  0.00    -0.340 N 
ATOM     10  C   UNL     1       0.663   3.878   0.570  1.00  0.00     0.230 C 
ATOM     11  H   UNL     1       1.801   3.025   1.981  1.00  0.00     0.164 HD
ATOM     12  O   UNL     1       1.552   4.597   0.103  1.00  0.00    -0.274 OA
BRANCH  10  13
ATOM     13  C   UNL     1      -0.800   4.216   0.349  1.00  0.00     0.169 C 
BRANCH  13  14
ATOM     14  S   UNL     1      -1.650   3.064  -0.760  1.00  0.00    -0.147 SA
BRANCH  14  15
ATOM     15  C   UNL     1      -1.171   3.645  -2.402  1.00  0.00     0.105 C 
BRANCH  15  16
ATOM     16  C   UNL     1      -2.079   4.788  -2.747  1.00  0.00    -0.038 A 
ATOM     17  C   UNL     1      -1.606   6.099  -2.639  1.00  0.00     0.004 A 
ATOM     18  C   UNL     1      -3.450   4.556  -2.958  1.00  0.00     0.004 A 
ATOM     19  C   UNL     1      -2.504   7.160  -2.656  1.00  0.00     0.000 A 
ATOM     20  C   UNL     1      -4.345   5.620  -2.966  1.00  0.00     0.000 A 
ATOM     21  C   UNL     1      -3.872   6.920  -2.796  1.00  0.00     0.000 A 
ENDBRANCH  15  16
ENDBRANCH  14  15
ENDBRANCH  13  14
ENDBRANCH  10  13
ENDBRANCH   7   9
BRANCH   7  22
ATOM     22  C   UNL     1       1.227   0.788   2.632  1.00  0.00     0.026 C 
ATOM     23  C   UNL     1       1.591  -0.685   2.666  1.00  0.00     0.007 C 
ATOM     24  C   UNL     1       2.672   0.353   2.527  1.00  0.00     0.007 C 
ENDBRANCH   7  22
ENDBRANCH   5   7
ENDBRANCH   4   5
ENDBRANCH   3   4
ENDBRANCH   2   3
ENDBRANCH   1   2
BRANCH   1  25
ATOM     25  C   UNL     1      -2.470  -1.641   2.023  1.00  0.00     0.188 C 
BRANCH  25  26
ATOM     26  C   UNL     1      -1.720  -1.704   0.678  1.00  0.00     0.188 C 
BRANCH  26  27
ATOM     27  O   UNL     1      -2.455  -1.255  -0.438  1.00  0.00    -0.376 OA
BRANCH  27  28
ATOM     28  C   UNL     1      -2.918  -2.235  -1.354  1.00  0.00     0.202 C 
BRANCH  28  29
ATOM     29  C   UNL     1      -3.614  -3.515  -0.842  1.00  0.00     0.261 C 
BRANCH  29  30
ATOM     30  O   UNL     1      -3.117  -4.091   0.379  1.00  0.00    -0.460 OA
BRANCH  30  31
ATOM     31  C   UNL     1      -1.997  -4.857   0.305  1.00  0.00     0.338 C 
ATOM     32  O   UNL     1      -1.394  -5.168  -0.693  1.00  0.00    -0.246 OA
BRANCH  31  33
ATOM     33  C   UNL     1      -1.464  -4.999   1.692  1.00  0.00     0.060 A 
ATOM     34  C   UNL     1      -0.161  -4.541   1.946  1.00  0.00     0.016 A 
ATOM     35  C   UNL     1      -2.248  -5.483   2.742  1.00  0.00     0.016 A 
ATOM     36  C   UNL     1       0.366  -4.588   3.238  1.00  0.00     0.010 A 
ATOM     37  C   UNL     1      -1.706  -5.564   4.033  1.00  0.00     0.010 A 
ATOM     38  C   UNL     1      -0.384  -5.146   4.280  1.00  0.00    -0.014 A 
BRANCH  38  39
ATOM     39  C   UNL     1       0.312  -5.523   5.538  1.00  0.00     0.031 A 
ATOM     40  C   UNL     1       0.849  -6.927   5.644  1.00  0.00     0.074 A 
ATOM     41  C   UNL     1       0.542  -4.644   6.530  1.00  0.00     0.049 A 
ATOM     42  N   UNL     1       1.512  -7.496   6.618  1.00  0.00    -0.248 NA
ATOM     43  C   UNL     1       0.614  -7.803   4.483  1.00  0.00     0.031 C 
ATOM     44  C   UNL     1       0.137  -3.240   6.538  1.00  0.00     0.029 A 
ATOM     45  N   UNL     1       1.189  -4.815   7.732  1.00  0.00    -0.354 N 
ATOM     46  C   UNL     1       1.779  -8.789   6.184  1.00  0.00     0.074 A 
ATOM     47  C   UNL     1       1.174  -8.934   4.879  1.00  0.00     0.031 C 
ATOM     48  C   UNL     1       0.537  -2.679   7.694  1.00  0.00     0.029 A 
ATOM     49  C   UNL     1       1.200  -3.689   8.519  1.00  0.00     0.049 A 
ATOM     50  H   UNL     1       1.605  -5.665   8.003  1.00  0.00     0.167 HD
ATOM     51  C   UNL     1       2.476  -9.769   6.805  1.00  0.00     0.031 A 
ATOM     52  C   UNL     1       1.674  -3.503   9.768  1.00  0.00     0.031 A 
ATOM     53  C   UNL     1       3.051  -9.649   8.116  1.00  0.00     0.049 A 
ATOM     54  C   UNL     1       2.351  -4.646  10.486  1.00  0.00     0.074 A 
ATOM     55  C   UNL     1       3.750 -10.599   8.841  1.00  0.00     0.029 A 
ATOM     56  N   UNL     1       2.988  -8.511   8.902  1.00  0.00    -0.354 N 
ATOM     57  N   UNL     1       2.604  -5.860  10.061  1.00  0.00    -0.248 NA
ATOM     58  C   UNL     1       2.819  -4.383  11.856  1.00  0.00     0.031 C 
ATOM     59  C   UNL     1       4.062 -10.052  10.089  1.00  0.00     0.029 A 
ATOM     60  C   UNL     1       3.618  -8.740  10.114  1.00  0.00     0.049 A 
ATOM     61  H   UNL     1       2.559  -7.665   8.639  1.00  0.00     0.167 HD
ATOM     62  C   UNL     1       3.286  -6.492  11.097  1.00  0.00     0.074 A 
ATOM     63  C   UNL     1       3.428  -5.520  12.159  1.00  0.00     0.031 C 
ATOM     64  C   UNL     1       3.753  -7.764  11.164  1.00  0.00     0.031 A 
BRANCH  51  65
ATOM     65  C   UNL     1       2.620 -11.074   6.073  1.00  0.00    -0.014 A 
ATOM     66  C   UNL     1       3.443 -11.184   4.940  1.00  0.00     0.009 A 
ATOM     67  C   UNL     1       1.939 -12.211   6.532  1.00  0.00     0.009 A 
ATOM     68  C   UNL     1       3.553 -12.400   4.263  1.00  0.00     0.001 A 
ATOM     69  C   UNL     1       2.075 -13.432   5.871  1.00  0.00     0.001 A 
ATOM     70  C   UNL     1       2.874 -13.524   4.732  1.00  0.00     0.000 A 
ENDBRANCH  51  65
BRANCH  52  71
ATOM     71  C   UNL     1       1.495  -2.194  10.458  1.00  0.00    -0.014 A 
ATOM     72  C   UNL     1       2.599  -1.398  10.802  1.00  0.00     0.009 A 
ATOM     73  C   UNL     1       0.212  -1.766  10.836  1.00  0.00     0.009 A 
ATOM     74  C   UNL     1       2.425  -0.224  11.542  1.00  0.00     0.001 A 
ATOM     75  C   UNL     1       0.038  -0.576  11.545  1.00  0.00     0.001 A 
ATOM     76  C   UNL     1       1.145   0.187  11.910  1.00  0.00     0.000 A 
ENDBRANCH  52  71
BRANCH  64  77
ATOM     77  C   UNL     1       4.502  -8.163  12.408  1.00  0.00    -0.014 A 
ATOM     78  C   UNL     1       3.851  -8.310  13.643  1.00  0.00     0.009 A 
ATOM     79  C   UNL     1       5.880  -8.424  12.335  1.00  0.00     0.009 A 
ATOM     80  C   UNL     1       4.573  -8.662  14.786  1.00  0.00     0.001 A 
ATOM     81  C   UNL     1       6.592  -8.810  13.471  1.00  0.00     0.001 A 
ATOM     82  C   UNL     1       5.941  -8.915  14.698  1.00  0.00     0.000 A 
ENDBRANCH  64  77
ENDBRANCH  38  39
ENDBRANCH  31  33
ENDBRANCH  30  31
ENDBRANCH  29  30
ENDBRANCH  28  29
ENDBRANCH  27  28
ENDBRANCH  26  27
ENDBRANCH  25  26
ENDBRANCH   1  25
TORSDOF 23
