REMARK SMILES CN1C(=O)C[C@@H](C(=O)OCCOCCOCCOC(=O)c2ccc(-c3c4nc(c(-c5ccccc5)c5ccc([nH]5)c(-c5ccccc5)c5nc(c(-c6ccccc6)c6ccc3[nH]6)C=C5)C=C4)cc2)C12CCN(c1ccc(Cl)cn1)CC2
REMARK SMILES IDX 14 1 13 2 12 3 11 4 10 5 9 6 7 7 8 8 6 9 1 10 2 11 3 12
REMARK SMILES IDX 69 13 4 14 5 15 70 16 81 17 71 18 80 19 72 20 73 21 74 22
REMARK SMILES IDX 79 23 75 24 78 25 76 26 77 27 15 28 16 29 17 30 18 31 19 32
REMARK SMILES IDX 20 33 21 34 22 35 68 36 23 37 67 38 24 39 25 40 26 41 61 42
REMARK SMILES IDX 27 43 66 44 60 45 62 46 28 47 65 48 59 49 58 50 29 52 51 53
REMARK SMILES IDX 36 54 50 55 37 56 40 57 49 58 63 59 38 60 39 61 48 63 64 64
REMARK SMILES IDX 41 65 30 66 31 67 35 68 32 69 34 70 33 71 52 72 53 73 57 74
REMARK SMILES IDX 54 75 56 76 55 77 42 78 43 79 47 80 44 81 46 82 45 83
REMARK H PARENT 62 51 40 62
REMARK Flexibility Score: inf
ROOT
ATOM      1  C   UNL     1       3.422  -1.645  -5.185  1.00  0.00     0.188 C 
ENDROOT
BRANCH   1   2
ATOM      2  C   UNL     1       2.674  -2.195  -6.393  1.00  0.00     0.188 C 
BRANCH   2   3
ATOM      3  O   UNL     1       2.010  -1.286  -7.260  1.00  0.00    -0.376 OA
BRANCH   3   4
ATOM      4  C   UNL     1       1.802   0.053  -6.837  1.00  0.00     0.202 C 
BRANCH   4   5
ATOM      5  C   UNL     1       0.595   0.292  -5.915  1.00  0.00     0.261 C 
BRANCH   5   6
ATOM      6  O   UNL     1       0.689  -0.208  -4.550  1.00  0.00    -0.463 OA
BRANCH   6   7
ATOM      7  C   UNL     1       0.104  -1.410  -4.340  1.00  0.00     0.311 C 
ATOM      8  O   UNL     1      -0.312  -2.124  -5.251  1.00  0.00    -0.252 OA
BRANCH   7   9
ATOM      9  C   UNL     1      -0.190  -1.803  -2.898  1.00  0.00     0.134 C 
ATOM     10  C   UNL     1       0.456   0.494   0.020  1.00  0.00     0.147 C 
ATOM     11  N   UNL     1      -0.051  -0.309  -1.082  1.00  0.00    -0.339 N 
ATOM     12  C   UNL     1      -1.311  -0.105  -1.622  1.00  0.00     0.223 C 
ATOM     13  C   UNL     1       0.629  -1.506  -1.604  1.00  0.00     0.060 C 
ATOM     14  O   UNL     1      -2.092   0.771  -1.333  1.00  0.00    -0.275 OA
ATOM     15  C   UNL     1      -1.582  -1.219  -2.598  1.00  0.00     0.118 C 
ATOM     16  C   UNL     1       2.138  -1.242  -1.723  1.00  0.00     0.051 C 
ATOM     17  C   UNL     1       0.406  -2.701  -0.602  1.00  0.00     0.051 C 
ATOM     18  C   UNL     1       2.933  -2.499  -1.990  1.00  0.00     0.120 C 
ATOM     19  C   UNL     1       1.306  -3.926  -0.849  1.00  0.00     0.120 C 
ATOM     20  N   UNL     1       2.689  -3.473  -0.936  1.00  0.00    -0.356 N 
BRANCH  20  21
ATOM     21  C   UNL     1       3.701  -4.406  -0.708  1.00  0.00     0.128 A 
ATOM     22  C   UNL     1       4.992  -3.967  -0.394  1.00  0.00     0.048 A 
ATOM     23  N   UNL     1       3.438  -5.725  -0.833  1.00  0.00    -0.238 NA
ATOM     24  C   UNL     1       6.044  -4.878  -0.272  1.00  0.00     0.026 A 
ATOM     25  C   UNL     1       4.476  -6.598  -0.706  1.00  0.00     0.134 A 
ATOM     26  C   UNL     1       5.784  -6.223  -0.447  1.00  0.00     0.059 A 
ATOM     27  Cl  UNL     1       7.049  -7.378  -0.355  1.00  0.00    -0.083 Cl
ENDBRANCH  20  21
ENDBRANCH   7   9
ENDBRANCH   6   7
ENDBRANCH   5   6
ENDBRANCH   4   5
ENDBRANCH   3   4
ENDBRANCH   2   3
ENDBRANCH   1   2
BRANCH   1  28
ATOM     28  O   UNL     1       4.398  -0.674  -5.529  1.00  0.00    -0.376 OA
BRANCH  28  29
ATOM     29  C   UNL     1       5.577  -0.762  -4.732  1.00  0.00     0.202 C 
BRANCH  29  30
ATOM     30  C   UNL     1       6.578  -1.678  -5.441  1.00  0.00     0.261 C 
BRANCH  30  31
ATOM     31  O   UNL     1       6.119  -3.043  -5.573  1.00  0.00    -0.460 OA
BRANCH  31  32
ATOM     32  C   UNL     1       6.077  -3.756  -4.425  1.00  0.00     0.338 C 
ATOM     33  O   UNL     1       6.392  -3.362  -3.316  1.00  0.00    -0.246 OA
BRANCH  32  34
ATOM     34  C   UNL     1       5.410  -5.049  -4.677  1.00  0.00     0.060 A 
ATOM     35  C   UNL     1       4.152  -5.269  -4.117  1.00  0.00     0.016 A 
ATOM     36  C   UNL     1       6.047  -6.075  -5.365  1.00  0.00     0.016 A 
ATOM     37  C   UNL     1       3.543  -6.517  -4.178  1.00  0.00     0.010 A 
ATOM     38  C   UNL     1       5.428  -7.332  -5.447  1.00  0.00     0.010 A 
ATOM     39  C   UNL     1       4.188  -7.573  -4.821  1.00  0.00    -0.014 A 
BRANCH  39  40
ATOM     40  C   UNL     1       3.637  -8.948  -4.708  1.00  0.00     0.031 A 
ATOM     41  C   UNL     1       4.380  -9.973  -3.893  1.00  0.00     0.074 A 
ATOM     42  C   UNL     1       2.453  -9.275  -5.260  1.00  0.00     0.049 A 
ATOM     43  N   UNL     1       4.140 -11.250  -3.743  1.00  0.00    -0.248 NA
ATOM     44  C   UNL     1       5.542  -9.487  -3.132  1.00  0.00     0.031 C 
ATOM     45  C   UNL     1       1.560  -8.358  -5.969  1.00  0.00     0.029 A 
ATOM     46  N   UNL     1       1.800 -10.482  -5.309  1.00  0.00    -0.354 N 
ATOM     47  C   UNL     1       5.129 -11.722  -2.889  1.00  0.00     0.074 A 
ATOM     48  C   UNL     1       5.978 -10.598  -2.559  1.00  0.00     0.031 C 
ATOM     49  C   UNL     1       0.479  -9.038  -6.388  1.00  0.00     0.029 A 
ATOM     50  C   UNL     1       0.639 -10.447  -6.043  1.00  0.00     0.049 A 
ATOM     51  H   UNL     1       2.132 -11.294  -4.862  1.00  0.00     0.167 HD
ATOM     52  C   UNL     1       5.324 -12.980  -2.428  1.00  0.00     0.031 A 
ATOM     53  C   UNL     1      -0.174 -11.445  -6.440  1.00  0.00     0.031 A 
ATOM     54  C   UNL     1       4.507 -14.107  -2.784  1.00  0.00     0.049 A 
ATOM     55  C   UNL     1       0.161 -12.863  -6.063  1.00  0.00     0.074 A 
ATOM     56  C   UNL     1       4.651 -15.431  -2.407  1.00  0.00     0.029 A 
ATOM     57  N   UNL     1       3.399 -14.044  -3.614  1.00  0.00    -0.354 N 
ATOM     58  N   UNL     1       1.123 -13.309  -5.293  1.00  0.00    -0.248 NA
ATOM     59  C   UNL     1      -0.695 -13.917  -6.627  1.00  0.00     0.031 C 
ATOM     60  C   UNL     1       3.669 -16.180  -3.066  1.00  0.00     0.029 A 
ATOM     61  C   UNL     1       2.875 -15.312  -3.798  1.00  0.00     0.049 A 
ATOM     62  H   UNL     1       3.039 -13.220  -4.013  1.00  0.00     0.167 HD
ATOM     63  C   UNL     1       0.977 -14.690  -5.263  1.00  0.00     0.074 A 
ATOM     64  C   UNL     1      -0.177 -15.007  -6.079  1.00  0.00     0.031 C 
ATOM     65  C   UNL     1       1.730 -15.614  -4.618  1.00  0.00     0.031 A 
BRANCH  52  66
ATOM     66  C   UNL     1       6.521 -13.208  -1.549  1.00  0.00    -0.014 A 
ATOM     67  C   UNL     1       6.553 -12.756  -0.221  1.00  0.00     0.009 A 
ATOM     68  C   UNL     1       7.634 -13.889  -2.065  1.00  0.00     0.009 A 
ATOM     69  C   UNL     1       7.693 -12.954   0.563  1.00  0.00     0.001 A 
ATOM     70  C   UNL     1       8.761 -14.107  -1.272  1.00  0.00     0.001 A 
ATOM     71  C   UNL     1       8.794 -13.632   0.038  1.00  0.00     0.000 A 
ENDBRANCH  52  66
BRANCH  53  72
ATOM     72  C   UNL     1      -1.341 -11.153  -7.316  1.00  0.00    -0.014 A 
ATOM     73  C   UNL     1      -2.652 -11.343  -6.856  1.00  0.00     0.009 A 
ATOM     74  C   UNL     1      -1.144 -10.703  -8.632  1.00  0.00     0.009 A 
ATOM     75  C   UNL     1      -3.739 -11.107  -7.701  1.00  0.00     0.001 A 
ATOM     76  C   UNL     1      -2.232 -10.437  -9.464  1.00  0.00     0.001 A 
ATOM     77  C   UNL     1      -3.529 -10.648  -9.001  1.00  0.00     0.000 A 
ENDBRANCH  53  72
BRANCH  65  78
ATOM     78  C   UNL     1       1.314 -17.052  -4.742  1.00  0.00    -0.014 A 
ATOM     79  C   UNL     1       1.500 -17.765  -5.937  1.00  0.00     0.009 A 
ATOM     80  C   UNL     1       0.766 -17.715  -3.633  1.00  0.00     0.009 A 
ATOM     81  C   UNL     1       1.116 -19.105  -6.026  1.00  0.00     0.001 A 
ATOM     82  C   UNL     1       0.410 -19.062  -3.716  1.00  0.00     0.001 A 
ATOM     83  C   UNL     1       0.577 -19.753  -4.915  1.00  0.00     0.000 A 
ENDBRANCH  65  78
ENDBRANCH  39  40
ENDBRANCH  32  34
ENDBRANCH  31  32
ENDBRANCH  30  31
ENDBRANCH  29  30
ENDBRANCH  28  29
ENDBRANCH   1  28
TORSDOF 18
