REMARK SMILES CCN(CC)C(=O)/C(C#N)=C\c1ccc(O[C@H](C)C(=O)OCCOCCOCCOC(=O)c2ccc(-c3c4nc(c(-c5ccccc5)c5ccc([nH]5)c(-c5ccccc5)c5nc(c(-c6ccccc6)c6ccc3[nH]6)C=C5)C=C4)cc2)cc1
REMARK SMILES IDX 24 1 23 2 22 3 21 4 19 5 20 6 17 7 18 8 16 9 15 10 12 11
REMARK SMILES IDX 13 12 82 13 14 14 81 15 11 16 8 17 6 18 3 19 7 20 2 21 1 22
REMARK SMILES IDX 4 23 5 24 9 25 10 26 25 27 26 28 27 29 28 30 29 31 30 32
REMARK SMILES IDX 31 33 32 34 33 35 34 36 80 37 35 38 79 39 36 40 37 41 38 42
REMARK SMILES IDX 73 43 39 44 78 45 72 46 74 47 40 48 77 49 71 50 70 51 41 53
REMARK SMILES IDX 63 54 48 55 62 56 49 57 52 58 61 59 75 60 50 61 51 62 60 64
REMARK SMILES IDX 76 65 53 66 42 67 43 68 47 69 44 70 46 71 45 72 64 73 65 74
REMARK SMILES IDX 69 75 66 76 68 77 67 78 54 79 55 80 59 81 56 82 58 83 57 84
REMARK H PARENT 74 52 52 63
REMARK Flexibility Score: inf
ROOT
ATOM      1  O   UNL     1       8.964  -3.202  -2.395  1.00  0.00    -0.376 OA
ENDROOT
BRANCH   1   2
ATOM      2  C   UNL     1       7.607  -2.946  -2.735  1.00  0.00     0.202 C 
BRANCH   2   3
ATOM      3  C   UNL     1       6.601  -2.598  -1.621  1.00  0.00     0.261 C 
BRANCH   3   4
ATOM      4  O   UNL     1       7.009  -1.594  -0.664  1.00  0.00    -0.461 OA
BRANCH   4   5
ATOM      5  C   UNL     1       7.308  -2.059   0.578  1.00  0.00     0.347 C 
ATOM      6  O   UNL     1       7.274  -3.249   0.884  1.00  0.00    -0.248 OA
BRANCH   5   7
ATOM      7  C   UNL     1       7.626  -0.981   1.622  1.00  0.00     0.279 C 
ATOM      8  C   UNL     1       8.510   0.244   1.378  1.00  0.00     0.066 C 
BRANCH   7   9
ATOM      9  O   UNL     1       6.436  -0.709   2.344  1.00  0.00    -0.479 OA
BRANCH   9  10
ATOM     10  C   UNL     1       5.481   0.121   1.856  1.00  0.00     0.120 A 
ATOM     11  C   UNL     1       3.554   2.074   1.521  1.00  0.00    -0.024 A 
ATOM     12  C   UNL     1       4.633   2.024   0.646  1.00  0.00     0.012 A 
ATOM     13  C   UNL     1       3.331   1.033   2.422  1.00  0.00     0.012 A 
ATOM     14  C   UNL     1       5.580   1.015   0.793  1.00  0.00     0.047 A 
ATOM     15  C   UNL     1       4.320   0.087   2.620  1.00  0.00     0.047 A 
BRANCH  11  16
ATOM     16  C   UNL     1       2.705   3.250   1.541  1.00  0.00     0.033 C 
ATOM     17  C   UNL     1       2.411   3.952   2.651  1.00  0.00     0.117 C 
BRANCH  17  18
ATOM     18  C   UNL     1       2.908   3.699   4.070  1.00  0.00     0.264 C 
ATOM     19  N   UNL     1       2.141   4.018   5.204  1.00  0.00    -0.339 N 
ATOM     20  O   UNL     1       4.007   3.157   4.222  1.00  0.00    -0.268 OA
BRANCH  19  21
ATOM     21  C   UNL     1       2.529   3.379   6.468  1.00  0.00     0.116 C 
ATOM     22  C   UNL     1       2.032   1.941   6.536  1.00  0.00     0.027 C 
ENDBRANCH  19  21
BRANCH  19  23
ATOM     23  C   UNL     1       1.060   5.008   5.327  1.00  0.00     0.116 C 
ATOM     24  C   UNL     1       1.612   6.430   5.308  1.00  0.00     0.027 C 
ENDBRANCH  19  23
ENDBRANCH  17  18
BRANCH  17  25
ATOM     25  C   UNL     1       1.350   5.026   2.470  1.00  0.00     0.105 C 
ATOM     26  N   UNL     1       0.470   5.916   2.320  1.00  0.00    -0.192 NA
ENDBRANCH  17  25
ENDBRANCH  11  16
ENDBRANCH   9  10
ENDBRANCH   7   9
ENDBRANCH   5   7
ENDBRANCH   4   5
ENDBRANCH   3   4
ENDBRANCH   2   3
ENDBRANCH   1   2
BRANCH   1  27
ATOM     27  C   UNL     1       9.684  -2.243  -1.633  1.00  0.00     0.188 C 
BRANCH  27  28
ATOM     28  C   UNL     1       9.418  -0.746  -1.856  1.00  0.00     0.188 C 
BRANCH  28  29
ATOM     29  O   UNL     1       8.540  -0.455  -2.914  1.00  0.00    -0.376 OA
BRANCH  29  30
ATOM     30  C   UNL     1       8.990   0.382  -3.959  1.00  0.00     0.202 C 
BRANCH  30  31
ATOM     31  C   UNL     1      10.272  -0.015  -4.710  1.00  0.00     0.261 C 
BRANCH  31  32
ATOM     32  O   UNL     1      11.393  -0.435  -3.908  1.00  0.00    -0.460 OA
BRANCH  32  33
ATOM     33  C   UNL     1      12.064   0.520  -3.224  1.00  0.00     0.338 C 
ATOM     34  O   UNL     1      11.841   1.723  -3.241  1.00  0.00    -0.246 OA
BRANCH  33  35
ATOM     35  C   UNL     1      12.936  -0.158  -2.232  1.00  0.00     0.060 A 
ATOM     36  C   UNL     1      12.758   0.124  -0.868  1.00  0.00     0.016 A 
ATOM     37  C   UNL     1      13.894  -1.092  -2.631  1.00  0.00     0.016 A 
ATOM     38  C   UNL     1      13.551  -0.506   0.095  1.00  0.00     0.010 A 
ATOM     39  C   UNL     1      14.707  -1.701  -1.667  1.00  0.00     0.010 A 
ATOM     40  C   UNL     1      14.562  -1.390  -0.301  1.00  0.00    -0.014 A 
BRANCH  40  41
ATOM     41  C   UNL     1      15.593  -1.829   0.676  1.00  0.00     0.031 A 
ATOM     42  C   UNL     1      16.913  -1.104   0.692  1.00  0.00     0.074 A 
ATOM     43  C   UNL     1      15.376  -2.836   1.542  1.00  0.00     0.049 A 
ATOM     44  N   UNL     1      17.986  -1.342   1.404  1.00  0.00    -0.248 NA
ATOM     45  C   UNL     1      17.040   0.042  -0.224  1.00  0.00     0.031 C 
ATOM     46  C   UNL     1      14.134  -3.594   1.673  1.00  0.00     0.029 A 
ATOM     47  N   UNL     1      16.215  -3.401   2.473  1.00  0.00    -0.354 N 
ATOM     48  C   UNL     1      18.919  -0.391   1.007  1.00  0.00     0.074 A 
ATOM     49  C   UNL     1      18.295   0.413  -0.020  1.00  0.00     0.031 C 
ATOM     50  C   UNL     1      14.298  -4.538   2.618  1.00  0.00     0.029 A 
ATOM     51  C   UNL     1      15.666  -4.476   3.131  1.00  0.00     0.049 A 
ATOM     52  H   UNL     1      17.124  -3.068   2.651  1.00  0.00     0.167 HD
ATOM     53  C   UNL     1      20.182  -0.202   1.455  1.00  0.00     0.031 A 
ATOM     54  C   UNL     1      16.212  -5.328   4.022  1.00  0.00     0.031 A 
ATOM     55  C   UNL     1      20.812  -1.002   2.471  1.00  0.00     0.049 A 
ATOM     56  C   UNL     1      17.647  -5.142   4.452  1.00  0.00     0.074 A 
ATOM     57  C   UNL     1      22.079  -0.864   3.011  1.00  0.00     0.029 A 
ATOM     58  N   UNL     1      20.230  -2.096   3.091  1.00  0.00    -0.354 N 
ATOM     59  N   UNL     1      18.506  -4.216   4.098  1.00  0.00    -0.248 NA
ATOM     60  C   UNL     1      18.184  -6.118   5.413  1.00  0.00     0.031 C 
ATOM     61  C   UNL     1      22.291  -1.917   3.904  1.00  0.00     0.029 A 
ATOM     62  C   UNL     1      21.127  -2.665   3.979  1.00  0.00     0.049 A 
ATOM     63  H   UNL     1      19.316  -2.420   2.924  1.00  0.00     0.167 HD
ATOM     64  C   UNL     1      19.668  -4.479   4.816  1.00  0.00     0.074 A 
ATOM     65  C   UNL     1      19.399  -5.638   5.639  1.00  0.00     0.031 C 
ATOM     66  C   UNL     1      20.852  -3.818   4.796  1.00  0.00     0.031 A 
BRANCH  53  67
ATOM     67  C   UNL     1      20.992   0.890   0.813  1.00  0.00    -0.014 A 
ATOM     68  C   UNL     1      20.709   2.246   1.037  1.00  0.00     0.009 A 
ATOM     69  C   UNL     1      22.091   0.550   0.008  1.00  0.00     0.009 A 
ATOM     70  C   UNL     1      21.492   3.239   0.443  1.00  0.00     0.001 A 
ATOM     71  C   UNL     1      22.891   1.543  -0.558  1.00  0.00     0.001 A 
ATOM     72  C   UNL     1      22.586   2.886  -0.347  1.00  0.00     0.000 A 
ENDBRANCH  53  67
BRANCH  54  73
ATOM     73  C   UNL     1      15.420  -6.475   4.549  1.00  0.00    -0.014 A 
ATOM     74  C   UNL     1      15.070  -6.548   5.906  1.00  0.00     0.009 A 
ATOM     75  C   UNL     1      15.055  -7.532   3.700  1.00  0.00     0.009 A 
ATOM     76  C   UNL     1      14.401  -7.669   6.407  1.00  0.00     0.001 A 
ATOM     77  C   UNL     1      14.355  -8.634   4.196  1.00  0.00     0.001 A 
ATOM     78  C   UNL     1      14.041  -8.708   5.551  1.00  0.00     0.000 A 
ENDBRANCH  54  73
BRANCH  66  79
ATOM     79  C   UNL     1      21.935  -4.301   5.724  1.00  0.00    -0.014 A 
ATOM     80  C   UNL     1      22.593  -5.523   5.517  1.00  0.00     0.009 A 
ATOM     81  C   UNL     1      22.332  -3.494   6.804  1.00  0.00     0.009 A 
ATOM     82  C   UNL     1      23.595  -5.946   6.395  1.00  0.00     0.001 A 
ATOM     83  C   UNL     1      23.357  -3.902   7.659  1.00  0.00     0.001 A 
ATOM     84  C   UNL     1      23.979  -5.133   7.461  1.00  0.00     0.000 A 
ENDBRANCH  66  79
ENDBRANCH  40  41
ENDBRANCH  33  35
ENDBRANCH  32  33
ENDBRANCH  31  32
ENDBRANCH  30  31
ENDBRANCH  29  30
ENDBRANCH  28  29
ENDBRANCH  27  28
ENDBRANCH   1  27
TORSDOF 24
