REMARK SMILES C[C@H](NC(=O)C(=O)c1ccccc1)C(=O)OCCOCCOCCOC(=O)c1ccc(-c2c3nc(c(-c4ccccc4)c4ccc([nH]4)c(-c4ccccc4)c4nc(c(-c5ccccc5)c5ccc2[nH]5)C=C4)C=C3)cc1
REMARK SMILES IDX 20 1 19 2 18 3 17 4 16 5 14 6 15 7 2 8 1 9 3 10 4 11 5 13
REMARK SMILES IDX 6 14 7 15 8 16 9 17 13 18 10 19 12 20 11 21 21 22 22 23
REMARK SMILES IDX 23 24 24 25 25 26 26 27 27 28 28 29 29 30 75 31 30 32 74 33
REMARK SMILES IDX 31 34 32 35 33 36 68 37 34 38 73 39 67 40 69 41 35 42 72 43
REMARK SMILES IDX 66 44 65 45 36 47 58 48 43 49 57 50 44 51 47 52 56 53 70 54
REMARK SMILES IDX 45 55 46 56 55 58 71 59 48 60 37 61 38 62 42 63 39 64 41 65
REMARK SMILES IDX 40 66 59 67 60 68 64 69 61 70 63 71 62 72 49 73 50 74 54 75
REMARK SMILES IDX 51 76 53 77 52 78
REMARK H PARENT 3 12 69 46 47 57
REMARK Flexibility Score: inf
ROOT
ATOM      1  C   UNL     1      -2.289   1.180  -1.383  1.00  0.00     0.188 C 
ENDROOT
BRANCH   1   2
ATOM      2  O   UNL     1      -3.606   0.650  -1.474  1.00  0.00    -0.376 OA
BRANCH   2   3
ATOM      3  C   UNL     1      -3.932  -0.522  -0.731  1.00  0.00     0.202 C 
BRANCH   3   4
ATOM      4  C   UNL     1      -3.027  -1.761  -0.867  1.00  0.00     0.261 C 
BRANCH   4   5
ATOM      5  O   UNL     1      -1.621  -1.516  -0.645  1.00  0.00    -0.462 OA
BRANCH   5   6
ATOM      6  C   UNL     1      -0.773  -1.957  -1.619  1.00  0.00     0.328 C 
ATOM      7  O   UNL     1      -1.134  -2.587  -2.609  1.00  0.00    -0.250 OA
BRANCH   6   8
ATOM      8  C   UNL     1       0.658  -1.368  -1.491  1.00  0.00     0.189 C 
ATOM      9  C   UNL     1       1.693  -2.245  -2.186  1.00  0.00     0.043 C 
BRANCH   8  10
ATOM     10  N   UNL     1       1.146  -0.792  -0.229  1.00  0.00    -0.336 N 
ATOM     11  C   UNL     1       1.503  -1.365   0.963  1.00  0.00     0.293 C 
ATOM     12  H   UNL     1       1.232   0.189  -0.243  1.00  0.00     0.164 HD
ATOM     13  O   UNL     1       1.944  -0.656   1.862  1.00  0.00    -0.265 OA
BRANCH  11  14
ATOM     14  C   UNL     1       1.389  -2.873   1.160  1.00  0.00     0.250 C 
ATOM     15  O   UNL     1       0.863  -3.586   0.317  1.00  0.00    -0.283 OA
BRANCH  14  16
ATOM     16  C   UNL     1       1.968  -3.479   2.375  1.00  0.00     0.028 A 
ATOM     17  C   UNL     1       2.914  -4.498   2.226  1.00  0.00     0.012 A 
ATOM     18  C   UNL     1       1.520  -3.106   3.645  1.00  0.00     0.012 A 
ATOM     19  C   UNL     1       3.407  -5.154   3.354  1.00  0.00     0.001 A 
ATOM     20  C   UNL     1       2.005  -3.777   4.769  1.00  0.00     0.001 A 
ATOM     21  C   UNL     1       2.942  -4.802   4.622  1.00  0.00     0.000 A 
ENDBRANCH  14  16
ENDBRANCH  11  14
ENDBRANCH   8  10
ENDBRANCH   6   8
ENDBRANCH   5   6
ENDBRANCH   4   5
ENDBRANCH   3   4
ENDBRANCH   2   3
ENDBRANCH   1   2
BRANCH   1  22
ATOM     22  C   UNL     1      -1.609   1.275  -0.004  1.00  0.00     0.188 C 
BRANCH  22  23
ATOM     23  O   UNL     1      -2.408   0.817   1.060  1.00  0.00    -0.376 OA
BRANCH  23  24
ATOM     24  C   UNL     1      -2.815   1.744   2.046  1.00  0.00     0.202 C 
BRANCH  24  25
ATOM     25  C   UNL     1      -3.502   3.055   1.629  1.00  0.00     0.261 C 
BRANCH  25  26
ATOM     26  O   UNL     1      -3.022   3.697   0.438  1.00  0.00    -0.460 OA
BRANCH  26  27
ATOM     27  C   UNL     1      -1.906   4.457   0.544  1.00  0.00     0.338 C 
ATOM     28  O   UNL     1      -1.224   4.636   1.532  1.00  0.00    -0.246 OA
BRANCH  27  29
ATOM     29  C   UNL     1      -1.542   4.880  -0.826  1.00  0.00     0.060 A 
ATOM     30  C   UNL     1      -0.348   4.418  -1.402  1.00  0.00     0.016 A 
ATOM     31  C   UNL     1      -2.398   5.716  -1.544  1.00  0.00     0.016 A 
ATOM     32  C   UNL     1      -0.004   4.799  -2.702  1.00  0.00     0.010 A 
ATOM     33  C   UNL     1      -2.040   6.117  -2.830  1.00  0.00     0.010 A 
ATOM     34  C   UNL     1      -0.834   5.679  -3.408  1.00  0.00    -0.014 A 
BRANCH  34  35
ATOM     35  C   UNL     1      -0.387   6.313  -4.670  1.00  0.00     0.031 A 
ATOM     36  C   UNL     1       0.183   7.699  -4.599  1.00  0.00     0.074 A 
ATOM     37  C   UNL     1      -0.563   5.715  -5.860  1.00  0.00     0.049 A 
ATOM     38  N   UNL     1       0.443   8.544  -5.562  1.00  0.00    -0.248 NA
ATOM     39  C   UNL     1       0.481   8.206  -3.249  1.00  0.00     0.031 C 
ATOM     40  C   UNL     1      -1.063   4.358  -6.062  1.00  0.00     0.029 A 
ATOM     41  N   UNL     1      -0.375   6.203  -7.130  1.00  0.00    -0.354 N 
ATOM     42  C   UNL     1       0.900   9.695  -4.934  1.00  0.00     0.074 A 
ATOM     43  C   UNL     1       0.872   9.443  -3.510  1.00  0.00     0.031 C 
ATOM     44  C   UNL     1      -1.182   4.134  -7.382  1.00  0.00     0.029 A 
ATOM     45  C   UNL     1      -0.815   5.348  -8.110  1.00  0.00     0.049 A 
ATOM     46  H   UNL     1       0.035   7.078  -7.319  1.00  0.00     0.167 HD
ATOM     47  C   UNL     1       1.295  10.863  -5.494  1.00  0.00     0.031 A 
ATOM     48  C   UNL     1      -0.957   5.542  -9.437  1.00  0.00     0.031 A 
ATOM     49  C   UNL     1       1.295  11.117  -6.909  1.00  0.00     0.049 A 
ATOM     50  C   UNL     1      -0.582   6.872 -10.038  1.00  0.00     0.074 A 
ATOM     51  C   UNL     1       1.702  12.255  -7.580  1.00  0.00     0.029 A 
ATOM     52  N   UNL     1       0.848  10.222  -7.869  1.00  0.00    -0.354 N 
ATOM     53  N   UNL     1      -0.124   7.948  -9.445  1.00  0.00    -0.248 NA
ATOM     54  C   UNL     1      -0.742   7.013 -11.493  1.00  0.00     0.031 C 
ATOM     55  C   UNL     1       1.438  12.075  -8.941  1.00  0.00     0.029 A 
ATOM     56  C   UNL     1       0.936  10.796  -9.125  1.00  0.00     0.049 A 
ATOM     57  H   UNL     1       0.516   9.313  -7.685  1.00  0.00     0.167 HD
ATOM     58  C   UNL     1       0.087   8.881 -10.454  1.00  0.00     0.074 A 
ATOM     59  C   UNL     1      -0.289   8.243 -11.698  1.00  0.00     0.031 C 
ATOM     60  C   UNL     1       0.559  10.149 -10.357  1.00  0.00     0.031 A 
BRANCH  47  61
ATOM     61  C   UNL     1       1.689  11.971  -4.557  1.00  0.00    -0.014 A 
ATOM     62  C   UNL     1       2.851  11.896  -3.773  1.00  0.00     0.009 A 
ATOM     63  C   UNL     1       0.872  13.107  -4.452  1.00  0.00     0.009 A 
ATOM     64  C   UNL     1       3.157  12.912  -2.864  1.00  0.00     0.001 A 
ATOM     65  C   UNL     1       1.198  14.137  -3.569  1.00  0.00     0.001 A 
ATOM     66  C   UNL     1       2.332  14.032  -2.765  1.00  0.00     0.000 A 
ENDBRANCH  47  61
BRANCH  48  67
ATOM     67  C   UNL     1      -1.522   4.456 -10.279  1.00  0.00    -0.014 A 
ATOM     68  C   UNL     1      -0.712   3.752 -11.181  1.00  0.00     0.009 A 
ATOM     69  C   UNL     1      -2.877   4.103 -10.167  1.00  0.00     0.009 A 
ATOM     70  C   UNL     1      -1.249   2.723 -11.960  1.00  0.00     0.001 A 
ATOM     71  C   UNL     1      -3.405   3.056 -10.926  1.00  0.00     0.001 A 
ATOM     72  C   UNL     1      -2.591   2.371 -11.826  1.00  0.00     0.000 A 
ENDBRANCH  48  67
BRANCH  60  73
ATOM     73  C   UNL     1       0.749  10.926 -11.632  1.00  0.00    -0.014 A 
ATOM     74  C   UNL     1      -0.342  11.438 -12.350  1.00  0.00     0.009 A 
ATOM     75  C   UNL     1       2.050  11.219 -12.071  1.00  0.00     0.009 A 
ATOM     76  C   UNL     1      -0.131  12.213 -13.495  1.00  0.00     0.001 A 
ATOM     77  C   UNL     1       2.258  12.017 -13.197  1.00  0.00     0.001 A 
ATOM     78  C   UNL     1       1.167  12.508 -13.911  1.00  0.00     0.000 A 
ENDBRANCH  60  73
ENDBRANCH  34  35
ENDBRANCH  27  29
ENDBRANCH  26  27
ENDBRANCH  25  26
ENDBRANCH  24  25
ENDBRANCH  23  24
ENDBRANCH  22  23
ENDBRANCH   1  22
TORSDOF 20
