REMARK SMILES CCc1ncc(C[N@H+]2CCC[C@@H](c3cccc(C(=O)OCCOCCOCCOC(=O)c4ccc(-c5c6nc(c(-c7ccccc7)c7ccc([nH]7)c(-c7ccccc7)c7nc(c(-c8ccccc8)c8ccc5[nH]8)C=C7)C=C6)cc4)c3)C2)cn1
REMARK SMILES IDX 24 1 23 2 22 3 21 4 20 5 18 6 19 7 17 8 13 9 14 10 80 11
REMARK SMILES IDX 15 12 16 13 12 14 8 15 9 16 81 17 10 19 11 20 7 21 6 22 3 23
REMARK SMILES IDX 4 24 83 25 5 26 82 27 2 28 1 29 25 30 26 31 27 32 28 33
REMARK SMILES IDX 29 34 30 35 31 36 32 37 33 38 79 39 34 40 78 41 35 42 36 43
REMARK SMILES IDX 37 44 72 45 38 46 77 47 71 48 73 49 39 50 76 51 70 52 69 53
REMARK SMILES IDX 40 55 62 56 47 57 61 58 48 59 51 60 60 61 74 62 49 63 50 64
REMARK SMILES IDX 59 66 75 67 52 68 41 69 42 70 46 71 43 72 45 73 44 74 63 75
REMARK SMILES IDX 64 76 68 77 65 78 67 79 66 80 53 81 54 82 58 83 55 84 57 85
REMARK SMILES IDX 56 86
REMARK H PARENT 8 18 73 54 51 65
REMARK Flexibility Score: inf
ROOT
ATOM      1  C   UNL     1       8.493  -4.820  -7.325  1.00  0.00     0.188 C 
ENDROOT
BRANCH   1   2
ATOM      2  O   UNL     1       8.798  -5.473  -8.543  1.00  0.00    -0.376 OA
BRANCH   2   3
ATOM      3  C   UNL     1       8.228  -5.022  -9.763  1.00  0.00     0.202 C 
BRANCH   3   4
ATOM      4  C   UNL     1       6.770  -4.545  -9.877  1.00  0.00     0.261 C 
BRANCH   4   5
ATOM      5  O   UNL     1       6.319  -3.683  -8.827  1.00  0.00    -0.460 OA
BRANCH   5   6
ATOM      6  C   UNL     1       5.346  -4.184  -8.024  1.00  0.00     0.338 C 
ATOM      7  O   UNL     1       4.775  -5.255  -8.141  1.00  0.00    -0.246 OA
BRANCH   6   8
ATOM      8  C   UNL     1       5.237  -3.332  -6.818  1.00  0.00     0.060 A 
ATOM      9  C   UNL     1       5.303  -1.158  -5.728  1.00  0.00    -0.038 A 
ATOM     10  C   UNL     1       5.249  -1.811  -4.484  1.00  0.00     0.004 A 
ATOM     11  C   UNL     1       5.298  -1.935  -6.898  1.00  0.00     0.020 A 
ATOM     12  C   UNL     1       5.187  -3.204  -4.406  1.00  0.00     0.001 A 
ATOM     13  C   UNL     1       5.171  -3.965  -5.571  1.00  0.00     0.016 A 
BRANCH   9  14
ATOM     14  C   UNL     1       5.244   0.358  -5.845  1.00  0.00     0.074 C 
ATOM     15  N   UNL     1       3.600   2.254  -5.673  1.00  0.00    -0.331 N 
ATOM     16  C   UNL     1       4.505   2.982  -4.776  1.00  0.00     0.262 C 
ATOM     17  C   UNL     1       3.794   0.802  -5.581  1.00  0.00     0.270 C 
ATOM     18  H   UNL     1       3.855   2.536  -6.620  1.00  0.00     0.348 HD
ATOM     19  C   UNL     1       5.972   2.619  -5.035  1.00  0.00     0.062 C 
ATOM     20  C   UNL     1       6.205   1.113  -4.914  1.00  0.00     0.020 C 
BRANCH  15  21
ATOM     21  C   UNL     1       2.181   2.639  -5.514  1.00  0.00     0.302 C 
BRANCH  21  22
ATOM     22  C   UNL     1       1.563   2.351  -4.176  1.00  0.00     0.043 A 
ATOM     23  C   UNL     1       0.700   1.765  -1.663  1.00  0.00     0.127 A 
ATOM     24  N   UNL     1       1.045   3.040  -1.929  1.00  0.00    -0.241 NA
ATOM     25  N   UNL     1       0.676   0.780  -2.579  1.00  0.00    -0.241 NA
ATOM     26  C   UNL     1       1.465   3.302  -3.183  1.00  0.00     0.124 A 
ATOM     27  C   UNL     1       1.106   1.100  -3.814  1.00  0.00     0.124 A 
BRANCH  23  28
ATOM     28  C   UNL     1       0.312   1.431  -0.248  1.00  0.00     0.074 C 
ATOM     29  C   UNL     1       0.903   0.111   0.232  1.00  0.00     0.012 C 
ENDBRANCH  23  28
ENDBRANCH  21  22
ENDBRANCH  15  21
ENDBRANCH   9  14
ENDBRANCH   6   8
ENDBRANCH   5   6
ENDBRANCH   4   5
ENDBRANCH   3   4
ENDBRANCH   2   3
ENDBRANCH   1   2
BRANCH   1  30
ATOM     30  C   UNL     1       8.765  -3.311  -7.158  1.00  0.00     0.188 C 
BRANCH  30  31
ATOM     31  O   UNL     1       9.135  -2.586  -8.303  1.00  0.00    -0.376 OA
BRANCH  31  32
ATOM     32  C   UNL     1      10.478  -2.606  -8.756  1.00  0.00     0.202 C 
BRANCH  32  33
ATOM     33  C   UNL     1      11.663  -3.319  -8.071  1.00  0.00     0.261 C 
BRANCH  33  34
ATOM     34  O   UNL     1      11.395  -4.244  -7.014  1.00  0.00    -0.460 OA
BRANCH  34  35
ATOM     35  C   UNL     1      11.671  -3.813  -5.759  1.00  0.00     0.338 C 
ATOM     36  O   UNL     1      12.084  -2.714  -5.423  1.00  0.00    -0.246 OA
BRANCH  35  37
ATOM     37  C   UNL     1      11.236  -4.848  -4.804  1.00  0.00     0.060 A 
ATOM     38  C   UNL     1      10.098  -4.622  -4.018  1.00  0.00     0.016 A 
ATOM     39  C   UNL     1      11.959  -6.034  -4.682  1.00  0.00     0.016 A 
ATOM     40  C   UNL     1       9.669  -5.595  -3.112  1.00  0.00     0.010 A 
ATOM     41  C   UNL     1      11.543  -6.995  -3.757  1.00  0.00     0.010 A 
ATOM     42  C   UNL     1      10.404  -6.778  -2.961  1.00  0.00    -0.014 A 
BRANCH  42  43
ATOM     43  C   UNL     1      10.062  -7.755  -1.899  1.00  0.00     0.031 A 
ATOM     44  C   UNL     1      10.861  -7.756  -0.627  1.00  0.00     0.074 A 
ATOM     45  C   UNL     1       9.081  -8.657  -2.080  1.00  0.00     0.049 A 
ATOM     46  N   UNL     1      10.829  -8.601   0.371  1.00  0.00    -0.248 NA
ATOM     47  C   UNL     1      11.828  -6.660  -0.463  1.00  0.00     0.031 C 
ATOM     48  C   UNL     1       8.199  -8.730  -3.243  1.00  0.00     0.029 A 
ATOM     49  N   UNL     1       8.680  -9.704  -1.286  1.00  0.00    -0.354 N 
ATOM     50  C   UNL     1      11.782  -8.150   1.275  1.00  0.00     0.074 A 
ATOM     51  C   UNL     1      12.387  -6.968   0.698  1.00  0.00     0.031 C 
ATOM     52  C   UNL     1       7.373  -9.781  -3.097  1.00  0.00     0.029 A 
ATOM     53  C   UNL     1       7.702 -10.482  -1.857  1.00  0.00     0.049 A 
ATOM     54  H   UNL     1       9.058  -9.880  -0.394  1.00  0.00     0.167 HD
ATOM     55  C   UNL     1      12.125  -8.674   2.475  1.00  0.00     0.031 A 
ATOM     56  C   UNL     1       7.164 -11.647  -1.446  1.00  0.00     0.031 A 
ATOM     57  C   UNL     1      11.539  -9.863   3.036  1.00  0.00     0.049 A 
ATOM     58  C   UNL     1       7.641 -12.272  -0.160  1.00  0.00     0.074 A 
ATOM     59  C   UNL     1      11.805 -10.461   4.255  1.00  0.00     0.029 A 
ATOM     60  N   UNL     1      10.581 -10.643   2.408  1.00  0.00    -0.354 N 
ATOM     61  N   UNL     1       8.518 -11.821   0.704  1.00  0.00    -0.248 NA
ATOM     62  C   UNL     1       7.054 -13.571   0.205  1.00  0.00     0.031 C 
ATOM     63  C   UNL     1      11.062 -11.643   4.333  1.00  0.00     0.029 A 
ATOM     64  C   UNL     1      10.278 -11.742   3.195  1.00  0.00     0.049 A 
ATOM     65  H   UNL     1      10.176 -10.446   1.532  1.00  0.00     0.167 HD
ATOM     66  C   UNL     1       8.569 -12.766   1.723  1.00  0.00     0.074 A 
ATOM     67  C   UNL     1       7.622 -13.805   1.380  1.00  0.00     0.031 C 
ATOM     68  C   UNL     1       9.334 -12.771   2.843  1.00  0.00     0.031 A 
BRANCH  55  69
ATOM     69  C   UNL     1      13.220  -7.990   3.245  1.00  0.00    -0.014 A 
ATOM     70  C   UNL     1      13.025  -6.731   3.835  1.00  0.00     0.009 A 
ATOM     71  C   UNL     1      14.455  -8.636   3.416  1.00  0.00     0.009 A 
ATOM     72  C   UNL     1      14.057  -6.120   4.551  1.00  0.00     0.001 A 
ATOM     73  C   UNL     1      15.473  -8.036   4.159  1.00  0.00     0.001 A 
ATOM     74  C   UNL     1      15.277  -6.775   4.717  1.00  0.00     0.000 A 
ENDBRANCH  55  69
BRANCH  56  75
ATOM     75  C   UNL     1       6.141 -12.334  -2.281  1.00  0.00    -0.014 A 
ATOM     76  C   UNL     1       4.819 -12.466  -1.829  1.00  0.00     0.009 A 
ATOM     77  C   UNL     1       6.489 -12.885  -3.525  1.00  0.00     0.009 A 
ATOM     78  C   UNL     1       3.875 -13.156  -2.593  1.00  0.00     0.001 A 
ATOM     79  C   UNL     1       5.534 -13.546  -4.302  1.00  0.00     0.001 A 
ATOM     80  C   UNL     1       4.231 -13.690  -3.831  1.00  0.00     0.000 A 
ENDBRANCH  56  75
BRANCH  68  81
ATOM     81  C   UNL     1       9.164 -13.919   3.800  1.00  0.00    -0.014 A 
ATOM     82  C   UNL     1       9.641 -15.203   3.491  1.00  0.00     0.009 A 
ATOM     83  C   UNL     1       8.579 -13.696   5.057  1.00  0.00     0.009 A 
ATOM     84  C   UNL     1       9.515 -16.244   4.415  1.00  0.00     0.001 A 
ATOM     85  C   UNL     1       8.484 -14.731   5.989  1.00  0.00     0.001 A 
ATOM     86  C   UNL     1       8.945 -16.005   5.665  1.00  0.00     0.000 A 
ENDBRANCH  68  81
ENDBRANCH  42  43
ENDBRANCH  35  37
ENDBRANCH  34  35
ENDBRANCH  33  34
ENDBRANCH  32  33
ENDBRANCH  31  32
ENDBRANCH  30  31
ENDBRANCH   1  30
TORSDOF 21
