REMARK SMILES CC[C@@H](C)N(C)C(=O)N1[C@@H](C(=O)OCCOCCOCCOC(=O)c2ccc(-c3c4nc(c(-c5ccccc5)c5ccc([nH]5)c(-c5ccccc5)c5nc(c(-c6ccccc6)c6ccc3[nH]6)C=C5)C=C4)cc2)CC[C@H]2CCCC[C@H]21
REMARK SMILES IDX 17 1 16 2 15 3 14 4 13 5 11 6 12 7 10 8 9 9 80 10 73 11
REMARK SMILES IDX 75 12 79 13 74 14 76 15 78 16 77 17 7 18 8 19 5 20 6 21 3 22
REMARK SMILES IDX 4 23 2 24 1 25 18 26 19 27 20 28 21 29 22 30 23 31 24 32
REMARK SMILES IDX 25 33 26 34 72 35 27 36 71 37 28 38 29 39 30 40 65 41 31 42
REMARK SMILES IDX 70 43 64 44 66 45 32 46 69 47 63 48 62 49 33 51 55 52 40 53
REMARK SMILES IDX 54 54 41 55 44 56 53 57 67 58 42 59 43 60 52 62 68 63 45 64
REMARK SMILES IDX 34 65 35 66 39 67 36 68 38 69 37 70 56 71 57 72 61 73 58 74
REMARK SMILES IDX 60 75 59 76 46 77 47 78 51 79 48 80 50 81 49 82
REMARK H PARENT 66 50 44 61
REMARK Flexibility Score: inf
ROOT
ATOM      1  C   UNL     1       1.860   7.153   5.057  1.00  0.00     0.188 C 
ENDROOT
BRANCH   1   2
ATOM      2  O   UNL     1       2.630   7.224   3.875  1.00  0.00    -0.376 OA
BRANCH   2   3
ATOM      3  C   UNL     1       2.105   6.689   2.676  1.00  0.00     0.202 C 
BRANCH   3   4
ATOM      4  C   UNL     1       1.597   5.247   2.649  1.00  0.00     0.261 C 
BRANCH   4   5
ATOM      5  O   UNL     1       0.394   4.947   3.382  1.00  0.00    -0.462 OA
BRANCH   5   6
ATOM      6  C   UNL     1       0.543   4.194   4.510  1.00  0.00     0.329 C 
ATOM      7  O   UNL     1       1.622   3.960   5.048  1.00  0.00    -0.250 OA
BRANCH   6   8
ATOM      8  C   UNL     1      -0.783   3.592   5.026  1.00  0.00     0.197 C 
ATOM      9  N   UNL     1      -1.301   2.424   4.288  1.00  0.00    -0.308 N 
ATOM     10  C   UNL     1      -2.524   1.820   4.851  1.00  0.00     0.091 C 
ATOM     11  C   UNL     1      -1.879   4.628   5.312  1.00  0.00     0.038 C 
ATOM     12  C   UNL     1      -3.635   2.809   5.249  1.00  0.00     0.012 C 
ATOM     13  C   UNL     1      -3.127   0.631   4.102  1.00  0.00     0.025 C 
ATOM     14  C   UNL     1      -3.071   3.996   6.030  1.00  0.00     0.008 C 
ATOM     15  C   UNL     1      -4.546   3.279   4.112  1.00  0.00     0.006 C 
ATOM     16  C   UNL     1      -4.132   0.961   2.998  1.00  0.00     0.002 C 
ATOM     17  C   UNL     1      -4.600   2.407   2.869  1.00  0.00     0.000 C 
BRANCH   9  18
ATOM     18  C   UNL     1      -0.940   2.238   2.965  1.00  0.00     0.320 C 
ATOM     19  O   UNL     1      -1.756   2.340   2.058  1.00  0.00    -0.248 OA
BRANCH  18  20
ATOM     20  N   UNL     1       0.382   1.857   2.728  1.00  0.00    -0.325 N 
ATOM     21  C   UNL     1       1.308   1.400   3.769  1.00  0.00     0.149 C 
BRANCH  20  22
ATOM     22  C   UNL     1       0.824   1.555   1.348  1.00  0.00     0.083 C 
ATOM     23  C   UNL     1       0.423   2.582   0.281  1.00  0.00     0.031 C 
BRANCH  22  24
ATOM     24  C   UNL     1       0.382   0.135   0.956  1.00  0.00     0.021 C 
ATOM     25  C   UNL     1       1.025  -0.354  -0.331  1.00  0.00     0.006 C 
ENDBRANCH  22  24
ENDBRANCH  20  22
ENDBRANCH  18  20
ENDBRANCH   9  18
ENDBRANCH   6   8
ENDBRANCH   5   6
ENDBRANCH   4   5
ENDBRANCH   3   4
ENDBRANCH   2   3
ENDBRANCH   1   2
BRANCH   1  26
ATOM     26  C   UNL     1       0.348   7.404   4.994  1.00  0.00     0.188 C 
BRANCH  26  27
ATOM     27  O   UNL     1      -0.225   8.069   3.903  1.00  0.00    -0.376 OA
BRANCH  27  28
ATOM     28  C   UNL     1       0.040   9.433   3.668  1.00  0.00     0.202 C 
BRANCH  28  29
ATOM     29  C   UNL     1       0.636  10.408   4.705  1.00  0.00     0.261 C 
BRANCH  29  30
ATOM     30  O   UNL     1       1.201   9.874   5.910  1.00  0.00    -0.460 OA
BRANCH  30  31
ATOM     31  C   UNL     1       0.394   9.828   6.998  1.00  0.00     0.338 C 
ATOM     32  O   UNL     1      -0.758  10.229   7.071  1.00  0.00    -0.246 OA
BRANCH  31  33
ATOM     33  C   UNL     1       1.034   8.984   8.043  1.00  0.00     0.060 A 
ATOM     34  C   UNL     1       0.333   7.868   8.528  1.00  0.00     0.016 A 
ATOM     35  C   UNL     1       2.303   9.277   8.543  1.00  0.00     0.016 A 
ATOM     36  C   UNL     1       0.873   7.076   9.546  1.00  0.00     0.010 A 
ATOM     37  C   UNL     1       2.833   8.498   9.582  1.00  0.00     0.010 A 
ATOM     38  C   UNL     1       2.102   7.420  10.120  1.00  0.00    -0.014 A 
BRANCH  38  39
ATOM     39  C   UNL     1       2.502   6.816  11.421  1.00  0.00     0.031 A 
ATOM     40  C   UNL     1       2.220   7.594  12.683  1.00  0.00     0.074 A 
ATOM     41  C   UNL     1       3.061   5.596  11.511  1.00  0.00     0.049 A 
ATOM     42  N   UNL     1       2.483   7.290  13.930  1.00  0.00    -0.248 NA
ATOM     43  C   UNL     1       1.548   8.891  12.508  1.00  0.00     0.031 C 
ATOM     44  C   UNL     1       3.334   4.698  10.393  1.00  0.00     0.029 A 
ATOM     45  N   UNL     1       3.498   4.903  12.616  1.00  0.00    -0.354 N 
ATOM     46  C   UNL     1       2.018   8.361  14.684  1.00  0.00     0.074 A 
ATOM     47  C   UNL     1       1.495   9.337  13.753  1.00  0.00     0.031 C 
ATOM     48  C   UNL     1       3.888   3.568  10.868  1.00  0.00     0.029 A 
ATOM     49  C   UNL     1       4.041   3.677  12.319  1.00  0.00     0.049 A 
ATOM     50  H   UNL     1       3.428   5.252  13.533  1.00  0.00     0.167 HD
ATOM     51  C   UNL     1       2.015   8.524  16.029  1.00  0.00     0.031 A 
ATOM     52  C   UNL     1       4.607   2.754  13.123  1.00  0.00     0.031 A 
ATOM     53  C   UNL     1       2.559   7.577  16.966  1.00  0.00     0.049 A 
ATOM     54  C   UNL     1       4.697   3.005  14.607  1.00  0.00     0.074 A 
ATOM     55  C   UNL     1       2.604   7.656  18.347  1.00  0.00     0.029 A 
ATOM     56  N   UNL     1       3.167   6.381  16.615  1.00  0.00    -0.354 N 
ATOM     57  N   UNL     1       4.242   4.014  15.310  1.00  0.00    -0.248 NA
ATOM     58  C   UNL     1       5.376   1.975  15.410  1.00  0.00     0.031 C 
ATOM     59  C   UNL     1       3.296   6.538  18.828  1.00  0.00     0.029 A 
ATOM     60  C   UNL     1       3.616   5.727  17.752  1.00  0.00     0.049 A 
ATOM     61  H   UNL     1       3.265   6.046  15.695  1.00  0.00     0.167 HD
ATOM     62  C   UNL     1       4.543   3.722  16.637  1.00  0.00     0.074 A 
ATOM     63  C   UNL     1       5.208   2.436  16.641  1.00  0.00     0.031 C 
ATOM     64  C   UNL     1       4.284   4.450  17.752  1.00  0.00     0.031 A 
BRANCH  51  65
ATOM     65  C   UNL     1       1.440   9.812  16.557  1.00  0.00    -0.014 A 
ATOM     66  C   UNL     1       0.068  10.099  16.458  1.00  0.00     0.009 A 
ATOM     67  C   UNL     1       2.287  10.759  17.155  1.00  0.00     0.009 A 
ATOM     68  C   UNL     1      -0.433  11.327  16.895  1.00  0.00     0.001 A 
ATOM     69  C   UNL     1       1.778  11.971  17.624  1.00  0.00     0.001 A 
ATOM     70  C   UNL     1       0.422  12.261  17.480  1.00  0.00     0.000 A 
ENDBRANCH  51  65
BRANCH  52  71
ATOM     71  C   UNL     1       5.138   1.486  12.551  1.00  0.00    -0.014 A 
ATOM     72  C   UNL     1       4.517   0.260  12.841  1.00  0.00     0.009 A 
ATOM     73  C   UNL     1       6.286   1.489  11.743  1.00  0.00     0.009 A 
ATOM     74  C   UNL     1       5.047  -0.936  12.352  1.00  0.00     0.001 A 
ATOM     75  C   UNL     1       6.795   0.293  11.231  1.00  0.00     0.001 A 
ATOM     76  C   UNL     1       6.181  -0.919  11.543  1.00  0.00     0.000 A 
ENDBRANCH  52  71
BRANCH  64  77
ATOM     77  C   UNL     1       4.676   3.850  19.078  1.00  0.00    -0.014 A 
ATOM     78  C   UNL     1       6.020   3.693  19.450  1.00  0.00     0.009 A 
ATOM     79  C   UNL     1       3.675   3.448  19.978  1.00  0.00     0.009 A 
ATOM     80  C   UNL     1       6.352   3.100  20.672  1.00  0.00     0.001 A 
ATOM     81  C   UNL     1       4.009   2.889  21.213  1.00  0.00     0.001 A 
ATOM     82  C   UNL     1       5.347   2.702  21.553  1.00  0.00     0.000 A 
ENDBRANCH  64  77
ENDBRANCH  38  39
ENDBRANCH  31  33
ENDBRANCH  30  31
ENDBRANCH  29  30
ENDBRANCH  28  29
ENDBRANCH  27  28
ENDBRANCH  26  27
ENDBRANCH   1  26
TORSDOF 21
