REMARK SMILES CCn1nc(-c2cccnc2)c2cc(C(=O)OCCOCCOCCOC(=O)c3ccc(-c4c5nc(c(-c6ccccc6)c6ccc([nH]6)c(-c6ccccc6)c6nc(c(-c7ccccc7)c7ccc4[nH]7)C=C6)C=C5)cc3)sc21
REMARK SMILES IDX 22 1 21 2 20 3 19 4 18 5 17 6 15 7 16 8 14 9 3 10 4 11 78 12
REMARK SMILES IDX 5 13 12 14 77 15 13 16 2 17 1 18 6 19 7 20 11 21 8 22 10 23
REMARK SMILES IDX 9 24 23 25 24 26 25 27 26 28 27 29 28 30 29 31 30 32 76 33
REMARK SMILES IDX 31 34 75 35 32 36 33 37 34 38 69 39 35 40 74 41 68 42 70 43
REMARK SMILES IDX 36 44 73 45 67 46 66 47 37 49 59 50 44 51 58 52 45 53 48 54
REMARK SMILES IDX 57 55 71 56 46 57 47 58 56 60 72 61 49 62 38 63 39 64 43 65
REMARK SMILES IDX 40 66 42 67 41 68 60 69 61 70 65 71 62 72 64 73 63 74 50 75
REMARK SMILES IDX 51 76 55 77 52 78 54 79 53 80
REMARK H PARENT 70 48 48 59
REMARK Flexibility Score: inf
ROOT
ATOM      1  C   UNL     1       5.675   0.288   4.709  1.00  0.00     0.188 C 
ENDROOT
BRANCH   1   2
ATOM      2  C   UNL     1       5.888   1.221   5.923  1.00  0.00     0.188 C 
BRANCH   2   3
ATOM      3  O   UNL     1       6.363   0.715   7.166  1.00  0.00    -0.376 OA
BRANCH   3   4
ATOM      4  C   UNL     1       5.905  -0.547   7.636  1.00  0.00     0.202 C 
BRANCH   4   5
ATOM      5  C   UNL     1       4.394  -0.795   7.799  1.00  0.00     0.261 C 
BRANCH   5   6
ATOM      6  O   UNL     1       3.578  -0.423   6.676  1.00  0.00    -0.459 OA
BRANCH   6   7
ATOM      7  C   UNL     1       2.816   0.696   6.815  1.00  0.00     0.348 C 
ATOM      8  O   UNL     1       2.739   1.361   7.852  1.00  0.00    -0.245 OA
BRANCH   7   9
ATOM      9  C   UNL     1       2.242   1.109   5.547  1.00  0.00     0.115 A 
ATOM     10  N   UNL     1       0.707   1.346   2.122  1.00  0.00    -0.254 N 
ATOM     11  N   UNL     1       0.539   2.669   1.826  1.00  0.00    -0.171 NA
ATOM     12  C   UNL     1       1.280   1.177   3.334  1.00  0.00     0.122 A 
ATOM     13  C   UNL     1       1.041   3.333   2.896  1.00  0.00     0.103 A 
ATOM     14  C   UNL     1       1.490   2.399   3.830  1.00  0.00     0.040 A 
ATOM     15  S   UNL     1       1.719  -0.060   4.352  1.00  0.00    -0.109 S 
ATOM     16  C   UNL     1       2.028   2.425   5.113  1.00  0.00     0.040 A 
BRANCH  10  17
ATOM     17  C   UNL     1       0.188   0.341   1.220  1.00  0.00     0.142 C 
ATOM     18  C   UNL     1       0.960   0.260  -0.085  1.00  0.00     0.029 C 
ENDBRANCH  10  17
BRANCH  13  19
ATOM     19  C   UNL     1       0.995   4.779   2.958  1.00  0.00     0.021 A 
ATOM     20  C   UNL     1      -0.230   5.445   3.025  1.00  0.00     0.013 A 
ATOM     21  C   UNL     1       2.148   5.552   2.911  1.00  0.00     0.121 A 
ATOM     22  C   UNL     1      -0.258   6.837   3.047  1.00  0.00     0.021 A 
ATOM     23  N   UNL     1       2.153   6.909   2.937  1.00  0.00    -0.264 NA
ATOM     24  C   UNL     1       0.948   7.518   2.998  1.00  0.00     0.111 A 
ENDBRANCH  13  19
ENDBRANCH   7   9
ENDBRANCH   6   7
ENDBRANCH   5   6
ENDBRANCH   4   5
ENDBRANCH   3   4
ENDBRANCH   2   3
ENDBRANCH   1   2
BRANCH   1  25
ATOM     25  O   UNL     1       5.847  -1.093   4.988  1.00  0.00    -0.376 OA
BRANCH  25  26
ATOM     26  C   UNL     1       6.832  -1.786   4.234  1.00  0.00     0.202 C 
BRANCH  26  27
ATOM     27  C   UNL     1       8.292  -1.458   4.551  1.00  0.00     0.261 C 
BRANCH  27  28
ATOM     28  O   UNL     1       8.542  -0.086   4.822  1.00  0.00    -0.460 OA
BRANCH  28  29
ATOM     29  C   UNL     1       8.601   0.724   3.753  1.00  0.00     0.338 C 
ATOM     30  O   UNL     1       8.332   0.430   2.592  1.00  0.00    -0.246 OA
BRANCH  29  31
ATOM     31  C   UNL     1       9.107   2.033   4.182  1.00  0.00     0.060 A 
ATOM     32  C   UNL     1       9.114   3.057   3.234  1.00  0.00     0.016 A 
ATOM     33  C   UNL     1       9.805   2.142   5.397  1.00  0.00     0.016 A 
ATOM     34  C   UNL     1      10.033   4.072   3.381  1.00  0.00     0.010 A 
ATOM     35  C   UNL     1      10.733   3.147   5.536  1.00  0.00     0.010 A 
ATOM     36  C   UNL     1      10.911   4.022   4.467  1.00  0.00    -0.014 A 
BRANCH  36  37
ATOM     37  C   UNL     1      12.133   4.788   4.356  1.00  0.00     0.031 A 
ATOM     38  C   UNL     1      12.047   6.212   4.713  1.00  0.00     0.074 A 
ATOM     39  C   UNL     1      13.289   4.193   4.003  1.00  0.00     0.049 A 
ATOM     40  N   UNL     1      12.260   7.234   3.954  1.00  0.00    -0.248 NA
ATOM     41  C   UNL     1      11.602   6.533   6.075  1.00  0.00     0.031 C 
ATOM     42  C   UNL     1      13.567   2.753   3.932  1.00  0.00     0.029 A 
ATOM     43  N   UNL     1      14.500   4.760   3.750  1.00  0.00    -0.354 N 
ATOM     44  C   UNL     1      12.143   8.338   4.787  1.00  0.00     0.074 A 
ATOM     45  C   UNL     1      11.606   7.864   6.039  1.00  0.00     0.031 C 
ATOM     46  C   UNL     1      14.904   2.565   3.884  1.00  0.00     0.029 A 
ATOM     47  C   UNL     1      15.553   3.861   3.784  1.00  0.00     0.049 A 
ATOM     48  H   UNL     1      14.616   5.720   3.561  1.00  0.00     0.167 HD
ATOM     49  C   UNL     1      12.726   9.527   4.487  1.00  0.00     0.031 A 
ATOM     50  C   UNL     1      16.869   4.167   3.816  1.00  0.00     0.031 A 
ATOM     51  C   UNL     1      13.070   9.645   3.097  1.00  0.00     0.049 A 
ATOM     52  C   UNL     1      17.034   5.562   3.352  1.00  0.00     0.074 A 
ATOM     53  C   UNL     1      12.368   9.642   1.909  1.00  0.00     0.029 A 
ATOM     54  N   UNL     1      14.389   9.465   2.762  1.00  0.00    -0.354 N 
ATOM     55  N   UNL     1      16.828   5.950   2.127  1.00  0.00    -0.248 NA
ATOM     56  C   UNL     1      17.093   6.629   4.339  1.00  0.00     0.031 C 
ATOM     57  C   UNL     1      13.244   9.053   0.951  1.00  0.00     0.029 A 
ATOM     58  C   UNL     1      14.437   8.733   1.604  1.00  0.00     0.049 A 
ATOM     59  H   UNL     1      15.165   9.803   3.265  1.00  0.00     0.167 HD
ATOM     60  C   UNL     1      16.323   7.236   2.241  1.00  0.00     0.074 A 
ATOM     61  C   UNL     1      16.650   7.649   3.600  1.00  0.00     0.031 C 
ATOM     62  C   UNL     1      15.441   7.728   1.321  1.00  0.00     0.031 A 
BRANCH  49  63
ATOM     63  C   UNL     1      13.340  10.401   5.546  1.00  0.00    -0.014 A 
ATOM     64  C   UNL     1      13.772  11.692   5.206  1.00  0.00     0.009 A 
ATOM     65  C   UNL     1      13.751   9.900   6.799  1.00  0.00     0.009 A 
ATOM     66  C   UNL     1      14.598  12.428   6.065  1.00  0.00     0.001 A 
ATOM     67  C   UNL     1      14.535  10.648   7.677  1.00  0.00     0.001 A 
ATOM     68  C   UNL     1      14.977  11.906   7.299  1.00  0.00     0.000 A 
ENDBRANCH  49  63
BRANCH  50  69
ATOM     69  C   UNL     1      17.941   3.425   4.508  1.00  0.00    -0.014 A 
ATOM     70  C   UNL     1      19.287   3.616   4.168  1.00  0.00     0.009 A 
ATOM     71  C   UNL     1      17.654   2.705   5.684  1.00  0.00     0.009 A 
ATOM     72  C   UNL     1      20.308   3.128   4.993  1.00  0.00     0.001 A 
ATOM     73  C   UNL     1      18.672   2.213   6.503  1.00  0.00     0.001 A 
ATOM     74  C   UNL     1      20.001   2.438   6.164  1.00  0.00     0.000 A 
ENDBRANCH  50  69
BRANCH  62  75
ATOM     75  C   UNL     1      15.295   6.971   0.024  1.00  0.00    -0.014 A 
ATOM     76  C   UNL     1      14.826   5.647  -0.032  1.00  0.00     0.009 A 
ATOM     77  C   UNL     1      15.517   7.651  -1.183  1.00  0.00     0.009 A 
ATOM     78  C   UNL     1      14.623   5.009  -1.260  1.00  0.00     0.001 A 
ATOM     79  C   UNL     1      15.293   7.020  -2.410  1.00  0.00     0.001 A 
ATOM     80  C   UNL     1      14.854   5.698  -2.448  1.00  0.00     0.000 A 
ENDBRANCH  62  75
ENDBRANCH  36  37
ENDBRANCH  29  31
ENDBRANCH  28  29
ENDBRANCH  27  28
ENDBRANCH  26  27
ENDBRANCH  25  26
ENDBRANCH   1  25
TORSDOF 19
