REMARK SMILES CSCC[C@H](NC(=O)Nc1cccc(-c2nc3ccccc3o2)c1)C(=O)OCCOCCOCCOC(=O)c1ccc(-c2c3nc(c(-c4ccccc4)c4ccc([nH]4)c(-c4ccccc4)c4nc(c(-c5ccccc5)c5ccc2[nH]5)C=C4)C=C3)cc1
REMARK SMILES IDX 31 1 30 2 29 3 28 4 27 5 25 6 26 7 5 8 4 9 3 10 2 11 1 12
REMARK SMILES IDX 6 13 7 14 8 16 9 17 10 19 11 20 24 21 12 22 14 23 13 24
REMARK SMILES IDX 15 25 16 26 23 27 17 28 22 29 18 30 21 31 19 32 20 33 32 34
REMARK SMILES IDX 33 35 34 36 35 37 36 38 37 39 38 40 39 41 40 42 86 43 41 44
REMARK SMILES IDX 85 45 42 46 43 47 44 48 79 49 45 50 84 51 78 52 80 53 46 54
REMARK SMILES IDX 83 55 77 56 76 57 47 59 69 60 54 61 68 62 55 63 58 64 67 65
REMARK SMILES IDX 81 66 56 67 57 68 66 70 82 71 59 72 48 73 49 74 53 75 50 76
REMARK SMILES IDX 52 77 51 78 70 79 71 80 75 81 72 82 74 83 73 84 60 85 61 86
REMARK SMILES IDX 65 87 62 88 64 89 63 90
REMARK H PARENT 6 15 9 18 80 58 58 69
REMARK Flexibility Score: inf
ROOT
ATOM      1  C   UNL     1      -2.326  -1.357  -5.816  1.00  0.00     0.188 C 
ENDROOT
BRANCH   1   2
ATOM      2  O   UNL     1      -0.905  -1.442  -5.867  1.00  0.00    -0.376 OA
BRANCH   2   3
ATOM      3  C   UNL     1      -0.344  -2.611  -6.461  1.00  0.00     0.202 C 
BRANCH   3   4
ATOM      4  C   UNL     1       1.192  -2.729  -6.186  1.00  0.00     0.261 C 
BRANCH   4   5
ATOM      5  O   UNL     1       1.467  -2.950  -4.774  1.00  0.00    -0.462 OA
BRANCH   5   6
ATOM      6  C   UNL     1       2.720  -2.692  -4.238  1.00  0.00     0.328 C 
ATOM      7  O   UNL     1       3.764  -2.769  -4.872  1.00  0.00    -0.250 OA
BRANCH   6   8
ATOM      8  C   UNL     1       2.581  -2.011  -2.812  1.00  0.00     0.194 C 
BRANCH   8   9
ATOM      9  C   UNL     1       3.621  -2.177  -1.707  1.00  0.00     0.048 C 
BRANCH   9  10
ATOM     10  C   UNL     1       3.283  -1.249  -0.500  1.00  0.00     0.072 C 
BRANCH  10  11
ATOM     11  S   UNL     1       2.501  -2.122   0.912  1.00  0.00    -0.165 SA
ATOM     12  C   UNL     1       0.792  -1.502   0.826  1.00  0.00     0.085 C 
ENDBRANCH  10  11
ENDBRANCH   9  10
ENDBRANCH   8   9
BRANCH   8  13
ATOM     13  N   UNL     1       1.278  -2.330  -2.340  1.00  0.00    -0.324 N 
ATOM     14  C   UNL     1       0.117  -1.818  -2.718  1.00  0.00     0.319 C 
ATOM     15  H   UNL     1       1.234  -3.022  -1.641  1.00  0.00     0.166 HD
ATOM     16  O   UNL     1      -0.866  -2.452  -2.317  1.00  0.00    -0.248 OA
ATOM     17  N   UNL     1      -0.085  -0.696  -3.428  1.00  0.00    -0.308 N 
ATOM     18  H   UNL     1      -1.053  -0.517  -3.413  1.00  0.00     0.171 HD
BRANCH  17  19
ATOM     19  C   UNL     1       0.514   0.337  -4.190  1.00  0.00     0.043 A 
ATOM     20  C   UNL     1      -0.339   1.377  -4.583  1.00  0.00     0.026 A 
ATOM     21  C   UNL     1       1.790   0.400  -4.713  1.00  0.00     0.040 A 
ATOM     22  C   UNL     1       0.093   2.425  -5.414  1.00  0.00     0.003 A 
ATOM     23  C   UNL     1       2.280   1.474  -5.484  1.00  0.00     0.039 A 
ATOM     24  C   UNL     1       1.419   2.496  -5.841  1.00  0.00     0.014 A 
BRANCH  23  25
ATOM     25  C   UNL     1       3.710   1.406  -5.784  1.00  0.00     0.227 A 
ATOM     26  N   UNL     1       4.344   0.307  -6.162  1.00  0.00    -0.209 NA
ATOM     27  O   UNL     1       4.473   2.261  -5.020  1.00  0.00    -0.436 OA
ATOM     28  C   UNL     1       5.481   0.313  -5.400  1.00  0.00     0.110 A 
ATOM     29  C   UNL     1       5.585   1.519  -4.726  1.00  0.00     0.155 A 
ATOM     30  C   UNL     1       6.422  -0.693  -5.148  1.00  0.00     0.032 A 
ATOM     31  C   UNL     1       6.596   1.835  -3.828  1.00  0.00     0.049 A 
ATOM     32  C   UNL     1       7.429  -0.434  -4.206  1.00  0.00     0.003 A 
ATOM     33  C   UNL     1       7.519   0.811  -3.569  1.00  0.00     0.004 A 
ENDBRANCH  23  25
ENDBRANCH  17  19
ENDBRANCH   8  13
ENDBRANCH   6   8
ENDBRANCH   5   6
ENDBRANCH   4   5
ENDBRANCH   3   4
ENDBRANCH   2   3
ENDBRANCH   1   2
BRANCH   1  34
ATOM     34  C   UNL     1      -2.972  -2.113  -4.657  1.00  0.00     0.188 C 
BRANCH  34  35
ATOM     35  O   UNL     1      -3.068  -3.522  -4.814  1.00  0.00    -0.376 OA
BRANCH  35  36
ATOM     36  C   UNL     1      -4.084  -3.932  -5.715  1.00  0.00     0.202 C 
BRANCH  36  37
ATOM     37  C   UNL     1      -5.515  -3.907  -5.145  1.00  0.00     0.261 C 
BRANCH  37  38
ATOM     38  O   UNL     1      -5.798  -2.765  -4.311  1.00  0.00    -0.460 OA
BRANCH  38  39
ATOM     39  C   UNL     1      -5.579  -2.968  -2.978  1.00  0.00     0.338 C 
ATOM     40  O   UNL     1      -5.410  -4.033  -2.429  1.00  0.00    -0.246 OA
BRANCH  39  41
ATOM     41  C   UNL     1      -5.439  -1.661  -2.266  1.00  0.00     0.060 A 
ATOM     42  C   UNL     1      -4.480  -1.574  -1.246  1.00  0.00     0.016 A 
ATOM     43  C   UNL     1      -6.248  -0.556  -2.548  1.00  0.00     0.016 A 
ATOM     44  C   UNL     1      -4.402  -0.433  -0.439  1.00  0.00     0.010 A 
ATOM     45  C   UNL     1      -6.170   0.590  -1.739  1.00  0.00     0.010 A 
ATOM     46  C   UNL     1      -5.296   0.628  -0.635  1.00  0.00    -0.014 A 
BRANCH  46  47
ATOM     47  C   UNL     1      -5.529   1.599   0.472  1.00  0.00     0.031 A 
ATOM     48  C   UNL     1      -6.685   1.326   1.407  1.00  0.00     0.074 A 
ATOM     49  C   UNL     1      -4.732   2.661   0.697  1.00  0.00     0.049 A 
ATOM     50  N   UNL     1      -7.097   2.000   2.452  1.00  0.00    -0.248 NA
ATOM     51  C   UNL     1      -7.488   0.127   1.115  1.00  0.00     0.031 C 
ATOM     52  C   UNL     1      -3.555   3.024  -0.088  1.00  0.00     0.029 A 
ATOM     53  N   UNL     1      -4.801   3.632   1.669  1.00  0.00    -0.354 N 
ATOM     54  C   UNL     1      -8.204   1.309   2.933  1.00  0.00     0.074 A 
ATOM     55  C   UNL     1      -8.428   0.192   2.044  1.00  0.00     0.031 C 
ATOM     56  C   UNL     1      -3.012   4.140   0.433  1.00  0.00     0.029 A 
ATOM     57  C   UNL     1      -3.815   4.584   1.573  1.00  0.00     0.049 A 
ATOM     58  H   UNL     1      -5.493   3.644   2.369  1.00  0.00     0.167 HD
ATOM     59  C   UNL     1      -8.967   1.565   4.023  1.00  0.00     0.031 A 
ATOM     60  C   UNL     1      -3.591   5.689   2.314  1.00  0.00     0.031 A 
ATOM     61  C   UNL     1      -8.765   2.683   4.904  1.00  0.00     0.049 A 
ATOM     62  C   UNL     1      -4.497   5.998   3.482  1.00  0.00     0.074 A 
ATOM     63  C   UNL     1      -9.479   3.027   6.039  1.00  0.00     0.029 A 
ATOM     64  N   UNL     1      -7.780   3.644   4.743  1.00  0.00    -0.354 N 
ATOM     65  N   UNL     1      -5.524   5.322   3.939  1.00  0.00    -0.248 NA
ATOM     66  C   UNL     1      -4.196   7.218   4.247  1.00  0.00     0.031 C 
ATOM     67  C   UNL     1      -8.967   4.235   6.526  1.00  0.00     0.029 A 
ATOM     68  C   UNL     1      -7.885   4.599   5.740  1.00  0.00     0.049 A 
ATOM     69  H   UNL     1      -7.106   3.648   4.025  1.00  0.00     0.167 HD
ATOM     70  C   UNL     1      -5.967   6.012   5.063  1.00  0.00     0.074 A 
ATOM     71  C   UNL     1      -5.084   7.148   5.228  1.00  0.00     0.031 C 
ATOM     72  C   UNL     1      -7.006   5.731   5.888  1.00  0.00     0.031 A 
BRANCH  59  73
ATOM     73  C   UNL     1     -10.122   0.637   4.290  1.00  0.00    -0.014 A 
ATOM     74  C   UNL     1      -9.919  -0.694   4.694  1.00  0.00     0.009 A 
ATOM     75  C   UNL     1     -11.437   1.106   4.143  1.00  0.00     0.009 A 
ATOM     76  C   UNL     1     -11.008  -1.544   4.902  1.00  0.00     0.001 A 
ATOM     77  C   UNL     1     -12.523   0.264   4.386  1.00  0.00     0.001 A 
ATOM     78  C   UNL     1     -12.308  -1.063   4.754  1.00  0.00     0.000 A 
ENDBRANCH  59  73
BRANCH  60  79
ATOM     79  C   UNL     1      -2.465   6.606   1.978  1.00  0.00    -0.014 A 
ATOM     80  C   UNL     1      -1.371   6.757   2.846  1.00  0.00     0.009 A 
ATOM     81  C   UNL     1      -2.498   7.369   0.800  1.00  0.00     0.009 A 
ATOM     82  C   UNL     1      -0.352   7.669   2.555  1.00  0.00     0.001 A 
ATOM     83  C   UNL     1      -1.462   8.255   0.494  1.00  0.00     0.001 A 
ATOM     84  C   UNL     1      -0.395   8.413   1.377  1.00  0.00     0.000 A 
ENDBRANCH  60  79
BRANCH  72  85
ATOM     85  C   UNL     1      -7.215   6.639   7.072  1.00  0.00    -0.014 A 
ATOM     86  C   UNL     1      -7.635   7.970   6.918  1.00  0.00     0.009 A 
ATOM     87  C   UNL     1      -6.998   6.144   8.369  1.00  0.00     0.009 A 
ATOM     88  C   UNL     1      -7.776   8.801   8.033  1.00  0.00     0.001 A 
ATOM     89  C   UNL     1      -7.177   6.965   9.483  1.00  0.00     0.001 A 
ATOM     90  C   UNL     1      -7.549   8.297   9.313  1.00  0.00     0.000 A 
ENDBRANCH  72  85
ENDBRANCH  46  47
ENDBRANCH  39  41
ENDBRANCH  38  39
ENDBRANCH  37  38
ENDBRANCH  36  37
ENDBRANCH  35  36
ENDBRANCH  34  35
ENDBRANCH   1  34
TORSDOF 23
