REMARK SMILES C[C@H]([NH2+][C@@H](C)Cc1cccs1)[C@@H](C)C(=O)OCCOCCOCCOC(=O)c1ccc(-c2c3nc(c(-c4ccccc4)c4ccc([nH]4)c(-c4ccccc4)c4nc(c(-c5ccccc5)c5ccc2[nH]5)C=C4)C=C3)cc1
REMARK SMILES IDX 19 1 18 2 17 3 16 4 14 5 15 6 12 7 13 8 2 9 1 10 3 11 4 14
REMARK SMILES IDX 5 15 6 16 7 17 8 18 11 19 9 20 10 21 20 22 21 23 22 24 23 25
REMARK SMILES IDX 24 26 25 27 26 28 27 29 28 30 29 31 75 32 30 33 74 34 31 35
REMARK SMILES IDX 32 36 33 37 68 38 34 39 73 40 67 41 69 42 35 43 72 44 66 45
REMARK SMILES IDX 65 46 36 48 58 49 43 50 57 51 44 52 47 53 56 54 70 55 45 56
REMARK SMILES IDX 46 57 55 59 71 60 48 61 37 62 38 63 42 64 39 65 41 66 40 67
REMARK SMILES IDX 59 68 60 69 64 70 61 71 63 72 62 73 49 74 50 75 54 76 51 77
REMARK SMILES IDX 53 78 52 79
REMARK H PARENT 3 12 3 13 69 47 47 58
REMARK Flexibility Score: inf
ROOT
ATOM      1  O   UNL     1      -2.862  -5.424   1.103  1.00  0.00    -0.376 OA
ENDROOT
BRANCH   1   2
ATOM      2  C   UNL     1      -2.261  -5.960  -0.076  1.00  0.00     0.202 C 
BRANCH   2   3
ATOM      3  C   UNL     1      -1.976  -4.999  -1.254  1.00  0.00     0.261 C 
BRANCH   3   4
ATOM      4  O   UNL     1      -1.092  -3.865  -1.008  1.00  0.00    -0.463 OA
BRANCH   4   5
ATOM      5  C   UNL     1      -1.730  -2.679  -0.904  1.00  0.00     0.314 C 
ATOM      6  O   UNL     1      -2.960  -2.592  -0.960  1.00  0.00    -0.252 OA
BRANCH   5   7
ATOM      7  C   UNL     1      -0.909  -1.406  -0.663  1.00  0.00     0.154 C 
ATOM      8  C   UNL     1      -1.396  -0.468  -1.795  1.00  0.00     0.026 C 
BRANCH   7   9
ATOM      9  C   UNL     1       0.627  -1.242  -0.516  1.00  0.00     0.193 C 
ATOM     10  C   UNL     1       1.375  -2.287   0.300  1.00  0.00     0.076 C 
BRANCH   9  11
ATOM     11  N   UNL     1       1.005   0.139  -0.079  1.00  0.00    -0.341 N 
ATOM     12  H   UNL     1       0.322   0.769  -0.500  1.00  0.00     0.346 HD
ATOM     13  H   UNL     1       1.979   0.200  -0.374  1.00  0.00     0.346 HD
BRANCH  11  14
ATOM     14  C   UNL     1       1.086   0.507   1.347  1.00  0.00     0.184 C 
ATOM     15  C   UNL     1       2.450   1.215   1.482  1.00  0.00     0.075 C 
BRANCH  14  16
ATOM     16  C   UNL     1       0.012   1.514   1.871  1.00  0.00     0.111 C 
BRANCH  16  17
ATOM     17  C   UNL     1      -1.346   0.919   2.105  1.00  0.00     0.010 A 
ATOM     18  C   UNL     1      -1.793   0.188   3.189  1.00  0.00     0.015 A 
ATOM     19  S   UNL     1      -2.632   1.213   1.008  1.00  0.00    -0.149 S 
ATOM     20  C   UNL     1      -3.087  -0.365   2.971  1.00  0.00     0.012 A 
ATOM     21  C   UNL     1      -3.619   0.039   1.768  1.00  0.00     0.065 A 
ENDBRANCH  16  17
ENDBRANCH  14  16
ENDBRANCH  11  14
ENDBRANCH   9  11
ENDBRANCH   7   9
ENDBRANCH   5   7
ENDBRANCH   4   5
ENDBRANCH   3   4
ENDBRANCH   2   3
ENDBRANCH   1   2
BRANCH   1  22
ATOM     22  C   UNL     1      -2.125  -4.434   1.814  1.00  0.00     0.188 C 
BRANCH  22  23
ATOM     23  C   UNL     1      -0.681  -4.802   2.163  1.00  0.00     0.188 C 
BRANCH  23  24
ATOM     24  O   UNL     1       0.060  -5.205   1.025  1.00  0.00    -0.376 OA
BRANCH  24  25
ATOM     25  C   UNL     1       1.333  -5.824   1.157  1.00  0.00     0.202 C 
BRANCH  25  26
ATOM     26  C   UNL     1       1.629  -6.662   2.407  1.00  0.00     0.261 C 
BRANCH  26  27
ATOM     27  O   UNL     1       1.426  -5.979   3.658  1.00  0.00    -0.460 OA
BRANCH  27  28
ATOM     28  C   UNL     1       2.024  -4.778   3.809  1.00  0.00     0.338 C 
ATOM     29  O   UNL     1       2.907  -4.309   3.107  1.00  0.00    -0.246 OA
BRANCH  28  30
ATOM     30  C   UNL     1       1.280  -4.000   4.830  1.00  0.00     0.060 A 
ATOM     31  C   UNL     1       1.171  -2.618   4.638  1.00  0.00     0.016 A 
ATOM     32  C   UNL     1       0.654  -4.602   5.929  1.00  0.00     0.016 A 
ATOM     33  C   UNL     1       0.505  -1.832   5.575  1.00  0.00     0.010 A 
ATOM     34  C   UNL     1      -0.025  -3.811   6.865  1.00  0.00     0.010 A 
ATOM     35  C   UNL     1      -0.068  -2.415   6.712  1.00  0.00    -0.014 A 
BRANCH  35  36
ATOM     36  C   UNL     1      -0.517  -1.522   7.810  1.00  0.00     0.031 A 
ATOM     37  C   UNL     1       0.426  -1.264   8.952  1.00  0.00     0.074 A 
ATOM     38  C   UNL     1      -1.683  -0.853   7.746  1.00  0.00     0.049 A 
ATOM     39  N   UNL     1       0.304  -0.439   9.960  1.00  0.00    -0.248 NA
ATOM     40  C   UNL     1       1.678  -2.038   8.952  1.00  0.00     0.031 C 
ATOM     41  C   UNL     1      -2.669  -0.978   6.677  1.00  0.00     0.029 A 
ATOM     42  N   UNL     1      -2.218   0.091   8.588  1.00  0.00    -0.354 N 
ATOM     43  C   UNL     1       1.459  -0.596  10.714  1.00  0.00     0.074 A 
ATOM     44  C   UNL     1       2.253  -1.618  10.068  1.00  0.00     0.031 C 
ATOM     45  C   UNL     1      -3.671  -0.109   6.903  1.00  0.00     0.029 A 
ATOM     46  C   UNL     1      -3.421   0.598   8.157  1.00  0.00     0.049 A 
ATOM     47  H   UNL     1      -1.780   0.379   9.422  1.00  0.00     0.167 HD
ATOM     48  C   UNL     1       1.833   0.054  11.841  1.00  0.00     0.031 A 
ATOM     49  C   UNL     1      -4.230   1.522   8.714  1.00  0.00     0.031 A 
ATOM     50  C   UNL     1       1.039   1.053  12.505  1.00  0.00     0.049 A 
ATOM     51  C   UNL     1      -3.826   2.174  10.013  1.00  0.00     0.074 A 
ATOM     52  C   UNL     1       1.332   1.758  13.659  1.00  0.00     0.029 A 
ATOM     53  N   UNL     1      -0.208   1.482  12.080  1.00  0.00    -0.354 N 
ATOM     54  N   UNL     1      -2.725   2.025  10.710  1.00  0.00    -0.248 NA
ATOM     55  C   UNL     1      -4.780   3.129  10.596  1.00  0.00     0.031 C 
ATOM     56  C   UNL     1       0.234   2.567  13.969  1.00  0.00     0.029 A 
ATOM     57  C   UNL     1      -0.710   2.425  12.964  1.00  0.00     0.049 A 
ATOM     58  H   UNL     1      -0.670   1.165  11.271  1.00  0.00     0.167 HD
ATOM     59  C   UNL     1      -2.841   2.889  11.793  1.00  0.00     0.074 A 
ATOM     60  C   UNL     1      -4.108   3.575  11.648  1.00  0.00     0.031 C 
ATOM     61  C   UNL     1      -1.975   3.099  12.816  1.00  0.00     0.031 A 
BRANCH  48  62
ATOM     62  C   UNL     1       3.147  -0.344  12.454  1.00  0.00    -0.014 A 
ATOM     63  C   UNL     1       4.370  -0.037  11.835  1.00  0.00     0.009 A 
ATOM     64  C   UNL     1       3.159  -1.032  13.677  1.00  0.00     0.009 A 
ATOM     65  C   UNL     1       5.575  -0.448  12.410  1.00  0.00     0.001 A 
ATOM     66  C   UNL     1       4.366  -1.410  14.266  1.00  0.00     0.001 A 
ATOM     67  C   UNL     1       5.572  -1.129  13.627  1.00  0.00     0.000 A 
ENDBRANCH  48  62
BRANCH  49  68
ATOM     68  C   UNL     1      -5.524   1.880   8.069  1.00  0.00    -0.014 A 
ATOM     69  C   UNL     1      -5.749   3.171   7.566  1.00  0.00     0.009 A 
ATOM     70  C   UNL     1      -6.564   0.939   8.000  1.00  0.00     0.009 A 
ATOM     71  C   UNL     1      -6.996   3.520   7.038  1.00  0.00     0.001 A 
ATOM     72  C   UNL     1      -7.797   1.280   7.439  1.00  0.00     0.001 A 
ATOM     73  C   UNL     1      -8.016   2.573   6.970  1.00  0.00     0.000 A 
ENDBRANCH  49  68
BRANCH  61  74
ATOM     74  C   UNL     1      -2.345   4.149  13.831  1.00  0.00    -0.014 A 
ATOM     75  C   UNL     1      -3.421   3.977  14.717  1.00  0.00     0.009 A 
ATOM     76  C   UNL     1      -1.589   5.330  13.909  1.00  0.00     0.009 A 
ATOM     77  C   UNL     1      -3.764   4.987  15.618  1.00  0.00     0.001 A 
ATOM     78  C   UNL     1      -1.911   6.322  14.836  1.00  0.00     0.001 A 
ATOM     79  C   UNL     1      -3.008   6.157  15.679  1.00  0.00     0.000 A 
ENDBRANCH  61  74
ENDBRANCH  35  36
ENDBRANCH  28  30
ENDBRANCH  27  28
ENDBRANCH  26  27
ENDBRANCH  25  26
ENDBRANCH  24  25
ENDBRANCH  23  24
ENDBRANCH  22  23
ENDBRANCH   1  22
TORSDOF 22
