REMARK SMILES CC[N@@H+]1CCO[C@H](C[NH2+][C@@H]2CCC[C@H](C(=O)OCCOCCOCCOC(=O)c3ccc(-c4c5nc(c(-c6ccccc6)c6ccc([nH]6)c(-c6ccccc6)c6nc(c(-c7ccccc7)c7ccc4[nH]7)C=C6)C=C5)cc3)C2)C1
REMARK SMILES IDX 21 1 20 2 19 3 18 4 17 5 15 6 16 7 14 8 10 9 11 10 77 11
REMARK SMILES IDX 12 12 13 13 9 14 8 17 7 18 3 19 4 20 78 21 5 23 6 24 2 25
REMARK SMILES IDX 1 26 22 27 23 28 24 29 25 30 26 31 27 32 28 33 29 34 30 35
REMARK SMILES IDX 76 36 31 37 75 38 32 39 33 40 34 41 69 42 35 43 74 44 68 45
REMARK SMILES IDX 70 46 36 47 73 48 67 49 66 50 37 52 59 53 44 54 58 55 45 56
REMARK SMILES IDX 48 57 57 58 71 59 46 60 47 61 56 63 72 64 49 65 38 66 39 67
REMARK SMILES IDX 43 68 40 69 42 70 41 71 60 72 61 73 65 74 62 75 64 76 63 77
REMARK SMILES IDX 50 78 51 79 55 80 52 81 54 82 53 83
REMARK H PARENT 9 15 9 16 3 22 70 51 48 62
REMARK Flexibility Score: inf
ROOT
ATOM      1  C   UNL     1       1.329  -1.632  -8.519  1.00  0.00     0.188 C 
ENDROOT
BRANCH   1   2
ATOM      2  O   UNL     1       1.929  -2.816  -9.023  1.00  0.00    -0.376 OA
BRANCH   2   3
ATOM      3  C   UNL     1       1.231  -4.042  -8.825  1.00  0.00     0.202 C 
BRANCH   3   4
ATOM      4  C   UNL     1       1.097  -4.553  -7.385  1.00  0.00     0.261 C 
BRANCH   4   5
ATOM      5  O   UNL     1       0.516  -3.618  -6.463  1.00  0.00    -0.463 OA
BRANCH   5   6
ATOM      6  C   UNL     1       1.403  -2.978  -5.661  1.00  0.00     0.309 C 
ATOM      7  O   UNL     1       2.621  -3.119  -5.696  1.00  0.00    -0.252 OA
BRANCH   6   8
ATOM      8  C   UNL     1       0.736  -2.103  -4.625  1.00  0.00     0.105 C 
ATOM      9  C   UNL     1       0.005  -2.256  -2.205  1.00  0.00     0.183 C 
ATOM     10  C   UNL     1      -1.262  -1.458  -2.564  1.00  0.00     0.065 C 
ATOM     11  C   UNL     1       0.569  -2.998  -3.410  1.00  0.00     0.080 C 
ATOM     12  C   UNL     1      -1.093  -0.600  -3.820  1.00  0.00     0.007 C 
ATOM     13  C   UNL     1      -0.580  -1.427  -5.002  1.00  0.00     0.016 C 
BRANCH   9  14
ATOM     14  N   UNL     1      -0.320  -3.152  -1.093  1.00  0.00    -0.341 N 
ATOM     15  H   UNL     1      -0.470  -2.570  -0.269  1.00  0.00     0.346 HD
ATOM     16  H   UNL     1      -1.131  -3.677  -1.420  1.00  0.00     0.346 HD
BRANCH  14  17
ATOM     17  C   UNL     1       0.652  -4.180  -0.726  1.00  0.00     0.299 C 
BRANCH  17  18
ATOM     18  C   UNL     1       1.323  -4.214   0.674  1.00  0.00     0.227 C 
ATOM     19  N   UNL     1       1.496  -1.907   1.880  1.00  0.00    -0.331 N 
ATOM     20  C   UNL     1       2.950  -2.080   1.679  1.00  0.00     0.291 C 
ATOM     21  C   UNL     1       0.850  -3.240   1.784  1.00  0.00     0.300 C 
ATOM     22  H   UNL     1       1.332  -1.514   2.807  1.00  0.00     0.348 HD
ATOM     23  C   UNL     1       3.304  -2.904   0.433  1.00  0.00     0.222 C 
ATOM     24  O   UNL     1       2.761  -4.221   0.537  1.00  0.00    -0.361 OA
BRANCH  19  25
ATOM     25  C   UNL     1       0.906  -0.934   0.961  1.00  0.00     0.258 C 
ATOM     26  C   UNL     1       1.297   0.514   1.222  1.00  0.00     0.071 C 
ENDBRANCH  19  25
ENDBRANCH  17  18
ENDBRANCH  14  17
ENDBRANCH   9  14
ENDBRANCH   6   8
ENDBRANCH   5   6
ENDBRANCH   4   5
ENDBRANCH   3   4
ENDBRANCH   2   3
ENDBRANCH   1   2
BRANCH   1  27
ATOM     27  C   UNL     1      -0.120  -1.357  -8.909  1.00  0.00     0.188 C 
BRANCH  27  28
ATOM     28  O   UNL     1      -1.051  -2.405  -8.672  1.00  0.00    -0.376 OA
BRANCH  28  29
ATOM     29  C   UNL     1      -2.423  -2.084  -8.941  1.00  0.00     0.202 C 
BRANCH  29  30
ATOM     30  C   UNL     1      -2.713  -1.396 -10.293  1.00  0.00     0.261 C 
BRANCH  30  31
ATOM     31  O   UNL     1      -2.091  -0.101 -10.460  1.00  0.00    -0.460 OA
BRANCH  31  32
ATOM     32  C   UNL     1      -2.321   0.833  -9.503  1.00  0.00     0.338 C 
ATOM     33  O   UNL     1      -3.198   0.806  -8.666  1.00  0.00    -0.246 OA
BRANCH  32  34
ATOM     34  C   UNL     1      -1.155   1.766  -9.463  1.00  0.00     0.060 A 
ATOM     35  C   UNL     1      -0.736   2.240  -8.210  1.00  0.00     0.016 A 
ATOM     36  C   UNL     1      -0.423   2.102 -10.607  1.00  0.00     0.016 A 
ATOM     37  C   UNL     1       0.368   3.092  -8.106  1.00  0.00     0.010 A 
ATOM     38  C   UNL     1       0.678   2.963 -10.504  1.00  0.00     0.010 A 
ATOM     39  C   UNL     1       1.055   3.496  -9.258  1.00  0.00    -0.014 A 
BRANCH  39  40
ATOM     40  C   UNL     1       2.002   4.640  -9.192  1.00  0.00     0.031 A 
ATOM     41  C   UNL     1       1.484   6.009  -9.549  1.00  0.00     0.074 A 
ATOM     42  C   UNL     1       3.285   4.501  -8.812  1.00  0.00     0.049 A 
ATOM     43  N   UNL     1       2.114   7.156  -9.586  1.00  0.00    -0.248 NA
ATOM     44  C   UNL     1       0.062   6.088  -9.916  1.00  0.00     0.031 C 
ATOM     45  C   UNL     1       3.922   3.253  -8.402  1.00  0.00     0.029 A 
ATOM     46  N   UNL     1       4.286   5.440  -8.720  1.00  0.00    -0.354 N 
ATOM     47  C   UNL     1       1.168   8.089  -9.991  1.00  0.00     0.074 A 
ATOM     48  C   UNL     1      -0.067   7.370 -10.216  1.00  0.00     0.031 C 
ATOM     49  C   UNL     1       5.213   3.501  -8.115  1.00  0.00     0.029 A 
ATOM     50  C   UNL     1       5.500   4.917  -8.348  1.00  0.00     0.049 A 
ATOM     51  H   UNL     1       4.146   6.397  -8.904  1.00  0.00     0.167 HD
ATOM     52  C   UNL     1       1.305   9.425 -10.161  1.00  0.00     0.031 A 
ATOM     53  C   UNL     1       6.708   5.505  -8.230  1.00  0.00     0.031 A 
ATOM     54  C   UNL     1       2.529  10.152  -9.964  1.00  0.00     0.049 A 
ATOM     55  C   UNL     1       6.862   6.981  -8.497  1.00  0.00     0.074 A 
ATOM     56  C   UNL     1       2.752  11.513 -10.086  1.00  0.00     0.029 A 
ATOM     57  N   UNL     1       3.743   9.577  -9.624  1.00  0.00    -0.354 N 
ATOM     58  N   UNL     1       5.950   7.860  -8.836  1.00  0.00    -0.248 NA
ATOM     59  C   UNL     1       8.214   7.545  -8.356  1.00  0.00     0.031 C 
ATOM     60  C   UNL     1       4.115  11.752  -9.885  1.00  0.00     0.029 A 
ATOM     61  C   UNL     1       4.728  10.550  -9.571  1.00  0.00     0.049 A 
ATOM     62  H   UNL     1       3.884   8.619  -9.447  1.00  0.00     0.167 HD
ATOM     63  C   UNL     1       6.612   9.081  -8.927  1.00  0.00     0.074 A 
ATOM     64  C   UNL     1       7.998   8.832  -8.594  1.00  0.00     0.031 C 
ATOM     65  C   UNL     1       6.110  10.299  -9.252  1.00  0.00     0.031 A 
BRANCH  52  66
ATOM     66  C   UNL     1       0.093  10.175 -10.641  1.00  0.00    -0.014 A 
ATOM     67  C   UNL     1      -1.027  10.365  -9.816  1.00  0.00     0.009 A 
ATOM     68  C   UNL     1       0.073  10.689 -11.946  1.00  0.00     0.009 A 
ATOM     69  C   UNL     1      -2.164  11.010 -10.308  1.00  0.00     0.001 A 
ATOM     70  C   UNL     1      -1.052  11.362 -12.424  1.00  0.00     0.001 A 
ATOM     71  C   UNL     1      -2.174  11.510 -11.610  1.00  0.00     0.000 A 
ENDBRANCH  52  66
BRANCH  53  72
ATOM     72  C   UNL     1       7.893   4.683  -7.863  1.00  0.00    -0.014 A 
ATOM     73  C   UNL     1       8.498   4.812  -6.604  1.00  0.00     0.009 A 
ATOM     74  C   UNL     1       8.426   3.765  -8.782  1.00  0.00     0.009 A 
ATOM     75  C   UNL     1       9.621   4.046  -6.278  1.00  0.00     0.001 A 
ATOM     76  C   UNL     1       9.531   2.982  -8.443  1.00  0.00     0.001 A 
ATOM     77  C   UNL     1      10.131   3.127  -7.194  1.00  0.00     0.000 A 
ENDBRANCH  53  72
BRANCH  65  78
ATOM     78  C   UNL     1       7.054  11.471  -9.241  1.00  0.00    -0.014 A 
ATOM     79  C   UNL     1       8.035  11.631 -10.233  1.00  0.00     0.009 A 
ATOM     80  C   UNL     1       6.923  12.461  -8.254  1.00  0.00     0.009 A 
ATOM     81  C   UNL     1       8.882  12.743 -10.218  1.00  0.00     0.001 A 
ATOM     82  C   UNL     1       7.751  13.585  -8.257  1.00  0.00     0.001 A 
ATOM     83  C   UNL     1       8.735  13.721  -9.234  1.00  0.00     0.000 A 
ENDBRANCH  65  78
ENDBRANCH  39  40
ENDBRANCH  32  34
ENDBRANCH  31  32
ENDBRANCH  30  31
ENDBRANCH  29  30
ENDBRANCH  28  29
ENDBRANCH  27  28
ENDBRANCH   1  27
TORSDOF 21
