REMARK SMILES COc1ccccc1[C@@H]1CN(C(=O)Cc2csc(C)n2)C[C@H]1C(=O)OCCOCCOCCOC(=O)c1ccc(-c2c3nc(c(-c4ccccc4)c4ccc([nH]4)c(-c4ccccc4)c4nc(c(-c5ccccc5)c5ccc2[nH]5)C=C4)C=C3)cc1
REMARK SMILES IDX 29 1 28 2 27 3 26 4 25 5 23 6 24 7 22 8 9 9 10 10 11 11
REMARK SMILES IDX 21 12 8 13 3 14 4 15 5 16 7 17 6 18 2 19 1 20 12 21 13 22
REMARK SMILES IDX 14 23 15 24 16 25 20 26 17 27 18 28 19 29 30 30 31 31 32 32
REMARK SMILES IDX 33 33 34 34 35 35 36 36 37 37 38 38 84 39 39 40 83 41 40 42
REMARK SMILES IDX 41 43 42 44 77 45 43 46 82 47 76 48 78 49 44 50 81 51 75 52
REMARK SMILES IDX 74 53 45 55 67 56 52 57 66 58 53 59 56 60 65 61 79 62 54 63
REMARK SMILES IDX 55 64 64 66 80 67 57 68 46 69 47 70 51 71 48 72 50 73 49 74
REMARK SMILES IDX 68 75 69 76 73 77 70 78 72 79 71 80 58 81 59 82 63 83 60 84
REMARK SMILES IDX 62 85 61 86
REMARK H PARENT 78 54 56 65
REMARK Flexibility Score: inf
ROOT
ATOM      1  C   UNL     1       1.985  -1.086  -4.497  1.00  0.00     0.188 C 
ENDROOT
BRANCH   1   2
ATOM      2  O   UNL     1       2.600  -0.199  -5.423  1.00  0.00    -0.376 OA
BRANCH   2   3
ATOM      3  C   UNL     1       4.001   0.019  -5.359  1.00  0.00     0.202 C 
BRANCH   3   4
ATOM      4  C   UNL     1       4.521   0.801  -4.149  1.00  0.00     0.261 C 
BRANCH   4   5
ATOM      5  O   UNL     1       4.303   0.169  -2.867  1.00  0.00    -0.463 OA
BRANCH   5   6
ATOM      6  C   UNL     1       3.393   0.772  -2.062  1.00  0.00     0.311 C 
ATOM      7  O   UNL     1       2.744   1.764  -2.382  1.00  0.00    -0.252 OA
BRANCH   6   8
ATOM      8  C   UNL     1       3.287   0.205  -0.661  1.00  0.00     0.128 C 
ATOM      9  C   UNL     1       3.619  -1.270  -0.326  1.00  0.00     0.058 C 
ATOM     10  C   UNL     1       4.250  -1.191   1.073  1.00  0.00     0.129 C 
ATOM     11  N   UNL     1       4.814   0.136   1.172  1.00  0.00    -0.341 N 
ATOM     12  C   UNL     1       4.228   1.038   0.207  1.00  0.00     0.135 C 
BRANCH   9  13
ATOM     13  C   UNL     1       2.490  -2.300  -0.248  1.00  0.00    -0.000 A 
ATOM     14  C   UNL     1       1.279  -2.080   0.438  1.00  0.00     0.122 A 
ATOM     15  C   UNL     1       0.338  -3.105   0.601  1.00  0.00     0.047 A 
ATOM     16  C   UNL     1       0.586  -4.373   0.078  1.00  0.00     0.004 A 
ATOM     17  C   UNL     1       2.724  -3.597  -0.748  1.00  0.00     0.008 A 
ATOM     18  C   UNL     1       1.779  -4.619  -0.596  1.00  0.00     0.001 A 
BRANCH  14  19
ATOM     19  O   UNL     1       1.099  -0.896   1.103  1.00  0.00    -0.496 OA
ATOM     20  C   UNL     1      -0.036  -0.165   0.642  1.00  0.00     0.278 C 
ENDBRANCH  14  19
ENDBRANCH   9  13
BRANCH  11  21
ATOM     21  C   UNL     1       5.642   0.602   2.170  1.00  0.00     0.228 C 
ATOM     22  O   UNL     1       6.025   1.774   2.192  1.00  0.00    -0.274 OA
BRANCH  21  23
ATOM     23  C   UNL     1       6.055  -0.372   3.261  1.00  0.00     0.157 C 
BRANCH  23  24
ATOM     24  C   UNL     1       4.919  -0.667   4.186  1.00  0.00     0.061 A 
ATOM     25  C   UNL     1       4.100   0.253   4.814  1.00  0.00     0.091 A 
ATOM     26  N   UNL     1       4.599  -1.994   4.442  1.00  0.00    -0.246 NA
ATOM     27  S   UNL     1       2.893  -0.551   5.721  1.00  0.00    -0.127 S 
ATOM     28  C   UNL     1       3.549  -2.062   5.234  1.00  0.00     0.090 A 
ATOM     29  C   UNL     1       2.928  -3.328   5.707  1.00  0.00     0.079 C 
ENDBRANCH  23  24
ENDBRANCH  21  23
ENDBRANCH  11  21
ENDBRANCH   6   8
ENDBRANCH   5   6
ENDBRANCH   4   5
ENDBRANCH   3   4
ENDBRANCH   2   3
ENDBRANCH   1   2
BRANCH   1  30
ATOM     30  C   UNL     1       2.801  -2.223  -3.870  1.00  0.00     0.188 C 
BRANCH  30  31
ATOM     31  O   UNL     1       3.779  -2.787  -4.728  1.00  0.00    -0.376 OA
BRANCH  31  32
ATOM     32  C   UNL     1       3.685  -4.196  -4.890  1.00  0.00     0.202 C 
BRANCH  32  33
ATOM     33  C   UNL     1       2.647  -4.537  -5.962  1.00  0.00     0.261 C 
BRANCH  33  34
ATOM     34  O   UNL     1       1.302  -4.178  -5.589  1.00  0.00    -0.460 OA
BRANCH  34  35
ATOM     35  C   UNL     1       0.751  -4.913  -4.604  1.00  0.00     0.338 C 
ATOM     36  O   UNL     1       1.254  -5.863  -4.013  1.00  0.00    -0.246 OA
BRANCH  35  37
ATOM     37  C   UNL     1      -0.535  -4.309  -4.231  1.00  0.00     0.060 A 
ATOM     38  C   UNL     1      -0.614  -3.552  -3.059  1.00  0.00     0.016 A 
ATOM     39  C   UNL     1      -1.677  -4.558  -4.986  1.00  0.00     0.016 A 
ATOM     40  C   UNL     1      -1.843  -3.096  -2.593  1.00  0.00     0.010 A 
ATOM     41  C   UNL     1      -2.911  -4.081  -4.531  1.00  0.00     0.010 A 
ATOM     42  C   UNL     1      -3.006  -3.382  -3.312  1.00  0.00    -0.014 A 
BRANCH  42  43
ATOM     43  C   UNL     1      -4.333  -3.080  -2.724  1.00  0.00     0.031 A 
ATOM     44  C   UNL     1      -5.191  -4.219  -2.248  1.00  0.00     0.074 A 
ATOM     45  C   UNL     1      -4.762  -1.814  -2.579  1.00  0.00     0.049 A 
ATOM     46  N   UNL     1      -6.443  -4.213  -1.870  1.00  0.00    -0.248 NA
ATOM     47  C   UNL     1      -4.548  -5.543  -2.191  1.00  0.00     0.031 C 
ATOM     48  C   UNL     1      -3.994  -0.611  -2.898  1.00  0.00     0.029 A 
ATOM     49  N   UNL     1      -5.965  -1.334  -2.123  1.00  0.00    -0.354 N 
ATOM     50  C   UNL     1      -6.752  -5.535  -1.577  1.00  0.00     0.074 A 
ATOM     51  C   UNL     1      -5.557  -6.315  -1.817  1.00  0.00     0.031 C 
ATOM     52  C   UNL     1      -4.747   0.470  -2.632  1.00  0.00     0.029 A 
ATOM     53  C   UNL     1      -6.069   0.033  -2.190  1.00  0.00     0.049 A 
ATOM     54  H   UNL     1      -6.684  -1.915  -1.783  1.00  0.00     0.167 HD
ATOM     55  C   UNL     1      -7.929  -6.054  -1.156  1.00  0.00     0.031 A 
ATOM     56  C   UNL     1      -7.125   0.838  -1.967  1.00  0.00     0.031 A 
ATOM     57  C   UNL     1      -9.111  -5.276  -0.902  1.00  0.00     0.049 A 
ATOM     58  C   UNL     1      -8.449   0.233  -1.587  1.00  0.00     0.074 A 
ATOM     59  C   UNL     1     -10.357  -5.711  -0.485  1.00  0.00     0.029 A 
ATOM     60  N   UNL     1      -9.189  -3.899  -1.033  1.00  0.00    -0.354 N 
ATOM     61  N   UNL     1      -8.753  -1.025  -1.375  1.00  0.00    -0.248 NA
ATOM     62  C   UNL     1      -9.580   1.160  -1.431  1.00  0.00     0.031 C 
ATOM     63  C   UNL     1     -11.203  -4.598  -0.405  1.00  0.00     0.029 A 
ATOM     64  C   UNL     1     -10.467  -3.468  -0.723  1.00  0.00     0.049 A 
ATOM     65  H   UNL     1      -8.446  -3.314  -1.307  1.00  0.00     0.167 HD
ATOM     66  C   UNL     1     -10.103  -1.038  -1.044  1.00  0.00     0.074 A 
ATOM     67  C   UNL     1     -10.554   0.338  -1.067  1.00  0.00     0.031 C 
ATOM     68  C   UNL     1     -10.899  -2.095  -0.751  1.00  0.00     0.031 A 
BRANCH  55  69
ATOM     69  C   UNL     1      -8.007  -7.545  -1.002  1.00  0.00    -0.014 A 
ATOM     70  C   UNL     1      -7.390  -8.208   0.070  1.00  0.00     0.009 A 
ATOM     71  C   UNL     1      -8.729  -8.296  -1.944  1.00  0.00     0.009 A 
ATOM     72  C   UNL     1      -7.469  -9.598   0.177  1.00  0.00     0.001 A 
ATOM     73  C   UNL     1      -8.826  -9.682  -1.820  1.00  0.00     0.001 A 
ATOM     74  C   UNL     1      -8.189 -10.333  -0.765  1.00  0.00     0.000 A 
ENDBRANCH  55  69
BRANCH  56  75
ATOM     75  C   UNL     1      -6.997   2.306  -2.162  1.00  0.00    -0.014 A 
ATOM     76  C   UNL     1      -7.055   3.181  -1.067  1.00  0.00     0.009 A 
ATOM     77  C   UNL     1      -6.835   2.840  -3.450  1.00  0.00     0.009 A 
ATOM     78  C   UNL     1      -6.972   4.562  -1.262  1.00  0.00     0.001 A 
ATOM     79  C   UNL     1      -6.724   4.219  -3.639  1.00  0.00     0.001 A 
ATOM     80  C   UNL     1      -6.801   5.079  -2.546  1.00  0.00     0.000 A 
ENDBRANCH  56  75
BRANCH  68  81
ATOM     81  C   UNL     1     -12.328  -1.802  -0.396  1.00  0.00    -0.014 A 
ATOM     82  C   UNL     1     -13.262  -1.440  -1.378  1.00  0.00     0.009 A 
ATOM     83  C   UNL     1     -12.753  -1.929   0.936  1.00  0.00     0.009 A 
ATOM     84  C   UNL     1     -14.589  -1.183  -1.028  1.00  0.00     0.001 A 
ATOM     85  C   UNL     1     -14.085  -1.696   1.279  1.00  0.00     0.001 A 
ATOM     86  C   UNL     1     -15.000  -1.315   0.299  1.00  0.00     0.000 A 
ENDBRANCH  68  81
ENDBRANCH  42  43
ENDBRANCH  35  37
ENDBRANCH  34  35
ENDBRANCH  33  34
ENDBRANCH  32  33
ENDBRANCH  31  32
ENDBRANCH  30  31
ENDBRANCH   1  30
TORSDOF 22
