REMARK SMILES Cc1ccc(N2C(=O)N=C(OCCOCCOCCOC(=O)c3ccc(-c4c5nc(c(-c6ccccc6)c6ccc([nH]6)c(-c6ccccc6)c6nc(c(-c7ccccc7)c7ccc4[nH]7)C=C6)C=C5)cc3)/C(=C/c3ccccc3OCc3cccc(C(=O)[O-])c3)C2=O)cc1
REMARK SMILES IDX 15 1 14 2 13 3 12 4 11 5 10 6 6 7 7 8 90 9 8 10 9 11 71 12
REMARK SMILES IDX 91 13 72 14 5 15 1 16 2 17 3 18 93 19 4 20 92 21 73 22 74 23
REMARK SMILES IDX 78 24 75 25 77 26 76 27 79 28 80 29 81 30 82 31 89 32 83 33
REMARK SMILES IDX 85 34 84 35 86 36 87 37 88 38 16 39 17 40 18 41 19 42 20 43
REMARK SMILES IDX 21 44 22 45 23 46 24 47 70 48 25 49 69 50 26 51 27 52 28 53
REMARK SMILES IDX 63 54 29 55 68 56 62 57 64 58 30 59 67 60 61 61 60 62 31 64
REMARK SMILES IDX 53 65 38 66 52 67 39 68 42 69 51 70 65 71 40 72 41 73 50 75
REMARK SMILES IDX 66 76 43 77 32 78 33 79 37 80 34 81 36 82 35 83 54 84 55 85
REMARK SMILES IDX 59 86 56 87 58 88 57 89 44 90 45 91 49 92 46 93 48 94 47 95
REMARK H PARENT 64 63 42 74
REMARK Flexibility Score: inf
ROOT
ATOM      1  C   UNL     1      -6.586   6.284  -0.529  1.00  0.00     0.188 C 
ENDROOT
BRANCH   1   2
ATOM      2  O   UNL     1      -8.004   6.119  -0.632  1.00  0.00    -0.376 OA
BRANCH   2   3
ATOM      3  C   UNL     1      -8.385   4.839  -1.153  1.00  0.00     0.201 C 
BRANCH   3   4
ATOM      4  C   UNL     1      -8.132   3.704  -0.165  1.00  0.00     0.260 C 
BRANCH   4   5
ATOM      5  O   UNL     1      -6.715   3.690   0.208  1.00  0.00    -0.475 OA
BRANCH   5   6
ATOM      6  C   UNL     1      -5.545   3.094  -0.061  1.00  0.00     0.231 C 
ATOM      7  N   UNL     1      -3.049   1.882  -0.035  1.00  0.00    -0.226 N 
ATOM      8  C   UNL     1      -3.381   2.922   0.810  1.00  0.00     0.358 C 
ATOM      9  C   UNL     1      -4.117   1.145  -0.497  1.00  0.00     0.272 C 
ATOM     10  O   UNL     1      -2.676   3.231   1.767  1.00  0.00    -0.245 OA
ATOM     11  N   UNL     1      -4.586   3.540   0.667  1.00  0.00    -0.156 NA
ATOM     12  C   UNL     1      -5.464   1.923  -0.962  1.00  0.00     0.103 C 
ATOM     13  O   UNL     1      -3.989  -0.082  -0.464  1.00  0.00    -0.268 OA
ATOM     14  C   UNL     1      -6.696   1.773  -1.619  1.00  0.00     0.031 C 
BRANCH   7  15
ATOM     15  C   UNL     1      -1.668   1.327   0.009  1.00  0.00     0.054 A 
ATOM     16  C   UNL     1       2.495  -0.081   0.011  1.00  0.00     0.044 C 
ATOM     17  C   UNL     1       1.074   0.404  -0.003  1.00  0.00    -0.051 A 
ATOM     18  C   UNL     1       0.023  -0.475  -0.246  1.00  0.00     0.005 A 
ATOM     19  C   UNL     1       0.757   1.735   0.263  1.00  0.00     0.005 A 
ATOM     20  C   UNL     1      -1.314  -0.019  -0.253  1.00  0.00     0.027 A 
ATOM     21  C   UNL     1      -0.580   2.181   0.266  1.00  0.00     0.027 A 
ENDBRANCH   7  15
BRANCH  14  22
ATOM     22  C   UNL     1      -7.997   0.920  -2.321  1.00  0.00     0.018 A 
ATOM     23  C   UNL     1      -8.755   1.839  -3.102  1.00  0.00     0.012 A 
ATOM     24  C   UNL     1      -8.625  -0.495  -2.271  1.00  0.00     0.127 A 
ATOM     25  C   UNL     1     -10.030   1.556  -3.612  1.00  0.00     0.001 A 
ATOM     26  C   UNL     1      -9.945  -0.691  -2.744  1.00  0.00     0.047 A 
ATOM     27  C   UNL     1     -10.642   0.331  -3.377  1.00  0.00     0.004 A 
BRANCH  24  28
ATOM     28  O   UNL     1      -7.992  -2.028  -2.276  1.00  0.00    -0.488 OA
BRANCH  28  29
ATOM     29  C   UNL     1      -6.548  -2.921  -2.058  1.00  0.00     0.265 C 
BRANCH  29  30
ATOM     30  C   UNL     1      -5.803  -3.767  -0.940  1.00  0.00    -0.010 A 
ATOM     31  C   UNL     1      -4.428  -3.557  -0.707  1.00  0.00     0.007 A 
ATOM     32  C   UNL     1      -6.323  -4.945  -0.390  1.00  0.00     0.017 A 
ATOM     33  C   UNL     1      -3.644  -4.485   0.009  1.00  0.00     0.001 A 
ATOM     34  C   UNL     1      -5.570  -5.864   0.353  1.00  0.00    -0.002 A 
ATOM     35  C   UNL     1      -4.212  -5.647   0.530  1.00  0.00     0.010 A 
BRANCH  34  36
ATOM     36  C   UNL     1      -6.205  -7.109   0.853  1.00  0.00     0.071 C 
ATOM     37  O   UNL     1      -5.647  -8.164   1.070  1.00  0.00    -0.545 OA
ATOM     38  O   UNL     1      -7.528  -6.949   1.060  1.00  0.00    -0.545 OA
ENDBRANCH  34  36
ENDBRANCH  29  30
ENDBRANCH  28  29
ENDBRANCH  24  28
ENDBRANCH  14  22
ENDBRANCH   5   6
ENDBRANCH   4   5
ENDBRANCH   3   4
ENDBRANCH   2   3
ENDBRANCH   1   2
BRANCH   1  39
ATOM     39  C   UNL     1      -6.098   6.483   0.918  1.00  0.00     0.188 C 
BRANCH  39  40
ATOM     40  O   UNL     1      -6.555   5.561   1.900  1.00  0.00    -0.376 OA
BRANCH  40  41
ATOM     41  C   UNL     1      -7.799   5.851   2.526  1.00  0.00     0.202 C 
BRANCH  41  42
ATOM     42  C   UNL     1      -7.806   5.128   3.880  1.00  0.00     0.261 C 
BRANCH  42  43
ATOM     43  O   UNL     1      -7.860   3.702   3.650  1.00  0.00    -0.460 OA
BRANCH  43  44
ATOM     44  C   UNL     1      -6.719   2.982   3.849  1.00  0.00     0.338 C 
ATOM     45  O   UNL     1      -5.774   3.301   4.546  1.00  0.00    -0.246 OA
BRANCH  44  46
ATOM     46  C   UNL     1      -6.747   1.763   2.974  1.00  0.00     0.060 A 
ATOM     47  C   UNL     1      -5.602   0.972   2.787  1.00  0.00     0.016 A 
ATOM     48  C   UNL     1      -7.867   1.470   2.208  1.00  0.00     0.016 A 
ATOM     49  C   UNL     1      -5.535   0.007   1.747  1.00  0.00     0.010 A 
ATOM     50  C   UNL     1      -7.755   0.594   1.125  1.00  0.00     0.010 A 
ATOM     51  C   UNL     1      -6.551  -0.084   0.790  1.00  0.00    -0.014 A 
BRANCH  51  52
ATOM     52  C   UNL     1      -6.640  -0.927  -0.526  1.00  0.00     0.031 A 
ATOM     53  C   UNL     1      -7.929  -2.002   0.024  1.00  0.00     0.074 A 
ATOM     54  C   UNL     1      -6.046  -0.655  -1.964  1.00  0.00     0.049 A 
ATOM     55  N   UNL     1      -9.076  -2.314  -0.528  1.00  0.00    -0.248 NA
ATOM     56  C   UNL     1      -7.790  -2.796   1.258  1.00  0.00     0.031 C 
ATOM     57  C   UNL     1      -6.657  -0.807  -3.542  1.00  0.00     0.029 A 
ATOM     58  N   UNL     1      -4.838  -0.194  -2.529  1.00  0.00    -0.354 N 
ATOM     59  C   UNL     1      -9.369  -3.619  -0.255  1.00  0.00     0.074 A 
ATOM     60  C   UNL     1      -8.726  -3.751   1.067  1.00  0.00     0.031 C 
ATOM     61  C   UNL     1      -6.067  -0.073  -4.462  1.00  0.00     0.029 A 
ATOM     62  C   UNL     1      -4.781   0.048  -3.903  1.00  0.00     0.049 A 
ATOM     63  H   UNL     1      -4.046  -0.045  -1.963  1.00  0.00     0.167 HD
ATOM     64  C   UNL     1      -9.547  -4.641  -1.199  1.00  0.00     0.031 A 
ATOM     65  C   UNL     1      -3.833  -0.392  -4.745  1.00  0.00     0.031 A 
ATOM     66  C   UNL     1      -9.024  -4.595  -2.654  1.00  0.00     0.049 A 
ATOM     67  C   UNL     1      -4.078  -1.866  -5.168  1.00  0.00     0.074 A 
ATOM     68  C   UNL     1      -9.445  -3.992  -3.839  1.00  0.00     0.029 A 
ATOM     69  N   UNL     1      -7.887  -5.349  -3.130  1.00  0.00    -0.354 N 
ATOM     70  N   UNL     1      -5.194  -2.561  -4.942  1.00  0.00    -0.248 NA
ATOM     71  C   UNL     1      -3.094  -2.689  -5.846  1.00  0.00     0.031 C 
ATOM     72  C   UNL     1      -8.392  -4.046  -4.835  1.00  0.00     0.029 A 
ATOM     73  C   UNL     1      -7.314  -4.763  -4.339  1.00  0.00     0.049 A 
ATOM     74  H   UNL     1      -7.540  -6.160  -2.692  1.00  0.00     0.167 HD
ATOM     75  C   UNL     1      -5.024  -3.907  -5.197  1.00  0.00     0.074 A 
ATOM     76  C   UNL     1      -3.706  -3.892  -5.858  1.00  0.00     0.031 C 
ATOM     77  C   UNL     1      -5.854  -4.960  -4.781  1.00  0.00     0.031 A 
BRANCH  64  78
ATOM     78  C   UNL     1     -10.721  -5.543  -0.859  1.00  0.00    -0.014 A 
ATOM     79  C   UNL     1     -11.518  -6.032  -1.910  1.00  0.00     0.009 A 
ATOM     80  C   UNL     1     -11.167  -5.823   0.447  1.00  0.00     0.009 A 
ATOM     81  C   UNL     1     -12.710  -6.724  -1.673  1.00  0.00     0.001 A 
ATOM     82  C   UNL     1     -12.359  -6.515   0.690  1.00  0.00     0.001 A 
ATOM     83  C   UNL     1     -13.135  -6.958  -0.372  1.00  0.00     0.000 A 
ENDBRANCH  64  78
BRANCH  65  84
ATOM     84  C   UNL     1      -2.921   0.783  -4.864  1.00  0.00    -0.014 A 
ATOM     85  C   UNL     1      -3.529   2.010  -5.304  1.00  0.00     0.009 A 
ATOM     86  C   UNL     1      -1.863   0.911  -3.954  1.00  0.00     0.009 A 
ATOM     87  C   UNL     1      -3.226   3.250  -4.715  1.00  0.00     0.001 A 
ATOM     88  C   UNL     1      -1.522   2.170  -3.417  1.00  0.00     0.001 A 
ATOM     89  C   UNL     1      -2.233   3.324  -3.750  1.00  0.00     0.000 A 
ENDBRANCH  65  84
BRANCH  77  90
ATOM     90  C   UNL     1      -5.271  -6.371  -4.716  1.00  0.00    -0.014 A 
ATOM     91  C   UNL     1      -3.898  -6.659  -4.580  1.00  0.00     0.009 A 
ATOM     92  C   UNL     1      -6.139  -7.476  -4.670  1.00  0.00     0.009 A 
ATOM     93  C   UNL     1      -3.413  -7.971  -4.512  1.00  0.00     0.001 A 
ATOM     94  C   UNL     1      -5.667  -8.785  -4.514  1.00  0.00     0.001 A 
ATOM     95  C   UNL     1      -4.302  -9.035  -4.467  1.00  0.00     0.000 A 
ENDBRANCH  77  90
ENDBRANCH  51  52
ENDBRANCH  44  46
ENDBRANCH  43  44
ENDBRANCH  42  43
ENDBRANCH  41  42
ENDBRANCH  40  41
ENDBRANCH  39  40
ENDBRANCH   1  39
TORSDOF 22
