REMARK SMILES CC[C@H](C(=O)OCCOCCOCCOC(=O)c1ccc(-c2c3nc(c(-c4ccccc4)c4ccc([nH]4)c(-c4ccccc4)c4nc(c(-c5ccccc5)c5ccc2[nH]5)C=C4)C=C3)cc1)N1C(=O)c2ccc([N+](=O)[O-])cc2C1=O
REMARK SMILES IDX 10 1 9 2 8 3 7 4 6 5 4 6 5 7 3 8 2 9 1 10 66 11 67 12 78 13
REMARK SMILES IDX 68 14 69 15 77 16 79 17 70 18 76 19 71 20 72 21 73 22 74 23
REMARK SMILES IDX 75 24 11 25 12 26 13 27 14 28 15 29 16 30 17 31 18 32 19 33
REMARK SMILES IDX 65 34 20 35 64 36 21 37 22 38 23 39 58 40 24 41 63 42 57 43
REMARK SMILES IDX 59 44 25 45 62 46 56 47 55 48 26 50 48 51 33 52 47 53 34 54
REMARK SMILES IDX 37 55 46 56 60 57 35 58 36 59 45 61 61 62 38 63 27 64 28 65
REMARK SMILES IDX 32 66 29 67 31 68 30 69 49 70 50 71 54 72 51 73 53 74 52 75
REMARK SMILES IDX 39 76 40 77 44 78 41 79 43 80 42 81
REMARK H PARENT 59 49 37 60
REMARK Flexibility Score: inf
ROOT
ATOM      1  C   UNL     1       0.022   1.302  -0.281  1.00  0.00     0.188 C 
ENDROOT
BRANCH   1   2
ATOM      2  O   UNL     1      -0.980   1.886  -1.101  1.00  0.00    -0.376 OA
BRANCH   2   3
ATOM      3  C   UNL     1      -1.912   0.967  -1.679  1.00  0.00     0.202 C 
BRANCH   3   4
ATOM      4  C   UNL     1      -1.275  -0.172  -2.482  1.00  0.00     0.261 C 
BRANCH   4   5
ATOM      5  O   UNL     1      -0.611  -1.140  -1.639  1.00  0.00    -0.462 OA
BRANCH   5   6
ATOM      6  C   UNL     1       0.567  -1.663  -2.084  1.00  0.00     0.329 C 
ATOM      7  O   UNL     1       1.198  -1.219  -3.037  1.00  0.00    -0.250 OA
BRANCH   6   8
ATOM      8  C   UNL     1       0.865  -3.032  -1.446  1.00  0.00     0.203 C 
BRANCH   8   9
ATOM      9  C   UNL     1       0.675  -3.167   0.064  1.00  0.00     0.034 C 
ATOM     10  C   UNL     1       1.898  -2.684   0.837  1.00  0.00     0.007 C 
ENDBRANCH   8   9
BRANCH   8  11
ATOM     11  N   UNL     1       0.044  -3.950  -2.230  1.00  0.00    -0.260 N 
ATOM     12  C   UNL     1      -1.324  -3.919  -2.250  1.00  0.00     0.262 C 
ATOM     13  C   UNL     1       0.541  -4.826  -3.152  1.00  0.00     0.262 C 
ATOM     14  O   UNL     1      -2.116  -3.389  -1.499  1.00  0.00    -0.269 OA
ATOM     15  C   UNL     1      -1.728  -4.673  -3.424  1.00  0.00     0.053 A 
ATOM     16  C   UNL     1      -0.605  -5.307  -3.923  1.00  0.00     0.060 A 
ATOM     17  O   UNL     1       1.692  -5.154  -3.365  1.00  0.00    -0.269 OA
ATOM     18  C   UNL     1      -2.962  -4.738  -4.041  1.00  0.00     0.022 A 
ATOM     19  C   UNL     1      -0.670  -6.150  -5.013  1.00  0.00     0.100 A 
ATOM     20  C   UNL     1      -3.058  -5.548  -5.173  1.00  0.00     0.086 A 
ATOM     21  C   UNL     1      -1.928  -6.276  -5.624  1.00  0.00     0.270 A 
BRANCH  21  22
ATOM     22  N   UNL     1      -2.085  -7.198  -6.749  1.00  0.00     0.062 N 
ATOM     23  O   UNL     1      -3.015  -6.983  -7.537  1.00  0.00    -0.258 OA
ATOM     24  O   UNL     1      -1.289  -8.142  -6.824  1.00  0.00    -0.258 OA
ENDBRANCH  21  22
ENDBRANCH   8  11
ENDBRANCH   6   8
ENDBRANCH   5   6
ENDBRANCH   4   5
ENDBRANCH   3   4
ENDBRANCH   2   3
ENDBRANCH   1   2
BRANCH   1  25
ATOM     25  C   UNL     1      -0.477   0.669   1.019  1.00  0.00     0.188 C 
BRANCH  25  26
ATOM     26  O   UNL     1      -1.655  -0.122   0.936  1.00  0.00    -0.376 OA
BRANCH  26  27
ATOM     27  C   UNL     1      -2.012  -0.818   2.138  1.00  0.00     0.202 C 
BRANCH  27  28
ATOM     28  C   UNL     1      -2.300   0.071   3.362  1.00  0.00     0.261 C 
BRANCH  28  29
ATOM     29  O   UNL     1      -1.194   0.881   3.814  1.00  0.00    -0.460 OA
BRANCH  29  30
ATOM     30  C   UNL     1      -0.004   0.278   4.047  1.00  0.00     0.338 C 
ATOM     31  O   UNL     1       0.199  -0.917   4.162  1.00  0.00    -0.246 OA
BRANCH  30  32
ATOM     32  C   UNL     1       1.068   1.296   3.849  1.00  0.00     0.060 A 
ATOM     33  C   UNL     1       2.263   0.903   3.224  1.00  0.00     0.016 A 
ATOM     34  C   UNL     1       0.866   2.642   4.170  1.00  0.00     0.016 A 
ATOM     35  C   UNL     1       3.266   1.841   2.954  1.00  0.00     0.010 A 
ATOM     36  C   UNL     1       1.871   3.576   3.912  1.00  0.00     0.010 A 
ATOM     37  C   UNL     1       3.090   3.177   3.334  1.00  0.00    -0.014 A 
BRANCH  37  38
ATOM     38  C   UNL     1       4.235   4.121   3.381  1.00  0.00     0.031 A 
ATOM     39  C   UNL     1       4.919   4.308   4.709  1.00  0.00     0.074 A 
ATOM     40  C   UNL     1       4.643   4.831   2.314  1.00  0.00     0.049 A 
ATOM     41  N   UNL     1       5.802   5.200   5.074  1.00  0.00    -0.248 NA
ATOM     42  C   UNL     1       4.542   3.359   5.771  1.00  0.00     0.031 C 
ATOM     43  C   UNL     1       4.130   4.702   0.953  1.00  0.00     0.029 A 
ATOM     44  N   UNL     1       5.585   5.828   2.227  1.00  0.00    -0.354 N 
ATOM     45  C   UNL     1       6.067   4.934   6.412  1.00  0.00     0.074 A 
ATOM     46  C   UNL     1       5.241   3.812   6.798  1.00  0.00     0.031 C 
ATOM     47  C   UNL     1       4.753   5.600   0.167  1.00  0.00     0.029 A 
ATOM     48  C   UNL     1       5.668   6.402   0.981  1.00  0.00     0.049 A 
ATOM     49  H   UNL     1       6.148   6.105   2.986  1.00  0.00     0.167 HD
ATOM     50  C   UNL     1       6.921   5.566   7.250  1.00  0.00     0.031 A 
ATOM     51  C   UNL     1       6.370   7.474   0.559  1.00  0.00     0.031 A 
ATOM     52  C   UNL     1       7.731   6.692   6.879  1.00  0.00     0.049 A 
ATOM     53  C   UNL     1       7.230   8.237   1.539  1.00  0.00     0.074 A 
ATOM     54  C   UNL     1       8.613   7.413   7.664  1.00  0.00     0.029 A 
ATOM     55  N   UNL     1       7.757   7.260   5.616  1.00  0.00    -0.354 N 
ATOM     56  N   UNL     1       7.463   7.991   2.806  1.00  0.00    -0.248 NA
ATOM     57  C   UNL     1       7.921   9.432   1.028  1.00  0.00     0.031 C 
ATOM     58  C   UNL     1       9.137   8.450   6.887  1.00  0.00     0.029 A 
ATOM     59  C   UNL     1       8.629   8.333   5.604  1.00  0.00     0.049 A 
ATOM     60  H   UNL     1       7.234   6.946   4.843  1.00  0.00     0.167 HD
ATOM     61  C   UNL     1       8.358   8.969   3.227  1.00  0.00     0.074 A 
ATOM     62  C   UNL     1       8.627   9.814   2.084  1.00  0.00     0.031 C 
ATOM     63  C   UNL     1       8.912   9.147   4.451  1.00  0.00     0.031 A 
BRANCH  50  64
ATOM     64  C   UNL     1       6.983   5.074   8.666  1.00  0.00    -0.014 A 
ATOM     65  C   UNL     1       7.582   3.846   8.985  1.00  0.00     0.009 A 
ATOM     66  C   UNL     1       6.451   5.862   9.698  1.00  0.00     0.009 A 
ATOM     67  C   UNL     1       7.617   3.401  10.308  1.00  0.00     0.001 A 
ATOM     68  C   UNL     1       6.514   5.429  11.023  1.00  0.00     0.001 A 
ATOM     69  C   UNL     1       7.089   4.196  11.326  1.00  0.00     0.000 A 
ENDBRANCH  50  64
BRANCH  51  70
ATOM     70  C   UNL     1       6.273   7.936  -0.853  1.00  0.00    -0.014 A 
ATOM     71  C   UNL     1       7.385   7.858  -1.707  1.00  0.00     0.009 A 
ATOM     72  C   UNL     1       5.088   8.510  -1.338  1.00  0.00     0.009 A 
ATOM     73  C   UNL     1       7.320   8.374  -3.005  1.00  0.00     0.001 A 
ATOM     74  C   UNL     1       5.017   8.997  -2.645  1.00  0.00     0.001 A 
ATOM     75  C   UNL     1       6.136   8.940  -3.474  1.00  0.00     0.000 A 
ENDBRANCH  51  70
BRANCH  63  76
ATOM     76  C   UNL     1       9.928  10.243   4.614  1.00  0.00    -0.014 A 
ATOM     77  C   UNL     1       9.553  11.593   4.670  1.00  0.00     0.009 A 
ATOM     78  C   UNL     1      11.278   9.903   4.807  1.00  0.00     0.009 A 
ATOM     79  C   UNL     1      10.515  12.582   4.895  1.00  0.00     0.001 A 
ATOM     80  C   UNL     1      12.231  10.890   5.059  1.00  0.00     0.001 A 
ATOM     81  C   UNL     1      11.849  12.229   5.098  1.00  0.00     0.000 A 
ENDBRANCH  63  76
ENDBRANCH  37  38
ENDBRANCH  30  32
ENDBRANCH  29  30
ENDBRANCH  28  29
ENDBRANCH  27  28
ENDBRANCH  26  27
ENDBRANCH  25  26
ENDBRANCH   1  25
TORSDOF 20
