REMARK SMILES O=C(OCCOCCOCCOC(=O)[C@@H]1[C@H](C(=O)NCc2ccncc2)[C@H]2C=C[C@@H]1O2)c1ccc(-c2c3nc(c(-c4ccccc4)c4ccc([nH]4)c(-c4ccccc4)c4nc(c(-c5ccccc5)c5ccc2[nH]5)C=C4)C=C3)cc1
REMARK SMILES IDX 8 1 7 2 6 3 5 4 4 5 3 6 2 7 1 8 32 9 33 10 79 11 34 12 78 13
REMARK SMILES IDX 35 14 36 15 37 16 72 17 38 18 77 19 71 20 73 21 39 22 76 23
REMARK SMILES IDX 70 24 69 25 40 27 62 28 47 29 61 30 48 31 51 32 60 33 74 34
REMARK SMILES IDX 49 35 50 36 59 38 75 39 52 40 41 41 42 42 46 43 43 44 45 45
REMARK SMILES IDX 44 46 63 47 64 48 68 49 65 50 67 51 66 52 53 53 54 54 58 55
REMARK SMILES IDX 55 56 57 57 56 58 9 59 10 60 11 61 12 62 13 63 14 64 15 65
REMARK SMILES IDX 16 66 30 67 27 68 29 69 31 70 28 71 17 72 18 73 19 74 20 76
REMARK SMILES IDX 21 77 22 78 26 79 23 80 25 81 24 82
REMARK H PARENT 73 26 51 37 19 75
REMARK Flexibility Score: inf
ROOT
ATOM      1  C   UNL     1       2.281  -0.145   2.955  1.00  0.00     0.188 C 
ENDROOT
BRANCH   1   2
ATOM      2  C   UNL     1       2.686   0.682   1.742  1.00  0.00     0.188 C 
BRANCH   2   3
ATOM      3  O   UNL     1       3.925   0.216   1.200  1.00  0.00    -0.376 OA
BRANCH   3   4
ATOM      4  C   UNL     1       4.753   1.264   0.697  1.00  0.00     0.202 C 
BRANCH   4   5
ATOM      5  C   UNL     1       4.376   1.738  -0.713  1.00  0.00     0.261 C 
BRANCH   5   6
ATOM      6  O   UNL     1       2.988   1.532  -1.026  1.00  0.00    -0.460 OA
BRANCH   6   7
ATOM      7  C   UNL     1       2.441   0.539  -1.769  1.00  0.00     0.338 C 
ATOM      8  O   UNL     1       1.285   0.675  -2.168  1.00  0.00    -0.246 OA
BRANCH   7   9
ATOM      9  C   UNL     1       3.163  -0.720  -2.146  1.00  0.00     0.060 A 
ATOM     10  C   UNL     1       4.266  -1.247  -1.474  1.00  0.00     0.016 A 
ATOM     11  C   UNL     1       2.640  -1.467  -3.216  1.00  0.00     0.016 A 
ATOM     12  C   UNL     1       4.880  -2.428  -1.880  1.00  0.00     0.010 A 
ATOM     13  C   UNL     1       3.225  -2.679  -3.609  1.00  0.00     0.010 A 
ATOM     14  C   UNL     1       4.365  -3.152  -2.950  1.00  0.00    -0.014 A 
BRANCH  14  15
ATOM     15  C   UNL     1       5.101  -4.342  -3.420  1.00  0.00     0.031 A 
ATOM     16  C   UNL     1       5.920  -4.233  -4.665  1.00  0.00     0.074 A 
ATOM     17  C   UNL     1       5.140  -5.463  -2.678  1.00  0.00     0.049 A 
ATOM     18  N   UNL     1       6.597  -5.160  -5.286  1.00  0.00    -0.248 NA
ATOM     19  C   UNL     1       6.021  -2.895  -5.271  1.00  0.00     0.031 C 
ATOM     20  C   UNL     1       4.525  -5.617  -1.362  1.00  0.00     0.029 A 
ATOM     21  N   UNL     1       5.735  -6.676  -2.908  1.00  0.00    -0.354 N 
ATOM     22  C   UNL     1       7.205  -4.520  -6.354  1.00  0.00     0.074 A 
ATOM     23  C   UNL     1       6.806  -3.131  -6.311  1.00  0.00     0.031 C 
ATOM     24  C   UNL     1       4.769  -6.854  -0.904  1.00  0.00     0.029 A 
ATOM     25  C   UNL     1       5.461  -7.607  -1.936  1.00  0.00     0.049 A 
ATOM     26  H   UNL     1       6.303  -6.862  -3.691  1.00  0.00     0.167 HD
ATOM     27  C   UNL     1       8.025  -5.053  -7.287  1.00  0.00     0.031 A 
ATOM     28  C   UNL     1       5.679  -8.935  -1.913  1.00  0.00     0.031 A 
ATOM     29  C   UNL     1       8.393  -6.440  -7.327  1.00  0.00     0.049 A 
ATOM     30  C   UNL     1       6.404  -9.547  -3.072  1.00  0.00     0.074 A 
ATOM     31  C   UNL     1       9.187  -7.099  -8.246  1.00  0.00     0.029 A 
ATOM     32  N   UNL     1       7.974  -7.386  -6.403  1.00  0.00    -0.354 N 
ATOM     33  N   UNL     1       6.935  -8.949  -4.111  1.00  0.00    -0.248 NA
ATOM     34  C   UNL     1       6.563 -11.006  -3.061  1.00  0.00     0.031 C 
ATOM     35  C   UNL     1       9.201  -8.457  -7.909  1.00  0.00     0.029 A 
ATOM     36  C   UNL     1       8.455  -8.634  -6.754  1.00  0.00     0.049 A 
ATOM     37  H   UNL     1       7.416  -7.197  -5.614  1.00  0.00     0.167 HD
ATOM     38  C   UNL     1       7.512  -9.954  -4.869  1.00  0.00     0.074 A 
ATOM     39  C   UNL     1       7.272 -11.199  -4.165  1.00  0.00     0.031 C 
ATOM     40  C   UNL     1       8.188  -9.854  -6.038  1.00  0.00     0.031 A 
BRANCH  27  41
ATOM     41  C   UNL     1       8.506  -4.133  -8.367  1.00  0.00    -0.014 A 
ATOM     42  C   UNL     1       9.518  -3.190  -8.129  1.00  0.00     0.009 A 
ATOM     43  C   UNL     1       7.917  -4.199  -9.638  1.00  0.00     0.009 A 
ATOM     44  C   UNL     1       9.911  -2.311  -9.141  1.00  0.00     0.001 A 
ATOM     45  C   UNL     1       8.325  -3.331 -10.652  1.00  0.00     0.001 A 
ATOM     46  C   UNL     1       9.316  -2.383 -10.400  1.00  0.00     0.000 A 
ENDBRANCH  27  41
BRANCH  28  47
ATOM     47  C   UNL     1       5.096  -9.778  -0.836  1.00  0.00    -0.014 A 
ATOM     48  C   UNL     1       5.901 -10.418   0.115  1.00  0.00     0.009 A 
ATOM     49  C   UNL     1       3.704  -9.972  -0.785  1.00  0.00     0.009 A 
ATOM     50  C   UNL     1       5.325 -11.248   1.083  1.00  0.00     0.001 A 
ATOM     51  C   UNL     1       3.130 -10.779   0.198  1.00  0.00     0.001 A 
ATOM     52  C   UNL     1       3.942 -11.425   1.126  1.00  0.00     0.000 A 
ENDBRANCH  28  47
BRANCH  40  53
ATOM     53  C   UNL     1       8.731 -11.129  -6.604  1.00  0.00    -0.014 A 
ATOM     54  C   UNL     1       7.889 -12.054  -7.237  1.00  0.00     0.009 A 
ATOM     55  C   UNL     1      10.107 -11.390  -6.524  1.00  0.00     0.009 A 
ATOM     56  C   UNL     1       8.414 -13.236  -7.758  1.00  0.00     0.001 A 
ATOM     57  C   UNL     1      10.632 -12.561  -7.069  1.00  0.00     0.001 A 
ATOM     58  C   UNL     1       9.785 -13.485  -7.678  1.00  0.00     0.000 A 
ENDBRANCH  40  53
ENDBRANCH  14  15
ENDBRANCH   7   9
ENDBRANCH   6   7
ENDBRANCH   5   6
ENDBRANCH   4   5
ENDBRANCH   3   4
ENDBRANCH   2   3
ENDBRANCH   1   2
BRANCH   1  59
ATOM     59  O   UNL     1       3.172  -0.070   4.066  1.00  0.00    -0.376 OA
BRANCH  59  60
ATOM     60  C   UNL     1       4.467  -0.640   3.892  1.00  0.00     0.202 C 
BRANCH  60  61
ATOM     61  C   UNL     1       4.577  -2.164   3.709  1.00  0.00     0.261 C 
BRANCH  61  62
ATOM     62  O   UNL     1       3.645  -2.762   2.785  1.00  0.00    -0.463 OA
BRANCH  62  63
ATOM     63  C   UNL     1       3.374  -4.077   3.024  1.00  0.00     0.312 C 
ATOM     64  O   UNL     1       3.894  -4.732   3.922  1.00  0.00    -0.252 OA
BRANCH  63  65
ATOM     65  C   UNL     1       2.505  -4.687   1.949  1.00  0.00     0.147 C 
ATOM     66  C   UNL     1       1.029  -4.269   1.782  1.00  0.00     0.128 C 
ATOM     67  C   UNL     1       2.349  -6.207   2.193  1.00  0.00     0.157 C 
ATOM     68  C   UNL     1       0.271  -5.577   2.055  1.00  0.00     0.155 C 
ATOM     69  C   UNL     1       1.770  -6.898   0.988  1.00  0.00     0.004 C 
ATOM     70  O   UNL     1       1.152  -6.213   3.017  1.00  0.00    -0.365 OA
ATOM     71  C   UNL     1       0.489  -6.518   0.908  1.00  0.00     0.004 C 
BRANCH  66  72
ATOM     72  C   UNL     1       0.395  -3.100   2.492  1.00  0.00     0.227 C 
ATOM     73  O   UNL     1      -0.052  -2.170   1.806  1.00  0.00    -0.275 OA
ATOM     74  N   UNL     1       0.203  -2.979   3.818  1.00  0.00    -0.352 N 
ATOM     75  H   UNL     1      -0.333  -2.188   4.057  1.00  0.00     0.163 HD
BRANCH  74  76
ATOM     76  C   UNL     1       0.611  -3.753   4.974  1.00  0.00     0.151 C 
BRANCH  76  77
ATOM     77  C   UNL     1       1.535  -2.977   5.880  1.00  0.00    -0.026 A 
ATOM     78  C   UNL     1       2.593  -3.634   6.515  1.00  0.00     0.025 A 
ATOM     79  C   UNL     1       1.375  -1.611   6.130  1.00  0.00     0.025 A 
ATOM     80  C   UNL     1       3.471  -2.899   7.298  1.00  0.00     0.111 A 
ATOM     81  C   UNL     1       2.309  -0.960   6.924  1.00  0.00     0.111 A 
ATOM     82  N   UNL     1       3.358  -1.572   7.510  1.00  0.00    -0.265 NA
ENDBRANCH  76  77
ENDBRANCH  74  76
ENDBRANCH  66  72
ENDBRANCH  63  65
ENDBRANCH  62  63
ENDBRANCH  61  62
ENDBRANCH  60  61
ENDBRANCH  59  60
ENDBRANCH   1  59
TORSDOF 20
