REMARK SMILES CSCC[C@@H](NC1=[NH+]S(=O)(=O)c2ccccc21)C(=O)OCCOCCOCCOC(=O)c1ccc(-c2c3nc(c(-c4ccccc4)c4ccc([nH]4)c(-c4ccccc4)c4nc(c(-c5ccccc5)c5ccc2[nH]5)C=C4)C=C3)cc1
REMARK SMILES IDX 24 1 23 2 22 3 21 4 20 5 18 6 19 7 5 8 4 9 3 10 2 11 1 12
REMARK SMILES IDX 6 13 7 14 8 16 17 17 9 18 12 20 16 21 10 22 11 23 13 24
REMARK SMILES IDX 15 25 14 26 25 27 26 28 27 29 28 30 29 31 30 32 31 33 32 34
REMARK SMILES IDX 33 35 79 36 34 37 78 38 35 39 36 40 37 41 72 42 38 43 77 44
REMARK SMILES IDX 71 45 73 46 39 47 76 48 70 49 69 50 40 52 62 53 47 54 61 55
REMARK SMILES IDX 48 56 51 57 60 58 74 59 49 60 50 61 59 63 75 64 52 65 41 66
REMARK SMILES IDX 42 67 46 68 43 69 45 70 44 71 63 72 64 73 68 74 65 75 67 76
REMARK SMILES IDX 66 77 53 78 54 79 58 80 55 81 57 82 56 83
REMARK H PARENT 6 15 8 19 73 51 51 62
REMARK Flexibility Score: inf
ROOT
ATOM      1  C   UNL     1      -2.029  -2.348  -3.844  1.00  0.00     0.188 C 
ENDROOT
BRANCH   1   2
ATOM      2  O   UNL     1      -1.799  -2.711  -5.196  1.00  0.00    -0.376 OA
BRANCH   2   3
ATOM      3  C   UNL     1      -0.755  -3.613  -5.541  1.00  0.00     0.202 C 
BRANCH   3   4
ATOM      4  C   UNL     1       0.700  -3.303  -5.146  1.00  0.00     0.261 C 
BRANCH   4   5
ATOM      5  O   UNL     1       1.025  -3.265  -3.736  1.00  0.00    -0.460 OA
BRANCH   5   6
ATOM      6  C   UNL     1       1.182  -2.017  -3.213  1.00  0.00     0.351 C 
ATOM      7  O   UNL     1       0.882  -0.979  -3.799  1.00  0.00    -0.247 OA
BRANCH   6   8
ATOM      8  C   UNL     1       1.823  -1.992  -1.804  1.00  0.00     0.283 C 
BRANCH   8   9
ATOM      9  C   UNL     1       1.391  -3.061  -0.783  1.00  0.00     0.073 C 
BRANCH   9  10
ATOM     10  C   UNL     1       1.440  -2.573   0.674  1.00  0.00     0.074 C 
BRANCH  10  11
ATOM     11  S   UNL     1       0.149  -1.349   1.109  1.00  0.00    -0.165 SA
ATOM     12  C   UNL     1       0.965   0.209   0.645  1.00  0.00     0.085 C 
ENDBRANCH  10  11
ENDBRANCH   9  10
ENDBRANCH   8   9
BRANCH   8  13
ATOM     13  N   UNL     1       3.294  -1.972  -1.831  1.00  0.00    -0.260 N 
ATOM     14  C   UNL     1       4.004  -2.292  -2.952  1.00  0.00     0.292 C 
ATOM     15  H   UNL     1       3.782  -1.720  -1.014  1.00  0.00     0.306 HD
ATOM     16  N   UNL     1       3.825  -1.730  -4.108  1.00  0.00    -0.162 N 
ATOM     17  C   UNL     1       4.984  -3.389  -2.917  1.00  0.00     0.087 A 
ATOM     18  S   UNL     1       4.758  -2.429  -5.255  1.00  0.00     0.329 S 
ATOM     19  H   UNL     1       3.208  -0.981  -4.273  1.00  0.00     0.327 HD
ATOM     20  C   UNL     1       5.471  -3.604  -4.189  1.00  0.00     0.124 A 
ATOM     21  C   UNL     1       5.334  -4.219  -1.867  1.00  0.00     0.018 A 
ATOM     22  O   UNL     1       5.802  -1.542  -5.679  1.00  0.00    -0.179 OA
ATOM     23  O   UNL     1       3.915  -3.167  -6.188  1.00  0.00    -0.179 OA
ATOM     24  C   UNL     1       6.317  -4.645  -4.501  1.00  0.00     0.025 A 
ATOM     25  C   UNL     1       6.204  -5.277  -2.145  1.00  0.00     0.001 A 
ATOM     26  C   UNL     1       6.688  -5.489  -3.452  1.00  0.00     0.002 A 
ENDBRANCH   8  13
ENDBRANCH   6   8
ENDBRANCH   5   6
ENDBRANCH   4   5
ENDBRANCH   3   4
ENDBRANCH   2   3
ENDBRANCH   1   2
BRANCH   1  27
ATOM     27  C   UNL     1      -1.760  -3.364  -2.731  1.00  0.00     0.188 C 
BRANCH  27  28
ATOM     28  O   UNL     1      -1.534  -4.687  -3.152  1.00  0.00    -0.376 OA
BRANCH  28  29
ATOM     29  C   UNL     1      -2.597  -5.619  -3.033  1.00  0.00     0.202 C 
BRANCH  29  30
ATOM     30  C   UNL     1      -4.032  -5.222  -3.427  1.00  0.00     0.261 C 
BRANCH  30  31
ATOM     31  O   UNL     1      -4.501  -3.934  -2.988  1.00  0.00    -0.460 OA
BRANCH  31  32
ATOM     32  C   UNL     1      -4.774  -3.771  -1.673  1.00  0.00     0.338 C 
ATOM     33  O   UNL     1      -4.718  -4.623  -0.805  1.00  0.00    -0.246 OA
BRANCH  32  34
ATOM     34  C   UNL     1      -4.901  -2.311  -1.420  1.00  0.00     0.060 A 
ATOM     35  C   UNL     1      -4.029  -1.707  -0.502  1.00  0.00     0.016 A 
ATOM     36  C   UNL     1      -5.833  -1.532  -2.111  1.00  0.00     0.016 A 
ATOM     37  C   UNL     1      -4.101  -0.333  -0.257  1.00  0.00     0.010 A 
ATOM     38  C   UNL     1      -5.922  -0.160  -1.844  1.00  0.00     0.010 A 
ATOM     39  C   UNL     1      -5.076   0.443  -0.895  1.00  0.00    -0.014 A 
BRANCH  39  40
ATOM     40  C   UNL     1      -5.324   1.836  -0.439  1.00  0.00     0.031 A 
ATOM     41  C   UNL     1      -6.450   2.087   0.529  1.00  0.00     0.074 A 
ATOM     42  C   UNL     1      -4.554   2.862  -0.844  1.00  0.00     0.049 A 
ATOM     43  N   UNL     1      -6.858   3.213   1.058  1.00  0.00    -0.248 NA
ATOM     44  C   UNL     1      -7.220   0.907   0.954  1.00  0.00     0.031 C 
ATOM     45  C   UNL     1      -3.409   2.761  -1.744  1.00  0.00     0.029 A 
ATOM     46  N   UNL     1      -4.633   4.202  -0.544  1.00  0.00    -0.354 N 
ATOM     47  C   UNL     1      -7.936   2.878   1.870  1.00  0.00     0.074 A 
ATOM     48  C   UNL     1      -8.136   1.452   1.739  1.00  0.00     0.031 C 
ATOM     49  C   UNL     1      -2.893   3.990  -1.931  1.00  0.00     0.029 A 
ATOM     50  C   UNL     1      -3.691   4.966  -1.188  1.00  0.00     0.049 A 
ATOM     51  H   UNL     1      -5.301   4.577   0.074  1.00  0.00     0.167 HD
ATOM     52  C   UNL     1      -8.690   3.682   2.658  1.00  0.00     0.031 A 
ATOM     53  C   UNL     1      -3.503   6.301  -1.194  1.00  0.00     0.031 A 
ATOM     54  C   UNL     1      -8.511   5.105   2.778  1.00  0.00     0.049 A 
ATOM     55  C   UNL     1      -4.403   7.185  -0.368  1.00  0.00     0.074 A 
ATOM     56  C   UNL     1      -9.214   5.998   3.568  1.00  0.00     0.029 A 
ATOM     57  N   UNL     1      -7.572   5.845   2.077  1.00  0.00    -0.354 N 
ATOM     58  N   UNL     1      -5.394   6.853   0.424  1.00  0.00    -0.248 NA
ATOM     59  C   UNL     1      -4.145   8.632  -0.430  1.00  0.00     0.031 C 
ATOM     60  C   UNL     1      -8.745   7.288   3.294  1.00  0.00     0.029 A 
ATOM     61  C   UNL     1      -7.700   7.189   2.390  1.00  0.00     0.049 A 
ATOM     62  H   UNL     1      -6.912   5.472   1.449  1.00  0.00     0.167 HD
ATOM     63  C   UNL     1      -5.857   8.043   0.975  1.00  0.00     0.074 A 
ATOM     64  C   UNL     1      -5.025   9.102   0.443  1.00  0.00     0.031 C 
ATOM     65  C   UNL     1      -6.877   8.240   1.847  1.00  0.00     0.031 A 
BRANCH  52  66
ATOM     66  C   UNL     1      -9.815   3.037   3.421  1.00  0.00    -0.014 A 
ATOM     67  C   UNL     1      -9.571   2.163   4.493  1.00  0.00     0.009 A 
ATOM     68  C   UNL     1     -11.144   3.325   3.071  1.00  0.00     0.009 A 
ATOM     69  C   UNL     1     -10.634   1.562   5.171  1.00  0.00     0.001 A 
ATOM     70  C   UNL     1     -12.204   2.749   3.772  1.00  0.00     0.001 A 
ATOM     71  C   UNL     1     -11.949   1.859   4.814  1.00  0.00     0.000 A 
ENDBRANCH  52  66
BRANCH  53  72
ATOM     72  C   UNL     1      -2.424   6.898  -2.026  1.00  0.00    -0.014 A 
ATOM     73  C   UNL     1      -1.308   7.506  -1.430  1.00  0.00     0.009 A 
ATOM     74  C   UNL     1      -2.518   6.882  -3.427  1.00  0.00     0.009 A 
ATOM     75  C   UNL     1      -0.322   8.105  -2.218  1.00  0.00     0.001 A 
ATOM     76  C   UNL     1      -1.515   7.453  -4.213  1.00  0.00     0.001 A 
ATOM     77  C   UNL     1      -0.423   8.072  -3.608  1.00  0.00     0.000 A 
ENDBRANCH  53  72
BRANCH  65  78
ATOM     78  C   UNL     1      -7.128   9.652   2.310  1.00  0.00    -0.014 A 
ATOM     79  C   UNL     1      -7.634  10.633   1.442  1.00  0.00     0.009 A 
ATOM     80  C   UNL     1      -6.870  10.000   3.646  1.00  0.00     0.009 A 
ATOM     81  C   UNL     1      -7.829  11.942   1.890  1.00  0.00     0.001 A 
ATOM     82  C   UNL     1      -7.100  11.300   4.100  1.00  0.00     0.001 A 
ATOM     83  C   UNL     1      -7.565  12.274   3.218  1.00  0.00     0.000 A 
ENDBRANCH  65  78
ENDBRANCH  39  40
ENDBRANCH  32  34
ENDBRANCH  31  32
ENDBRANCH  30  31
ENDBRANCH  29  30
ENDBRANCH  28  29
ENDBRANCH  27  28
ENDBRANCH   1  27
TORSDOF 21
