REMARK SMILES CN(C)Nc1ncnc(Nc2ccc(C(=O)OCCOCCOCCOC(=O)c3ccc(-c4c5nc(c(-c6ccccc6)c6ccc([nH]6)c(-c6ccccc6)c6nc(c(-c7ccccc7)c7ccc4[nH]7)C=C6)C=C5)cc3)cc2)c1[N+](=O)[O-]
REMARK SMILES IDX 21 1 20 2 19 3 18 4 17 5 15 6 16 7 14 8 11 9 12 10 78 11
REMARK SMILES IDX 13 12 77 13 10 14 9 16 5 17 6 18 79 19 7 20 8 21 4 22 2 24
REMARK SMILES IDX 1 25 3 26 80 27 81 28 82 29 22 30 23 31 24 32 25 33 26 34
REMARK SMILES IDX 27 35 28 36 29 37 30 38 76 39 31 40 75 41 32 42 33 43 34 44
REMARK SMILES IDX 69 45 35 46 74 47 68 48 70 49 36 50 73 51 67 52 66 53 37 55
REMARK SMILES IDX 59 56 44 57 58 58 45 59 48 60 57 61 71 62 46 63 47 64 56 66
REMARK SMILES IDX 72 67 49 68 38 69 39 70 43 71 40 72 42 73 41 74 60 75 61 76
REMARK SMILES IDX 65 77 62 78 64 79 63 80 50 81 51 82 55 83 52 84 54 85 53 86
REMARK H PARENT 10 15 4 23 70 54 48 65
REMARK Flexibility Score: inf
ROOT
ATOM      1  C   UNL     1       9.365  -1.489  -7.270  1.00  0.00     0.188 C 
ENDROOT
BRANCH   1   2
ATOM      2  O   UNL     1       9.920  -2.248  -8.328  1.00  0.00    -0.376 OA
BRANCH   2   3
ATOM      3  C   UNL     1       9.098  -3.092  -9.118  1.00  0.00     0.202 C 
BRANCH   3   4
ATOM      4  C   UNL     1       8.092  -4.059  -8.484  1.00  0.00     0.261 C 
BRANCH   4   5
ATOM      5  O   UNL     1       7.268  -3.480  -7.467  1.00  0.00    -0.460 OA
BRANCH   5   6
ATOM      6  C   UNL     1       7.471  -3.986  -6.222  1.00  0.00     0.338 C 
ATOM      7  O   UNL     1       8.216  -4.889  -5.909  1.00  0.00    -0.246 OA
BRANCH   6   8
ATOM      8  C   UNL     1       6.778  -3.144  -5.223  1.00  0.00     0.060 A 
ATOM      9  C   UNL     1       5.507  -1.759  -3.152  1.00  0.00     0.040 A 
ATOM     10  C   UNL     1       6.859  -2.097  -3.041  1.00  0.00     0.027 A 
ATOM     11  C   UNL     1       4.828  -2.045  -4.349  1.00  0.00     0.027 A 
ATOM     12  C   UNL     1       7.487  -2.805  -4.064  1.00  0.00     0.018 A 
ATOM     13  C   UNL     1       5.460  -2.725  -5.393  1.00  0.00     0.018 A 
BRANCH   9  14
ATOM     14  N   UNL     1       4.810  -1.358  -1.994  1.00  0.00    -0.334 N 
ATOM     15  H   UNL     1       5.098  -0.529  -1.548  1.00  0.00     0.168 HD
BRANCH  14  16
ATOM     16  C   UNL     1       3.727  -2.066  -1.433  1.00  0.00     0.215 A 
ATOM     17  C   UNL     1       1.882  -2.326   0.035  1.00  0.00     0.225 A 
ATOM     18  N   UNL     1       1.528  -3.471  -0.588  1.00  0.00    -0.212 NA
ATOM     19  C   UNL     1       3.030  -1.643  -0.315  1.00  0.00     0.354 A 
ATOM     20  C   UNL     1       2.281  -3.856  -1.615  1.00  0.00     0.227 A 
ATOM     21  N   UNL     1       3.330  -3.185  -2.084  1.00  0.00    -0.212 NA
BRANCH  17  22
ATOM     22  N   UNL     1       0.904  -1.907   0.940  1.00  0.00    -0.298 N 
ATOM     23  H   UNL     1       0.523  -2.594   1.534  1.00  0.00     0.184 HD
BRANCH  22  24
ATOM     24  N   UNL     1       0.405  -0.582   1.085  1.00  0.00    -0.228 NA
ATOM     25  C   UNL     1       0.349   0.160  -0.187  1.00  0.00     0.130 C 
ATOM     26  C   UNL     1      -0.981  -0.710   1.581  1.00  0.00     0.130 C 
ENDBRANCH  22  24
ENDBRANCH  17  22
BRANCH  19  27
ATOM     27  N   UNL     1       3.584  -0.645   0.556  1.00  0.00     0.070 N 
ATOM     28  O   UNL     1       3.992   0.405   0.036  1.00  0.00    -0.258 OA
ATOM     29  O   UNL     1       3.740  -0.946   1.747  1.00  0.00    -0.258 OA
ENDBRANCH  19  27
ENDBRANCH  14  16
ENDBRANCH   9  14
ENDBRANCH   6   8
ENDBRANCH   5   6
ENDBRANCH   4   5
ENDBRANCH   3   4
ENDBRANCH   2   3
ENDBRANCH   1   2
BRANCH   1  30
ATOM     30  C   UNL     1       8.130  -0.591  -7.491  1.00  0.00     0.188 C 
BRANCH  30  31
ATOM     31  O   UNL     1       7.524  -0.553  -8.760  1.00  0.00    -0.376 OA
BRANCH  31  32
ATOM     32  C   UNL     1       8.119   0.131  -9.847  1.00  0.00     0.202 C 
BRANCH  32  33
ATOM     33  C   UNL     1       9.286   1.130  -9.761  1.00  0.00     0.261 C 
BRANCH  33  34
ATOM     34  O   UNL     1      10.113   1.096  -8.602  1.00  0.00    -0.460 OA
BRANCH  34  35
ATOM     35  C   UNL     1       9.959   2.144  -7.754  1.00  0.00     0.338 C 
ATOM     36  O   UNL     1       9.173   3.070  -7.851  1.00  0.00    -0.246 OA
BRANCH  35  37
ATOM     37  C   UNL     1      10.801   1.922  -6.568  1.00  0.00     0.060 A 
ATOM     38  C   UNL     1      10.175   1.743  -5.329  1.00  0.00     0.016 A 
ATOM     39  C   UNL     1      12.191   1.942  -6.671  1.00  0.00     0.016 A 
ATOM     40  C   UNL     1      10.945   1.609  -4.175  1.00  0.00     0.010 A 
ATOM     41  C   UNL     1      12.963   1.826  -5.512  1.00  0.00     0.010 A 
ATOM     42  C   UNL     1      12.342   1.688  -4.257  1.00  0.00    -0.014 A 
BRANCH  42  43
ATOM     43  C   UNL     1      13.147   1.797  -3.018  1.00  0.00     0.031 A 
ATOM     44  C   UNL     1      13.562   3.163  -2.546  1.00  0.00     0.074 A 
ATOM     45  C   UNL     1      13.495   0.705  -2.316  1.00  0.00     0.049 A 
ATOM     46  N   UNL     1      14.297   3.496  -1.516  1.00  0.00    -0.248 NA
ATOM     47  C   UNL     1      13.083   4.304  -3.342  1.00  0.00     0.031 C 
ATOM     48  C   UNL     1      13.120  -0.669  -2.644  1.00  0.00     0.029 A 
ATOM     49  N   UNL     1      14.253   0.588  -1.179  1.00  0.00    -0.354 N 
ATOM     50  C   UNL     1      14.374   4.883  -1.544  1.00  0.00     0.074 A 
ATOM     51  C   UNL     1      13.635   5.327  -2.706  1.00  0.00     0.031 C 
ATOM     52  C   UNL     1      13.661  -1.495  -1.730  1.00  0.00     0.029 A 
ATOM     53  C   UNL     1      14.444  -0.711  -0.777  1.00  0.00     0.049 A 
ATOM     54  H   UNL     1      14.626   1.362  -0.697  1.00  0.00     0.167 HD
ATOM     55  C   UNL     1      14.999   5.715  -0.678  1.00  0.00     0.031 A 
ATOM     56  C   UNL     1      15.184  -1.208   0.233  1.00  0.00     0.031 A 
ATOM     57  C   UNL     1      15.754   5.277   0.465  1.00  0.00     0.049 A 
ATOM     58  C   UNL     1      15.942  -0.267   1.132  1.00  0.00     0.074 A 
ATOM     59  C   UNL     1      16.416   6.045   1.406  1.00  0.00     0.029 A 
ATOM     60  N   UNL     1      15.954   3.952   0.816  1.00  0.00    -0.354 N 
ATOM     61  N   UNL     1      15.985   1.043   1.112  1.00  0.00    -0.248 NA
ATOM     62  C   UNL     1      16.750  -0.878   2.198  1.00  0.00     0.031 C 
ATOM     63  C   UNL     1      17.065   5.182   2.295  1.00  0.00     0.029 A 
ATOM     64  C   UNL     1      16.754   3.879   1.943  1.00  0.00     0.049 A 
ATOM     65  H   UNL     1      15.582   3.177   0.335  1.00  0.00     0.167 HD
ATOM     66  C   UNL     1      16.797   1.413   2.179  1.00  0.00     0.074 A 
ATOM     67  C   UNL     1      17.214   0.190   2.832  1.00  0.00     0.031 C 
ATOM     68  C   UNL     1      17.160   2.655   2.584  1.00  0.00     0.031 A 
BRANCH  55  69
ATOM     69  C   UNL     1      14.922   7.188  -0.963  1.00  0.00    -0.014 A 
ATOM     70  C   UNL     1      13.727   7.904  -0.786  1.00  0.00     0.009 A 
ATOM     71  C   UNL     1      16.069   7.874  -1.392  1.00  0.00     0.009 A 
ATOM     72  C   UNL     1      13.675   9.271  -1.066  1.00  0.00     0.001 A 
ATOM     73  C   UNL     1      16.020   9.246  -1.644  1.00  0.00     0.001 A 
ATOM     74  C   UNL     1      14.822   9.941  -1.490  1.00  0.00     0.000 A 
ENDBRANCH  55  69
BRANCH  56  75
ATOM     75  C   UNL     1      15.268  -2.678   0.442  1.00  0.00    -0.014 A 
ATOM     76  C   UNL     1      14.684  -3.276   1.569  1.00  0.00     0.009 A 
ATOM     77  C   UNL     1      15.961  -3.487  -0.472  1.00  0.00     0.009 A 
ATOM     78  C   UNL     1      14.816  -4.649   1.790  1.00  0.00     0.001 A 
ATOM     79  C   UNL     1      16.067  -4.864  -0.264  1.00  0.00     0.001 A 
ATOM     80  C   UNL     1      15.503  -5.442   0.872  1.00  0.00     0.000 A 
ENDBRANCH  56  75
BRANCH  68  81
ATOM     81  C   UNL     1      18.020   2.757   3.814  1.00  0.00    -0.014 A 
ATOM     82  C   UNL     1      19.373   2.386   3.796  1.00  0.00     0.009 A 
ATOM     83  C   UNL     1      17.473   3.277   4.999  1.00  0.00     0.009 A 
ATOM     84  C   UNL     1      20.152   2.502   4.949  1.00  0.00     0.001 A 
ATOM     85  C   UNL     1      18.262   3.419   6.141  1.00  0.00     0.001 A 
ATOM     86  C   UNL     1      19.598   3.023   6.119  1.00  0.00     0.000 A 
ENDBRANCH  68  81
ENDBRANCH  42  43
ENDBRANCH  35  37
ENDBRANCH  34  35
ENDBRANCH  33  34
ENDBRANCH  32  33
ENDBRANCH  31  32
ENDBRANCH  30  31
ENDBRANCH   1  30
TORSDOF 22
