REMARK SMILES Cc1nc2ccc(Cl)cc2cc1C(=O)N1CCC(C(=O)OCCOCCOCCOC(=O)c2ccc(-c3c4nc(c(-c5ccccc5)c5ccc([nH]5)c(-c5ccccc5)c5nc(c(-c6ccccc6)c6ccc3[nH]6)C=C5)C=C4)cc2)CC1
REMARK SMILES IDX 26 1 25 2 24 3 23 4 22 5 21 6 19 7 20 8 18 9 13 10 14 11
REMARK SMILES IDX 15 12 16 13 82 14 17 15 81 16 12 17 1 18 2 19 3 20 4 21
REMARK SMILES IDX 11 22 5 23 10 24 6 25 9 26 7 27 8 28 27 29 28 30 29 31 30 32
REMARK SMILES IDX 31 33 32 34 33 35 34 36 80 37 35 38 79 39 36 40 37 41 38 42
REMARK SMILES IDX 73 43 39 44 78 45 72 46 74 47 40 48 77 49 71 50 70 51 41 53
REMARK SMILES IDX 63 54 48 55 62 56 49 57 52 58 61 59 75 60 50 61 51 62 60 64
REMARK SMILES IDX 76 65 53 66 42 67 43 68 47 69 44 70 46 71 45 72 64 73 65 74
REMARK SMILES IDX 69 75 66 76 68 77 67 78 54 79 55 80 59 81 56 82 58 83 57 84
REMARK H PARENT 74 52 52 63
REMARK Flexibility Score: inf
ROOT
ATOM      1  C   UNL     1      -3.763 -10.012  -0.729  1.00  0.00     0.188 C 
ENDROOT
BRANCH   1   2
ATOM      2  C   UNL     1      -2.912  -9.997   0.541  1.00  0.00     0.188 C 
BRANCH   2   3
ATOM      3  O   UNL     1      -3.351 -10.832   1.606  1.00  0.00    -0.376 OA
BRANCH   3   4
ATOM      4  C   UNL     1      -4.633 -10.547   2.166  1.00  0.00     0.202 C 
BRANCH   4   5
ATOM      5  C   UNL     1      -4.771  -9.215   2.915  1.00  0.00     0.261 C 
BRANCH   5   6
ATOM      6  O   UNL     1      -4.474  -8.057   2.110  1.00  0.00    -0.463 OA
BRANCH   6   7
ATOM      7  C   UNL     1      -3.429  -7.297   2.534  1.00  0.00     0.309 C 
ATOM      8  O   UNL     1      -2.769  -7.515   3.544  1.00  0.00    -0.252 OA
BRANCH   7   9
ATOM      9  C   UNL     1      -3.077  -6.162   1.586  1.00  0.00     0.103 C 
ATOM     10  C   UNL     1      -3.533  -2.326  -0.296  1.00  0.00     0.255 C 
ATOM     11  O   UNL     1      -4.431  -2.154  -1.115  1.00  0.00    -0.269 OA
ATOM     12  N   UNL     1      -3.277  -3.562   0.311  1.00  0.00    -0.339 N 
ATOM     13  C   UNL     1      -3.566  -4.769  -0.461  1.00  0.00     0.120 C 
ATOM     14  C   UNL     1      -2.495  -3.719   1.538  1.00  0.00     0.120 C 
ATOM     15  C   UNL     1      -4.007  -5.960   0.387  1.00  0.00     0.037 C 
ATOM     16  C   UNL     1      -3.007  -4.865   2.396  1.00  0.00     0.037 C 
BRANCH  10  17
ATOM     17  C   UNL     1      -2.582  -1.210  -0.059  1.00  0.00     0.061 A 
ATOM     18  C   UNL     1      -4.411   0.537   0.208  1.00  0.00     0.067 C 
ATOM     19  C   UNL     1      -2.974   0.111   0.137  1.00  0.00     0.051 A 
ATOM     20  N   UNL     1      -2.066   1.130   0.224  1.00  0.00    -0.252 NA
ATOM     21  C   UNL     1      -0.752   0.858   0.112  1.00  0.00     0.071 A 
ATOM     22  C   UNL     1      -1.215  -1.479  -0.188  1.00  0.00     0.026 A 
ATOM     23  C   UNL     1       0.184   1.883   0.167  1.00  0.00     0.030 A 
ATOM     24  C   UNL     1      -0.277  -0.453  -0.079  1.00  0.00     0.002 A 
ATOM     25  C   UNL     1       1.559   1.634   0.061  1.00  0.00     0.023 A 
ATOM     26  C   UNL     1       1.099  -0.717  -0.175  1.00  0.00     0.030 A 
ATOM     27  C   UNL     1       2.010   0.330  -0.099  1.00  0.00     0.041 A 
ATOM     28  Cl  UNL     1       3.695   0.004  -0.206  1.00  0.00    -0.084 Cl
ENDBRANCH  10  17
ENDBRANCH   7   9
ENDBRANCH   6   7
ENDBRANCH   5   6
ENDBRANCH   4   5
ENDBRANCH   3   4
ENDBRANCH   2   3
ENDBRANCH   1   2
BRANCH   1  29
ATOM     29  O   UNL     1      -5.150  -9.773  -0.531  1.00  0.00    -0.376 OA
BRANCH  29  30
ATOM     30  C   UNL     1      -5.945  -9.735  -1.724  1.00  0.00     0.202 C 
BRANCH  30  31
ATOM     31  C   UNL     1      -5.881 -10.995  -2.612  1.00  0.00     0.261 C 
BRANCH  31  32
ATOM     32  O   UNL     1      -4.583 -11.254  -3.191  1.00  0.00    -0.460 OA
BRANCH  32  33
ATOM     33  C   UNL     1      -4.022 -10.258  -3.915  1.00  0.00     0.338 C 
ATOM     34  O   UNL     1      -4.587  -9.269  -4.351  1.00  0.00    -0.246 OA
BRANCH  33  35
ATOM     35  C   UNL     1      -2.546 -10.417  -3.867  1.00  0.00     0.060 A 
ATOM     36  C   UNL     1      -1.765  -9.262  -3.708  1.00  0.00     0.016 A 
ATOM     37  C   UNL     1      -1.931 -11.672  -3.911  1.00  0.00     0.016 A 
ATOM     38  C   UNL     1      -0.373  -9.355  -3.640  1.00  0.00     0.010 A 
ATOM     39  C   UNL     1      -0.536 -11.764  -3.857  1.00  0.00     0.010 A 
ATOM     40  C   UNL     1       0.252 -10.603  -3.757  1.00  0.00    -0.014 A 
BRANCH  40  41
ATOM     41  C   UNL     1       1.714 -10.677  -4.004  1.00  0.00     0.031 A 
ATOM     42  C   UNL     1       2.187 -10.755  -5.431  1.00  0.00     0.074 A 
ATOM     43  C   UNL     1       2.615 -10.660  -3.005  1.00  0.00     0.049 A 
ATOM     44  N   UNL     1       3.404 -10.863  -5.900  1.00  0.00    -0.248 NA
ATOM     45  C   UNL     1       1.142 -10.704  -6.468  1.00  0.00     0.031 C 
ATOM     46  C   UNL     1       2.309 -10.540  -1.582  1.00  0.00     0.029 A 
ATOM     47  N   UNL     1       3.986 -10.750  -3.050  1.00  0.00    -0.354 N 
ATOM     48  C   UNL     1       3.271 -10.897  -7.282  1.00  0.00     0.074 A 
ATOM     49  C   UNL     1       1.856 -10.825  -7.576  1.00  0.00     0.031 C 
ATOM     50  C   UNL     1       3.462 -10.573  -0.886  1.00  0.00     0.029 A 
ATOM     51  C   UNL     1       4.581 -10.747  -1.813  1.00  0.00     0.049 A 
ATOM     52  H   UNL     1       4.494 -10.812  -3.892  1.00  0.00     0.167 HD
ATOM     53  C   UNL     1       4.235 -10.976  -8.228  1.00  0.00     0.031 A 
ATOM     54  C   UNL     1       5.876 -10.889  -1.467  1.00  0.00     0.031 A 
ATOM     55  C   UNL     1       5.641 -11.070  -7.954  1.00  0.00     0.049 A 
ATOM     56  C   UNL     1       6.925 -11.072  -2.536  1.00  0.00     0.074 A 
ATOM     57  C   UNL     1       6.690 -11.147  -8.854  1.00  0.00     0.029 A 
ATOM     58  N   UNL     1       6.196 -11.110  -6.686  1.00  0.00    -0.354 N 
ATOM     59  N   UNL     1       6.788 -11.075  -3.839  1.00  0.00    -0.248 NA
ATOM     60  C   UNL     1       8.310 -11.268  -2.079  1.00  0.00     0.031 C 
ATOM     61  C   UNL     1       7.878 -11.288  -8.129  1.00  0.00     0.029 A 
ATOM     62  C   UNL     1       7.571 -11.241  -6.779  1.00  0.00     0.049 A 
ATOM     63  H   UNL     1       5.688 -11.055  -5.845  1.00  0.00     0.167 HD
ATOM     64  C   UNL     1       8.068 -11.244  -4.356  1.00  0.00     0.074 A 
ATOM     65  C   UNL     1       8.970 -11.327  -3.227  1.00  0.00     0.031 C 
ATOM     66  C   UNL     1       8.461 -11.319  -5.651  1.00  0.00     0.031 A 
BRANCH  53  67
ATOM     67  C   UNL     1       3.784 -11.002  -9.660  1.00  0.00    -0.014 A 
ATOM     68  C   UNL     1       3.294  -9.847 -10.289  1.00  0.00     0.009 A 
ATOM     69  C   UNL     1       3.869 -12.196 -10.392  1.00  0.00     0.009 A 
ATOM     70  C   UNL     1       2.867  -9.897 -11.617  1.00  0.00     0.001 A 
ATOM     71  C   UNL     1       3.466 -12.235 -11.727  1.00  0.00     0.001 A 
ATOM     72  C   UNL     1       2.957 -11.089 -12.336  1.00  0.00     0.000 A 
ENDBRANCH  53  67
BRANCH  54  73
ATOM     73  C   UNL     1       6.273 -10.894  -0.034  1.00  0.00    -0.014 A 
ATOM     74  C   UNL     1       7.018  -9.835   0.507  1.00  0.00     0.009 A 
ATOM     75  C   UNL     1       5.951 -11.986   0.787  1.00  0.00     0.009 A 
ATOM     76  C   UNL     1       7.455  -9.882   1.834  1.00  0.00     0.001 A 
ATOM     77  C   UNL     1       6.367 -12.018   2.120  1.00  0.00     0.001 A 
ATOM     78  C   UNL     1       7.126 -10.971   2.639  1.00  0.00     0.000 A 
ENDBRANCH  54  73
BRANCH  66  79
ATOM     79  C   UNL     1       9.933 -11.459  -5.927  1.00  0.00    -0.014 A 
ATOM     80  C   UNL     1      10.607 -12.668  -5.697  1.00  0.00     0.009 A 
ATOM     81  C   UNL     1      10.641 -10.380  -6.478  1.00  0.00     0.009 A 
ATOM     82  C   UNL     1      11.969 -12.782  -5.987  1.00  0.00     0.001 A 
ATOM     83  C   UNL     1      11.996 -10.505  -6.792  1.00  0.00     0.001 A 
ATOM     84  C   UNL     1      12.660 -11.703  -6.538  1.00  0.00     0.000 A 
ENDBRANCH  66  79
ENDBRANCH  40  41
ENDBRANCH  33  35
ENDBRANCH  32  33
ENDBRANCH  31  32
ENDBRANCH  30  31
ENDBRANCH  29  30
ENDBRANCH   1  29
TORSDOF 18
