REMARK SMILES C[C@@H](NC(=O)c1cc(C(=O)OCCOCCOCCOC(=O)c2ccc(-c3c4nc(c(-c5ccccc5)c5ccc([nH]5)c(-c5ccccc5)c5nc(c(-c6ccccc6)c6ccc3[nH]6)C=C5)C=C4)cc2)n(C)n1)c1ccccc1
REMARK SMILES IDX 15 1 14 2 13 3 12 4 11 5 9 6 10 7 8 8 6 9 7 10 73 11 71 12
REMARK SMILES IDX 72 13 4 14 3 15 5 17 2 18 1 19 74 20 75 21 79 22 76 23 78 24
REMARK SMILES IDX 77 25 16 26 17 27 18 28 19 29 20 30 21 31 22 32 23 33 24 34
REMARK SMILES IDX 70 35 25 36 69 37 26 38 27 39 28 40 63 41 29 42 68 43 62 44
REMARK SMILES IDX 64 45 30 46 67 47 61 48 60 49 31 51 53 52 38 53 52 54 39 55
REMARK SMILES IDX 42 56 51 57 65 58 40 59 41 60 50 62 66 63 43 64 32 65 33 66
REMARK SMILES IDX 37 67 34 68 36 69 35 70 54 71 55 72 59 73 56 74 58 75 57 76
REMARK SMILES IDX 44 77 45 78 49 79 46 80 48 81 47 82
REMARK H PARENT 3 16 64 50 42 61
REMARK Flexibility Score: inf
ROOT
ATOM      1  C   UNL     1      -5.652  -2.439   0.560  1.00  0.00     0.188 C 
ENDROOT
BRANCH   1   2
ATOM      2  O   UNL     1      -6.801  -2.789   1.322  1.00  0.00    -0.376 OA
BRANCH   2   3
ATOM      3  C   UNL     1      -7.337  -1.763   2.158  1.00  0.00     0.202 C 
BRANCH   3   4
ATOM      4  C   UNL     1      -6.534  -1.500   3.442  1.00  0.00     0.261 C 
BRANCH   4   5
ATOM      5  O   UNL     1      -5.408  -0.609   3.244  1.00  0.00    -0.459 OA
BRANCH   5   6
ATOM      6  C   UNL     1      -4.515  -0.597   4.290  1.00  0.00     0.356 C 
ATOM      7  O   UNL     1      -4.603  -1.338   5.264  1.00  0.00    -0.244 OA
BRANCH   6   8
ATOM      8  C   UNL     1      -3.420   0.324   4.070  1.00  0.00     0.146 A 
ATOM      9  C   UNL     1      -1.365   1.263   3.896  1.00  0.00     0.151 A 
ATOM     10  C   UNL     1      -2.085   0.159   4.434  1.00  0.00     0.071 A 
ATOM     11  N   UNL     1      -2.236   2.153   3.378  1.00  0.00    -0.167 NA
ATOM     12  N   UNL     1      -3.453   1.573   3.503  1.00  0.00    -0.260 N 
ATOM     13  C   UNL     1      -4.606   2.366   3.140  1.00  0.00     0.174 C 
BRANCH   9  14
ATOM     14  C   UNL     1       0.075   1.579   4.024  1.00  0.00     0.272 C 
ATOM     15  N   UNL     1       1.006   1.351   3.020  1.00  0.00    -0.344 N 
ATOM     16  H   UNL     1       1.738   2.009   3.007  1.00  0.00     0.164 HD
ATOM     17  O   UNL     1       0.503   2.129   5.043  1.00  0.00    -0.267 OA
BRANCH  15  18
ATOM     18  C   UNL     1       1.122   0.327   1.972  1.00  0.00     0.109 C 
ATOM     19  C   UNL     1       2.147   0.725   0.903  1.00  0.00     0.036 C 
BRANCH  18  20
ATOM     20  C   UNL     1      -0.194  -0.015   1.341  1.00  0.00    -0.026 A 
ATOM     21  C   UNL     1      -0.883   0.940   0.577  1.00  0.00     0.006 A 
ATOM     22  C   UNL     1      -0.808  -1.222   1.704  1.00  0.00     0.006 A 
ATOM     23  C   UNL     1      -2.233   0.776   0.347  1.00  0.00     0.000 A 
ATOM     24  C   UNL     1      -2.159  -1.380   1.481  1.00  0.00     0.000 A 
ATOM     25  C   UNL     1      -2.862  -0.343   0.871  1.00  0.00     0.000 A 
ENDBRANCH  18  20
ENDBRANCH  15  18
ENDBRANCH   9  14
ENDBRANCH   6   8
ENDBRANCH   5   6
ENDBRANCH   4   5
ENDBRANCH   3   4
ENDBRANCH   2   3
ENDBRANCH   1   2
BRANCH   1  26
ATOM     26  C   UNL     1      -5.814  -1.202  -0.344  1.00  0.00     0.188 C 
BRANCH  26  27
ATOM     27  O   UNL     1      -6.996  -1.132  -1.127  1.00  0.00    -0.376 OA
BRANCH  27  28
ATOM     28  C   UNL     1      -7.284  -2.264  -1.941  1.00  0.00     0.202 C 
BRANCH  28  29
ATOM     29  C   UNL     1      -6.283  -2.507  -3.074  1.00  0.00     0.261 C 
BRANCH  29  30
ATOM     30  O   UNL     1      -5.078  -3.145  -2.592  1.00  0.00    -0.460 OA
BRANCH  30  31
ATOM     31  C   UNL     1      -3.917  -2.607  -3.040  1.00  0.00     0.338 C 
ATOM     32  O   UNL     1      -3.791  -1.651  -3.787  1.00  0.00    -0.246 OA
BRANCH  31  33
ATOM     33  C   UNL     1      -2.756  -3.273  -2.414  1.00  0.00     0.060 A 
ATOM     34  C   UNL     1      -1.782  -2.464  -1.822  1.00  0.00     0.016 A 
ATOM     35  C   UNL     1      -2.553  -4.652  -2.510  1.00  0.00     0.016 A 
ATOM     36  C   UNL     1      -0.598  -3.023  -1.335  1.00  0.00     0.010 A 
ATOM     37  C   UNL     1      -1.353  -5.209  -2.041  1.00  0.00     0.010 A 
ATOM     38  C   UNL     1      -0.360  -4.396  -1.466  1.00  0.00    -0.014 A 
BRANCH  38  39
ATOM     39  C   UNL     1       0.984  -4.946  -1.152  1.00  0.00     0.031 A 
ATOM     40  C   UNL     1       2.025  -4.992  -2.238  1.00  0.00     0.074 A 
ATOM     41  C   UNL     1       1.300  -5.383   0.081  1.00  0.00     0.049 A 
ATOM     42  N   UNL     1       3.231  -5.502  -2.209  1.00  0.00    -0.248 NA
ATOM     43  C   UNL     1       1.661  -4.373  -3.522  1.00  0.00     0.031 C 
ATOM     44  C   UNL     1       0.430  -5.325   1.254  1.00  0.00     0.029 A 
ATOM     45  N   UNL     1       2.452  -5.974   0.544  1.00  0.00    -0.354 N 
ATOM     46  C   UNL     1       3.768  -5.271  -3.469  1.00  0.00     0.074 A 
ATOM     47  C   UNL     1       2.755  -4.581  -4.240  1.00  0.00     0.031 C 
ATOM     48  C   UNL     1       1.073  -5.879   2.298  1.00  0.00     0.029 A 
ATOM     49  C   UNL     1       2.380  -6.367   1.858  1.00  0.00     0.049 A 
ATOM     50  H   UNL     1       3.252  -6.104  -0.014  1.00  0.00     0.167 HD
ATOM     51  C   UNL     1       4.988  -5.607  -3.949  1.00  0.00     0.031 A 
ATOM     52  C   UNL     1       3.252  -7.071   2.608  1.00  0.00     0.031 A 
ATOM     53  C   UNL     1       5.996  -6.318  -3.210  1.00  0.00     0.049 A 
ATOM     54  C   UNL     1       4.552  -7.548   2.009  1.00  0.00     0.074 A 
ATOM     55  C   UNL     1       7.254  -6.713  -3.632  1.00  0.00     0.029 A 
ATOM     56  N   UNL     1       5.857  -6.752  -1.904  1.00  0.00    -0.354 N 
ATOM     57  N   UNL     1       5.048  -7.323   0.817  1.00  0.00    -0.248 NA
ATOM     58  C   UNL     1       5.410  -8.384   2.865  1.00  0.00     0.031 C 
ATOM     59  C   UNL     1       7.857  -7.434  -2.597  1.00  0.00     0.029 A 
ATOM     60  C   UNL     1       6.996  -7.437  -1.513  1.00  0.00     0.049 A 
ATOM     61  H   UNL     1       5.068  -6.598  -1.337  1.00  0.00     0.167 HD
ATOM     62  C   UNL     1       6.284  -7.961   0.793  1.00  0.00     0.074 A 
ATOM     63  C   UNL     1       6.470  -8.571   2.091  1.00  0.00     0.031 C 
ATOM     64  C   UNL     1       7.185  -8.033  -0.217  1.00  0.00     0.031 A 
BRANCH  51  65
ATOM     65  C   UNL     1       5.287  -5.248  -5.375  1.00  0.00    -0.014 A 
ATOM     66  C   UNL     1       5.585  -3.929  -5.747  1.00  0.00     0.009 A 
ATOM     67  C   UNL     1       5.311  -6.257  -6.351  1.00  0.00     0.009 A 
ATOM     68  C   UNL     1       5.879  -3.623  -7.077  1.00  0.00     0.001 A 
ATOM     69  C   UNL     1       5.628  -5.951  -7.675  1.00  0.00     0.001 A 
ATOM     70  C   UNL     1       5.905  -4.633  -8.038  1.00  0.00     0.000 A 
ENDBRANCH  51  65
BRANCH  52  71
ATOM     71  C   UNL     1       2.917  -7.437   4.011  1.00  0.00    -0.014 A 
ATOM     72  C   UNL     1       3.646  -6.902   5.084  1.00  0.00     0.009 A 
ATOM     73  C   UNL     1       1.917  -8.386   4.276  1.00  0.00     0.009 A 
ATOM     74  C   UNL     1       3.405  -7.338   6.390  1.00  0.00     0.001 A 
ATOM     75  C   UNL     1       1.658  -8.798   5.584  1.00  0.00     0.001 A 
ATOM     76  C   UNL     1       2.411  -8.284   6.638  1.00  0.00     0.000 A 
ENDBRANCH  52  71
BRANCH  64  77
ATOM     77  C   UNL     1       8.478  -8.753   0.047  1.00  0.00    -0.014 A 
ATOM     78  C   UNL     1       8.531 -10.152   0.141  1.00  0.00     0.009 A 
ATOM     79  C   UNL     1       9.672  -8.021   0.150  1.00  0.00     0.009 A 
ATOM     80  C   UNL     1       9.750 -10.800   0.360  1.00  0.00     0.001 A 
ATOM     81  C   UNL     1      10.892  -8.672   0.342  1.00  0.00     0.001 A 
ATOM     82  C   UNL     1      10.929 -10.061   0.454  1.00  0.00     0.000 A 
ENDBRANCH  64  77
ENDBRANCH  38  39
ENDBRANCH  31  33
ENDBRANCH  30  31
ENDBRANCH  29  30
ENDBRANCH  28  29
ENDBRANCH  27  28
ENDBRANCH  26  27
ENDBRANCH   1  26
TORSDOF 20
