REMARK SMILES CCCC[C@@H](Sc1nc(OCCC2CCCCC2)cc(OCCC2CCCCC2)n1)C(=O)OCCOCCOCCOC(=O)c1ccc(-c2c3nc(c(-c4ccccc4)c4ccc([nH]4)c(-c4ccccc4)c4nc(c(-c5ccccc5)c5ccc2[nH]5)C=C4)C=C3)cc1
REMARK SMILES IDX 35 1 34 2 33 3 31 4 32 5 5 6 4 7 3 8 2 9 1 10 6 11 7 12 8 13
REMARK SMILES IDX 30 14 9 15 20 16 19 17 10 18 11 19 12 20 13 21 14 22 18 23
REMARK SMILES IDX 15 24 17 25 16 26 21 27 22 28 23 29 24 30 25 31 29 32 26 33
REMARK SMILES IDX 28 34 27 35 36 36 37 37 38 38 39 39 40 40 41 41 42 42 43 43
REMARK SMILES IDX 44 44 45 45 46 46 92 47 47 48 91 49 48 50 49 51 50 52 85 53
REMARK SMILES IDX 51 54 90 55 84 56 86 57 52 58 89 59 83 60 82 61 53 63 75 64
REMARK SMILES IDX 60 65 74 66 61 67 64 68 73 69 87 70 62 71 63 72 72 74 88 75
REMARK SMILES IDX 65 76 54 77 55 78 59 79 56 80 58 81 57 82 76 83 77 84 81 85
REMARK SMILES IDX 78 86 80 87 79 88 66 89 67 90 71 91 68 92 70 93 69 94
REMARK H PARENT 86 62 64 73
REMARK Flexibility Score: inf
ROOT
ATOM      1  C   UNL     1      -2.408  -2.917  -5.444  1.00  0.00     0.202 C 
ENDROOT
BRANCH   1   2
ATOM      2  C   UNL     1      -2.433  -1.421  -5.808  1.00  0.00     0.261 C 
BRANCH   2   3
ATOM      3  O   UNL     1      -1.527  -0.575  -5.062  1.00  0.00    -0.462 OA
BRANCH   3   4
ATOM      4  C   UNL     1      -2.078   0.296  -4.158  1.00  0.00     0.319 C 
ATOM      5  O   UNL     1      -3.284   0.377  -3.944  1.00  0.00    -0.251 OA
BRANCH   4   6
ATOM      6  C   UNL     1      -1.028   1.171  -3.404  1.00  0.00     0.164 C 
BRANCH   6   7
ATOM      7  C   UNL     1       0.396   0.580  -3.488  1.00  0.00     0.027 C 
BRANCH   7   8
ATOM      8  C   UNL     1       1.371   0.667  -2.293  1.00  0.00     0.001 C 
BRANCH   8   9
ATOM      9  C   UNL     1       0.774   0.607  -0.883  1.00  0.00    -0.003 C 
ATOM     10  C   UNL     1       1.714  -0.090   0.094  1.00  0.00     0.004 C 
ENDBRANCH   8   9
ENDBRANCH   7   8
ENDBRANCH   6   7
BRANCH   6  11
ATOM     11  S   UNL     1      -1.246   2.845  -4.156  1.00  0.00    -0.071 SA
BRANCH  11  12
ATOM     12  C   UNL     1      -0.221   3.939  -3.228  1.00  0.00     0.195 A 
ATOM     13  N   UNL     1      -0.462   5.255  -3.414  1.00  0.00    -0.187 NA
ATOM     14  N   UNL     1       0.728   3.496  -2.396  1.00  0.00    -0.187 NA
ATOM     15  C   UNL     1       0.425   6.114  -2.903  1.00  0.00     0.221 A 
ATOM     16  C   UNL     1       1.665   4.411  -2.105  1.00  0.00     0.221 A 
ATOM     17  C   UNL     1       1.704   5.625  -2.754  1.00  0.00     0.136 A 
BRANCH  15  18
ATOM     18  O   UNL     1       0.003   7.306  -1.982  1.00  0.00    -0.477 OA
BRANCH  18  19
ATOM     19  C   UNL     1      -0.901   8.035  -0.434  1.00  0.00     0.231 C 
BRANCH  19  20
ATOM     20  C   UNL     1      -2.270   7.666   0.613  1.00  0.00     0.045 C 
BRANCH  20  21
ATOM     21  C   UNL     1      -2.386   6.357   1.495  1.00  0.00    -0.008 C 
ATOM     22  C   UNL     1      -3.077   6.376   2.870  1.00  0.00     0.004 C 
ATOM     23  C   UNL     1      -3.022   5.137   0.763  1.00  0.00     0.004 C 
ATOM     24  C   UNL     1      -2.643   5.084   3.623  1.00  0.00     0.000 C 
ATOM     25  C   UNL     1      -2.542   3.836   1.395  1.00  0.00     0.000 C 
ATOM     26  C   UNL     1      -2.926   3.777   2.864  1.00  0.00     0.000 C 
ENDBRANCH  20  21
ENDBRANCH  19  20
ENDBRANCH  18  19
ENDBRANCH  15  18
BRANCH  16  27
ATOM     27  O   UNL     1       2.504   4.223  -1.000  1.00  0.00    -0.477 OA
BRANCH  27  28
ATOM     28  C   UNL     1       1.994   4.638   0.323  1.00  0.00     0.231 C 
BRANCH  28  29
ATOM     29  C   UNL     1       1.999   6.184   0.659  1.00  0.00     0.045 C 
BRANCH  29  30
ATOM     30  C   UNL     1       1.136   6.904  -0.367  1.00  0.00    -0.008 C 
ATOM     31  C   UNL     1      -0.509   5.925  -0.678  1.00  0.00     0.004 C 
ATOM     32  C   UNL     1       1.296   8.661  -1.075  1.00  0.00     0.004 C 
ATOM     33  C   UNL     1      -1.903   6.680  -1.838  1.00  0.00     0.000 C 
ATOM     34  C   UNL     1       0.072   9.260  -2.385  1.00  0.00     0.000 C 
ATOM     35  C   UNL     1      -1.555   8.334  -2.710  1.00  0.00     0.000 C 
ENDBRANCH  29  30
ENDBRANCH  28  29
ENDBRANCH  27  28
ENDBRANCH  16  27
ENDBRANCH  11  12
ENDBRANCH   6  11
ENDBRANCH   4   6
ENDBRANCH   3   4
ENDBRANCH   2   3
ENDBRANCH   1   2
BRANCH   1  36
ATOM     36  O   UNL     1      -2.679  -3.252  -4.085  1.00  0.00    -0.376 OA
BRANCH  36  37
ATOM     37  C   UNL     1      -1.748  -2.784  -3.122  1.00  0.00     0.188 C 
BRANCH  37  38
ATOM     38  C   UNL     1      -0.304  -3.244  -3.304  1.00  0.00     0.188 C 
BRANCH  38  39
ATOM     39  O   UNL     1       0.245  -3.156  -4.607  1.00  0.00    -0.376 OA
BRANCH  39  40
ATOM     40  C   UNL     1       1.567  -3.684  -4.754  1.00  0.00     0.202 C 
BRANCH  40  41
ATOM     41  C   UNL     1       1.819  -5.144  -4.293  1.00  0.00     0.261 C 
BRANCH  41  42
ATOM     42  O   UNL     1       1.457  -5.490  -2.934  1.00  0.00    -0.460 OA
BRANCH  42  43
ATOM     43  C   UNL     1       1.991  -4.743  -1.937  1.00  0.00     0.338 C 
ATOM     44  O   UNL     1       2.888  -3.935  -2.050  1.00  0.00    -0.246 OA
BRANCH  43  45
ATOM     45  C   UNL     1       1.119  -4.837  -0.726  1.00  0.00     0.060 A 
ATOM     46  C   UNL     1       0.732  -3.631  -0.129  1.00  0.00     0.016 A 
ATOM     47  C   UNL     1       0.668  -6.036  -0.177  1.00  0.00     0.016 A 
ATOM     48  C   UNL     1      -0.025  -3.599   1.041  1.00  0.00     0.010 A 
ATOM     49  C   UNL     1      -0.089  -6.012   1.011  1.00  0.00     0.010 A 
ATOM     50  C   UNL     1      -0.403  -4.795   1.653  1.00  0.00    -0.014 A 
BRANCH  50  51
ATOM     51  C   UNL     1      -0.931  -4.761   3.046  1.00  0.00     0.031 A 
ATOM     52  C   UNL     1      -0.018  -5.188   4.169  1.00  0.00     0.074 A 
ATOM     53  C   UNL     1      -2.154  -4.280   3.344  1.00  0.00     0.049 A 
ATOM     54  N   UNL     1      -0.272  -5.328   5.446  1.00  0.00    -0.248 NA
ATOM     55  C   UNL     1       1.373  -5.491   3.796  1.00  0.00     0.031 C 
ATOM     56  C   UNL     1      -3.105  -3.719   2.386  1.00  0.00     0.029 A 
ATOM     57  N   UNL     1      -2.802  -4.184   4.553  1.00  0.00    -0.354 N 
ATOM     58  C   UNL     1       0.915  -5.770   6.019  1.00  0.00     0.074 A 
ATOM     59  C   UNL     1       1.882  -5.891   4.951  1.00  0.00     0.031 C 
ATOM     60  C   UNL     1      -4.217  -3.345   3.043  1.00  0.00     0.029 A 
ATOM     61  C   UNL     1      -4.081  -3.690   4.457  1.00  0.00     0.049 A 
ATOM     62  H   UNL     1      -2.389  -4.445   5.408  1.00  0.00     0.167 HD
ATOM     63  C   UNL     1       1.180  -6.052   7.317  1.00  0.00     0.031 A 
ATOM     64  C   UNL     1      -5.045  -3.565   5.392  1.00  0.00     0.031 A 
ATOM     65  C   UNL     1       0.225  -5.928   8.386  1.00  0.00     0.049 A 
ATOM     66  C   UNL     1      -4.766  -3.996   6.810  1.00  0.00     0.074 A 
ATOM     67  C   UNL     1       0.398  -6.200   9.732  1.00  0.00     0.029 A 
ATOM     68  N   UNL     1      -1.082  -5.495   8.230  1.00  0.00    -0.354 N 
ATOM     69  N   UNL     1      -3.654  -4.448   7.336  1.00  0.00    -0.248 NA
ATOM     70  C   UNL     1      -5.882  -3.899   7.765  1.00  0.00     0.031 C 
ATOM     71  C   UNL     1      -0.824  -5.994  10.380  1.00  0.00     0.029 A 
ATOM     72  C   UNL     1      -1.736  -5.521   9.451  1.00  0.00     0.049 A 
ATOM     73  H   UNL     1      -1.486  -5.211   7.378  1.00  0.00     0.167 HD
ATOM     74  C   UNL     1      -3.926  -4.657   8.684  1.00  0.00     0.074 A 
ATOM     75  C   UNL     1      -5.303  -4.268   8.899  1.00  0.00     0.031 C 
ATOM     76  C   UNL     1      -3.107  -5.128   9.657  1.00  0.00     0.031 A 
BRANCH  63  77
ATOM     77  C   UNL     1       2.550  -6.585   7.642  1.00  0.00    -0.014 A 
ATOM     78  C   UNL     1       3.695  -5.776   7.572  1.00  0.00     0.009 A 
ATOM     79  C   UNL     1       2.689  -7.923   8.043  1.00  0.00     0.009 A 
ATOM     80  C   UNL     1       4.955  -6.309   7.856  1.00  0.00     0.001 A 
ATOM     81  C   UNL     1       3.944  -8.444   8.360  1.00  0.00     0.001 A 
ATOM     82  C   UNL     1       5.077  -7.640   8.255  1.00  0.00     0.000 A 
ENDBRANCH  63  77
BRANCH  64  83
ATOM     83  C   UNL     1      -6.395  -3.056   5.018  1.00  0.00    -0.014 A 
ATOM     84  C   UNL     1      -6.874  -1.839   5.528  1.00  0.00     0.009 A 
ATOM     85  C   UNL     1      -7.231  -3.811   4.179  1.00  0.00     0.009 A 
ATOM     86  C   UNL     1      -8.167  -1.402   5.225  1.00  0.00     0.001 A 
ATOM     87  C   UNL     1      -8.510  -3.356   3.851  1.00  0.00     0.001 A 
ATOM     88  C   UNL     1      -8.982  -2.157   4.382  1.00  0.00     0.000 A 
ENDBRANCH  64  83
BRANCH  76  89
ATOM     89  C   UNL     1      -3.657  -5.199  11.056  1.00  0.00    -0.014 A 
ATOM     90  C   UNL     1      -4.636  -6.138  11.416  1.00  0.00     0.009 A 
ATOM     91  C   UNL     1      -3.152  -4.335  12.042  1.00  0.00     0.009 A 
ATOM     92  C   UNL     1      -5.124  -6.184  12.725  1.00  0.00     0.001 A 
ATOM     93  C   UNL     1      -3.617  -4.406  13.356  1.00  0.00     0.001 A 
ATOM     94  C   UNL     1      -4.611  -5.322  13.694  1.00  0.00     0.000 A 
ENDBRANCH  76  89
ENDBRANCH  50  51
ENDBRANCH  43  45
ENDBRANCH  42  43
ENDBRANCH  41  42
ENDBRANCH  40  41
ENDBRANCH  39  40
ENDBRANCH  38  39
ENDBRANCH  37  38
ENDBRANCH  36  37
ENDBRANCH   1  36
TORSDOF 30
