REMARK SMILES CCC[NH2+][C@@H]1COC[C@@H]1C(=O)N[C@@](C)(CC)C(=O)OCCOCCOCCOC(=O)c1ccc(-c2c3nc(c(-c4ccccc4)c4ccc([nH]4)c(-c4ccccc4)c4nc(c(-c5ccccc5)c5ccc2[nH]5)C=C4)C=C3)cc1
REMARK SMILES IDX 22 1 21 2 20 3 19 4 17 5 18 6 13 7 14 8 12 9 10 10 11 11
REMARK SMILES IDX 9 13 5 14 6 15 7 16 8 17 4 18 3 21 2 22 1 23 15 24 16 25
REMARK SMILES IDX 23 26 24 27 25 28 26 29 27 30 28 31 29 32 30 33 31 34 32 35
REMARK SMILES IDX 78 36 33 37 77 38 34 39 35 40 36 41 71 42 37 43 76 44 70 45
REMARK SMILES IDX 72 46 38 47 75 48 69 49 68 50 39 52 61 53 46 54 60 55 47 56
REMARK SMILES IDX 50 57 59 58 73 59 48 60 49 61 58 63 74 64 51 65 40 66 41 67
REMARK SMILES IDX 45 68 42 69 44 70 43 71 62 72 63 73 67 74 64 75 66 76 65 77
REMARK SMILES IDX 52 78 53 79 57 80 54 81 56 82 55 83
REMARK H PARENT 12 12 4 19 4 20 72 51 50 62
REMARK Flexibility Score: inf
ROOT
ATOM      1  O   UNL     1       2.171   3.853   4.454  1.00  0.00    -0.376 OA
ENDROOT
BRANCH   1   2
ATOM      2  C   UNL     1       2.108   5.079   5.188  1.00  0.00     0.202 C 
BRANCH   2   3
ATOM      3  C   UNL     1       1.060   6.121   4.742  1.00  0.00     0.261 C 
BRANCH   3   4
ATOM      4  O   UNL     1      -0.118   5.547   4.148  1.00  0.00    -0.462 OA
BRANCH   4   5
ATOM      5  C   UNL     1      -0.681   6.265   3.127  1.00  0.00     0.331 C 
ATOM      6  O   UNL     1      -0.297   7.379   2.787  1.00  0.00    -0.249 OA
BRANCH   5   7
ATOM      7  C   UNL     1      -1.928   5.567   2.499  1.00  0.00     0.135 C 
ATOM      8  C   UNL     1      -3.061   6.575   2.865  1.00  0.00     0.047 C 
BRANCH   7   9
ATOM      9  N   UNL     1      -1.974   5.496   1.003  1.00  0.00    -0.340 N 
ATOM     10  C   UNL     1      -1.261   5.020  -0.038  1.00  0.00     0.232 C 
ATOM     11  O   UNL     1      -1.975   4.554  -0.943  1.00  0.00    -0.274 OA
ATOM     12  H   UNL     1      -2.788   5.941   0.673  1.00  0.00     0.164 HD
BRANCH  10  13
ATOM     13  C   UNL     1       0.228   5.132  -0.311  1.00  0.00     0.164 C 
ATOM     14  C   UNL     1       1.232   4.128   0.215  1.00  0.00     0.223 C 
ATOM     15  C   UNL     1       1.859   4.854   1.389  1.00  0.00     0.225 C 
ATOM     16  O   UNL     1       1.847   6.249   1.052  1.00  0.00    -0.374 OA
ATOM     17  C   UNL     1       0.854   6.469   0.033  1.00  0.00     0.180 C 
BRANCH  14  18
ATOM     18  N   UNL     1       0.860   2.713   0.285  1.00  0.00    -0.341 N 
ATOM     19  H   UNL     1       0.158   2.548  -0.437  1.00  0.00     0.346 HD
ATOM     20  H   UNL     1       1.741   2.212   0.170  1.00  0.00     0.346 HD
BRANCH  18  21
ATOM     21  C   UNL     1       0.320   2.210   1.533  1.00  0.00     0.260 C 
BRANCH  21  22
ATOM     22  C   UNL     1      -0.449   0.853   1.626  1.00  0.00     0.058 C 
ATOM     23  C   UNL     1       0.112  -0.510   1.208  1.00  0.00     0.010 C 
ENDBRANCH  21  22
ENDBRANCH  18  21
ENDBRANCH  14  18
ENDBRANCH  10  13
ENDBRANCH   7   9
BRANCH   7  24
ATOM     24  C   UNL     1      -2.333   4.219   3.186  1.00  0.00     0.037 C 
ATOM     25  C   UNL     1      -2.918   3.106   2.322  1.00  0.00     0.007 C 
ENDBRANCH   7  24
ENDBRANCH   5   7
ENDBRANCH   4   5
ENDBRANCH   3   4
ENDBRANCH   2   3
ENDBRANCH   1   2
BRANCH   1  26
ATOM     26  C   UNL     1       1.111   2.949   4.768  1.00  0.00     0.188 C 
BRANCH  26  27
ATOM     27  C   UNL     1       1.597   1.496   4.916  1.00  0.00     0.188 C 
BRANCH  27  28
ATOM     28  O   UNL     1       1.980   0.819   3.706  1.00  0.00    -0.376 OA
BRANCH  28  29
ATOM     29  C   UNL     1       3.287   1.147   3.207  1.00  0.00     0.202 C 
BRANCH  29  30
ATOM     30  C   UNL     1       3.651   0.312   1.946  1.00  0.00     0.261 C 
BRANCH  30  31
ATOM     31  O   UNL     1       3.031   0.782   0.709  1.00  0.00    -0.460 OA
BRANCH  31  32
ATOM     32  C   UNL     1       3.362   0.045  -0.404  1.00  0.00     0.338 C 
ATOM     33  O   UNL     1       4.182  -0.857  -0.426  1.00  0.00    -0.246 OA
BRANCH  32  34
ATOM     34  C   UNL     1       2.639   0.482  -1.644  1.00  0.00     0.060 A 
ATOM     35  C   UNL     1       1.272   0.751  -1.646  1.00  0.00     0.016 A 
ATOM     36  C   UNL     1       3.305   0.561  -2.865  1.00  0.00     0.016 A 
ATOM     37  C   UNL     1       0.577   1.208  -2.758  1.00  0.00     0.010 A 
ATOM     38  C   UNL     1       2.608   0.954  -4.022  1.00  0.00     0.010 A 
ATOM     39  C   UNL     1       1.242   1.286  -3.966  1.00  0.00    -0.014 A 
BRANCH  39  40
ATOM     40  C   UNL     1       0.461   1.551  -5.185  1.00  0.00     0.031 A 
ATOM     41  C   UNL     1      -0.085   0.378  -5.934  1.00  0.00     0.074 A 
ATOM     42  C   UNL     1       0.217   2.808  -5.589  1.00  0.00     0.049 A 
ATOM     43  N   UNL     1      -0.505   0.306  -7.166  1.00  0.00    -0.248 NA
ATOM     44  C   UNL     1      -0.167  -0.890  -5.188  1.00  0.00     0.031 C 
ATOM     45  C   UNL     1       0.511   4.019  -4.823  1.00  0.00     0.029 A 
ATOM     46  N   UNL     1      -0.313   3.271  -6.765  1.00  0.00    -0.354 N 
ATOM     47  C   UNL     1      -0.837  -1.028  -7.364  1.00  0.00     0.074 A 
ATOM     48  C   UNL     1      -0.616  -1.721  -6.116  1.00  0.00     0.031 C 
ATOM     49  C   UNL     1       0.218   5.092  -5.578  1.00  0.00     0.029 A 
ATOM     50  C   UNL     1      -0.210   4.635  -6.897  1.00  0.00     0.049 A 
ATOM     51  H   UNL     1      -0.724   2.688  -7.443  1.00  0.00     0.167 HD
ATOM     52  C   UNL     1      -1.245  -1.616  -8.512  1.00  0.00     0.031 A 
ATOM     53  C   UNL     1      -0.361   5.403  -7.992  1.00  0.00     0.031 A 
ATOM     54  C   UNL     1      -1.429  -0.886  -9.736  1.00  0.00     0.049 A 
ATOM     55  C   UNL     1      -0.694   4.721  -9.293  1.00  0.00     0.074 A 
ATOM     56  C   UNL     1      -1.773  -1.358 -10.988  1.00  0.00     0.029 A 
ATOM     57  N   UNL     1      -1.279   0.490  -9.848  1.00  0.00    -0.354 N 
ATOM     58  N   UNL     1      -0.898   3.445  -9.528  1.00  0.00    -0.248 NA
ATOM     59  C   UNL     1      -0.796   5.575 -10.483  1.00  0.00     0.031 C 
ATOM     60  C   UNL     1      -1.784  -0.270 -11.868  1.00  0.00     0.029 A 
ATOM     61  C   UNL     1      -1.504   0.885 -11.152  1.00  0.00     0.049 A 
ATOM     62  H   UNL     1      -1.047   1.095  -9.107  1.00  0.00     0.167 HD
ATOM     63  C   UNL     1      -1.175   3.344 -10.884  1.00  0.00     0.074 A 
ATOM     64  C   UNL     1      -1.123   4.693 -11.417  1.00  0.00     0.031 C 
ATOM     65  C   UNL     1      -1.446   2.244 -11.629  1.00  0.00     0.031 A 
BRANCH  52  66
ATOM     66  C   UNL     1      -1.391  -3.110  -8.505  1.00  0.00    -0.014 A 
ATOM     67  C   UNL     1      -2.446  -3.753  -7.840  1.00  0.00     0.009 A 
ATOM     68  C   UNL     1      -0.424  -3.892  -9.158  1.00  0.00     0.009 A 
ATOM     69  C   UNL     1      -2.511  -5.149  -7.803  1.00  0.00     0.001 A 
ATOM     70  C   UNL     1      -0.505  -5.285  -9.141  1.00  0.00     0.001 A 
ATOM     71  C   UNL     1      -1.543  -5.913  -8.455  1.00  0.00     0.000 A 
ENDBRANCH  52  66
BRANCH  53  72
ATOM     72  C   UNL     1      -0.098   6.867  -7.928  1.00  0.00    -0.014 A 
ATOM     73  C   UNL     1      -1.133   7.795  -8.113  1.00  0.00     0.009 A 
ATOM     74  C   UNL     1       1.200   7.347  -7.683  1.00  0.00     0.009 A 
ATOM     75  C   UNL     1      -0.872   9.168  -8.069  1.00  0.00     0.001 A 
ATOM     76  C   UNL     1       1.453   8.719  -7.610  1.00  0.00     0.001 A 
ATOM     77  C   UNL     1       0.418   9.629  -7.810  1.00  0.00     0.000 A 
ENDBRANCH  53  72
BRANCH  65  78
ATOM     78  C   UNL     1      -1.753   2.471 -13.079  1.00  0.00    -0.014 A 
ATOM     79  C   UNL     1      -0.739   2.765 -14.002  1.00  0.00     0.009 A 
ATOM     80  C   UNL     1      -3.076   2.338 -13.530  1.00  0.00     0.009 A 
ATOM     81  C   UNL     1      -1.050   2.953 -15.349  1.00  0.00     0.001 A 
ATOM     82  C   UNL     1      -3.379   2.501 -14.880  1.00  0.00     0.001 A 
ATOM     83  C   UNL     1      -2.368   2.816 -15.787  1.00  0.00     0.000 A 
ENDBRANCH  65  78
ENDBRANCH  39  40
ENDBRANCH  32  34
ENDBRANCH  31  32
ENDBRANCH  30  31
ENDBRANCH  29  30
ENDBRANCH  28  29
ENDBRANCH  27  28
ENDBRANCH  26  27
ENDBRANCH   1  26
TORSDOF 23
