REMARK SMILES CC[C@](C)(NC(=O)N[C@@H]1C[C@@H]1C)C(=O)OCCOCCOCCOC(=O)c1ccc(-c2c3nc(c(-c4ccccc4)c4ccc([nH]4)c(-c4ccccc4)c4nc(c(-c5ccccc5)c5ccc2[nH]5)C=C4)C=C3)cc1
REMARK SMILES IDX 19 1 18 2 17 3 16 4 15 5 13 6 14 7 3 8 4 9 2 10 1 11 5 12
REMARK SMILES IDX 6 13 7 15 8 16 9 18 10 19 11 20 12 21 20 22 21 23 22 24
REMARK SMILES IDX 23 25 24 26 25 27 26 28 27 29 28 30 74 31 29 32 73 33 30 34
REMARK SMILES IDX 31 35 32 36 67 37 33 38 72 39 66 40 68 41 34 42 71 43 65 44
REMARK SMILES IDX 64 45 35 47 57 48 42 49 56 50 43 51 46 52 55 53 69 54 44 55
REMARK SMILES IDX 45 56 54 58 70 59 47 60 36 61 37 62 41 63 38 64 40 65 39 66
REMARK SMILES IDX 58 67 59 68 63 69 60 70 62 71 61 72 48 73 49 74 53 75 50 76
REMARK SMILES IDX 52 77 51 78
REMARK H PARENT 5 14 8 17 68 46 46 57
REMARK Flexibility Score: inf
ROOT
ATOM      1  C   UNL     1       5.323   2.104  -2.498  1.00  0.00     0.188 C 
ENDROOT
BRANCH   1   2
ATOM      2  O   UNL     1       4.987   0.829  -3.068  1.00  0.00    -0.376 OA
BRANCH   2   3
ATOM      3  C   UNL     1       4.873   0.408  -4.430  1.00  0.00     0.202 C 
BRANCH   3   4
ATOM      4  C   UNL     1       3.423  -0.104  -5.009  1.00  0.00     0.261 C 
BRANCH   4   5
ATOM      5  O   UNL     1       2.543  -1.214  -4.363  1.00  0.00    -0.462 OA
BRANCH   5   6
ATOM      6  C   UNL     1       1.404  -1.637  -3.695  1.00  0.00     0.331 C 
ATOM      7  O   UNL     1       1.201  -2.861  -3.654  1.00  0.00    -0.249 OA
BRANCH   6   8
ATOM      8  C   UNL     1       0.323  -0.723  -2.923  1.00  0.00     0.136 C 
ATOM      9  C   UNL     1       0.261  -0.640  -1.361  1.00  0.00     0.047 C 
BRANCH   8  10
ATOM     10  C   UNL     1      -1.079  -1.310  -3.280  1.00  0.00     0.037 C 
ATOM     11  C   UNL     1      -2.294  -0.402  -3.086  1.00  0.00     0.007 C 
ENDBRANCH   8  10
BRANCH   8  12
ATOM     12  N   UNL     1       0.560   0.595  -3.372  1.00  0.00    -0.322 N 
ATOM     13  C   UNL     1       1.721   1.206  -3.102  1.00  0.00     0.315 C 
ATOM     14  H   UNL     1      -0.133   1.068  -3.888  1.00  0.00     0.166 HD
ATOM     15  O   UNL     1       1.895   2.285  -3.669  1.00  0.00    -0.249 OA
ATOM     16  N   UNL     1       2.724   0.587  -2.392  1.00  0.00    -0.335 N 
ATOM     17  H   UNL     1       3.562   1.075  -2.564  1.00  0.00     0.165 HD
BRANCH  16  18
ATOM     18  C   UNL     1       3.024  -0.519  -1.479  1.00  0.00     0.087 C 
ATOM     19  C   UNL     1       4.428  -0.981  -1.130  1.00  0.00     0.030 C 
ATOM     20  C   UNL     1       3.489  -1.993  -1.688  1.00  0.00     0.010 C 
ATOM     21  C   UNL     1       4.115  -2.798  -2.801  1.00  0.00     0.010 C 
ENDBRANCH  16  18
ENDBRANCH   8  12
ENDBRANCH   6   8
ENDBRANCH   5   6
ENDBRANCH   4   5
ENDBRANCH   3   4
ENDBRANCH   2   3
ENDBRANCH   1   2
BRANCH   1  22
ATOM     22  C   UNL     1       4.687   3.328  -3.114  1.00  0.00     0.188 C 
BRANCH  22  23
ATOM     23  O   UNL     1       5.015   3.304  -4.489  1.00  0.00    -0.376 OA
BRANCH  23  24
ATOM     24  C   UNL     1       4.438   4.335  -5.276  1.00  0.00     0.202 C 
BRANCH  24  25
ATOM     25  C   UNL     1       4.988   5.699  -4.855  1.00  0.00     0.261 C 
BRANCH  25  26
ATOM     26  O   UNL     1       4.427   6.170  -3.615  1.00  0.00    -0.460 OA
BRANCH  26  27
ATOM     27  C   UNL     1       3.070   6.272  -3.574  1.00  0.00     0.338 C 
ATOM     28  O   UNL     1       2.320   6.283  -4.508  1.00  0.00    -0.246 OA
BRANCH  27  29
ATOM     29  C   UNL     1       2.647   6.215  -2.146  1.00  0.00     0.060 A 
ATOM     30  C   UNL     1       1.419   5.614  -1.847  1.00  0.00     0.016 A 
ATOM     31  C   UNL     1       3.427   6.765  -1.122  1.00  0.00     0.016 A 
ATOM     32  C   UNL     1       0.919   5.659  -0.543  1.00  0.00     0.010 A 
ATOM     33  C   UNL     1       2.932   6.800   0.185  1.00  0.00     0.010 A 
ATOM     34  C   UNL     1       1.645   6.310   0.464  1.00  0.00    -0.014 A 
BRANCH  34  35
ATOM     35  C   UNL     1       0.953   6.730   1.710  1.00  0.00     0.031 A 
ATOM     36  C   UNL     1       0.438   8.146   1.783  1.00  0.00     0.074 A 
ATOM     37  C   UNL     1       0.739   5.887   2.735  1.00  0.00     0.049 A 
ATOM     38  N   UNL     1      -0.202   8.753   2.750  1.00  0.00    -0.248 NA
ATOM     39  C   UNL     1       0.679   8.993   0.601  1.00  0.00     0.031 C 
ATOM     40  C   UNL     1       1.150   4.486   2.788  1.00  0.00     0.029 A 
ATOM     41  N   UNL     1       0.114   6.102   3.940  1.00  0.00    -0.354 N 
ATOM     42  C   UNL     1      -0.446  10.041   2.289  1.00  0.00     0.074 A 
ATOM     43  C   UNL     1       0.161  10.149   0.982  1.00  0.00     0.031 C 
ATOM     44  C   UNL     1       0.768   3.966   3.969  1.00  0.00     0.029 A 
ATOM     45  C   UNL     1       0.108   5.003   4.763  1.00  0.00     0.049 A 
ATOM     46  H   UNL     1      -0.293   6.963   4.189  1.00  0.00     0.167 HD
ATOM     47  C   UNL     1      -1.131  11.046   2.884  1.00  0.00     0.031 A 
ATOM     48  C   UNL     1      -0.363   4.857   6.018  1.00  0.00     0.031 A 
ATOM     49  C   UNL     1      -1.717  10.962   4.192  1.00  0.00     0.049 A 
ATOM     50  C   UNL     1      -1.047   6.018   6.697  1.00  0.00     0.074 A 
ATOM     51  C   UNL     1      -2.419  11.931   4.887  1.00  0.00     0.029 A 
ATOM     52  N   UNL     1      -1.665   9.843   5.007  1.00  0.00    -0.354 N 
ATOM     53  N   UNL     1      -1.292   7.223   6.239  1.00  0.00    -0.248 NA
ATOM     54  C   UNL     1      -1.534   5.790   8.066  1.00  0.00     0.031 C 
ATOM     55  C   UNL     1      -2.744  11.416   6.145  1.00  0.00     0.029 A 
ATOM     56  C   UNL     1      -2.304  10.104   6.207  1.00  0.00     0.049 A 
ATOM     57  H   UNL     1      -1.236   8.989   4.769  1.00  0.00     0.167 HD
ATOM     58  C   UNL     1      -1.987   7.881   7.249  1.00  0.00     0.074 A 
ATOM     59  C   UNL     1      -2.144   6.935   8.333  1.00  0.00     0.031 C 
ATOM     60  C   UNL     1      -2.453   9.154   7.278  1.00  0.00     0.031 A 
BRANCH  47  61
ATOM     61  C   UNL     1      -1.261  12.334   2.119  1.00  0.00    -0.014 A 
ATOM     62  C   UNL     1      -2.072  12.420   0.976  1.00  0.00     0.009 A 
ATOM     63  C   UNL     1      -0.579  13.479   2.557  1.00  0.00     0.009 A 
ATOM     64  C   UNL     1      -2.171  13.619   0.268  1.00  0.00     0.001 A 
ATOM     65  C   UNL     1      -0.705  14.685   1.865  1.00  0.00     0.001 A 
ATOM     66  C   UNL     1      -1.493  14.752   0.716  1.00  0.00     0.000 A 
ENDBRANCH  47  61
BRANCH  48  67
ATOM     67  C   UNL     1      -0.191   3.567   6.741  1.00  0.00    -0.014 A 
ATOM     68  C   UNL     1      -1.299   2.776   7.086  1.00  0.00     0.009 A 
ATOM     69  C   UNL     1       1.088   3.149   7.144  1.00  0.00     0.009 A 
ATOM     70  C   UNL     1      -1.133   1.618   7.851  1.00  0.00     0.001 A 
ATOM     71  C   UNL     1       1.254   1.973   7.878  1.00  0.00     0.001 A 
ATOM     72  C   UNL     1       0.143   1.216   8.243  1.00  0.00     0.000 A 
ENDBRANCH  48  67
BRANCH  60  73
ATOM     73  C   UNL     1      -3.214   9.585   8.504  1.00  0.00    -0.014 A 
ATOM     74  C   UNL     1      -2.575   9.763   9.741  1.00  0.00     0.009 A 
ATOM     75  C   UNL     1      -4.591   9.844   8.409  1.00  0.00     0.009 A 
ATOM     76  C   UNL     1      -3.309  10.144  10.867  1.00  0.00     0.001 A 
ATOM     77  C   UNL     1      -5.315  10.259   9.528  1.00  0.00     0.001 A 
ATOM     78  C   UNL     1      -4.676  10.395  10.759  1.00  0.00     0.000 A 
ENDBRANCH  60  73
ENDBRANCH  34  35
ENDBRANCH  27  29
ENDBRANCH  26  27
ENDBRANCH  25  26
ENDBRANCH  24  25
ENDBRANCH  23  24
ENDBRANCH  22  23
ENDBRANCH   1  22
TORSDOF 20
