REMARK SMILES CC(C)C[C@H](NC(=O)CNC(=O)[C@@H](NC(=O)OCc1ccccc1)C(C)C)C(=O)OCCOCCOCCOC(=O)c1ccc(-c2c3nc(c(-c4ccccc4)c4ccc([nH]4)c(-c4ccccc4)c4nc(c(-c5ccccc5)c5ccc2[nH]5)C=C4)C=C3)cc1
REMARK SMILES IDX 31 1 30 2 28 3 29 4 5 5 4 6 2 7 1 8 3 9 6 10 7 11 8 13 9 14
REMARK SMILES IDX 10 15 11 16 12 18 13 19 14 20 15 21 16 23 17 24 18 25 19 26
REMARK SMILES IDX 20 27 24 28 21 29 23 30 22 31 25 32 26 33 27 34 32 35 33 36
REMARK SMILES IDX 34 37 35 38 36 39 37 40 38 41 39 42 40 43 41 44 42 45 43 46
REMARK SMILES IDX 89 47 44 48 88 49 45 50 46 51 47 52 82 53 48 54 87 55 81 56
REMARK SMILES IDX 83 57 49 58 86 59 80 60 79 61 50 63 72 64 57 65 71 66 58 67
REMARK SMILES IDX 61 68 70 69 84 70 59 71 60 72 69 74 85 75 62 76 51 77 52 78
REMARK SMILES IDX 56 79 53 80 55 81 54 82 73 83 74 84 78 85 75 86 77 87 76 88
REMARK SMILES IDX 63 89 64 90 68 91 65 92 67 93 66 94
REMARK H PARENT 6 12 10 17 14 22 83 62 61 73
REMARK Flexibility Score: inf
ROOT
ATOM      1  C   UNL     1      -4.865  -0.486  -4.069  1.00  0.00     0.261 C 
ENDROOT
BRANCH   1   2
ATOM      2  O   UNL     1      -3.519  -0.435  -3.547  1.00  0.00    -0.462 OA
BRANCH   2   3
ATOM      3  C   UNL     1      -2.901   0.770  -3.642  1.00  0.00     0.328 C 
ATOM      4  O   UNL     1      -3.345   1.717  -4.282  1.00  0.00    -0.250 OA
BRANCH   3   5
ATOM      5  C   UNL     1      -1.605   0.862  -2.796  1.00  0.00     0.192 C 
BRANCH   5   6
ATOM      6  C   UNL     1      -0.485   1.390  -3.712  1.00  0.00     0.040 C 
BRANCH   6   7
ATOM      7  C   UNL     1      -0.459   2.928  -3.759  1.00  0.00    -0.015 C 
ATOM      8  C   UNL     1       0.476   3.480  -2.684  1.00  0.00     0.007 C 
ATOM      9  C   UNL     1      -0.027   3.410  -5.141  1.00  0.00     0.007 C 
ENDBRANCH   6   7
ENDBRANCH   5   6
BRANCH   5  10
ATOM     10  N   UNL     1      -1.123  -0.367  -2.162  1.00  0.00    -0.341 N 
ATOM     11  C   UNL     1      -0.624  -0.604  -0.920  1.00  0.00     0.240 C 
ATOM     12  H   UNL     1      -1.168  -1.164  -2.739  1.00  0.00     0.164 HD
ATOM     13  O   UNL     1       0.054  -1.630  -0.788  1.00  0.00    -0.273 OA
BRANCH  11  14
ATOM     14  C   UNL     1      -1.017   0.186   0.352  1.00  0.00     0.216 C 
BRANCH  14  15
ATOM     15  N   UNL     1      -1.518   1.550   0.332  1.00  0.00    -0.345 N 
ATOM     16  C   UNL     1      -2.334   2.335   1.089  1.00  0.00     0.243 C 
ATOM     17  H   UNL     1      -1.170   2.045  -0.445  1.00  0.00     0.164 HD
ATOM     18  O   UNL     1      -2.077   3.533   0.892  1.00  0.00    -0.273 OA
BRANCH  16  19
ATOM     19  C   UNL     1      -3.663   1.919   1.867  1.00  0.00     0.177 C 
BRANCH  19  20
ATOM     20  N   UNL     1      -3.723   0.532   2.332  1.00  0.00    -0.309 N 
ATOM     21  C   UNL     1      -4.850  -0.184   2.627  1.00  0.00     0.408 C 
ATOM     22  H   UNL     1      -2.862   0.066   2.444  1.00  0.00     0.167 HD
ATOM     23  O   UNL     1      -5.168  -1.110   1.897  1.00  0.00    -0.225 OA
BRANCH  21  24
ATOM     24  O   UNL     1      -5.396   0.009   3.848  1.00  0.00    -0.445 OA
BRANCH  24  25
ATOM     25  C   UNL     1      -6.009  -1.184   4.402  1.00  0.00     0.270 C 
BRANCH  25  26
ATOM     26  C   UNL     1      -7.231  -1.794   3.748  1.00  0.00    -0.011 A 
ATOM     27  C   UNL     1      -8.171  -1.030   3.056  1.00  0.00     0.007 A 
ATOM     28  C   UNL     1      -7.434  -3.186   3.857  1.00  0.00     0.007 A 
ATOM     29  C   UNL     1      -9.277  -1.647   2.465  1.00  0.00     0.000 A 
ATOM     30  C   UNL     1      -8.541  -3.799   3.270  1.00  0.00     0.000 A 
ATOM     31  C   UNL     1      -9.463  -3.026   2.572  1.00  0.00     0.000 A 
ENDBRANCH  25  26
ENDBRANCH  24  25
ENDBRANCH  21  24
ENDBRANCH  19  20
BRANCH  19  32
ATOM     32  C   UNL     1      -4.095   2.878   3.028  1.00  0.00     0.015 C 
ATOM     33  C   UNL     1      -3.685   4.348   2.922  1.00  0.00     0.010 C 
ATOM     34  C   UNL     1      -5.626   2.856   3.229  1.00  0.00     0.010 C 
ENDBRANCH  19  32
ENDBRANCH  16  19
ENDBRANCH  14  15
ENDBRANCH  11  14
ENDBRANCH   5  10
ENDBRANCH   3   5
ENDBRANCH   2   3
ENDBRANCH   1   2
BRANCH   1  35
ATOM     35  C   UNL     1      -5.740  -1.391  -3.201  1.00  0.00     0.202 C 
BRANCH  35  36
ATOM     36  O   UNL     1      -6.126  -0.812  -1.960  1.00  0.00    -0.376 OA
BRANCH  36  37
ATOM     37  C   UNL     1      -5.090  -0.486  -1.044  1.00  0.00     0.188 C 
BRANCH  37  38
ATOM     38  C   UNL     1      -4.007  -1.546  -0.762  1.00  0.00     0.188 C 
BRANCH  38  39
ATOM     39  O   UNL     1      -4.381  -2.909  -0.841  1.00  0.00    -0.376 OA
BRANCH  39  40
ATOM     40  C   UNL     1      -4.762  -3.528   0.385  1.00  0.00     0.202 C 
BRANCH  40  41
ATOM     41  C   UNL     1      -3.579  -3.881   1.320  1.00  0.00     0.261 C 
BRANCH  41  42
ATOM     42  O   UNL     1      -3.086  -2.781   2.125  1.00  0.00    -0.460 OA
BRANCH  42  43
ATOM     43  C   UNL     1      -1.817  -2.899   2.611  1.00  0.00     0.338 C 
ATOM     44  O   UNL     1      -1.014  -3.772   2.349  1.00  0.00    -0.246 OA
BRANCH  43  45
ATOM     45  C   UNL     1      -1.510  -1.748   3.510  1.00  0.00     0.060 A 
ATOM     46  C   UNL     1      -0.294  -1.066   3.433  1.00  0.00     0.016 A 
ATOM     47  C   UNL     1      -2.442  -1.334   4.455  1.00  0.00     0.016 A 
ATOM     48  C   UNL     1      -0.043   0.042   4.268  1.00  0.00     0.010 A 
ATOM     49  C   UNL     1      -2.239  -0.180   5.220  1.00  0.00     0.010 A 
ATOM     50  C   UNL     1      -1.010   0.489   5.183  1.00  0.00    -0.014 A 
BRANCH  50  51
ATOM     51  C   UNL     1      -0.683   1.494   6.240  1.00  0.00     0.031 A 
ATOM     52  C   UNL     1      -0.570   1.031   7.673  1.00  0.00     0.074 A 
ATOM     53  C   UNL     1      -0.501   2.805   5.982  1.00  0.00     0.049 A 
ATOM     54  N   UNL     1      -0.097   1.674   8.713  1.00  0.00    -0.248 NA
ATOM     55  C   UNL     1      -1.050  -0.327   7.983  1.00  0.00     0.031 C 
ATOM     56  C   UNL     1      -0.644   3.451   4.681  1.00  0.00     0.029 A 
ATOM     57  N   UNL     1      -0.176   3.842   6.829  1.00  0.00    -0.354 N 
ATOM     58  C   UNL     1      -0.158   0.772   9.766  1.00  0.00     0.074 A 
ATOM     59  C   UNL     1      -0.848  -0.401   9.286  1.00  0.00     0.031 C 
ATOM     60  C   UNL     1      -0.457   4.777   4.823  1.00  0.00     0.029 A 
ATOM     61  C   UNL     1      -0.131   5.072   6.215  1.00  0.00     0.049 A 
ATOM     62  H   UNL     1       0.006   3.714   7.788  1.00  0.00     0.167 HD
ATOM     63  C   UNL     1       0.389   0.860  11.001  1.00  0.00     0.031 A 
ATOM     64  C   UNL     1       0.173   6.290   6.707  1.00  0.00     0.031 A 
ATOM     65  C   UNL     1       1.048   2.025  11.509  1.00  0.00     0.049 A 
ATOM     66  C   UNL     1       0.702   6.414   8.113  1.00  0.00     0.074 A 
ATOM     67  C   UNL     1       1.715   2.194  12.709  1.00  0.00     0.029 A 
ATOM     68  N   UNL     1       1.091   3.240  10.847  1.00  0.00    -0.354 N 
ATOM     69  N   UNL     1       0.853   5.486   9.025  1.00  0.00    -0.248 NA
ATOM     70  C   UNL     1       1.183   7.743   8.525  1.00  0.00     0.031 C 
ATOM     71  C   UNL     1       2.132   3.529  12.788  1.00  0.00     0.029 A 
ATOM     72  C   UNL     1       1.755   4.174  11.620  1.00  0.00     0.049 A 
ATOM     73  H   UNL     1       0.707   3.413   9.957  1.00  0.00     0.167 HD
ATOM     74  C   UNL     1       1.526   6.095  10.079  1.00  0.00     0.074 A 
ATOM     75  C   UNL     1       1.722   7.481   9.708  1.00  0.00     0.031 C 
ATOM     76  C   UNL     1       1.973   5.542  11.233  1.00  0.00     0.031 A 
BRANCH  63  77
ATOM     77  C   UNL     1       0.336  -0.387  11.834  1.00  0.00    -0.014 A 
ATOM     78  C   UNL     1       1.100  -1.511  11.467  1.00  0.00     0.009 A 
ATOM     79  C   UNL     1      -0.506  -0.470  12.949  1.00  0.00     0.009 A 
ATOM     80  C   UNL     1       0.975  -2.712  12.163  1.00  0.00     0.001 A 
ATOM     81  C   UNL     1      -0.608  -1.667  13.661  1.00  0.00     0.001 A 
ATOM     82  C   UNL     1       0.119  -2.789  13.260  1.00  0.00     0.000 A 
ENDBRANCH  63  77
BRANCH  64  83
ATOM     83  C   UNL     1       0.095   7.495   5.837  1.00  0.00    -0.014 A 
ATOM     84  C   UNL     1       1.259   8.062   5.293  1.00  0.00     0.009 A 
ATOM     85  C   UNL     1      -1.140   8.110   5.586  1.00  0.00     0.009 A 
ATOM     86  C   UNL     1       1.190   9.238   4.541  1.00  0.00     0.001 A 
ATOM     87  C   UNL     1      -1.208   9.277   4.818  1.00  0.00     0.001 A 
ATOM     88  C   UNL     1      -0.042   9.844   4.304  1.00  0.00     0.000 A 
ENDBRANCH  64  83
BRANCH  76  89
ATOM     89  C   UNL     1       2.803   6.402  12.141  1.00  0.00    -0.014 A 
ATOM     90  C   UNL     1       2.235   7.418  12.922  1.00  0.00     0.009 A 
ATOM     91  C   UNL     1       4.180   6.149  12.248  1.00  0.00     0.009 A 
ATOM     92  C   UNL     1       3.037   8.185  13.770  1.00  0.00     0.001 A 
ATOM     93  C   UNL     1       4.975   6.899  13.115  1.00  0.00     0.001 A 
ATOM     94  C   UNL     1       4.404   7.922  13.869  1.00  0.00     0.000 A 
ENDBRANCH  76  89
ENDBRANCH  50  51
ENDBRANCH  43  45
ENDBRANCH  42  43
ENDBRANCH  41  42
ENDBRANCH  40  41
ENDBRANCH  39  40
ENDBRANCH  38  39
ENDBRANCH  37  38
ENDBRANCH  36  37
ENDBRANCH  35  36
ENDBRANCH   1  35
TORSDOF 28
