REMARK SMILES CCOc1ccc(-c2csc3ncn([C@H](C)C(=O)OCCOCCOCCOC(=O)c4ccc(-c5c6nc(c(-c7ccccc7)c7ccc([nH]7)c(-c7ccccc7)c7nc(c(-c8ccccc8)c8ccc5[nH]8)C=C7)C=C6)cc4)c(=O)c23)cc1
REMARK SMILES IDX 23 1 22 2 21 3 20 4 19 5 17 6 18 7 15 8 16 9 14 10 8 11 9 12
REMARK SMILES IDX 81 13 10 14 11 15 79 16 12 17 80 18 13 19 7 20 4 21 5 22
REMARK SMILES IDX 83 23 6 24 82 25 3 26 2 27 1 28 24 29 25 30 26 31 27 32
REMARK SMILES IDX 28 33 29 34 30 35 31 36 32 37 78 38 33 39 77 40 34 41 35 42
REMARK SMILES IDX 36 43 71 44 37 45 76 46 70 47 72 48 38 49 75 50 69 51 68 52
REMARK SMILES IDX 39 54 61 55 46 56 60 57 47 58 50 59 59 60 73 61 48 62 49 63
REMARK SMILES IDX 58 65 74 66 51 67 40 68 41 69 45 70 42 71 44 72 43 73 62 74
REMARK SMILES IDX 63 75 67 76 64 77 66 78 65 79 52 80 53 81 57 82 54 83 56 84
REMARK SMILES IDX 55 85
REMARK H PARENT 72 53 50 64
REMARK Flexibility Score: inf
ROOT
ATOM      1  C   UNL     1       8.779   2.325  -4.682  1.00  0.00     0.188 C 
ENDROOT
BRANCH   1   2
ATOM      2  O   UNL     1       7.837   3.306  -4.350  1.00  0.00    -0.376 OA
BRANCH   2   3
ATOM      3  C   UNL     1       6.508   3.172  -4.825  1.00  0.00     0.202 C 
BRANCH   3   4
ATOM      4  C   UNL     1       5.913   1.930  -5.540  1.00  0.00     0.261 C 
BRANCH   4   5
ATOM      5  O   UNL     1       6.587   0.655  -5.473  1.00  0.00    -0.462 OA
BRANCH   5   6
ATOM      6  C   UNL     1       7.182   0.256  -6.628  1.00  0.00     0.329 C 
ATOM      7  O   UNL     1       7.211   0.977  -7.623  1.00  0.00    -0.250 OA
BRANCH   6   8
ATOM      8  C   UNL     1       7.735  -1.198  -6.647  1.00  0.00     0.198 C 
ATOM      9  C   UNL     1       8.097  -1.859  -5.319  1.00  0.00     0.044 C 
BRANCH   8  10
ATOM     10  N   UNL     1       6.802  -1.971  -7.477  1.00  0.00    -0.284 N 
ATOM     11  C   UNL     1       4.736  -1.464 -10.490  1.00  0.00     0.007 A 
ATOM     12  C   UNL     1       3.686  -2.299 -10.837  1.00  0.00     0.076 A 
ATOM     13  C   UNL     1       5.533  -2.075  -9.471  1.00  0.00     0.085 A 
ATOM     14  S   UNL     1       3.581  -3.684  -9.837  1.00  0.00    -0.123 S 
ATOM     15  C   UNL     1       4.899  -3.157  -8.901  1.00  0.00     0.131 A 
ATOM     16  C   UNL     1       6.746  -1.629  -8.828  1.00  0.00     0.263 A 
ATOM     17  N   UNL     1       5.195  -3.719  -7.704  1.00  0.00    -0.227 NA
ATOM     18  O   UNL     1       7.657  -1.066  -9.427  1.00  0.00    -0.268 OA
ATOM     19  C   UNL     1       6.069  -3.050  -7.019  1.00  0.00     0.204 A 
BRANCH  11  20
ATOM     20  C   UNL     1       4.797  -0.097 -11.008  1.00  0.00    -0.016 A 
ATOM     21  C   UNL     1       4.790   2.542 -11.988  1.00  0.00     0.119 A 
ATOM     22  C   UNL     1       5.963   1.788 -12.000  1.00  0.00     0.047 A 
ATOM     23  C   UNL     1       3.621   1.986 -11.484  1.00  0.00     0.047 A 
ATOM     24  C   UNL     1       5.970   0.474 -11.508  1.00  0.00     0.012 A 
ATOM     25  C   UNL     1       3.631   0.686 -10.977  1.00  0.00     0.012 A 
BRANCH  21  26
ATOM     26  O   UNL     1       4.801   3.753 -12.620  1.00  0.00    -0.494 OA
BRANCH  26  27
ATOM     27  C   UNL     1       4.465   4.871 -11.790  1.00  0.00     0.226 C 
ATOM     28  C   UNL     1       2.974   5.170 -11.787  1.00  0.00     0.049 C 
ENDBRANCH  26  27
ENDBRANCH  21  26
ENDBRANCH  11  20
ENDBRANCH   8  10
ENDBRANCH   6   8
ENDBRANCH   5   6
ENDBRANCH   4   5
ENDBRANCH   3   4
ENDBRANCH   2   3
ENDBRANCH   1   2
BRANCH   1  29
ATOM     29  C   UNL     1       8.821   1.108  -3.752  1.00  0.00     0.188 C 
BRANCH  29  30
ATOM     30  O   UNL     1       7.713   0.629  -3.006  1.00  0.00    -0.376 OA
BRANCH  30  31
ATOM     31  C   UNL     1       6.976   1.407  -2.072  1.00  0.00     0.202 C 
BRANCH  31  32
ATOM     32  C   UNL     1       7.631   2.334  -1.051  1.00  0.00     0.261 C 
BRANCH  32  33
ATOM     33  O   UNL     1       8.889   2.817  -1.449  1.00  0.00    -0.460 OA
BRANCH  33  34
ATOM     34  C   UNL     1       9.895   1.986  -1.105  1.00  0.00     0.338 C 
ATOM     35  O   UNL     1       9.819   0.902  -0.560  1.00  0.00    -0.246 OA
BRANCH  34  36
ATOM     36  C   UNL     1      11.150   2.614  -1.522  1.00  0.00     0.060 A 
ATOM     37  C   UNL     1      12.297   1.827  -1.420  1.00  0.00     0.016 A 
ATOM     38  C   UNL     1      11.192   3.999  -1.726  1.00  0.00     0.016 A 
ATOM     39  C   UNL     1      13.487   2.471  -1.209  1.00  0.00     0.010 A 
ATOM     40  C   UNL     1      12.375   4.643  -1.495  1.00  0.00     0.010 A 
ATOM     41  C   UNL     1      13.466   3.866  -1.121  1.00  0.00    -0.014 A 
BRANCH  41  42
ATOM     42  C   UNL     1      14.628   4.505  -0.560  1.00  0.00     0.031 A 
ATOM     43  C   UNL     1      15.720   4.654  -1.527  1.00  0.00     0.074 A 
ATOM     44  C   UNL     1      14.629   4.958   0.706  1.00  0.00     0.049 A 
ATOM     45  N   UNL     1      16.838   4.013  -1.549  1.00  0.00    -0.248 NA
ATOM     46  C   UNL     1      15.459   5.483  -2.714  1.00  0.00     0.031 C 
ATOM     47  C   UNL     1      13.467   5.104   1.594  1.00  0.00     0.029 A 
ATOM     48  N   UNL     1      15.643   5.510   1.425  1.00  0.00    -0.354 N 
ATOM     49  C   UNL     1      17.525   4.546  -2.629  1.00  0.00     0.074 A 
ATOM     50  C   UNL     1      16.558   5.252  -3.429  1.00  0.00     0.031 C 
ATOM     51  C   UNL     1      13.796   5.923   2.616  1.00  0.00     0.029 A 
ATOM     52  C   UNL     1      15.213   6.236   2.525  1.00  0.00     0.049 A 
ATOM     53  H   UNL     1      16.592   5.404   1.186  1.00  0.00     0.167 HD
ATOM     54  C   UNL     1      18.874   4.692  -2.575  1.00  0.00     0.031 A 
ATOM     55  C   UNL     1      15.957   7.101   3.252  1.00  0.00     0.031 A 
ATOM     56  C   UNL     1      19.453   3.911  -1.513  1.00  0.00     0.049 A 
ATOM     57  C   UNL     1      17.384   6.796   3.008  1.00  0.00     0.074 A 
ATOM     58  C   UNL     1      19.677   2.578  -1.256  1.00  0.00     0.029 A 
ATOM     59  N   UNL     1      19.556   4.581  -0.321  1.00  0.00    -0.354 N 
ATOM     60  N   UNL     1      17.965   5.700   3.407  1.00  0.00    -0.248 NA
ATOM     61  C   UNL     1      18.124   7.562   2.011  1.00  0.00     0.031 C 
ATOM     62  C   UNL     1      19.725   2.451   0.164  1.00  0.00     0.029 A 
ATOM     63  C   UNL     1      19.553   3.712   0.736  1.00  0.00     0.049 A 
ATOM     64  H   UNL     1      19.624   5.560  -0.236  1.00  0.00     0.167 HD
ATOM     65  C   UNL     1      18.892   5.421   2.419  1.00  0.00     0.074 A 
ATOM     66  C   UNL     1      19.074   6.675   1.702  1.00  0.00     0.031 C 
ATOM     67  C   UNL     1      19.177   4.132   2.072  1.00  0.00     0.031 A 
BRANCH  54  68
ATOM     68  C   UNL     1      19.567   5.935  -3.086  1.00  0.00    -0.014 A 
ATOM     69  C   UNL     1      20.969   5.984  -3.029  1.00  0.00     0.009 A 
ATOM     70  C   UNL     1      18.901   7.156  -3.322  1.00  0.00     0.009 A 
ATOM     71  C   UNL     1      21.659   7.196  -3.150  1.00  0.00     0.001 A 
ATOM     72  C   UNL     1      19.587   8.360  -3.484  1.00  0.00     0.001 A 
ATOM     73  C   UNL     1      20.968   8.383  -3.373  1.00  0.00     0.000 A 
ENDBRANCH  54  68
BRANCH  55  74
ATOM     74  C   UNL     1      15.521   8.344   3.919  1.00  0.00    -0.014 A 
ATOM     75  C   UNL     1      16.337   8.959   4.880  1.00  0.00     0.009 A 
ATOM     76  C   UNL     1      14.428   9.075   3.419  1.00  0.00     0.009 A 
ATOM     77  C   UNL     1      16.098  10.278   5.285  1.00  0.00     0.001 A 
ATOM     78  C   UNL     1      14.185  10.389   3.829  1.00  0.00     0.001 A 
ATOM     79  C   UNL     1      15.033  10.997   4.748  1.00  0.00     0.000 A 
ENDBRANCH  55  74
BRANCH  67  80
ATOM     80  C   UNL     1      18.900   3.065   3.094  1.00  0.00    -0.014 A 
ATOM     81  C   UNL     1      17.621   2.774   3.593  1.00  0.00     0.009 A 
ATOM     82  C   UNL     1      19.981   2.280   3.525  1.00  0.00     0.009 A 
ATOM     83  C   UNL     1      17.439   1.750   4.529  1.00  0.00     0.001 A 
ATOM     84  C   UNL     1      19.795   1.243   4.439  1.00  0.00     0.001 A 
ATOM     85  C   UNL     1      18.526   0.985   4.949  1.00  0.00     0.000 A 
ENDBRANCH  67  80
ENDBRANCH  41  42
ENDBRANCH  34  36
ENDBRANCH  33  34
ENDBRANCH  32  33
ENDBRANCH  31  32
ENDBRANCH  30  31
ENDBRANCH  29  30
ENDBRANCH   1  29
TORSDOF 21
