REMARK SMILES CC[C@H](C)Oc1ccc(NC(=O)/C=C/C(=O)OCCOCCOCCOC(=O)c2ccc(-c3c4nc(c(-c5ccccc5)c5ccc([nH]5)c(-c5ccccc5)c5nc(c(-c6ccccc6)c6ccc3[nH]6)C=C5)C=C4)cc2)cc1
REMARK SMILES IDX 20 1 19 2 18 3 17 4 15 5 16 6 14 7 13 8 11 9 10 10 12 12
REMARK SMILES IDX 9 13 6 14 7 15 78 16 8 17 77 18 5 19 3 20 4 21 2 22 1 23
REMARK SMILES IDX 21 24 22 25 23 26 24 27 25 28 26 29 27 30 28 31 29 32 30 33
REMARK SMILES IDX 76 34 31 35 75 36 32 37 33 38 34 39 69 40 35 41 74 42 68 43
REMARK SMILES IDX 70 44 36 45 73 46 67 47 66 48 37 50 59 51 44 52 58 53 45 54
REMARK SMILES IDX 48 55 57 56 71 57 46 58 47 59 56 61 72 62 49 63 38 64 39 65
REMARK SMILES IDX 43 66 40 67 42 68 41 69 60 70 61 71 65 72 62 73 64 74 63 75
REMARK SMILES IDX 50 76 51 77 55 78 52 79 54 80 53 81
REMARK H PARENT 10 11 70 49 48 60
REMARK Flexibility Score: inf
ROOT
ATOM      1  O   UNL     1      -0.186  -0.221  -9.637  1.00  0.00    -0.376 OA
ENDROOT
BRANCH   1   2
ATOM      2  C   UNL     1      -0.913  -1.067 -10.525  1.00  0.00     0.202 C 
BRANCH   2   3
ATOM      3  C   UNL     1      -1.949  -2.046  -9.944  1.00  0.00     0.261 C 
BRANCH   3   4
ATOM      4  O   UNL     1      -2.916  -1.459  -9.047  1.00  0.00    -0.460 OA
BRANCH   4   5
ATOM      5  C   UNL     1      -3.219  -2.207  -7.954  1.00  0.00     0.331 C 
ATOM      6  O   UNL     1      -2.791  -3.325  -7.707  1.00  0.00    -0.247 OA
BRANCH   5   7
ATOM      7  C   UNL     1      -4.050  -1.482  -6.970  1.00  0.00     0.099 C 
ATOM      8  C   UNL     1      -4.738  -0.358  -7.212  1.00  0.00     0.079 C 
BRANCH   8   9
ATOM      9  C   UNL     1      -5.481   0.349  -6.144  1.00  0.00     0.248 C 
ATOM     10  N   UNL     1      -4.883   0.781  -4.992  1.00  0.00    -0.323 N 
ATOM     11  H   UNL     1      -5.524   1.118  -4.326  1.00  0.00     0.170 HD
ATOM     12  O   UNL     1      -6.683   0.553  -6.312  1.00  0.00    -0.270 OA
BRANCH  10  13
ATOM     13  C   UNL     1      -3.546   0.845  -4.557  1.00  0.00     0.041 A 
ATOM     14  C   UNL     1      -0.936   0.729  -3.516  1.00  0.00     0.119 A 
ATOM     15  C   UNL     1      -1.154   0.614  -4.881  1.00  0.00     0.048 A 
ATOM     16  C   UNL     1      -2.002   1.046  -2.687  1.00  0.00     0.048 A 
ATOM     17  C   UNL     1      -2.449   0.697  -5.393  1.00  0.00     0.030 A 
ATOM     18  C   UNL     1      -3.306   1.090  -3.203  1.00  0.00     0.030 A 
BRANCH  14  19
ATOM     19  O   UNL     1       0.355   0.604  -3.122  1.00  0.00    -0.491 OA
BRANCH  19  20
ATOM     20  C   UNL     1       0.692  -0.233  -2.002  1.00  0.00     0.170 C 
ATOM     21  C   UNL     1       0.712   0.561  -0.703  1.00  0.00     0.053 C 
BRANCH  20  22
ATOM     22  C   UNL     1       0.035  -1.628  -1.974  1.00  0.00     0.041 C 
ATOM     23  C   UNL     1      -1.074  -1.827  -0.953  1.00  0.00     0.008 C 
ENDBRANCH  20  22
ENDBRANCH  19  20
ENDBRANCH  14  19
ENDBRANCH  10  13
ENDBRANCH   8   9
ENDBRANCH   5   7
ENDBRANCH   4   5
ENDBRANCH   3   4
ENDBRANCH   2   3
ENDBRANCH   1   2
BRANCH   1  24
ATOM     24  C   UNL     1      -0.922   0.560  -8.705  1.00  0.00     0.188 C 
BRANCH  24  25
ATOM     25  C   UNL     1      -2.078   1.444  -9.217  1.00  0.00     0.188 C 
BRANCH  25  26
ATOM     26  O   UNL     1      -2.319   1.304 -10.599  1.00  0.00    -0.376 OA
BRANCH  26  27
ATOM     27  C   UNL     1      -2.008   2.407 -11.432  1.00  0.00     0.202 C 
BRANCH  27  28
ATOM     28  C   UNL     1      -0.600   3.029 -11.393  1.00  0.00     0.261 C 
BRANCH  28  29
ATOM     29  O   UNL     1       0.047   3.132 -10.113  1.00  0.00    -0.460 OA
BRANCH  29  30
ATOM     30  C   UNL     1      -0.244   4.207  -9.356  1.00  0.00     0.338 C 
ATOM     31  O   UNL     1      -1.083   5.073  -9.593  1.00  0.00    -0.246 OA
BRANCH  30  32
ATOM     32  C   UNL     1       0.535   4.131  -8.106  1.00  0.00     0.060 A 
ATOM     33  C   UNL     1      -0.130   3.972  -6.884  1.00  0.00     0.016 A 
ATOM     34  C   UNL     1       1.926   4.271  -8.138  1.00  0.00     0.016 A 
ATOM     35  C   UNL     1       0.595   3.986  -5.688  1.00  0.00     0.010 A 
ATOM     36  C   UNL     1       2.647   4.303  -6.939  1.00  0.00     0.010 A 
ATOM     37  C   UNL     1       1.983   4.192  -5.706  1.00  0.00    -0.014 A 
BRANCH  37  38
ATOM     38  C   UNL     1       2.718   4.433  -4.438  1.00  0.00     0.031 A 
ATOM     39  C   UNL     1       2.933   5.847  -3.975  1.00  0.00     0.074 A 
ATOM     40  C   UNL     1       3.213   3.414  -3.713  1.00  0.00     0.049 A 
ATOM     41  N   UNL     1       3.531   6.285  -2.896  1.00  0.00    -0.248 NA
ATOM     42  C   UNL     1       2.432   6.908  -4.863  1.00  0.00     0.031 C 
ATOM     43  C   UNL     1       3.111   2.005  -4.075  1.00  0.00     0.029 A 
ATOM     44  N   UNL     1       3.892   3.409  -2.518  1.00  0.00    -0.354 N 
ATOM     45  C   UNL     1       3.513   7.671  -2.994  1.00  0.00     0.074 A 
ATOM     46  C   UNL     1       2.844   7.999  -4.235  1.00  0.00     0.031 C 
ATOM     47  C   UNL     1       3.672   1.267  -3.102  1.00  0.00     0.029 A 
ATOM     48  C   UNL     1       4.161   2.147  -2.044  1.00  0.00     0.049 A 
ATOM     49  H   UNL     1       4.159   4.231  -2.046  1.00  0.00     0.167 HD
ATOM     50  C   UNL     1       4.026   8.587  -2.138  1.00  0.00     0.031 A 
ATOM     51  C   UNL     1       4.709   1.749  -0.877  1.00  0.00     0.031 A 
ATOM     52  C   UNL     1       4.711   8.264  -0.915  1.00  0.00     0.049 A 
ATOM     53  C   UNL     1       5.200   2.791   0.095  1.00  0.00     0.074 A 
ATOM     54  C   UNL     1       5.275   9.124   0.012  1.00  0.00     0.029 A 
ATOM     55  N   UNL     1       4.926   6.977  -0.448  1.00  0.00    -0.354 N 
ATOM     56  N   UNL     1       5.136   4.097   0.013  1.00  0.00    -0.248 NA
ATOM     57  C   UNL     1       5.854   2.299   1.318  1.00  0.00     0.031 C 
ATOM     58  C   UNL     1       5.871   8.355   1.017  1.00  0.00     0.029 A 
ATOM     59  C   UNL     1       5.627   7.019   0.746  1.00  0.00     0.049 A 
ATOM     60  H   UNL     1       4.626   6.155  -0.899  1.00  0.00     0.167 HD
ATOM     61  C   UNL     1       5.747   4.581   1.163  1.00  0.00     0.074 A 
ATOM     62  C   UNL     1       6.122   3.429   1.955  1.00  0.00     0.031 C 
ATOM     63  C   UNL     1       6.000   5.864   1.520  1.00  0.00     0.031 A 
BRANCH  50  64
ATOM     64  C   UNL     1       3.913  10.032  -2.534  1.00  0.00    -0.014 A 
ATOM     65  C   UNL     1       2.682  10.706  -2.504  1.00  0.00     0.009 A 
ATOM     66  C   UNL     1       5.062  10.733  -2.933  1.00  0.00     0.009 A 
ATOM     67  C   UNL     1       2.599  12.043  -2.899  1.00  0.00     0.001 A 
ATOM     68  C   UNL     1       4.981  12.077  -3.300  1.00  0.00     0.001 A 
ATOM     69  C   UNL     1       3.748  12.728  -3.292  1.00  0.00     0.000 A 
ENDBRANCH  50  64
BRANCH  51  70
ATOM     70  C   UNL     1       4.784   0.302  -0.525  1.00  0.00    -0.014 A 
ATOM     71  C   UNL     1       4.049  -0.197   0.564  1.00  0.00     0.009 A 
ATOM     72  C   UNL     1       5.591  -0.587  -1.249  1.00  0.00     0.009 A 
ATOM     73  C   UNL     1       4.125  -1.544   0.925  1.00  0.00     0.001 A 
ATOM     74  C   UNL     1       5.645  -1.940  -0.905  1.00  0.00     0.001 A 
ATOM     75  C   UNL     1       4.918  -2.417   0.185  1.00  0.00     0.000 A 
ENDBRANCH  51  70
BRANCH  63  76
ATOM     76  C   UNL     1       6.721   6.086   2.821  1.00  0.00    -0.014 A 
ATOM     77  C   UNL     1       8.080   5.762   2.961  1.00  0.00     0.009 A 
ATOM     78  C   UNL     1       6.044   6.661   3.907  1.00  0.00     0.009 A 
ATOM     79  C   UNL     1       8.736   5.973   4.175  1.00  0.00     0.001 A 
ATOM     80  C   UNL     1       6.711   6.898   5.111  1.00  0.00     0.001 A 
ATOM     81  C   UNL     1       8.053   6.544   5.247  1.00  0.00     0.000 A 
ENDBRANCH  63  76
ENDBRANCH  37  38
ENDBRANCH  30  32
ENDBRANCH  29  30
ENDBRANCH  28  29
ENDBRANCH  27  28
ENDBRANCH  26  27
ENDBRANCH  25  26
ENDBRANCH  24  25
ENDBRANCH   1  24
TORSDOF 22
