REMARK SMILES Cc1ccccc1NC(=S)NN1C(=O)CS[C@H]1c1ccccc1C(=O)OCCOCCOCCOC(=O)c1ccc(-c2c3nc(c(-c4ccccc4)c4ccc([nH]4)c(-c4ccccc4)c4nc(c(-c5ccccc5)c5ccc2[nH]5)C=C4)C=C3)cc1
REMARK SMILES IDX 29 1 28 2 27 3 26 4 24 5 25 6 23 7 18 8 19 9 20 10 22 11
REMARK SMILES IDX 21 12 17 13 12 14 13 15 14 16 15 17 16 18 11 19 9 21 10 22
REMARK SMILES IDX 8 23 7 25 1 26 2 27 3 28 4 29 6 30 5 31 30 32 31 33 32 34
REMARK SMILES IDX 33 35 34 36 35 37 36 38 37 39 38 40 39 41 85 42 40 43 84 44
REMARK SMILES IDX 41 45 42 46 43 47 78 48 44 49 83 50 77 51 79 52 45 53 82 54
REMARK SMILES IDX 76 55 75 56 46 58 68 59 53 60 67 61 54 62 57 63 66 64 80 65
REMARK SMILES IDX 55 66 56 67 65 69 81 70 58 71 47 72 48 73 52 74 49 75 51 76
REMARK SMILES IDX 50 77 69 78 70 79 74 80 71 81 73 82 72 83 59 84 60 85 64 86
REMARK SMILES IDX 61 87 63 88 62 89
REMARK H PARENT 11 20 8 24 79 57 57 68
REMARK Flexibility Score: inf
ROOT
ATOM      1  O   UNL     1       2.531   5.436  -2.874  1.00  0.00    -0.376 OA
ENDROOT
BRANCH   1   2
ATOM      2  C   UNL     1       2.062   5.107  -1.569  1.00  0.00     0.202 C 
BRANCH   2   3
ATOM      3  C   UNL     1       0.573   4.725  -1.473  1.00  0.00     0.261 C 
BRANCH   3   4
ATOM      4  O   UNL     1      -0.568   5.884  -1.298  1.00  0.00    -0.460 OA
BRANCH   4   5
ATOM      5  C   UNL     1      -1.828   6.281  -0.640  1.00  0.00     0.338 C 
ATOM      6  O   UNL     1      -2.082   7.466  -0.908  1.00  0.00    -0.246 OA
BRANCH   5   7
ATOM      7  C   UNL     1      -3.207   5.502   0.245  1.00  0.00     0.066 A 
ATOM      8  C   UNL     1      -3.969   4.075   0.228  1.00  0.00     0.001 A 
ATOM      9  C   UNL     1      -5.390   4.197   0.276  1.00  0.00     0.008 A 
ATOM     10  C   UNL     1      -6.054   5.404   0.537  1.00  0.00     0.000 A 
ATOM     11  C   UNL     1      -3.973   6.622   0.669  1.00  0.00     0.016 A 
ATOM     12  C   UNL     1      -5.359   6.577   0.794  1.00  0.00     0.001 A 
BRANCH   8  13
ATOM     13  C   UNL     1      -3.521   2.309   0.047  1.00  0.00     0.197 C 
ATOM     14  N   UNL     1      -2.268   1.282   0.524  1.00  0.00    -0.236 N 
ATOM     15  C   UNL     1      -2.602  -0.064   0.722  1.00  0.00     0.252 C 
ATOM     16  O   UNL     1      -1.829  -1.004   0.872  1.00  0.00    -0.272 OA
ATOM     17  C   UNL     1      -4.064  -0.308   0.571  1.00  0.00     0.174 C 
ATOM     18  S   UNL     1      -4.924   1.244   0.834  1.00  0.00    -0.120 SA
BRANCH  14  19
ATOM     19  N   UNL     1      -0.740   1.446   0.275  1.00  0.00    -0.270 N 
ATOM     20  H   UNL     1      -0.535   2.145  -0.388  1.00  0.00     0.191 HD
BRANCH  19  21
ATOM     21  C   UNL     1       0.408   0.825   0.778  1.00  0.00     0.189 C 
ATOM     22  S   UNL     1       0.860   0.285   2.287  1.00  0.00    -0.039 S 
BRANCH  21  23
ATOM     23  N   UNL     1       1.419   0.770  -0.224  1.00  0.00    -0.331 N 
ATOM     24  H   UNL     1       2.122   1.452  -0.325  1.00  0.00     0.169 HD
BRANCH  23  25
ATOM     25  C   UNL     1       1.307  -0.383  -1.071  1.00  0.00     0.043 A 
ATOM     26  C   UNL     1       3.254  -1.572   0.054  1.00  0.00     0.046 C 
ATOM     27  C   UNL     1       1.959  -1.561  -0.701  1.00  0.00    -0.028 A 
ATOM     28  C   UNL     1       1.296  -2.770  -0.951  1.00  0.00     0.005 A 
ATOM     29  C   UNL     1       0.083  -2.797  -1.646  1.00  0.00     0.000 A 
ATOM     30  C   UNL     1       0.249  -0.440  -1.971  1.00  0.00     0.026 A 
ATOM     31  C   UNL     1      -0.410  -1.634  -2.216  1.00  0.00     0.002 A 
ENDBRANCH  23  25
ENDBRANCH  21  23
ENDBRANCH  19  21
ENDBRANCH  14  19
ENDBRANCH   8  13
ENDBRANCH   5   7
ENDBRANCH   4   5
ENDBRANCH   3   4
ENDBRANCH   2   3
ENDBRANCH   1   2
BRANCH   1  32
ATOM     32  C   UNL     1       1.772   6.480  -3.460  1.00  0.00     0.188 C 
BRANCH  32  33
ATOM     33  C   UNL     1       0.694   5.966  -4.420  1.00  0.00     0.188 C 
BRANCH  33  34
ATOM     34  O   UNL     1       0.361   4.604  -4.235  1.00  0.00    -0.376 OA
BRANCH  34  35
ATOM     35  C   UNL     1       1.073   3.625  -4.976  1.00  0.00     0.202 C 
BRANCH  35  36
ATOM     36  C   UNL     1       0.337   3.393  -6.297  1.00  0.00     0.261 C 
BRANCH  36  37
ATOM     37  O   UNL     1      -0.964   2.821  -6.030  1.00  0.00    -0.460 OA
BRANCH  37  38
ATOM     38  C   UNL     1      -1.902   3.743  -5.665  1.00  0.00     0.338 C 
ATOM     39  O   UNL     1      -2.224   4.715  -6.306  1.00  0.00    -0.246 OA
BRANCH  38  40
ATOM     40  C   UNL     1      -2.246   3.524  -4.231  1.00  0.00     0.060 A 
ATOM     41  C   UNL     1      -2.841   4.526  -3.538  1.00  0.00     0.016 A 
ATOM     42  C   UNL     1      -1.774   2.477  -3.471  1.00  0.00     0.016 A 
ATOM     43  C   UNL     1      -2.698   4.552  -2.127  1.00  0.00     0.010 A 
ATOM     44  C   UNL     1      -1.603   2.595  -2.047  1.00  0.00     0.010 A 
ATOM     45  C   UNL     1      -1.866   3.715  -1.207  1.00  0.00    -0.014 A 
BRANCH  45  46
ATOM     46  C   UNL     1      -1.274   3.968   0.581  1.00  0.00     0.031 A 
ATOM     47  C   UNL     1      -1.905   3.326   1.998  1.00  0.00     0.074 A 
ATOM     48  C   UNL     1      -0.271   4.768   1.173  1.00  0.00     0.049 A 
ATOM     49  N   UNL     1      -1.314   2.375   2.667  1.00  0.00    -0.248 NA
ATOM     50  C   UNL     1      -3.137   3.719   2.743  1.00  0.00     0.031 C 
ATOM     51  C   UNL     1       0.542   4.425   2.367  1.00  0.00     0.029 A 
ATOM     52  N   UNL     1       0.379   5.961   0.821  1.00  0.00    -0.354 N 
ATOM     53  C   UNL     1      -2.107   1.911   3.690  1.00  0.00     0.074 A 
ATOM     54  C   UNL     1      -3.269   2.760   3.665  1.00  0.00     0.031 C 
ATOM     55  C   UNL     1       1.376   5.426   2.692  1.00  0.00     0.029 A 
ATOM     56  C   UNL     1       1.059   6.550   1.853  1.00  0.00     0.049 A 
ATOM     57  H   UNL     1       0.349   6.340  -0.087  1.00  0.00     0.167 HD
ATOM     58  C   UNL     1      -1.562   1.505   4.867  1.00  0.00     0.031 A 
ATOM     59  C   UNL     1       0.932   7.859   2.195  1.00  0.00     0.031 A 
ATOM     60  C   UNL     1      -0.612   2.469   5.388  1.00  0.00     0.049 A 
ATOM     61  C   UNL     1       0.489   7.882   3.630  1.00  0.00     0.074 A 
ATOM     62  C   UNL     1       0.757   2.506   5.585  1.00  0.00     0.029 A 
ATOM     63  N   UNL     1      -1.070   3.761   5.613  1.00  0.00    -0.354 N 
ATOM     64  N   UNL     1      -0.145   6.870   4.165  1.00  0.00    -0.248 NA
ATOM     65  C   UNL     1       0.809   8.924   4.598  1.00  0.00     0.031 C 
ATOM     66  C   UNL     1       1.119   3.855   5.873  1.00  0.00     0.029 A 
ATOM     67  C   UNL     1      -0.038   4.618   5.906  1.00  0.00     0.049 A 
ATOM     68  H   UNL     1      -2.016   4.028   5.567  1.00  0.00     0.167 HD
ATOM     69  C   UNL     1      -0.092   7.000   5.517  1.00  0.00     0.074 A 
ATOM     70  C   UNL     1       0.402   8.346   5.745  1.00  0.00     0.031 C 
ATOM     71  C   UNL     1      -0.328   5.966   6.367  1.00  0.00     0.031 A 
BRANCH  58  72
ATOM     72  C   UNL     1      -1.542  -0.006   5.016  1.00  0.00    -0.014 A 
ATOM     73  C   UNL     1      -0.586  -0.682   5.789  1.00  0.00     0.009 A 
ATOM     74  C   UNL     1      -2.483  -0.817   4.336  1.00  0.00     0.009 A 
ATOM     75  C   UNL     1      -0.526  -2.088   5.818  1.00  0.00     0.001 A 
ATOM     76  C   UNL     1      -2.421  -2.216   4.355  1.00  0.00     0.001 A 
ATOM     77  C   UNL     1      -1.433  -2.854   5.090  1.00  0.00     0.000 A 
ENDBRANCH  58  72
BRANCH  59  78
ATOM     78  C   UNL     1       0.624   8.828   1.101  1.00  0.00    -0.014 A 
ATOM     79  C   UNL     1       1.558   8.926   0.041  1.00  0.00     0.009 A 
ATOM     80  C   UNL     1      -0.622   9.439   0.915  1.00  0.00     0.009 A 
ATOM     81  C   UNL     1       1.228   9.510  -1.189  1.00  0.00     0.001 A 
ATOM     82  C   UNL     1      -0.947  10.037  -0.321  1.00  0.00     0.001 A 
ATOM     83  C   UNL     1      -0.041  10.037  -1.382  1.00  0.00     0.000 A 
ENDBRANCH  59  78
BRANCH  71  84
ATOM     84  C   UNL     1      -0.881   6.136   7.750  1.00  0.00    -0.014 A 
ATOM     85  C   UNL     1      -1.497   7.317   8.178  1.00  0.00     0.009 A 
ATOM     86  C   UNL     1      -1.021   4.996   8.572  1.00  0.00     0.009 A 
ATOM     87  C   UNL     1      -2.212   7.359   9.377  1.00  0.00     0.001 A 
ATOM     88  C   UNL     1      -1.777   5.022   9.741  1.00  0.00     0.001 A 
ATOM     89  C   UNL     1      -2.368   6.209  10.146  1.00  0.00     0.000 A 
ENDBRANCH  71  84
ENDBRANCH  45  46
ENDBRANCH  38  40
ENDBRANCH  37  38
ENDBRANCH  36  37
ENDBRANCH  35  36
ENDBRANCH  34  35
ENDBRANCH  33  34
ENDBRANCH  32  33
ENDBRANCH   1  32
TORSDOF 22
