REMARK SMILES COc1cc2c(cc1OC)C1=C(C#N)C[N@H+](CC(=O)OCCOCCOCCOC(=O)c3ccc(-c4c5nc(c(-c6ccccc6)c6ccc([nH]6)c(-c6ccccc6)c6nc(c(-c7ccccc7)c7ccc4[nH]7)C=C6)C=C5)cc3)CN1CC2
REMARK SMILES IDX 24 1 23 2 22 3 21 4 20 5 18 6 19 7 17 8 16 9 3 10 4 11 8 12
REMARK SMILES IDX 5 13 7 14 6 15 83 16 11 17 82 18 12 19 81 20 15 21 80 22
REMARK SMILES IDX 2 24 1 25 9 26 10 27 13 28 14 29 25 30 26 31 27 32 28 33
REMARK SMILES IDX 29 34 30 35 31 36 32 37 33 38 79 39 34 40 78 41 35 42 36 43
REMARK SMILES IDX 37 44 72 45 38 46 77 47 71 48 73 49 39 50 76 51 70 52 69 53
REMARK SMILES IDX 40 55 62 56 47 57 61 58 48 59 51 60 60 61 74 62 49 63 50 64
REMARK SMILES IDX 59 66 75 67 52 68 41 69 42 70 46 71 43 72 45 73 44 74 63 75
REMARK SMILES IDX 64 76 68 77 65 78 67 79 66 80 53 81 54 82 58 83 55 84 57 85
REMARK SMILES IDX 56 86
REMARK H PARENT 16 23 73 54 51 65
REMARK Flexibility Score: inf
ROOT
ATOM      1  C   UNL     1       5.015   7.179   0.648  1.00  0.00     0.188 C 
ENDROOT
BRANCH   1   2
ATOM      2  O   UNL     1       4.669   7.905   1.831  1.00  0.00    -0.376 OA
BRANCH   2   3
ATOM      3  C   UNL     1       3.290   8.076   2.137  1.00  0.00     0.202 C 
BRANCH   3   4
ATOM      4  C   UNL     1       2.579   9.157   1.321  1.00  0.00     0.261 C 
BRANCH   4   5
ATOM      5  O   UNL     1       2.800   9.000  -0.088  1.00  0.00    -0.459 OA
BRANCH   5   6
ATOM      6  C   UNL     1       3.520   9.943  -0.759  1.00  0.00     0.361 C 
ATOM      7  O   UNL     1       3.906  10.999  -0.274  1.00  0.00    -0.245 OA
BRANCH   6   8
ATOM      8  C   UNL     1       3.837   9.523  -2.219  1.00  0.00     0.388 C 
BRANCH   8   9
ATOM      9  N   UNL     1       3.274   8.216  -2.528  1.00  0.00    -0.304 N 
ATOM     10  C   UNL     1       1.010   1.605  -2.282  1.00  0.00     0.161 A 
ATOM     11  C   UNL     1       2.324   1.982  -2.585  1.00  0.00     0.055 A 
ATOM     12  C   UNL     1      -0.023   2.496  -2.541  1.00  0.00     0.161 A 
ATOM     13  C   UNL     1       2.627   3.298  -2.994  1.00  0.00    -0.033 A 
ATOM     14  C   UNL     1       0.307   3.807  -2.937  1.00  0.00     0.061 A 
ATOM     15  C   UNL     1       1.626   4.285  -3.025  1.00  0.00     0.006 A 
ATOM     16  C   UNL     1       4.051   3.677  -3.311  1.00  0.00     0.058 C 
ATOM     17  C   UNL     1       2.054   5.750  -3.070  1.00  0.00     0.068 C 
ATOM     18  C   UNL     1       4.123   4.928  -4.192  1.00  0.00     0.127 C 
ATOM     19  C   UNL     1       1.333   6.812  -2.610  1.00  0.00     0.108 C 
ATOM     20  N   UNL     1       3.355   5.997  -3.556  1.00  0.00    -0.323 N 
ATOM     21  C   UNL     1       1.829   8.214  -2.725  1.00  0.00     0.314 C 
ATOM     22  C   UNL     1       3.892   7.368  -3.536  1.00  0.00     0.390 C 
ATOM     23  H   UNL     1       3.530   7.768  -1.648  1.00  0.00     0.350 HD
BRANCH  10  24
ATOM     24  O   UNL     1       0.780   0.341  -1.809  1.00  0.00    -0.493 OA
ATOM     25  C   UNL     1       1.163   0.239  -0.434  1.00  0.00     0.278 C 
ENDBRANCH  10  24
BRANCH  12  26
ATOM     26  O   UNL     1      -1.373   2.309  -2.422  1.00  0.00    -0.493 OA
ATOM     27  C   UNL     1      -1.874   1.015  -2.128  1.00  0.00     0.278 C 
ENDBRANCH  12  26
BRANCH  19  28
ATOM     28  C   UNL     1      -0.149   6.602  -2.346  1.00  0.00     0.103 C 
ATOM     29  N   UNL     1      -1.378   6.427  -2.127  1.00  0.00    -0.192 NA
ENDBRANCH  19  28
ENDBRANCH   8   9
ENDBRANCH   6   8
ENDBRANCH   5   6
ENDBRANCH   4   5
ENDBRANCH   3   4
ENDBRANCH   2   3
ENDBRANCH   1   2
BRANCH   1  30
ATOM     30  C   UNL     1       3.993   6.215   0.037  1.00  0.00     0.188 C 
BRANCH  30  31
ATOM     31  O   UNL     1       3.483   5.325   1.030  1.00  0.00    -0.376 OA
BRANCH  31  32
ATOM     32  C   UNL     1       3.332   3.994   0.564  1.00  0.00     0.202 C 
BRANCH  32  33
ATOM     33  C   UNL     1       4.623   3.222   0.813  1.00  0.00     0.261 C 
BRANCH  33  34
ATOM     34  O   UNL     1       5.763   3.952   0.316  1.00  0.00    -0.460 OA
BRANCH  34  35
ATOM     35  C   UNL     1       6.438   3.430  -0.725  1.00  0.00     0.338 C 
ATOM     36  O   UNL     1       6.228   2.390  -1.313  1.00  0.00    -0.246 OA
BRANCH  35  37
ATOM     37  C   UNL     1       7.542   4.351  -1.042  1.00  0.00     0.060 A 
ATOM     38  C   UNL     1       8.797   4.045  -0.526  1.00  0.00     0.016 A 
ATOM     39  C   UNL     1       7.359   5.464  -1.874  1.00  0.00     0.016 A 
ATOM     40  C   UNL     1       9.878   4.858  -0.846  1.00  0.00     0.010 A 
ATOM     41  C   UNL     1       8.456   6.262  -2.221  1.00  0.00     0.010 A 
ATOM     42  C   UNL     1       9.723   5.959  -1.709  1.00  0.00    -0.014 A 
BRANCH  42  43
ATOM     43  C   UNL     1      10.946   6.702  -2.096  1.00  0.00     0.031 A 
ATOM     44  C   UNL     1      11.291   8.002  -1.446  1.00  0.00     0.074 A 
ATOM     45  C   UNL     1      11.816   6.101  -2.929  1.00  0.00     0.049 A 
ATOM     46  N   UNL     1      12.455   8.594  -1.371  1.00  0.00    -0.248 NA
ATOM     47  C   UNL     1      10.195   8.731  -0.793  1.00  0.00     0.031 C 
ATOM     48  C   UNL     1      11.555   4.846  -3.636  1.00  0.00     0.029 A 
ATOM     49  N   UNL     1      13.108   6.416  -3.263  1.00  0.00    -0.354 N 
ATOM     50  C   UNL     1      12.244   9.739  -0.616  1.00  0.00     0.074 A 
ATOM     51  C   UNL     1      10.826   9.801  -0.328  1.00  0.00     0.031 C 
ATOM     52  C   UNL     1      12.679   4.452  -4.252  1.00  0.00     0.029 A 
ATOM     53  C   UNL     1      13.733   5.429  -3.990  1.00  0.00     0.049 A 
ATOM     54  H   UNL     1      13.544   7.261  -3.009  1.00  0.00     0.167 HD
ATOM     55  C   UNL     1      13.161  10.635  -0.177  1.00  0.00     0.031 A 
ATOM     56  C   UNL     1      15.022   5.293  -4.358  1.00  0.00     0.031 A 
ATOM     57  C   UNL     1      14.558  10.580  -0.521  1.00  0.00     0.049 A 
ATOM     58  C   UNL     1      16.020   6.314  -3.893  1.00  0.00     0.074 A 
ATOM     59  C   UNL     1      15.575  11.437  -0.141  1.00  0.00     0.029 A 
ATOM     60  N   UNL     1      15.132   9.615  -1.339  1.00  0.00    -0.354 N 
ATOM     61  N   UNL     1      15.829   7.353  -3.115  1.00  0.00    -0.248 NA
ATOM     62  C   UNL     1      17.410   6.138  -4.334  1.00  0.00     0.031 C 
ATOM     63  C   UNL     1      16.749  11.029  -0.782  1.00  0.00     0.029 A 
ATOM     64  C   UNL     1      16.482   9.874  -1.501  1.00  0.00     0.049 A 
ATOM     65  H   UNL     1      14.649   8.858  -1.743  1.00  0.00     0.167 HD
ATOM     66  C   UNL     1      17.072   7.953  -2.967  1.00  0.00     0.074 A 
ATOM     67  C   UNL     1      18.015   7.146  -3.717  1.00  0.00     0.031 C 
ATOM     68  C   UNL     1      17.400   9.071  -2.274  1.00  0.00     0.031 A 
BRANCH  55  69
ATOM     69  C   UNL     1      12.678  11.741   0.722  1.00  0.00    -0.014 A 
ATOM     70  C   UNL     1      12.722  13.077   0.293  1.00  0.00     0.009 A 
ATOM     71  C   UNL     1      12.220  11.465   2.022  1.00  0.00     0.009 A 
ATOM     72  C   UNL     1      12.316  14.110   1.142  1.00  0.00     0.001 A 
ATOM     73  C   UNL     1      11.785  12.496   2.857  1.00  0.00     0.001 A 
ATOM     74  C   UNL     1      11.839  13.818   2.419  1.00  0.00     0.000 A 
ENDBRANCH  55  69
BRANCH  56  75
ATOM     75  C   UNL     1      15.420   4.088  -5.135  1.00  0.00    -0.014 A 
ATOM     76  C   UNL     1      14.967   3.913  -6.454  1.00  0.00     0.009 A 
ATOM     77  C   UNL     1      16.152   3.054  -4.530  1.00  0.00     0.009 A 
ATOM     78  C   UNL     1      15.199   2.716  -7.134  1.00  0.00     0.001 A 
ATOM     79  C   UNL     1      16.406   1.867  -5.224  1.00  0.00     0.001 A 
ATOM     80  C   UNL     1      15.917   1.693  -6.518  1.00  0.00     0.000 A 
ENDBRANCH  56  75
BRANCH  68  81
ATOM     81  C   UNL     1      18.835   9.520  -2.306  1.00  0.00    -0.014 A 
ATOM     82  C   UNL     1      19.610   9.472  -1.135  1.00  0.00     0.009 A 
ATOM     83  C   UNL     1      19.380  10.104  -3.459  1.00  0.00     0.009 A 
ATOM     84  C   UNL     1      20.893  10.021  -1.113  1.00  0.00     0.001 A 
ATOM     85  C   UNL     1      20.676  10.625  -3.442  1.00  0.00     0.001 A 
ATOM     86  C   UNL     1      21.425  10.594  -2.266  1.00  0.00     0.000 A 
ENDBRANCH  68  81
ENDBRANCH  42  43
ENDBRANCH  35  37
ENDBRANCH  34  35
ENDBRANCH  33  34
ENDBRANCH  32  33
ENDBRANCH  31  32
ENDBRANCH  30  31
ENDBRANCH   1  30
TORSDOF 21
