REMARK SMILES Cc1nc(Nc2ccc(F)cc2)nc(OCC(=O)OCCOCCOCCOC(=O)c2ccc(-c3c4nc(c(-c5ccccc5)c5ccc([nH]5)c(-c5ccccc5)c5nc(c(-c6ccccc6)c6ccc3[nH]6)C=C5)C=C4)cc2)c1CCO
REMARK SMILES IDX 22 1 21 2 20 3 19 4 17 5 18 6 16 7 15 8 14 9 1 10 2 11 3 12
REMARK SMILES IDX 79 13 4 14 13 15 80 16 81 17 82 18 5 20 6 22 7 23 12 24 8 25
REMARK SMILES IDX 11 26 9 27 10 28 23 29 24 30 25 31 26 32 27 33 28 34 29 35
REMARK SMILES IDX 30 36 31 37 32 38 78 39 33 40 77 41 34 42 35 43 36 44 71 45
REMARK SMILES IDX 37 46 76 47 70 48 72 49 38 50 75 51 69 52 68 53 39 55 61 56
REMARK SMILES IDX 46 57 60 58 47 59 50 60 59 61 73 62 48 63 49 64 58 66 74 67
REMARK SMILES IDX 51 68 40 69 41 70 45 71 42 72 44 73 43 74 62 75 63 76 67 77
REMARK SMILES IDX 64 78 66 79 65 80 52 81 53 82 57 83 54 84 56 85 55 86
REMARK H PARENT 82 19 5 21 72 54 50 65
REMARK Flexibility Score: inf
ROOT
ATOM      1  O   UNL     1      -1.349  -3.509   3.822  1.00  0.00    -0.376 OA
ENDROOT
BRANCH   1   2
ATOM      2  C   UNL     1      -0.080  -3.895   4.347  1.00  0.00     0.202 C 
BRANCH   2   3
ATOM      3  C   UNL     1       0.749  -4.790   3.424  1.00  0.00     0.261 C 
BRANCH   3   4
ATOM      4  O   UNL     1       1.550  -3.990   2.527  1.00  0.00    -0.461 OA
BRANCH   4   5
ATOM      5  C   UNL     1       1.590  -4.361   1.218  1.00  0.00     0.344 C 
ATOM      6  O   UNL     1       1.002  -5.329   0.751  1.00  0.00    -0.248 OA
BRANCH   5   7
ATOM      7  C   UNL     1       2.474  -3.423   0.388  1.00  0.00     0.353 C 
BRANCH   7   8
ATOM      8  O   UNL     1       2.311  -2.053   0.690  1.00  0.00    -0.465 OA
BRANCH   8   9
ATOM      9  C   UNL     1       1.797  -1.117  -0.150  1.00  0.00     0.222 A 
ATOM     10  C   UNL     1      -0.861   0.130  -2.537  1.00  0.00     0.067 C 
ATOM     11  C   UNL     1       0.319  -0.041  -1.627  1.00  0.00     0.050 A 
ATOM     12  N   UNL     1       0.870   1.143  -1.314  1.00  0.00    -0.218 NA
ATOM     13  C   UNL     1       0.735  -1.244  -1.046  1.00  0.00     0.038 A 
ATOM     14  C   UNL     1       1.835   1.182  -0.400  1.00  0.00     0.230 A 
ATOM     15  N   UNL     1       2.334   0.084   0.166  1.00  0.00    -0.177 NA
BRANCH  13  16
ATOM     16  C   UNL     1      -0.010  -2.515  -1.348  1.00  0.00     0.071 C 
BRANCH  16  17
ATOM     17  C   UNL     1       0.283  -3.110  -2.729  1.00  0.00     0.161 C 
BRANCH  17  18
ATOM     18  O   UNL     1       1.660  -3.412  -2.889  1.00  0.00    -0.396 OA
ATOM     19  H   UNL     1       2.181  -2.598  -2.806  1.00  0.00     0.210 HD
ENDBRANCH  17  18
ENDBRANCH  16  17
ENDBRANCH  13  16
BRANCH  14  20
ATOM     20  N   UNL     1       2.249   2.424   0.095  1.00  0.00    -0.324 N 
ATOM     21  H   UNL     1       3.153   2.500   0.477  1.00  0.00     0.170 HD
BRANCH  20  22
ATOM     22  C   UNL     1       1.432   3.568   0.071  1.00  0.00     0.041 A 
ATOM     23  C   UNL     1       0.440   3.749   1.047  1.00  0.00     0.029 A 
ATOM     24  C   UNL     1       1.522   4.485  -0.984  1.00  0.00     0.029 A 
ATOM     25  C   UNL     1      -0.456   4.816   0.959  1.00  0.00     0.041 A 
ATOM     26  C   UNL     1       0.636   5.562  -1.065  1.00  0.00     0.041 A 
ATOM     27  C   UNL     1      -0.350   5.713  -0.097  1.00  0.00     0.123 A 
ATOM     28  F   UNL     1      -1.218   6.729  -0.191  1.00  0.00    -0.207 F 
ENDBRANCH  20  22
ENDBRANCH  14  20
ENDBRANCH   8   9
ENDBRANCH   7   8
ENDBRANCH   5   7
ENDBRANCH   4   5
ENDBRANCH   3   4
ENDBRANCH   2   3
ENDBRANCH   1   2
BRANCH   1  29
ATOM     29  C   UNL     1      -1.364  -2.726   2.635  1.00  0.00     0.188 C 
BRANCH  29  30
ATOM     30  C   UNL     1      -0.410  -1.523   2.565  1.00  0.00     0.188 C 
BRANCH  30  31
ATOM     31  O   UNL     1      -0.124  -0.817   3.763  1.00  0.00    -0.376 OA
BRANCH  31  32
ATOM     32  C   UNL     1      -1.236  -0.358   4.519  1.00  0.00     0.202 C 
BRANCH  32  33
ATOM     33  C   UNL     1      -2.065   0.703   3.805  1.00  0.00     0.261 C 
BRANCH  33  34
ATOM     34  O   UNL     1      -2.787   0.117   2.708  1.00  0.00    -0.460 OA
BRANCH  34  35
ATOM     35  C   UNL     1      -3.523   0.999   2.005  1.00  0.00     0.338 C 
ATOM     36  O   UNL     1      -3.703   2.183   2.291  1.00  0.00    -0.246 OA
BRANCH  35  37
ATOM     37  C   UNL     1      -4.093   0.367   0.796  1.00  0.00     0.060 A 
ATOM     38  C   UNL     1      -3.375  -0.574   0.053  1.00  0.00     0.016 A 
ATOM     39  C   UNL     1      -5.324   0.822   0.320  1.00  0.00     0.016 A 
ATOM     40  C   UNL     1      -3.844  -0.986  -1.199  1.00  0.00     0.010 A 
ATOM     41  C   UNL     1      -5.808   0.376  -0.914  1.00  0.00     0.010 A 
ATOM     42  C   UNL     1      -5.045  -0.490  -1.716  1.00  0.00    -0.014 A 
BRANCH  42  43
ATOM     43  C   UNL     1      -5.450  -0.748  -3.128  1.00  0.00     0.031 A 
ATOM     44  C   UNL     1      -5.638   0.419  -4.066  1.00  0.00     0.074 A 
ATOM     45  C   UNL     1      -5.613  -1.993  -3.616  1.00  0.00     0.049 A 
ATOM     46  N   UNL     1      -6.259   0.467  -5.217  1.00  0.00    -0.248 NA
ATOM     47  C   UNL     1      -5.041   1.700  -3.651  1.00  0.00     0.031 C 
ATOM     48  C   UNL     1      -5.332  -3.239  -2.905  1.00  0.00     0.029 A 
ATOM     49  N   UNL     1      -6.068  -2.407  -4.847  1.00  0.00    -0.354 N 
ATOM     50  C   UNL     1      -6.186   1.792  -5.631  1.00  0.00     0.074 A 
ATOM     51  C   UNL     1      -5.442   2.512  -4.620  1.00  0.00     0.031 C 
ATOM     52  C   UNL     1      -5.604  -4.275  -3.715  1.00  0.00     0.029 A 
ATOM     53  C   UNL     1      -6.189  -3.771  -4.953  1.00  0.00     0.049 A 
ATOM     54  H   UNL     1      -6.285  -1.786  -5.580  1.00  0.00     0.167 HD
ATOM     55  C   UNL     1      -6.706   2.361  -6.745  1.00  0.00     0.031 A 
ATOM     56  C   UNL     1      -6.777  -4.533  -5.896  1.00  0.00     0.031 A 
ATOM     57  C   UNL     1      -7.417   1.643  -7.768  1.00  0.00     0.049 A 
ATOM     58  C   UNL     1      -7.476  -3.877  -7.054  1.00  0.00     0.074 A 
ATOM     59  C   UNL     1      -8.017   2.138  -8.914  1.00  0.00     0.029 A 
ATOM     60  N   UNL     1      -7.607   0.272  -7.779  1.00  0.00    -0.354 N 
ATOM     61  N   UNL     1      -7.537  -2.607  -7.369  1.00  0.00    -0.248 NA
ATOM     62  C   UNL     1      -8.219  -4.761  -7.965  1.00  0.00     0.031 C 
ATOM     63  C   UNL     1      -8.607   1.068  -9.597  1.00  0.00     0.029 A 
ATOM     64  C   UNL     1      -8.331  -0.096  -8.900  1.00  0.00     0.049 A 
ATOM     65  H   UNL     1      -7.277  -0.349  -7.090  1.00  0.00     0.167 HD
ATOM     66  C   UNL     1      -8.323  -2.539  -8.514  1.00  0.00     0.074 A 
ATOM     67  C   UNL     1      -8.696  -3.897  -8.850  1.00  0.00     0.031 C 
ATOM     68  C   UNL     1      -8.705  -1.447  -9.219  1.00  0.00     0.031 A 
BRANCH  55  69
ATOM     69  C   UNL     1      -6.588   3.851  -6.884  1.00  0.00    -0.014 A 
ATOM     70  C   UNL     1      -5.388   4.464  -7.270  1.00  0.00     0.009 A 
ATOM     71  C   UNL     1      -7.725   4.649  -6.672  1.00  0.00     0.009 A 
ATOM     72  C   UNL     1      -5.324   5.852  -7.422  1.00  0.00     0.001 A 
ATOM     73  C   UNL     1      -7.664   6.032  -6.846  1.00  0.00     0.001 A 
ATOM     74  C   UNL     1      -6.462   6.633  -7.215  1.00  0.00     0.000 A 
ENDBRANCH  55  69
BRANCH  56  75
ATOM     75  C   UNL     1      -6.839  -6.008  -5.719  1.00  0.00    -0.014 A 
ATOM     76  C   UNL     1      -6.130  -6.865  -6.572  1.00  0.00     0.009 A 
ATOM     77  C   UNL     1      -7.619  -6.564  -4.691  1.00  0.00     0.009 A 
ATOM     78  C   UNL     1      -6.205  -8.250  -6.401  1.00  0.00     0.001 A 
ATOM     79  C   UNL     1      -7.665  -7.946  -4.502  1.00  0.00     0.001 A 
ATOM     80  C   UNL     1      -6.963  -8.788  -5.361  1.00  0.00     0.000 A 
ENDBRANCH  56  75
BRANCH  68  81
ATOM     81  C   UNL     1      -9.551  -1.679 -10.438  1.00  0.00    -0.014 A 
ATOM     82  C   UNL     1     -10.912  -1.998 -10.324  1.00  0.00     0.009 A 
ATOM     83  C   UNL     1      -8.983  -1.550 -11.715  1.00  0.00     0.009 A 
ATOM     84  C   UNL     1     -11.683  -2.213 -11.469  1.00  0.00     0.001 A 
ATOM     85  C   UNL     1      -9.762  -1.744 -12.857  1.00  0.00     0.001 A 
ATOM     86  C   UNL     1     -11.108  -2.083 -12.733  1.00  0.00     0.000 A 
ENDBRANCH  68  81
ENDBRANCH  42  43
ENDBRANCH  35  37
ENDBRANCH  34  35
ENDBRANCH  33  34
ENDBRANCH  32  33
ENDBRANCH  31  32
ENDBRANCH  30  31
ENDBRANCH  29  30
ENDBRANCH   1  29
TORSDOF 24
