REMARK SMILES Cc1ccc(NC(=O)C[C@H]2SC[C@H](C(=O)OCCOCCOCCOC(=O)c3ccc(-c4c5nc(c(-c6ccccc6)c6ccc([nH]6)c(-c6ccccc6)c6nc(c(-c7ccccc7)c7ccc4[nH]7)C=C6)C=C5)cc3)NC2=O)cc1
REMARK SMILES IDX 20 1 19 2 18 3 17 4 16 5 14 6 15 7 13 8 10 9 11 10 77 11
REMARK SMILES IDX 12 12 76 13 78 14 9 16 7 17 6 18 8 20 5 21 1 22 2 23 3 24
REMARK SMILES IDX 80 25 4 26 79 27 21 28 22 29 23 30 24 31 25 32 26 33 27 34
REMARK SMILES IDX 28 35 29 36 75 37 30 38 74 39 31 40 32 41 33 42 68 43 34 44
REMARK SMILES IDX 73 45 67 46 69 47 35 48 72 49 66 50 65 51 36 53 58 54 43 55
REMARK SMILES IDX 57 56 44 57 47 58 56 59 70 60 45 61 46 62 55 64 71 65 48 66
REMARK SMILES IDX 37 67 38 68 42 69 39 70 41 71 40 72 59 73 60 74 64 75 61 76
REMARK SMILES IDX 63 77 62 78 49 79 50 80 54 81 51 82 53 83 52 84
REMARK H PARENT 76 15 6 19 69 52 47 63
REMARK Flexibility Score: inf
ROOT
ATOM      1  C   UNL     1      -8.600  -3.070  -7.519  1.00  0.00     0.188 C 
ENDROOT
BRANCH   1   2
ATOM      2  O   UNL     1      -9.409  -4.114  -7.029  1.00  0.00    -0.376 OA
BRANCH   2   3
ATOM      3  C   UNL     1      -8.823  -4.866  -5.982  1.00  0.00     0.202 C 
BRANCH   3   4
ATOM      4  C   UNL     1      -7.526  -4.390  -5.264  1.00  0.00     0.261 C 
BRANCH   4   5
ATOM      5  O   UNL     1      -6.095  -4.357  -5.957  1.00  0.00    -0.462 OA
BRANCH   5   6
ATOM      6  C   UNL     1      -4.809  -3.772  -5.884  1.00  0.00     0.329 C 
ATOM      7  O   UNL     1      -4.505  -3.045  -6.841  1.00  0.00    -0.250 OA
BRANCH   6   8
ATOM      8  C   UNL     1      -3.549  -3.923  -4.652  1.00  0.00     0.202 C 
ATOM      9  C   UNL     1      -1.532  -3.408  -2.197  1.00  0.00     0.145 C 
ATOM     10  S   UNL     1      -1.603  -2.179  -3.564  1.00  0.00    -0.145 SA
ATOM     11  C   UNL     1      -1.952  -4.806  -2.769  1.00  0.00     0.234 C 
ATOM     12  C   UNL     1      -3.301  -2.512  -4.042  1.00  0.00     0.107 C 
ATOM     13  N   UNL     1      -3.122  -4.904  -3.574  1.00  0.00    -0.341 N 
ATOM     14  O   UNL     1      -1.379  -5.843  -2.431  1.00  0.00    -0.274 OA
ATOM     15  H   UNL     1      -3.709  -5.678  -3.418  1.00  0.00     0.164 HD
BRANCH   9  16
ATOM     16  C   UNL     1      -0.226  -3.079  -1.430  1.00  0.00     0.124 C 
BRANCH  16  17
ATOM     17  C   UNL     1       0.795  -4.135  -1.104  1.00  0.00     0.226 C 
ATOM     18  N   UNL     1       0.575  -5.108  -0.191  1.00  0.00    -0.326 N 
ATOM     19  H   UNL     1       1.275  -5.800  -0.171  1.00  0.00     0.169 HD
ATOM     20  O   UNL     1       1.895  -4.119  -1.669  1.00  0.00    -0.275 OA
BRANCH  18  21
ATOM     21  C   UNL     1      -0.453  -5.324   0.728  1.00  0.00     0.041 A 
ATOM     22  C   UNL     1      -3.373  -6.369   3.712  1.00  0.00     0.044 C 
ATOM     23  C   UNL     1      -2.396  -5.996   2.639  1.00  0.00    -0.051 A 
ATOM     24  C   UNL     1      -2.054  -4.656   2.413  1.00  0.00     0.005 A 
ATOM     25  C   UNL     1      -1.757  -6.995   1.903  1.00  0.00     0.005 A 
ATOM     26  C   UNL     1      -1.090  -4.319   1.455  1.00  0.00     0.026 A 
ATOM     27  C   UNL     1      -0.776  -6.659   0.974  1.00  0.00     0.026 A 
ENDBRANCH  18  21
ENDBRANCH  16  17
ENDBRANCH   9  16
ENDBRANCH   6   8
ENDBRANCH   5   6
ENDBRANCH   4   5
ENDBRANCH   3   4
ENDBRANCH   2   3
ENDBRANCH   1   2
BRANCH   1  28
ATOM     28  C   UNL     1      -8.673  -1.781  -6.683  1.00  0.00     0.188 C 
BRANCH  28  29
ATOM     29  O   UNL     1      -9.055  -1.970  -5.320  1.00  0.00    -0.376 OA
BRANCH  29  30
ATOM     30  C   UNL     1     -10.310  -1.423  -4.923  1.00  0.00     0.202 C 
BRANCH  30  31
ATOM     31  C   UNL     1     -10.280   0.111  -4.833  1.00  0.00     0.261 C 
BRANCH  31  32
ATOM     32  O   UNL     1      -9.600   0.500  -3.622  1.00  0.00    -0.460 OA
BRANCH  32  33
ATOM     33  C   UNL     1      -8.269   0.710  -3.797  1.00  0.00     0.338 C 
ATOM     34  O   UNL     1      -7.772   1.468  -4.602  1.00  0.00    -0.246 OA
BRANCH  33  35
ATOM     35  C   UNL     1      -7.551  -0.411  -3.127  1.00  0.00     0.060 A 
ATOM     36  C   UNL     1      -6.510  -0.934  -3.847  1.00  0.00     0.016 A 
ATOM     37  C   UNL     1      -8.044  -1.160  -2.054  1.00  0.00     0.016 A 
ATOM     38  C   UNL     1      -6.122  -2.251  -3.573  1.00  0.00     0.010 A 
ATOM     39  C   UNL     1      -7.557  -2.474  -1.784  1.00  0.00     0.010 A 
ATOM     40  C   UNL     1      -6.569  -3.098  -2.565  1.00  0.00    -0.014 A 
BRANCH  40  41
ATOM     41  C   UNL     1      -6.196  -4.577  -2.350  1.00  0.00     0.031 A 
ATOM     42  C   UNL     1      -5.785  -4.988  -0.965  1.00  0.00     0.074 A 
ATOM     43  C   UNL     1      -6.035  -5.724  -3.106  1.00  0.00     0.049 A 
ATOM     44  N   UNL     1      -5.417  -6.190  -0.635  1.00  0.00    -0.248 NA
ATOM     45  C   UNL     1      -5.707  -4.058   0.153  1.00  0.00     0.031 C 
ATOM     46  C   UNL     1      -6.790  -6.954  -2.714  1.00  0.00     0.029 A 
ATOM     47  N   UNL     1      -5.624  -6.118  -4.373  1.00  0.00    -0.354 N 
ATOM     48  C   UNL     1      -5.606  -6.285   0.708  1.00  0.00     0.074 A 
ATOM     49  C   UNL     1      -5.544  -4.915   1.163  1.00  0.00     0.031 C 
ATOM     50  C   UNL     1      -6.664  -7.914  -3.641  1.00  0.00     0.029 A 
ATOM     51  C   UNL     1      -5.787  -7.448  -4.689  1.00  0.00     0.049 A 
ATOM     52  H   UNL     1      -5.236  -5.479  -5.013  1.00  0.00     0.167 HD
ATOM     53  C   UNL     1      -6.044  -7.460   1.240  1.00  0.00     0.031 A 
ATOM     54  C   UNL     1      -5.106  -8.156  -5.631  1.00  0.00     0.031 A 
ATOM     55  C   UNL     1      -6.028  -8.617   0.319  1.00  0.00     0.049 A 
ATOM     56  C   UNL     1      -4.503  -9.354  -4.959  1.00  0.00     0.074 A 
ATOM     57  C   UNL     1      -7.013  -9.487  -0.129  1.00  0.00     0.029 A 
ATOM     58  N   UNL     1      -4.877  -8.965  -0.396  1.00  0.00    -0.354 N 
ATOM     59  N   UNL     1      -4.838  -9.669  -3.747  1.00  0.00    -0.248 NA
ATOM     60  C   UNL     1      -3.404 -10.176  -5.453  1.00  0.00     0.031 C 
ATOM     61  C   UNL     1      -6.427 -10.414  -1.034  1.00  0.00     0.029 A 
ATOM     62  C   UNL     1      -5.080 -10.123  -1.140  1.00  0.00     0.049 A 
ATOM     63  H   UNL     1      -4.034  -8.456  -0.375  1.00  0.00     0.167 HD
ATOM     64  C   UNL     1      -3.930 -10.518  -3.214  1.00  0.00     0.074 A 
ATOM     65  C   UNL     1      -3.071 -10.858  -4.337  1.00  0.00     0.031 C 
ATOM     66  C   UNL     1      -3.983 -10.771  -1.877  1.00  0.00     0.031 A 
BRANCH  53  67
ATOM     67  C   UNL     1      -6.719  -7.534   2.602  1.00  0.00    -0.014 A 
ATOM     68  C   UNL     1      -7.117  -8.779   3.119  1.00  0.00     0.009 A 
ATOM     69  C   UNL     1      -7.050  -6.419   3.397  1.00  0.00     0.009 A 
ATOM     70  C   UNL     1      -7.772  -8.899   4.354  1.00  0.00     0.001 A 
ATOM     71  C   UNL     1      -7.651  -6.532   4.656  1.00  0.00     0.001 A 
ATOM     72  C   UNL     1      -8.017  -7.777   5.134  1.00  0.00     0.000 A 
ENDBRANCH  53  67
BRANCH  54  73
ATOM     73  C   UNL     1      -4.526  -7.416  -6.784  1.00  0.00    -0.014 A 
ATOM     74  C   UNL     1      -5.397  -7.013  -7.819  1.00  0.00     0.009 A 
ATOM     75  C   UNL     1      -3.222  -6.904  -6.788  1.00  0.00     0.009 A 
ATOM     76  C   UNL     1      -5.001  -6.078  -8.784  1.00  0.00     0.001 A 
ATOM     77  C   UNL     1      -2.826  -5.969  -7.758  1.00  0.00     0.001 A 
ATOM     78  C   UNL     1      -3.719  -5.542  -8.741  1.00  0.00     0.000 A 
ENDBRANCH  54  73
BRANCH  66  79
ATOM     79  C   UNL     1      -3.035 -11.667  -1.141  1.00  0.00    -0.014 A 
ATOM     80  C   UNL     1      -2.340 -12.727  -1.735  1.00  0.00     0.009 A 
ATOM     81  C   UNL     1      -2.888 -11.507   0.251  1.00  0.00     0.009 A 
ATOM     82  C   UNL     1      -1.471 -13.532  -0.989  1.00  0.00     0.001 A 
ATOM     83  C   UNL     1      -2.046 -12.323   1.004  1.00  0.00     0.001 A 
ATOM     84  C   UNL     1      -1.321 -13.325   0.378  1.00  0.00     0.000 A 
ENDBRANCH  66  79
ENDBRANCH  40  41
ENDBRANCH  33  35
ENDBRANCH  32  33
ENDBRANCH  31  32
ENDBRANCH  30  31
ENDBRANCH  29  30
ENDBRANCH  28  29
ENDBRANCH   1  28
TORSDOF 20
