REMARK SMILES O=C(OCCOCCOCCOC(=O)c1ccc(NC(=O)c2ccc([N+](=O)[O-])cc2Cl)cc1Cl)c1ccc(-c2c3nc(c(-c4ccccc4)c4ccc([nH]4)c(-c4ccccc4)c4nc(c(-c5ccccc5)c5ccc2[nH]5)C=C4)C=C3)cc1
REMARK SMILES IDX 8 1 7 2 6 3 5 4 4 5 3 6 2 7 1 8 35 9 36 10 82 11 37 12 81 13
REMARK SMILES IDX 38 14 39 15 40 16 75 17 41 18 80 19 74 20 76 21 42 22 79 23
REMARK SMILES IDX 73 24 72 25 43 27 65 28 50 29 64 30 51 31 54 32 63 33 77 34
REMARK SMILES IDX 52 35 53 36 62 38 78 39 55 40 44 41 45 42 49 43 46 44 48 45
REMARK SMILES IDX 47 46 66 47 67 48 71 49 68 50 70 51 69 52 56 53 57 54 61 55
REMARK SMILES IDX 58 56 60 57 59 58 9 59 10 60 11 61 12 62 13 63 14 64 15 65
REMARK SMILES IDX 16 66 33 67 17 68 32 69 34 70 18 71 19 72 20 73 21 75 22 76
REMARK SMILES IDX 23 77 30 78 24 79 29 80 31 81 25 82 26 83 27 84 28 85
REMARK H PARENT 76 26 54 37 19 74
REMARK Flexibility Score: inf
ROOT
ATOM      1  C   UNL     1       2.137   3.117   1.215  1.00  0.00     0.188 C 
ENDROOT
BRANCH   1   2
ATOM      2  C   UNL     1       2.546   2.303  -0.015  1.00  0.00     0.188 C 
BRANCH   2   3
ATOM      3  O   UNL     1       3.838   1.714   0.189  1.00  0.00    -0.376 OA
BRANCH   3   4
ATOM      4  C   UNL     1       4.588   1.542  -1.017  1.00  0.00     0.202 C 
BRANCH   4   5
ATOM      5  C   UNL     1       4.370   0.185  -1.698  1.00  0.00     0.261 C 
BRANCH   5   6
ATOM      6  O   UNL     1       3.003  -0.248  -1.597  1.00  0.00    -0.460 OA
BRANCH   6   7
ATOM      7  C   UNL     1       2.463  -1.091  -0.681  1.00  0.00     0.338 C 
ATOM      8  O   UNL     1       1.257  -1.329  -0.729  1.00  0.00    -0.246 OA
BRANCH   7   9
ATOM      9  C   UNL     1       3.265  -1.801   0.359  1.00  0.00     0.060 A 
ATOM     10  C   UNL     1       4.405  -1.285   0.973  1.00  0.00     0.016 A 
ATOM     11  C   UNL     1       2.791  -3.052   0.794  1.00  0.00     0.016 A 
ATOM     12  C   UNL     1       5.131  -2.038   1.889  1.00  0.00     0.010 A 
ATOM     13  C   UNL     1       3.477  -3.782   1.771  1.00  0.00     0.010 A 
ATOM     14  C   UNL     1       4.675  -3.292   2.300  1.00  0.00    -0.014 A 
BRANCH  14  15
ATOM     15  C   UNL     1       5.526  -4.075   3.225  1.00  0.00     0.031 A 
ATOM     16  C   UNL     1       6.254  -5.282   2.709  1.00  0.00     0.074 A 
ATOM     17  C   UNL     1       5.773  -3.605   4.463  1.00  0.00     0.049 A 
ATOM     18  N   UNL     1       7.144  -6.028   3.312  1.00  0.00    -0.248 NA
ATOM     19  C   UNL     1       5.963  -5.693   1.326  1.00  0.00     0.031 C 
ATOM     20  C   UNL     1       5.181  -2.395   5.039  1.00  0.00     0.029 A 
ATOM     21  N   UNL     1       6.632  -4.050   5.435  1.00  0.00    -0.354 N 
ATOM     22  C   UNL     1       7.518  -6.990   2.383  1.00  0.00     0.074 A 
ATOM     23  C   UNL     1       6.740  -6.755   1.187  1.00  0.00     0.031 C 
ATOM     24  C   UNL     1       5.745  -2.160   6.234  1.00  0.00     0.029 A 
ATOM     25  C   UNL     1       6.688  -3.229   6.535  1.00  0.00     0.049 A 
ATOM     26  H   UNL     1       7.159  -4.878   5.352  1.00  0.00     0.167 HD
ATOM     27  C   UNL     1       8.435  -7.977   2.509  1.00  0.00     0.031 A 
ATOM     28  C   UNL     1       7.416  -3.324   7.663  1.00  0.00     0.031 A 
ATOM     29  C   UNL     1       9.190  -8.225   3.704  1.00  0.00     0.049 A 
ATOM     30  C   UNL     1       8.369  -4.474   7.807  1.00  0.00     0.074 A 
ATOM     31  C   UNL     1      10.077  -9.252   3.972  1.00  0.00     0.029 A 
ATOM     32  N   UNL     1       9.147  -7.424   4.835  1.00  0.00    -0.354 N 
ATOM     33  N   UNL     1       8.670  -5.407   6.937  1.00  0.00    -0.248 NA
ATOM     34  C   UNL     1       9.080  -4.587   9.088  1.00  0.00     0.031 C 
ATOM     35  C   UNL     1      10.548  -9.088   5.280  1.00  0.00     0.029 A 
ATOM     36  C   UNL     1       9.984  -7.937   5.809  1.00  0.00     0.049 A 
ATOM     37  H   UNL     1       8.600  -6.611   4.931  1.00  0.00     0.167 HD
ATOM     38  C   UNL     1       9.602  -6.221   7.564  1.00  0.00     0.074 A 
ATOM     39  C   UNL     1       9.845  -5.648   8.873  1.00  0.00     0.031 C 
ATOM     40  C   UNL     1      10.195  -7.350   7.106  1.00  0.00     0.031 A 
BRANCH  27  41
ATOM     41  C   UNL     1       8.620  -8.876   1.322  1.00  0.00    -0.014 A 
ATOM     42  C   UNL     1       9.334  -8.446   0.193  1.00  0.00     0.009 A 
ATOM     43  C   UNL     1       8.040 -10.153   1.318  1.00  0.00     0.009 A 
ATOM     44  C   UNL     1       9.433  -9.267  -0.933  1.00  0.00     0.001 A 
ATOM     45  C   UNL     1       8.157 -10.978   0.198  1.00  0.00     0.001 A 
ATOM     46  C   UNL     1       8.845 -10.531  -0.929  1.00  0.00     0.000 A 
ENDBRANCH  27  41
BRANCH  28  47
ATOM     47  C   UNL     1       7.246  -2.325   8.752  1.00  0.00    -0.014 A 
ATOM     48  C   UNL     1       8.273  -1.429   9.079  1.00  0.00     0.009 A 
ATOM     49  C   UNL     1       6.046  -2.275   9.481  1.00  0.00     0.009 A 
ATOM     50  C   UNL     1       8.111  -0.519  10.129  1.00  0.00     0.001 A 
ATOM     51  C   UNL     1       5.875  -1.347  10.510  1.00  0.00     0.001 A 
ATOM     52  C   UNL     1       6.912  -0.476  10.839  1.00  0.00     0.000 A 
ENDBRANCH  28  47
BRANCH  40  53
ATOM     53  C   UNL     1      11.156  -8.029   8.035  1.00  0.00    -0.014 A 
ATOM     54  C   UNL     1      10.690  -8.774   9.129  1.00  0.00     0.009 A 
ATOM     55  C   UNL     1      12.535  -7.943   7.800  1.00  0.00     0.009 A 
ATOM     56  C   UNL     1      11.593  -9.397   9.990  1.00  0.00     0.001 A 
ATOM     57  C   UNL     1      13.435  -8.585   8.651  1.00  0.00     0.001 A 
ATOM     58  C   UNL     1      12.963  -9.304   9.749  1.00  0.00     0.000 A 
ENDBRANCH  40  53
ENDBRANCH  14  15
ENDBRANCH   7   9
ENDBRANCH   6   7
ENDBRANCH   5   6
ENDBRANCH   4   5
ENDBRANCH   3   4
ENDBRANCH   2   3
ENDBRANCH   1   2
BRANCH   1  59
ATOM     59  O   UNL     1       2.796   4.380   1.335  1.00  0.00    -0.376 OA
BRANCH  59  60
ATOM     60  C   UNL     1       4.196   4.344   1.604  1.00  0.00     0.202 C 
BRANCH  60  61
ATOM     61  C   UNL     1       4.582   4.145   3.074  1.00  0.00     0.261 C 
BRANCH  61  62
ATOM     62  O   UNL     1       4.070   2.932   3.655  1.00  0.00    -0.460 OA
BRANCH  62  63
ATOM     63  C   UNL     1       3.154   3.122   4.636  1.00  0.00     0.339 C 
ATOM     64  O   UNL     1       2.668   4.172   5.017  1.00  0.00    -0.246 OA
BRANCH  63  65
ATOM     65  C   UNL     1       2.739   1.835   5.206  1.00  0.00     0.078 A 
ATOM     66  C   UNL     1       1.510   1.305   4.807  1.00  0.00     0.019 A 
ATOM     67  C   UNL     1       3.436   1.252   6.261  1.00  0.00     0.057 A 
ATOM     68  C   UNL     1       0.978   0.187   5.463  1.00  0.00     0.027 A 
ATOM     69  C   UNL     1       2.893   0.139   6.917  1.00  0.00     0.047 A 
ATOM     70  Cl  UNL     1       4.941   1.878   6.827  1.00  0.00    -0.083 Cl
ATOM     71  C   UNL     1       1.663  -0.410   6.523  1.00  0.00     0.043 A 
BRANCH  71  72
ATOM     72  N   UNL     1       1.182  -1.492   7.288  1.00  0.00    -0.322 N 
ATOM     73  C   UNL     1       0.123  -2.358   7.140  1.00  0.00     0.257 C 
ATOM     74  H   UNL     1       1.716  -1.665   8.097  1.00  0.00     0.170 HD
ATOM     75  O   UNL     1      -0.218  -3.084   8.072  1.00  0.00    -0.269 OA
BRANCH  73  76
ATOM     76  C   UNL     1      -0.620  -2.471   5.879  1.00  0.00     0.059 A 
ATOM     77  C   UNL     1      -1.974  -2.103   5.886  1.00  0.00     0.022 A 
ATOM     78  C   UNL     1      -0.024  -2.957   4.708  1.00  0.00     0.060 A 
ATOM     79  C   UNL     1      -2.711  -2.143   4.701  1.00  0.00     0.086 A 
ATOM     80  C   UNL     1      -0.752  -2.986   3.516  1.00  0.00     0.107 A 
ATOM     81  Cl  UNL     1       1.595  -3.548   4.686  1.00  0.00    -0.083 Cl
ATOM     82  C   UNL     1      -2.091  -2.567   3.516  1.00  0.00     0.270 A 
BRANCH  82  83
ATOM     83  N   UNL     1      -2.852  -2.571   2.260  1.00  0.00     0.062 N 
ATOM     84  O   UNL     1      -4.050  -2.259   2.314  1.00  0.00    -0.258 OA
ATOM     85  O   UNL     1      -2.248  -2.880   1.225  1.00  0.00    -0.258 OA
ENDBRANCH  82  83
ENDBRANCH  73  76
ENDBRANCH  71  72
ENDBRANCH  63  65
ENDBRANCH  62  63
ENDBRANCH  61  62
ENDBRANCH  60  61
ENDBRANCH  59  60
ENDBRANCH   1  59
TORSDOF 20
