REMARK SMILES Cc1nc(CSCC(=O)N2CCCC[C@@H]2C(=O)OCCOCCOCCOC(=O)c2ccc(-c3c4nc(c(-c5ccccc5)c5ccc([nH]5)c(-c5ccccc5)c5nc(c(-c6ccccc6)c6ccc3[nH]6)C=C5)C=C4)cc2)cs1
REMARK SMILES IDX 21 1 20 2 19 3 18 4 16 5 17 6 15 7 10 8 11 9 12 10 14 11
REMARK SMILES IDX 13 12 8 13 9 14 7 15 6 16 5 17 4 18 1 19 2 20 3 21 79 22
REMARK SMILES IDX 78 23 22 24 23 25 24 26 25 27 26 28 27 29 28 30 29 31 30 32
REMARK SMILES IDX 31 33 77 34 32 35 76 36 33 37 34 38 35 39 70 40 36 41 75 42
REMARK SMILES IDX 69 43 71 44 37 45 74 46 68 47 67 48 38 50 60 51 45 52 59 53
REMARK SMILES IDX 46 54 49 55 58 56 72 57 47 58 48 59 57 61 73 62 50 63 39 64
REMARK SMILES IDX 40 65 44 66 41 67 43 68 42 69 61 70 62 71 66 72 63 73 65 74
REMARK SMILES IDX 64 75 51 76 52 77 56 78 53 79 55 80 54 81
REMARK H PARENT 71 49 49 60
REMARK Flexibility Score: inf
ROOT
ATOM      1  O   UNL     1       3.764  -2.534   1.961  1.00  0.00    -0.376 OA
ENDROOT
BRANCH   1   2
ATOM      2  C   UNL     1       2.675  -2.023   1.203  1.00  0.00     0.202 C 
BRANCH   2   3
ATOM      3  C   UNL     1       1.588  -3.038   0.826  1.00  0.00     0.261 C 
BRANCH   3   4
ATOM      4  O   UNL     1       1.850  -4.064  -0.161  1.00  0.00    -0.462 OA
BRANCH   4   5
ATOM      5  C   UNL     1       2.629  -3.901  -1.254  1.00  0.00     0.328 C 
ATOM      6  O   UNL     1       3.280  -2.899  -1.526  1.00  0.00    -0.250 OA
BRANCH   5   7
ATOM      7  C   UNL     1       2.591  -5.123  -2.184  1.00  0.00     0.195 C 
ATOM      8  N   UNL     1       1.856  -4.873  -3.431  1.00  0.00    -0.328 N 
ATOM      9  C   UNL     1       1.695  -5.993  -4.350  1.00  0.00     0.120 C 
ATOM     10  C   UNL     1       1.350  -7.311  -3.648  1.00  0.00     0.022 C 
ATOM     11  C   UNL     1       2.227  -6.442  -1.496  1.00  0.00     0.037 C 
ATOM     12  C   UNL     1       2.301  -7.592  -2.492  1.00  0.00     0.005 C 
BRANCH   8  13
ATOM     13  C   UNL     1       0.939  -3.823  -3.491  1.00  0.00     0.233 C 
ATOM     14  O   UNL     1      -0.128  -3.864  -2.891  1.00  0.00    -0.274 OA
BRANCH  13  15
ATOM     15  C   UNL     1       1.441  -2.655  -4.348  1.00  0.00     0.170 C 
BRANCH  15  16
ATOM     16  S   UNL     1       0.856  -0.993  -3.844  1.00  0.00    -0.146 SA
BRANCH  16  17
ATOM     17  C   UNL     1       1.309  -0.991  -2.091  1.00  0.00     0.127 C 
BRANCH  17  18
ATOM     18  C   UNL     1       0.512  -0.060  -1.241  1.00  0.00     0.061 A 
ATOM     19  C   UNL     1      -2.798   0.457   0.186  1.00  0.00     0.079 C 
ATOM     20  C   UNL     1      -1.364   0.495  -0.197  1.00  0.00     0.090 A 
ATOM     21  N   UNL     1      -0.823  -0.360  -1.031  1.00  0.00    -0.246 NA
ATOM     22  S   UNL     1      -0.295   1.679   0.434  1.00  0.00    -0.127 S 
ATOM     23  C   UNL     1       0.983   1.002  -0.490  1.00  0.00     0.091 A 
ENDBRANCH  17  18
ENDBRANCH  16  17
ENDBRANCH  15  16
ENDBRANCH  13  15
ENDBRANCH   8  13
ENDBRANCH   5   7
ENDBRANCH   4   5
ENDBRANCH   3   4
ENDBRANCH   2   3
ENDBRANCH   1   2
BRANCH   1  24
ATOM     24  C   UNL     1       4.712  -3.292   1.233  1.00  0.00     0.188 C 
BRANCH  24  25
ATOM     25  C   UNL     1       4.381  -4.782   1.116  1.00  0.00     0.188 C 
BRANCH  25  26
ATOM     26  O   UNL     1       3.464  -5.409   1.993  1.00  0.00    -0.376 OA
BRANCH  26  27
ATOM     27  C   UNL     1       3.487  -5.045   3.365  1.00  0.00     0.202 C 
BRANCH  27  28
ATOM     28  C   UNL     1       4.798  -5.181   4.161  1.00  0.00     0.261 C 
BRANCH  28  29
ATOM     29  O   UNL     1       6.011  -4.935   3.430  1.00  0.00    -0.460 OA
BRANCH  29  30
ATOM     30  C   UNL     1       6.628  -6.040   2.927  1.00  0.00     0.338 C 
ATOM     31  O   UNL     1       6.318  -7.198   3.106  1.00  0.00    -0.246 OA
BRANCH  30  32
ATOM     32  C   UNL     1       7.605  -5.610   1.888  1.00  0.00     0.060 A 
ATOM     33  C   UNL     1       7.498  -6.181   0.606  1.00  0.00     0.016 A 
ATOM     34  C   UNL     1       8.576  -4.643   2.145  1.00  0.00     0.016 A 
ATOM     35  C   UNL     1       8.372  -5.807  -0.413  1.00  0.00     0.010 A 
ATOM     36  C   UNL     1       9.489  -4.309   1.139  1.00  0.00     0.010 A 
ATOM     37  C   UNL     1       9.414  -4.920  -0.128  1.00  0.00    -0.014 A 
BRANCH  37  38
ATOM     38  C   UNL     1      10.586  -4.878  -1.034  1.00  0.00     0.031 A 
ATOM     39  C   UNL     1      11.736  -5.794  -0.713  1.00  0.00     0.074 A 
ATOM     40  C   UNL     1      10.632  -4.092  -2.122  1.00  0.00     0.049 A 
ATOM     41  N   UNL     1      12.899  -5.914  -1.299  1.00  0.00    -0.248 NA
ATOM     42  C   UNL     1      11.542  -6.698   0.434  1.00  0.00     0.031 C 
ATOM     43  C   UNL     1       9.554  -3.228  -2.596  1.00  0.00     0.029 A 
ATOM     44  N   UNL     1      11.645  -3.902  -3.027  1.00  0.00    -0.354 N 
ATOM     45  C   UNL     1      13.578  -6.891  -0.582  1.00  0.00     0.074 A 
ATOM     46  C   UNL     1      12.713  -7.307   0.499  1.00  0.00     0.031 C 
ATOM     47  C   UNL     1       9.967  -2.593  -3.708  1.00  0.00     0.029 A 
ATOM     48  C   UNL     1      11.349  -2.976  -3.997  1.00  0.00     0.049 A 
ATOM     49  H   UNL     1      12.503  -4.383  -2.986  1.00  0.00     0.167 HD
ATOM     50  C   UNL     1      14.812  -7.403  -0.800  1.00  0.00     0.031 A 
ATOM     51  C   UNL     1      12.117  -2.483  -4.988  1.00  0.00     0.031 A 
ATOM     52  C   UNL     1      15.685  -6.966  -1.855  1.00  0.00     0.049 A 
ATOM     53  C   UNL     1      13.536  -2.970  -5.137  1.00  0.00     0.074 A 
ATOM     54  C   UNL     1      16.958  -7.410  -2.162  1.00  0.00     0.029 A 
ATOM     55  N   UNL     1      15.377  -5.968  -2.767  1.00  0.00    -0.354 N 
ATOM     56  N   UNL     1      14.172  -3.895  -4.458  1.00  0.00    -0.248 NA
ATOM     57  C   UNL     1      14.341  -2.343  -6.196  1.00  0.00     0.031 C 
ATOM     58  C   UNL     1      17.447  -6.633  -3.218  1.00  0.00     0.029 A 
ATOM     59  C   UNL     1      16.449  -5.757  -3.617  1.00  0.00     0.049 A 
ATOM     60  H   UNL     1      14.522  -5.481  -2.805  1.00  0.00     0.167 HD
ATOM     61  C   UNL     1      15.437  -3.986  -5.029  1.00  0.00     0.074 A 
ATOM     62  C   UNL     1      15.474  -3.028  -6.115  1.00  0.00     0.031 C 
ATOM     63  C   UNL     1      16.472  -4.795  -4.691  1.00  0.00     0.031 A 
BRANCH  50  64
ATOM     64  C   UNL     1      15.298  -8.444   0.172  1.00  0.00    -0.014 A 
ATOM     65  C   UNL     1      14.706  -9.716   0.246  1.00  0.00     0.009 A 
ATOM     66  C   UNL     1      16.346  -8.133   1.052  1.00  0.00     0.009 A 
ATOM     67  C   UNL     1      15.114 -10.631   1.219  1.00  0.00     0.001 A 
ATOM     68  C   UNL     1      16.777  -9.064   1.998  1.00  0.00     0.001 A 
ATOM     69  C   UNL     1      16.150 -10.305   2.092  1.00  0.00     0.000 A 
ENDBRANCH  50  64
BRANCH  51  70
ATOM     70  C   UNL     1      11.566  -1.466  -5.921  1.00  0.00    -0.014 A 
ATOM     71  C   UNL     1      11.332  -1.790  -7.266  1.00  0.00     0.009 A 
ATOM     72  C   UNL     1      11.277  -0.165  -5.479  1.00  0.00     0.009 A 
ATOM     73  C   UNL     1      10.833  -0.831  -8.151  1.00  0.00     0.001 A 
ATOM     74  C   UNL     1      10.752   0.784  -6.359  1.00  0.00     0.001 A 
ATOM     75  C   UNL     1      10.537   0.453  -7.696  1.00  0.00     0.000 A 
ENDBRANCH  51  70
BRANCH  63  76
ATOM     76  C   UNL     1      17.719  -4.715  -5.531  1.00  0.00    -0.014 A 
ATOM     77  C   UNL     1      18.569  -3.600  -5.484  1.00  0.00     0.009 A 
ATOM     78  C   UNL     1      18.070  -5.801  -6.351  1.00  0.00     0.009 A 
ATOM     79  C   UNL     1      19.724  -3.559  -6.268  1.00  0.00     0.001 A 
ATOM     80  C   UNL     1      19.242  -5.771  -7.107  1.00  0.00     0.001 A 
ATOM     81  C   UNL     1      20.063  -4.646  -7.074  1.00  0.00     0.000 A 
ENDBRANCH  63  76
ENDBRANCH  37  38
ENDBRANCH  30  32
ENDBRANCH  29  30
ENDBRANCH  28  29
ENDBRANCH  27  28
ENDBRANCH  26  27
ENDBRANCH  25  26
ENDBRANCH  24  25
ENDBRANCH   1  24
TORSDOF 22
