REMARK SMILES Cc1c(NC(=O)[C@@H]2CC=CC[C@@H]2C(=O)OCCOCCOCCOC(=O)c2ccc(-c3c4nc(c(-c5ccccc5)c5ccc([nH]5)c(-c5ccccc5)c5nc(c(-c6ccccc6)c6ccc3[nH]6)C=C5)C=C4)cc2)cccc1C(=O)N1CCOCC1
REMARK SMILES IDX 19 1 18 2 17 3 16 4 15 5 13 6 14 7 12 8 7 9 8 10 9 11 11 12
REMARK SMILES IDX 10 13 5 14 4 15 6 17 3 18 1 19 2 20 78 21 75 22 77 23 76 24
REMARK SMILES IDX 79 25 80 26 81 27 82 28 86 29 83 30 85 31 84 32 20 33 21 34
REMARK SMILES IDX 22 35 23 36 24 37 25 38 26 39 27 40 28 41 74 42 29 43 73 44
REMARK SMILES IDX 30 45 31 46 32 47 67 48 33 49 72 50 66 51 68 52 34 53 71 54
REMARK SMILES IDX 65 55 64 56 35 58 57 59 42 60 56 61 43 62 46 63 55 64 69 65
REMARK SMILES IDX 44 66 45 67 54 69 70 70 47 71 36 72 37 73 41 74 38 75 40 76
REMARK SMILES IDX 39 77 58 78 59 79 63 80 60 81 62 82 61 83 48 84 49 85 53 86
REMARK SMILES IDX 50 87 52 88 51 89
REMARK H PARENT 4 16 68 57 46 68
REMARK Flexibility Score: inf
ROOT
ATOM      1  C   UNL     1      -7.085  -0.981   0.113  1.00  0.00     0.188 C 
ENDROOT
BRANCH   1   2
ATOM      2  O   UNL     1      -7.114  -2.415  -0.032  1.00  0.00    -0.376 OA
BRANCH   2   3
ATOM      3  C   UNL     1      -6.562  -3.351   0.918  1.00  0.00     0.202 C 
BRANCH   3   4
ATOM      4  C   UNL     1      -5.208  -4.367   0.795  1.00  0.00     0.261 C 
BRANCH   4   5
ATOM      5  O   UNL     1      -3.406  -4.150   0.539  1.00  0.00    -0.463 OA
BRANCH   5   6
ATOM      6  C   UNL     1      -2.372  -3.744  -0.452  1.00  0.00     0.310 C 
ATOM      7  O   UNL     1      -2.501  -3.566  -1.675  1.00  0.00    -0.252 OA
BRANCH   6   8
ATOM      8  C   UNL     1      -0.948  -3.349  -0.127  1.00  0.00     0.116 C 
ATOM      9  C   UNL     1      -0.345  -3.815   1.148  1.00  0.00     0.097 C 
ATOM     10  C   UNL     1      -0.730  -2.956   2.318  1.00  0.00     0.041 C 
ATOM     11  C   UNL     1      -0.372  -1.520   1.991  1.00  0.00    -0.030 C 
ATOM     12  C   UNL     1      -0.532  -1.904  -0.477  1.00  0.00     0.043 C 
ATOM     13  C   UNL     1      -0.258  -1.058   0.733  1.00  0.00    -0.030 C 
BRANCH   9  14
ATOM     14  C   UNL     1      -0.634  -5.277   1.130  1.00  0.00     0.228 C 
ATOM     15  N   UNL     1       0.211  -5.951   0.244  1.00  0.00    -0.326 N 
ATOM     16  H   UNL     1      -0.039  -6.174  -0.682  1.00  0.00     0.169 HD
ATOM     17  O   UNL     1      -1.603  -5.805   1.659  1.00  0.00    -0.274 OA
BRANCH  15  18
ATOM     18  C   UNL     1       1.461  -6.280   0.812  1.00  0.00     0.044 A 
ATOM     19  C   UNL     1       0.320  -8.403   1.446  1.00  0.00     0.047 C 
ATOM     20  C   UNL     1       1.524  -7.498   1.498  1.00  0.00    -0.015 A 
ATOM     21  C   UNL     1       2.647  -7.732   2.302  1.00  0.00     0.045 A 
ATOM     22  C   UNL     1       2.459  -5.307   0.940  1.00  0.00     0.026 A 
ATOM     23  C   UNL     1       3.538  -6.676   2.576  1.00  0.00     0.014 A 
ATOM     24  C   UNL     1       3.445  -5.464   1.899  1.00  0.00     0.003 A 
BRANCH  21  25
ATOM     25  C   UNL     1       2.840  -8.993   3.055  1.00  0.00     0.254 C 
ATOM     26  O   UNL     1       3.280  -8.907   4.201  1.00  0.00    -0.269 OA
ATOM     27  N   UNL     1       2.450 -10.204   2.497  1.00  0.00    -0.334 N 
ATOM     28  C   UNL     1       2.470 -10.595   1.074  1.00  0.00     0.148 C 
ATOM     29  C   UNL     1       2.102 -11.280   3.413  1.00  0.00     0.148 C 
ATOM     30  C   UNL     1       1.252 -11.463   0.681  1.00  0.00     0.181 C 
ATOM     31  C   UNL     1       0.798 -11.934   2.958  1.00  0.00     0.181 C 
ATOM     32  O   UNL     1       0.959 -12.487   1.643  1.00  0.00    -0.378 OA
ENDBRANCH  21  25
ENDBRANCH  15  18
ENDBRANCH   9  14
ENDBRANCH   6   8
ENDBRANCH   5   6
ENDBRANCH   4   5
ENDBRANCH   3   4
ENDBRANCH   2   3
ENDBRANCH   1   2
BRANCH   1  33
ATOM     33  C   UNL     1      -7.131  -0.328   1.480  1.00  0.00     0.188 C 
BRANCH  33  34
ATOM     34  O   UNL     1      -6.345  -1.099   2.350  1.00  0.00    -0.376 OA
BRANCH  34  35
ATOM     35  C   UNL     1      -6.385  -0.802   3.720  1.00  0.00     0.202 C 
BRANCH  35  36
ATOM     36  C   UNL     1      -5.716   0.542   4.030  1.00  0.00     0.261 C 
BRANCH  36  37
ATOM     37  O   UNL     1      -4.293   0.563   3.713  1.00  0.00    -0.460 OA
BRANCH  37  38
ATOM     38  C   UNL     1      -3.876   1.152   2.540  1.00  0.00     0.338 C 
ATOM     39  O   UNL     1      -3.742   2.364   2.394  1.00  0.00    -0.246 OA
BRANCH  38  40
ATOM     40  C   UNL     1      -3.622   0.142   1.471  1.00  0.00     0.060 A 
ATOM     41  C   UNL     1      -3.567   0.297   0.075  1.00  0.00     0.016 A 
ATOM     42  C   UNL     1      -3.648  -1.126   1.905  1.00  0.00     0.016 A 
ATOM     43  C   UNL     1      -3.833  -0.808  -0.861  1.00  0.00     0.010 A 
ATOM     44  C   UNL     1      -4.107  -2.069   1.008  1.00  0.00     0.010 A 
ATOM     45  C   UNL     1      -4.269  -2.064  -0.438  1.00  0.00    -0.014 A 
BRANCH  45  46
ATOM     46  C   UNL     1      -4.824  -3.400  -1.500  1.00  0.00     0.031 A 
ATOM     47  C   UNL     1      -4.259  -5.122  -1.653  1.00  0.00     0.074 A 
ATOM     48  C   UNL     1      -5.775  -3.075  -2.394  1.00  0.00     0.049 A 
ATOM     49  N   UNL     1      -3.698  -5.671  -2.715  1.00  0.00    -0.248 NA
ATOM     50  C   UNL     1      -4.090  -6.199  -0.548  1.00  0.00     0.031 C 
ATOM     51  C   UNL     1      -6.545  -3.932  -3.281  1.00  0.00     0.029 A 
ATOM     52  N   UNL     1      -6.230  -1.792  -2.693  1.00  0.00    -0.354 N 
ATOM     53  C   UNL     1      -3.339  -7.004  -2.382  1.00  0.00     0.074 A 
ATOM     54  C   UNL     1      -3.236  -7.101  -0.983  1.00  0.00     0.031 C 
ATOM     55  C   UNL     1      -7.110  -3.152  -4.226  1.00  0.00     0.029 A 
ATOM     56  C   UNL     1      -6.585  -1.802  -4.039  1.00  0.00     0.049 A 
ATOM     57  H   UNL     1      -6.289  -1.028  -2.074  1.00  0.00     0.167 HD
ATOM     58  C   UNL     1      -3.664  -8.102  -3.128  1.00  0.00     0.031 A 
ATOM     59  C   UNL     1      -5.825  -1.090  -4.917  1.00  0.00     0.031 A 
ATOM     60  C   UNL     1      -4.431  -7.649  -4.248  1.00  0.00     0.049 A 
ATOM     61  C   UNL     1      -5.185  -2.030  -5.909  1.00  0.00     0.074 A 
ATOM     62  C   UNL     1      -5.795  -7.508  -4.431  1.00  0.00     0.029 A 
ATOM     63  N   UNL     1      -3.808  -6.781  -5.118  1.00  0.00    -0.354 N 
ATOM     64  N   UNL     1      -4.874  -3.273  -5.652  1.00  0.00    -0.248 NA
ATOM     65  C   UNL     1      -4.957  -1.669  -7.302  1.00  0.00     0.031 C 
ATOM     66  C   UNL     1      -5.986  -6.516  -5.429  1.00  0.00     0.029 A 
ATOM     67  C   UNL     1      -4.739  -6.081  -5.844  1.00  0.00     0.049 A 
ATOM     68  H   UNL     1      -2.833  -6.677  -5.206  1.00  0.00     0.167 HD
ATOM     69  C   UNL     1      -4.512  -3.896  -6.816  1.00  0.00     0.074 A 
ATOM     70  C   UNL     1      -4.551  -2.843  -7.813  1.00  0.00     0.031 C 
ATOM     71  C   UNL     1      -4.253  -5.231  -6.907  1.00  0.00     0.031 A 
BRANCH  58  72
ATOM     72  C   UNL     1      -3.701  -9.515  -2.538  1.00  0.00    -0.014 A 
ATOM     73  C   UNL     1      -4.787 -10.362  -2.817  1.00  0.00     0.009 A 
ATOM     74  C   UNL     1      -2.730 -10.034  -1.649  1.00  0.00     0.009 A 
ATOM     75  C   UNL     1      -4.947 -11.607  -2.188  1.00  0.00     0.001 A 
ATOM     76  C   UNL     1      -2.905 -11.264  -0.985  1.00  0.00     0.001 A 
ATOM     77  C   UNL     1      -4.019 -12.049  -1.253  1.00  0.00     0.000 A 
ENDBRANCH  58  72
BRANCH  59  78
ATOM     78  C   UNL     1      -5.250   0.190  -4.368  1.00  0.00    -0.014 A 
ATOM     79  C   UNL     1      -6.133   1.097  -3.726  1.00  0.00     0.009 A 
ATOM     80  C   UNL     1      -3.876   0.410  -4.199  1.00  0.00     0.009 A 
ATOM     81  C   UNL     1      -5.675   2.090  -2.851  1.00  0.00     0.001 A 
ATOM     82  C   UNL     1      -3.413   1.438  -3.348  1.00  0.00     0.001 A 
ATOM     83  C   UNL     1      -4.311   2.253  -2.653  1.00  0.00     0.000 A 
ENDBRANCH  59  78
BRANCH  71  84
ATOM     84  C   UNL     1      -3.500  -5.927  -8.017  1.00  0.00    -0.014 A 
ATOM     85  C   UNL     1      -2.717  -5.261  -8.958  1.00  0.00     0.009 A 
ATOM     86  C   UNL     1      -3.411  -7.345  -8.009  1.00  0.00     0.009 A 
ATOM     87  C   UNL     1      -1.924  -5.969  -9.868  1.00  0.00     0.001 A 
ATOM     88  C   UNL     1      -2.556  -8.049  -8.852  1.00  0.00     0.001 A 
ATOM     89  C   UNL     1      -1.827  -7.356  -9.801  1.00  0.00     0.000 A 
ENDBRANCH  71  84
ENDBRANCH  45  46
ENDBRANCH  38  40
ENDBRANCH  37  38
ENDBRANCH  36  37
ENDBRANCH  35  36
ENDBRANCH  34  35
ENDBRANCH  33  34
ENDBRANCH   1  33
TORSDOF 20
