REMARK SMILES COc1ccc(/C=C/c2nc(C(=O)OCCOCCOCCOC(=O)c3ccc(-c4c5nc(c(-c6ccccc6)c6ccc([nH]6)c(-c6ccccc6)c6nc(c(-c7ccccc7)c7ccc4[nH]7)C=C6)C=C5)cc3)ccc2C#N)cc1F
REMARK SMILES IDX 18 1 17 2 16 3 15 4 14 5 12 6 13 7 11 8 9 9 10 10 76 11
REMARK SMILES IDX 75 12 74 13 8 14 7 15 6 16 3 17 4 18 80 19 5 20 79 21 81 22
REMARK SMILES IDX 2 23 1 24 77 25 78 26 19 27 20 28 21 29 22 30 23 31 24 32
REMARK SMILES IDX 25 33 26 34 27 35 73 36 28 37 72 38 29 39 30 40 31 41 66 42
REMARK SMILES IDX 32 43 71 44 65 45 67 46 33 47 70 48 64 49 63 50 34 52 56 53
REMARK SMILES IDX 41 54 55 55 42 56 45 57 54 58 68 59 43 60 44 61 53 63 69 64
REMARK SMILES IDX 46 65 35 66 36 67 40 68 37 69 39 70 38 71 57 72 58 73 62 74
REMARK SMILES IDX 59 75 61 76 60 77 47 78 48 79 52 80 49 81 51 82 50 83
REMARK H PARENT 67 51 45 62
REMARK Flexibility Score: inf
ROOT
ATOM      1  C   UNL     1      -1.876   3.263  11.374  1.00  0.00     0.188 C 
ENDROOT
BRANCH   1   2
ATOM      2  O   UNL     1      -2.444   2.650  12.510  1.00  0.00    -0.376 OA
BRANCH   2   3
ATOM      3  C   UNL     1      -1.618   2.151  13.550  1.00  0.00     0.202 C 
BRANCH   3   4
ATOM      4  C   UNL     1      -0.133   1.764  13.390  1.00  0.00     0.261 C 
BRANCH   4   5
ATOM      5  O   UNL     1       0.641   2.498  12.432  1.00  0.00    -0.459 OA
BRANCH   5   6
ATOM      6  C   UNL     1       1.005   1.812  11.312  1.00  0.00     0.357 C 
ATOM      7  O   UNL     1       0.792   0.631  11.093  1.00  0.00    -0.244 OA
BRANCH   6   8
ATOM      8  C   UNL     1       1.559   2.765  10.300  1.00  0.00     0.149 A 
ATOM      9  C   UNL     1       1.590   3.418   8.060  1.00  0.00     0.082 A 
ATOM     10  N   UNL     1       1.112   2.592   9.024  1.00  0.00    -0.240 NA
ATOM     11  C   UNL     1       2.491   4.450   8.339  1.00  0.00     0.078 A 
ATOM     12  C   UNL     1       2.893   4.639   9.668  1.00  0.00     0.024 A 
ATOM     13  C   UNL     1       2.423   3.788  10.667  1.00  0.00     0.037 A 
BRANCH   9  14
ATOM     14  C   UNL     1       1.053   3.133   6.719  1.00  0.00     0.030 C 
ATOM     15  C   UNL     1       1.854   2.789   5.697  1.00  0.00     0.010 C 
BRANCH  15  16
ATOM     16  C   UNL     1       1.465   2.452   4.316  1.00  0.00    -0.022 A 
ATOM     17  C   UNL     1       0.899   1.722   1.644  1.00  0.00     0.154 A 
ATOM     18  C   UNL     1      -0.113   2.204   2.473  1.00  0.00     0.050 A 
ATOM     19  C   UNL     1       2.199   1.658   2.136  1.00  0.00     0.165 A 
ATOM     20  C   UNL     1       0.164   2.558   3.804  1.00  0.00     0.012 A 
ATOM     21  C   UNL     1       2.481   2.014   3.453  1.00  0.00     0.051 A 
ATOM     22  F   UNL     1       3.219   1.271   1.357  1.00  0.00    -0.203 F 
BRANCH  17  23
ATOM     23  O   UNL     1       0.540   1.397   0.363  1.00  0.00    -0.494 OA
ATOM     24  C   UNL     1       1.036   0.125  -0.052  1.00  0.00     0.278 C 
ENDBRANCH  17  23
ENDBRANCH  15  16
ENDBRANCH   9  14
BRANCH  11  25
ATOM     25  C   UNL     1       3.021   5.301   7.319  1.00  0.00     0.101 C 
ATOM     26  N   UNL     1       3.488   5.985   6.504  1.00  0.00    -0.192 NA
ENDBRANCH  11  25
ENDBRANCH   6   8
ENDBRANCH   5   6
ENDBRANCH   4   5
ENDBRANCH   3   4
ENDBRANCH   2   3
ENDBRANCH   1   2
BRANCH   1  27
ATOM     27  C   UNL     1      -1.152   4.614  11.546  1.00  0.00     0.188 C 
BRANCH  27  28
ATOM     28  O   UNL     1      -0.781   5.004  12.846  1.00  0.00    -0.376 OA
BRANCH  28  29
ATOM     29  C   UNL     1      -1.759   5.531  13.730  1.00  0.00     0.202 C 
BRANCH  29  30
ATOM     30  C   UNL     1      -3.219   5.893  13.371  1.00  0.00     0.261 C 
BRANCH  30  31
ATOM     31  O   UNL     1      -3.773   5.403  12.145  1.00  0.00    -0.460 OA
BRANCH  31  32
ATOM     32  C   UNL     1      -3.847   6.298  11.128  1.00  0.00     0.338 C 
ATOM     33  O   UNL     1      -3.464   7.455  11.131  1.00  0.00    -0.246 OA
BRANCH  32  34
ATOM     34  C   UNL     1      -4.300   5.597   9.911  1.00  0.00     0.060 A 
ATOM     35  C   UNL     1      -3.385   5.354   8.875  1.00  0.00     0.016 A 
ATOM     36  C   UNL     1      -5.633   5.212   9.784  1.00  0.00     0.016 A 
ATOM     37  C   UNL     1      -3.802   4.720   7.704  1.00  0.00     0.010 A 
ATOM     38  C   UNL     1      -6.055   4.607   8.598  1.00  0.00     0.010 A 
ATOM     39  C   UNL     1      -5.149   4.376   7.545  1.00  0.00    -0.014 A 
BRANCH  39  40
ATOM     40  C   UNL     1      -5.660   3.927   6.229  1.00  0.00     0.031 A 
ATOM     41  C   UNL     1      -6.409   4.912   5.376  1.00  0.00     0.074 A 
ATOM     42  C   UNL     1      -5.486   2.663   5.805  1.00  0.00     0.049 A 
ATOM     43  N   UNL     1      -7.060   4.717   4.258  1.00  0.00    -0.248 NA
ATOM     44  C   UNL     1      -6.432   6.304   5.855  1.00  0.00     0.031 C 
ATOM     45  C   UNL     1      -4.728   1.628   6.507  1.00  0.00     0.029 A 
ATOM     46  N   UNL     1      -5.959   2.032   4.681  1.00  0.00    -0.354 N 
ATOM     47  C   UNL     1      -7.588   5.955   3.912  1.00  0.00     0.074 A 
ATOM     48  C   UNL     1      -7.205   6.886   4.951  1.00  0.00     0.031 C 
ATOM     49  C   UNL     1      -4.806   0.483   5.806  1.00  0.00     0.029 A 
ATOM     50  C   UNL     1      -5.657   0.692   4.636  1.00  0.00     0.049 A 
ATOM     51  H   UNL     1      -6.466   2.494   3.975  1.00  0.00     0.167 HD
ATOM     52  C   UNL     1      -8.326   6.286   2.826  1.00  0.00     0.031 A 
ATOM     53  C   UNL     1      -6.056  -0.262   3.772  1.00  0.00     0.031 A 
ATOM     54  C   UNL     1      -8.725   5.352   1.807  1.00  0.00     0.049 A 
ATOM     55  C   UNL     1      -6.968   0.108   2.630  1.00  0.00     0.074 A 
ATOM     56  C   UNL     1      -9.464   5.591   0.662  1.00  0.00     0.029 A 
ATOM     57  N   UNL     1      -8.428   3.998   1.818  1.00  0.00    -0.354 N 
ATOM     58  N   UNL     1      -7.447   1.283   2.298  1.00  0.00    -0.248 NA
ATOM     59  C   UNL     1      -7.392  -0.983   1.738  1.00  0.00     0.031 C 
ATOM     60  C   UNL     1      -9.680   4.368   0.020  1.00  0.00     0.029 A 
ATOM     61  C   UNL     1      -9.000   3.382   0.717  1.00  0.00     0.049 A 
ATOM     62  H   UNL     1      -7.891   3.541   2.506  1.00  0.00     0.167 HD
ATOM     63  C   UNL     1      -8.190   1.080   1.140  1.00  0.00     0.074 A 
ATOM     64  C   UNL     1      -8.091  -0.329   0.821  1.00  0.00     0.031 C 
ATOM     65  C   UNL     1      -8.887   1.980   0.404  1.00  0.00     0.031 A 
BRANCH  52  66
ATOM     66  C   UNL     1      -8.791   7.712   2.710  1.00  0.00    -0.014 A 
ATOM     67  C   UNL     1      -7.889   8.763   2.477  1.00  0.00     0.009 A 
ATOM     68  C   UNL     1     -10.161   8.005   2.802  1.00  0.00     0.009 A 
ATOM     69  C   UNL     1      -8.346  10.079   2.379  1.00  0.00     0.001 A 
ATOM     70  C   UNL     1     -10.619   9.316   2.667  1.00  0.00     0.001 A 
ATOM     71  C   UNL     1      -9.710  10.354   2.467  1.00  0.00     0.000 A 
ENDBRANCH  52  66
BRANCH  53  72
ATOM     72  C   UNL     1      -5.625  -1.675   3.962  1.00  0.00    -0.014 A 
ATOM     73  C   UNL     1      -4.789  -2.300   3.024  1.00  0.00     0.009 A 
ATOM     74  C   UNL     1      -6.074  -2.417   5.066  1.00  0.00     0.009 A 
ATOM     75  C   UNL     1      -4.441  -3.646   3.169  1.00  0.00     0.001 A 
ATOM     76  C   UNL     1      -5.694  -3.751   5.229  1.00  0.00     0.001 A 
ATOM     77  C   UNL     1      -4.889  -4.368   4.274  1.00  0.00     0.000 A 
ENDBRANCH  53  72
BRANCH  65  78
ATOM     78  C   UNL     1      -9.551   1.493  -0.857  1.00  0.00    -0.014 A 
ATOM     79  C   UNL     1     -10.671   0.648  -0.824  1.00  0.00     0.009 A 
ATOM     80  C   UNL     1      -9.081   1.946  -2.101  1.00  0.00     0.009 A 
ATOM     81  C   UNL     1     -11.286   0.245  -2.012  1.00  0.00     0.001 A 
ATOM     82  C   UNL     1      -9.719   1.572  -3.283  1.00  0.00     0.001 A 
ATOM     83  C   UNL     1     -10.816   0.714  -3.239  1.00  0.00     0.000 A 
ENDBRANCH  65  78
ENDBRANCH  39  40
ENDBRANCH  32  34
ENDBRANCH  31  32
ENDBRANCH  30  31
ENDBRANCH  29  30
ENDBRANCH  28  29
ENDBRANCH  27  28
ENDBRANCH   1  27
TORSDOF 21
