REMARK SMILES Cc1ccccc1C(=O)Nc1cc(C(=O)OCCOCCOCCOC(=O)c2ccc(-c3c4nc(c(-c5ccccc5)c5ccc([nH]5)c(-c5ccccc5)c5nc(c(-c6ccccc6)c6ccc3[nH]6)C=C5)C=C4)cc2)ccc1N1CC[NH+](CC(=O)Nc2ccc(F)cc2)CC1
REMARK SMILES IDX 20 1 19 2 18 3 17 4 16 5 14 6 15 7 13 8 11 9 12 10 78 11
REMARK SMILES IDX 77 12 76 13 10 14 8 15 9 16 7 18 1 19 2 20 3 21 4 22 6 23
REMARK SMILES IDX 5 24 79 25 80 26 95 27 81 28 94 29 82 30 83 32 84 33 85 34
REMARK SMILES IDX 86 35 87 37 88 38 93 39 89 40 92 41 90 42 91 43 21 44 22 45
REMARK SMILES IDX 23 46 24 47 25 48 26 49 27 50 28 51 29 52 75 53 30 54 74 55
REMARK SMILES IDX 31 56 32 57 33 58 68 59 34 60 73 61 67 62 69 63 35 64 72 65
REMARK SMILES IDX 66 66 65 67 36 69 58 70 43 71 57 72 44 73 47 74 56 75 70 76
REMARK SMILES IDX 45 77 46 78 55 80 71 81 48 82 37 83 38 84 42 85 39 86 41 87
REMARK SMILES IDX 40 88 59 89 60 90 64 91 61 92 63 93 62 94 49 95 50 96 54 97
REMARK SMILES IDX 51 98 53 99 52 100
REMARK H PARENT 10 17 82 31 86 36 69 68 47 79
REMARK Flexibility Score: inf
ROOT
ATOM      1  C   UNL     1       6.059  -4.675  -5.590  1.00  0.00     0.188 C 
ENDROOT
BRANCH   1   2
ATOM      2  O   UNL     1       4.831  -5.194  -6.053  1.00  0.00    -0.376 OA
BRANCH   2   3
ATOM      3  C   UNL     1       3.769  -4.922  -5.165  1.00  0.00     0.202 C 
BRANCH   3   4
ATOM      4  C   UNL     1       3.748  -3.671  -4.243  1.00  0.00     0.261 C 
BRANCH   4   5
ATOM      5  O   UNL     1       4.931  -3.198  -3.300  1.00  0.00    -0.460 OA
BRANCH   5   6
ATOM      6  C   UNL     1       5.484  -2.351  -2.298  1.00  0.00     0.338 C 
ATOM      7  O   UNL     1       6.713  -2.238  -2.452  1.00  0.00    -0.246 OA
BRANCH   6   8
ATOM      8  C   UNL     1       4.982  -1.520  -0.895  1.00  0.00     0.062 A 
ATOM      9  C   UNL     1       3.689   0.335   0.371  1.00  0.00     0.065 A 
ATOM     10  C   UNL     1       3.762  -0.881  -0.411  1.00  0.00     0.044 A 
ATOM     11  C   UNL     1       4.930   0.879   0.828  1.00  0.00     0.061 A 
ATOM     12  C   UNL     1       6.054   0.029   0.671  1.00  0.00     0.029 A 
ATOM     13  C   UNL     1       6.086  -1.105  -0.160  1.00  0.00     0.018 A 
BRANCH   9  14
ATOM     14  N   UNL     1       2.505   1.169   0.482  1.00  0.00    -0.320 N 
ATOM     15  C   UNL     1       1.129   1.303   0.768  1.00  0.00     0.255 C 
ATOM     16  O   UNL     1       0.743   2.489   0.776  1.00  0.00    -0.269 OA
ATOM     17  H   UNL     1       2.806   2.076   0.245  1.00  0.00     0.170 HD
BRANCH  15  18
ATOM     18  C   UNL     1      -0.021   0.322   1.022  1.00  0.00     0.043 A 
ATOM     19  C   UNL     1       1.653  -1.843   1.705  1.00  0.00     0.045 C 
ATOM     20  C   UNL     1       0.403  -1.451   0.968  1.00  0.00    -0.038 A 
ATOM     21  C   UNL     1      -0.663  -2.654  -0.011  1.00  0.00     0.004 A 
ATOM     22  C   UNL     1      -2.182  -2.053  -0.918  1.00  0.00     0.000 A 
ATOM     23  C   UNL     1      -1.603   0.914   0.232  1.00  0.00     0.014 A 
ATOM     24  C   UNL     1      -2.660  -0.258  -0.815  1.00  0.00     0.001 A 
ENDBRANCH  15  18
ENDBRANCH   9  14
BRANCH  11  25
ATOM     25  N   UNL     1       5.143   2.170   1.355  1.00  0.00    -0.359 N 
ATOM     26  C   UNL     1       6.540   2.583   1.743  1.00  0.00     0.178 C 
ATOM     27  C   UNL     1       4.136   2.931   2.093  1.00  0.00     0.178 C 
ATOM     28  C   UNL     1       6.741   4.090   2.118  1.00  0.00     0.284 C 
ATOM     29  C   UNL     1       4.405   4.433   1.914  1.00  0.00     0.284 C 
ATOM     30  N   UNL     1       5.600   4.865   2.626  1.00  0.00    -0.324 N 
ATOM     31  H   UNL     1       5.791   5.845   2.416  1.00  0.00     0.348 HD
BRANCH  30  32
ATOM     32  C   UNL     1       5.454   5.002   4.091  1.00  0.00     0.364 C 
BRANCH  32  33
ATOM     33  C   UNL     1       5.303   3.734   4.927  1.00  0.00     0.279 C 
ATOM     34  O   UNL     1       6.314   3.068   5.199  1.00  0.00    -0.268 OA
ATOM     35  N   UNL     1       4.126   3.251   5.435  1.00  0.00    -0.321 N 
ATOM     36  H   UNL     1       4.287   2.587   6.144  1.00  0.00     0.170 HD
BRANCH  35  37
ATOM     37  C   UNL     1       2.743   3.446   5.217  1.00  0.00     0.041 A 
ATOM     38  C   UNL     1       1.891   2.489   5.803  1.00  0.00     0.029 A 
ATOM     39  C   UNL     1       2.161   4.408   4.396  1.00  0.00     0.029 A 
ATOM     40  C   UNL     1       0.523   2.444   5.505  1.00  0.00     0.041 A 
ATOM     41  C   UNL     1       0.800   4.336   4.051  1.00  0.00     0.041 A 
ATOM     42  C   UNL     1      -0.005   3.350   4.602  1.00  0.00     0.123 A 
ATOM     43  F   UNL     1      -1.300   3.282   4.270  1.00  0.00    -0.207 F 
ENDBRANCH  35  37
ENDBRANCH  32  33
ENDBRANCH  30  32
ENDBRANCH  11  25
ENDBRANCH   6   8
ENDBRANCH   5   6
ENDBRANCH   4   5
ENDBRANCH   3   4
ENDBRANCH   2   3
ENDBRANCH   1   2
BRANCH   1  44
ATOM     44  C   UNL     1       6.271  -3.255  -6.117  1.00  0.00     0.188 C 
BRANCH  44  45
ATOM     45  O   UNL     1       5.058  -2.512  -6.249  1.00  0.00    -0.376 OA
BRANCH  45  46
ATOM     46  C   UNL     1       4.517  -2.431  -7.566  1.00  0.00     0.202 C 
BRANCH  46  47
ATOM     47  C   UNL     1       5.271  -1.378  -8.389  1.00  0.00     0.261 C 
BRANCH  47  48
ATOM     48  O   UNL     1       5.038  -0.049  -7.879  1.00  0.00    -0.460 OA
BRANCH  48  49
ATOM     49  C   UNL     1       5.677   0.236  -6.712  1.00  0.00     0.338 C 
ATOM     50  O   UNL     1       6.882   0.172  -6.532  1.00  0.00    -0.246 OA
BRANCH  49  51
ATOM     51  C   UNL     1       4.652   0.383  -5.639  1.00  0.00     0.060 A 
ATOM     52  C   UNL     1       5.051   0.422  -4.317  1.00  0.00     0.016 A 
ATOM     53  C   UNL     1       3.304   0.157  -5.918  1.00  0.00     0.016 A 
ATOM     54  C   UNL     1       4.145   0.004  -3.335  1.00  0.00     0.010 A 
ATOM     55  C   UNL     1       2.501  -0.445  -4.953  1.00  0.00     0.010 A 
ATOM     56  C   UNL     1       2.974  -0.693  -3.659  1.00  0.00    -0.014 A 
BRANCH  56  57
ATOM     57  C   UNL     1       2.075  -1.614  -2.847  1.00  0.00     0.031 A 
ATOM     58  C   UNL     1       0.909  -0.876  -2.304  1.00  0.00     0.074 A 
ATOM     59  C   UNL     1       2.173  -2.839  -2.158  1.00  0.00     0.049 A 
ATOM     60  N   UNL     1       0.344  -1.378  -1.285  1.00  0.00    -0.248 NA
ATOM     61  C   UNL     1       0.473   0.436  -2.654  1.00  0.00     0.031 C 
ATOM     62  C   UNL     1       1.056  -3.802  -1.946  1.00  0.00     0.029 A 
ATOM     63  N   UNL     1       3.194  -3.627  -1.617  1.00  0.00    -0.354 N 
ATOM     64  C   UNL     1      -0.710  -0.681  -0.626  1.00  0.00     0.074 A 
ATOM     65  C   UNL     1      -0.554   0.556  -1.810  1.00  0.00     0.031 C 
ATOM     66  C   UNL     1       1.426  -4.818  -1.132  1.00  0.00     0.029 A 
ATOM     67  C   UNL     1       2.828  -4.695  -0.842  1.00  0.00     0.049 A 
ATOM     68  H   UNL     1       4.142  -3.422  -1.786  1.00  0.00     0.167 HD
ATOM     69  C   UNL     1      -1.733  -1.073   0.890  1.00  0.00     0.031 A 
ATOM     70  C   UNL     1       3.616  -5.423  -0.015  1.00  0.00     0.031 A 
ATOM     71  C   UNL     1      -1.744  -2.489   1.919  1.00  0.00     0.049 A 
ATOM     72  C   UNL     1       2.968  -5.597   1.337  1.00  0.00     0.074 A 
ATOM     73  C   UNL     1      -2.302  -3.778   1.693  1.00  0.00     0.029 A 
ATOM     74  N   UNL     1      -0.874  -2.722   2.994  1.00  0.00    -0.354 N 
ATOM     75  N   UNL     1       1.808  -5.090   1.671  1.00  0.00    -0.248 NA
ATOM     76  C   UNL     1       3.640  -6.261   2.455  1.00  0.00     0.031 C 
ATOM     77  C   UNL     1      -1.456  -4.751   2.269  1.00  0.00     0.029 A 
ATOM     78  C   UNL     1      -0.488  -4.078   2.979  1.00  0.00     0.049 A 
ATOM     79  H   UNL     1      -0.581  -2.050   3.650  1.00  0.00     0.167 HD
ATOM     80  C   UNL     1       1.650  -5.213   3.033  1.00  0.00     0.074 A 
ATOM     81  C   UNL     1       2.791  -6.007   3.463  1.00  0.00     0.031 C 
ATOM     82  C   UNL     1       0.633  -4.621   3.733  1.00  0.00     0.031 A 
BRANCH  69  83
ATOM     83  C   UNL     1      -3.382  -0.543   1.440  1.00  0.00    -0.014 A 
ATOM     84  C   UNL     1      -4.410  -1.523   1.312  1.00  0.00     0.009 A 
ATOM     85  C   UNL     1      -3.879   0.768   1.614  1.00  0.00     0.009 A 
ATOM     86  C   UNL     1      -5.770  -1.239   1.158  1.00  0.00     0.001 A 
ATOM     87  C   UNL     1      -5.244   1.072   1.377  1.00  0.00     0.001 A 
ATOM     88  C   UNL     1      -6.179   0.074   1.115  1.00  0.00     0.000 A 
ENDBRANCH  69  83
BRANCH  70  89
ATOM     89  C   UNL     1       5.088  -5.456  -0.309  1.00  0.00    -0.014 A 
ATOM     90  C   UNL     1       5.512  -6.137  -1.475  1.00  0.00     0.009 A 
ATOM     91  C   UNL     1       6.048  -4.694   0.369  1.00  0.00     0.009 A 
ATOM     92  C   UNL     1       6.810  -5.991  -1.990  1.00  0.00     0.001 A 
ATOM     93  C   UNL     1       7.351  -4.550  -0.149  1.00  0.00     0.001 A 
ATOM     94  C   UNL     1       7.721  -5.169  -1.343  1.00  0.00     0.000 A 
ENDBRANCH  70  89
BRANCH  82  95
ATOM     95  C   UNL     1       0.506  -4.642   5.222  1.00  0.00    -0.014 A 
ATOM     96  C   UNL     1       1.585  -4.586   6.110  1.00  0.00     0.009 A 
ATOM     97  C   UNL     1      -0.795  -4.601   5.766  1.00  0.00     0.009 A 
ATOM     98  C   UNL     1       1.364  -4.532   7.490  1.00  0.00     0.001 A 
ATOM     99  C   UNL     1      -1.017  -4.495   7.133  1.00  0.00     0.001 A 
ATOM    100  C   UNL     1       0.067  -4.473   7.998  1.00  0.00     0.000 A 
ENDBRANCH  82  95
ENDBRANCH  56  57
ENDBRANCH  49  51
ENDBRANCH  48  49
ENDBRANCH  47  48
ENDBRANCH  46  47
ENDBRANCH  45  46
ENDBRANCH  44  45
ENDBRANCH   1  44
TORSDOF 23
