REMARK SMILES O=C(OCCOCCOCCOC(=O)c1ccc(-c2c3nc(c(-c4ccccc4)c4ccc([nH]4)c(-c4ccccc4)c4nc(c(-c5ccccc5)c5ccc2[nH]5)C=C4)C=C3)cc1)C1=Cc2cc(Cl)cc(-c3ccc(CO)cc3)c2O[C@@H]1C(F)(F)F
REMARK SMILES IDX 7 1 6 2 5 3 4 4 3 5 2 6 1 7 63 8 64 9 81 10 65 11 80 12
REMARK SMILES IDX 66 13 79 14 67 15 70 16 68 17 69 18 82 19 83 20 84 21 85 22
REMARK SMILES IDX 71 23 72 24 78 25 73 26 77 27 74 28 75 29 76 30 8 32 9 33
REMARK SMILES IDX 10 34 11 35 12 36 13 37 14 38 15 39 16 40 62 41 17 42 61 43
REMARK SMILES IDX 18 44 19 45 20 46 55 47 21 48 60 49 54 50 56 51 22 52 59 53
REMARK SMILES IDX 53 54 52 55 23 57 45 58 30 59 44 60 31 61 34 62 43 63 57 64
REMARK SMILES IDX 32 65 33 66 42 68 58 69 35 70 24 71 25 72 29 73 26 74 28 75
REMARK SMILES IDX 27 76 46 77 47 78 51 79 48 80 50 81 49 82 36 83 37 84 41 85
REMARK SMILES IDX 38 86 40 87 39 88
REMARK H PARENT 76 31 56 56 34 67
REMARK Flexibility Score: inf
ROOT
ATOM      1  C   UNL     1       2.118  -0.458  -2.207  1.00  0.00     0.188 C 
ENDROOT
BRANCH   1   2
ATOM      2  O   UNL     1       3.583  -0.031  -2.150  1.00  0.00    -0.376 OA
BRANCH   2   3
ATOM      3  C   UNL     1       4.481   0.490  -0.706  1.00  0.00     0.202 C 
BRANCH   3   4
ATOM      4  C   UNL     1       3.865  -0.111   1.294  1.00  0.00     0.261 C 
BRANCH   4   5
ATOM      5  O   UNL     1       2.896   0.654   2.204  1.00  0.00    -0.460 OA
BRANCH   5   6
ATOM      6  C   UNL     1       3.026   1.984   2.079  1.00  0.00     0.338 C 
ATOM      7  O   UNL     1       2.303   2.853   2.501  1.00  0.00    -0.246 OA
BRANCH   6   8
ATOM      8  C   UNL     1       3.891   1.948   0.914  1.00  0.00     0.087 C 
ATOM      9  C   UNL     1       5.287   1.660   1.150  1.00  0.00     0.027 C 
ATOM     10  C   UNL     1       2.696   0.843  -0.088  1.00  0.00     0.316 C 
ATOM     11  C   UNL     1       6.047   0.080   0.823  1.00  0.00     0.019 A 
ATOM     12  O   UNL     1       3.452  -0.965  -0.310  1.00  0.00    -0.475 OA
ATOM     13  C   UNL     1       7.329  -0.087   1.278  1.00  0.00     0.032 A 
ATOM     14  C   UNL     1       5.194  -1.276   0.166  1.00  0.00     0.135 A 
ATOM     15  C   UNL     1       7.862  -1.365   1.105  1.00  0.00     0.042 A 
ATOM     16  C   UNL     1       5.833  -2.494  -0.026  1.00  0.00     0.026 A 
ATOM     17  Cl  UNL     1       9.472  -1.639   1.683  1.00  0.00    -0.084 Cl
ATOM     18  C   UNL     1       7.174  -2.471   0.483  1.00  0.00     0.033 A 
BRANCH  10  19
ATOM     19  C   UNL     1       2.426   2.145  -1.208  1.00  0.00     0.430 C 
ATOM     20  F   UNL     1       2.636   1.997  -2.525  1.00  0.00    -0.167 F 
ATOM     21  F   UNL     1       1.152   2.591  -1.058  1.00  0.00    -0.167 F 
ATOM     22  F   UNL     1       3.208   3.232  -0.908  1.00  0.00    -0.167 F 
ENDBRANCH  10  19
BRANCH  16  23
ATOM     23  C   UNL     1       5.441  -3.723  -0.713  1.00  0.00    -0.015 A 
ATOM     24  C   UNL     1       4.740  -4.743  -0.065  1.00  0.00     0.009 A 
ATOM     25  C   UNL     1       5.963  -4.009  -1.992  1.00  0.00     0.009 A 
ATOM     26  C   UNL     1       4.428  -5.936  -0.734  1.00  0.00     0.007 A 
ATOM     27  C   UNL     1       5.639  -5.193  -2.670  1.00  0.00     0.007 A 
ATOM     28  C   UNL     1       4.799  -6.132  -2.070  1.00  0.00    -0.023 A 
BRANCH  28  29
ATOM     29  C   UNL     1       4.260  -7.301  -2.852  1.00  0.00     0.191 C 
BRANCH  29  30
ATOM     30  O   UNL     1       5.148  -8.405  -2.828  1.00  0.00    -0.392 OA
ATOM     31  H   UNL     1       5.992  -8.149  -3.232  1.00  0.00     0.211 HD
ENDBRANCH  29  30
ENDBRANCH  28  29
ENDBRANCH  16  23
ENDBRANCH   6   8
ENDBRANCH   5   6
ENDBRANCH   4   5
ENDBRANCH   3   4
ENDBRANCH   2   3
ENDBRANCH   1   2
BRANCH   1  32
ATOM     32  C   UNL     1       1.574  -1.525  -3.169  1.00  0.00     0.188 C 
BRANCH  32  33
ATOM     33  O   UNL     1       2.236  -2.754  -3.254  1.00  0.00    -0.376 OA
BRANCH  33  34
ATOM     34  C   UNL     1       3.621  -2.645  -3.498  1.00  0.00     0.202 C 
BRANCH  34  35
ATOM     35  C   UNL     1       4.120  -1.971  -4.781  1.00  0.00     0.261 C 
BRANCH  35  36
ATOM     36  O   UNL     1       3.738  -0.594  -4.927  1.00  0.00    -0.460 OA
BRANCH  36  37
ATOM     37  C   UNL     1       2.772  -0.334  -5.841  1.00  0.00     0.338 C 
ATOM     38  O   UNL     1       2.211  -1.123  -6.580  1.00  0.00    -0.246 OA
BRANCH  37  39
ATOM     39  C   UNL     1       2.349   1.068  -5.679  1.00  0.00     0.060 A 
ATOM     40  C   UNL     1       1.082   1.361  -5.149  1.00  0.00     0.016 A 
ATOM     41  C   UNL     1       3.197   2.088  -6.100  1.00  0.00     0.016 A 
ATOM     42  C   UNL     1       0.671   2.683  -5.010  1.00  0.00     0.010 A 
ATOM     43  C   UNL     1       2.764   3.411  -6.011  1.00  0.00     0.010 A 
ATOM     44  C   UNL     1       1.496   3.709  -5.480  1.00  0.00    -0.014 A 
BRANCH  44  45
ATOM     45  C   UNL     1       0.947   5.073  -5.624  1.00  0.00     0.031 A 
ATOM     46  C   UNL     1       0.314   5.437  -6.935  1.00  0.00     0.074 A 
ATOM     47  C   UNL     1       1.010   5.960  -4.617  1.00  0.00     0.049 A 
ATOM     48  N   UNL     1      -0.173   6.583  -7.329  1.00  0.00    -0.248 NA
ATOM     49  C   UNL     1       0.226   4.364  -7.941  1.00  0.00     0.031 C 
ATOM     50  C   UNL     1       1.554   5.694  -3.287  1.00  0.00     0.029 A 
ATOM     51  N   UNL     1       0.617   7.273  -4.566  1.00  0.00    -0.354 N 
ATOM     52  C   UNL     1      -0.613   6.373  -8.630  1.00  0.00     0.074 A 
ATOM     53  C   UNL     1      -0.319   4.999  -8.967  1.00  0.00     0.031 C 
ATOM     54  C   UNL     1       1.470   6.817  -2.551  1.00  0.00     0.029 A 
ATOM     55  C   UNL     1       0.908   7.887  -3.372  1.00  0.00     0.049 A 
ATOM     56  H   UNL     1       0.168   7.731  -5.313  1.00  0.00     0.167 HD
ATOM     57  C   UNL     1      -1.204   7.254  -9.468  1.00  0.00     0.031 A 
ATOM     58  C   UNL     1       0.763   9.176  -3.005  1.00  0.00     0.031 A 
ATOM     59  C   UNL     1      -1.463   8.627  -9.134  1.00  0.00     0.049 A 
ATOM     60  C   UNL     1       0.185  10.156  -3.996  1.00  0.00     0.074 A 
ATOM     61  C   UNL     1      -2.067   9.601  -9.909  1.00  0.00     0.029 A 
ATOM     62  N   UNL     1      -1.118   9.225  -7.931  1.00  0.00    -0.354 N 
ATOM     63  N   UNL     1      -0.262   9.942  -5.211  1.00  0.00    -0.248 NA
ATOM     64  C   UNL     1       0.090  11.558  -3.563  1.00  0.00     0.031 C 
ATOM     65  C   UNL     1      -2.015  10.807  -9.206  1.00  0.00     0.029 A 
ATOM     66  C   UNL     1      -1.460  10.566  -7.959  1.00  0.00     0.049 A 
ATOM     67  H   UNL     1      -0.693   8.765  -7.172  1.00  0.00     0.167 HD
ATOM     68  C   UNL     1      -0.718  11.172  -5.672  1.00  0.00     0.074 A 
ATOM     69  C   UNL     1      -0.518  12.120  -4.596  1.00  0.00     0.031 C 
ATOM     70  C   UNL     1      -1.252  11.493  -6.877  1.00  0.00     0.031 A 
BRANCH  57  71
ATOM     71  C   UNL     1      -1.562   6.773 -10.846  1.00  0.00    -0.014 A 
ATOM     72  C   UNL     1      -2.601   5.853 -11.056  1.00  0.00     0.009 A 
ATOM     73  C   UNL     1      -0.879   7.292 -11.957  1.00  0.00     0.009 A 
ATOM     74  C   UNL     1      -2.932   5.445 -12.350  1.00  0.00     0.001 A 
ATOM     75  C   UNL     1      -1.233   6.908 -13.251  1.00  0.00     0.001 A 
ATOM     76  C   UNL     1      -2.254   5.980 -13.446  1.00  0.00     0.000 A 
ENDBRANCH  57  71
BRANCH  58  77
ATOM     77  C   UNL     1       1.212   9.639  -1.662  1.00  0.00    -0.014 A 
ATOM     78  C   UNL     1       0.297  10.167  -0.737  1.00  0.00     0.009 A 
ATOM     79  C   UNL     1       2.574   9.615  -1.319  1.00  0.00     0.009 A 
ATOM     80  C   UNL     1       0.740  10.700   0.477  1.00  0.00     0.001 A 
ATOM     81  C   UNL     1       3.009  10.111  -0.089  1.00  0.00     0.001 A 
ATOM     82  C   UNL     1       2.094  10.669   0.801  1.00  0.00     0.000 A 
ENDBRANCH  58  77
BRANCH  70  83
ATOM     83  C   UNL     1      -1.699  12.916  -7.080  1.00  0.00    -0.014 A 
ATOM     84  C   UNL     1      -0.777  13.971  -7.166  1.00  0.00     0.009 A 
ATOM     85  C   UNL     1      -3.067  13.196  -7.231  1.00  0.00     0.009 A 
ATOM     86  C   UNL     1      -1.221  15.282  -7.355  1.00  0.00     0.001 A 
ATOM     87  C   UNL     1      -3.504  14.500  -7.462  1.00  0.00     0.001 A 
ATOM     88  C   UNL     1      -2.582  15.544  -7.510  1.00  0.00     0.000 A 
ENDBRANCH  70  83
ENDBRANCH  44  45
ENDBRANCH  37  39
ENDBRANCH  36  37
ENDBRANCH  35  36
ENDBRANCH  34  35
ENDBRANCH  33  34
ENDBRANCH  32  33
ENDBRANCH   1  32
TORSDOF 21
