REMARK SMILES COc1ccc(-n2c(SCc3cn(-c4ccc(C(=O)OCCOCCOCCOC(=O)c5ccc(-c6c7nc(c(-c8ccccc8)c8ccc([nH]8)c(-c8ccccc8)c8nc(c(-c9ccccc9)c9ccc6[nH]9)C=C8)C=C7)cc5)cc4)nn3)nc3ccccc3c2=O)cc1
REMARK SMILES IDX 22 1 21 2 20 3 18 4 19 5 17 6 14 7 15 8 81 9 16 10 80 11
REMARK SMILES IDX 13 12 11 13 12 14 83 15 82 16 10 17 9 18 8 19 7 20 91 21
REMARK SMILES IDX 84 22 90 23 92 24 85 25 89 26 86 27 88 28 87 29 6 30 3 31
REMARK SMILES IDX 4 32 94 33 5 34 93 35 2 36 1 37 23 38 24 39 25 40 26 41
REMARK SMILES IDX 27 42 28 43 29 44 30 45 31 46 32 47 33 48 79 49 34 50 78 51
REMARK SMILES IDX 35 52 36 53 37 54 72 55 38 56 77 57 71 58 73 59 39 60 76 61
REMARK SMILES IDX 70 62 69 63 40 65 62 66 47 67 61 68 48 69 51 70 60 71 74 72
REMARK SMILES IDX 49 73 50 74 59 76 75 77 52 78 41 79 42 80 46 81 43 82 45 83
REMARK SMILES IDX 44 84 63 85 64 86 68 87 65 88 67 89 66 90 53 91 54 92 58 93
REMARK SMILES IDX 55 94 57 95 56 96
REMARK H PARENT 73 64 51 75
REMARK Flexibility Score: inf
ROOT
ATOM      1  C   UNL     1      -7.770   1.500  -4.508  1.00  0.00     0.202 C 
ENDROOT
BRANCH   1   2
ATOM      2  C   UNL     1      -7.212   0.100  -4.172  1.00  0.00     0.261 C 
BRANCH   2   3
ATOM      3  O   UNL     1      -5.798   0.022  -3.962  1.00  0.00    -0.460 OA
BRANCH   3   4
ATOM      4  C   UNL     1      -5.026  -0.344  -5.010  1.00  0.00     0.338 C 
ATOM      5  O   UNL     1      -5.404  -0.654  -6.123  1.00  0.00    -0.246 OA
BRANCH   4   6
ATOM      6  C   UNL     1      -3.610  -0.087  -4.649  1.00  0.00     0.060 A 
ATOM      7  C   UNL     1      -1.006   0.638  -4.023  1.00  0.00     0.066 A 
ATOM      8  C   UNL     1      -1.470   0.809  -5.331  1.00  0.00     0.029 A 
ATOM      9  C   UNL     1      -1.830   0.123  -3.017  1.00  0.00     0.029 A 
ATOM     10  C   UNL     1      -2.783   0.467  -5.636  1.00  0.00     0.018 A 
ATOM     11  C   UNL     1      -3.127  -0.275  -3.343  1.00  0.00     0.018 A 
BRANCH   7  12
ATOM     12  N   UNL     1       0.357   0.827  -3.759  1.00  0.00    -0.220 N 
ATOM     13  C   UNL     1       2.465   0.336  -3.642  1.00  0.00     0.093 A 
ATOM     14  C   UNL     1       1.363   0.213  -4.456  1.00  0.00     0.141 A 
ATOM     15  N   UNL     1       2.136   1.130  -2.574  1.00  0.00    -0.134 NA
ATOM     16  N   UNL     1       0.837   1.388  -2.634  1.00  0.00    -0.062 NA
BRANCH  13  17
ATOM     17  C   UNL     1       3.792  -0.302  -3.695  1.00  0.00     0.138 C 
BRANCH  17  18
ATOM     18  S   UNL     1       4.311  -0.885  -5.292  1.00  0.00    -0.081 SA
BRANCH  18  19
ATOM     19  C   UNL     1       3.169  -2.131  -5.830  1.00  0.00     0.176 A 
ATOM     20  N   UNL     1       3.149  -3.325  -5.126  1.00  0.00    -0.255 N 
ATOM     21  C   UNL     1       3.517  -4.489  -5.796  1.00  0.00     0.266 A 
ATOM     22  N   UNL     1       2.974  -2.092  -7.112  1.00  0.00    -0.223 NA
ATOM     23  C   UNL     1       4.140  -4.236  -7.118  1.00  0.00     0.066 A 
ATOM     24  O   UNL     1       3.397  -5.639  -5.387  1.00  0.00    -0.268 OA
ATOM     25  C   UNL     1       3.760  -3.056  -7.768  1.00  0.00     0.079 A 
ATOM     26  C   UNL     1       5.198  -5.008  -7.593  1.00  0.00     0.016 A 
ATOM     27  C   UNL     1       4.418  -2.668  -8.934  1.00  0.00     0.029 A 
ATOM     28  C   UNL     1       5.901  -4.568  -8.717  1.00  0.00     0.001 A 
ATOM     29  C   UNL     1       5.505  -3.409  -9.393  1.00  0.00     0.002 A 
BRANCH  20  30
ATOM     30  C   UNL     1       2.388  -3.409  -3.933  1.00  0.00     0.052 A 
ATOM     31  C   UNL     1       1.024  -2.837  -1.579  1.00  0.00     0.119 A 
ATOM     32  C   UNL     1       0.311  -2.942  -2.770  1.00  0.00     0.048 A 
ATOM     33  C   UNL     1       2.373  -3.188  -1.533  1.00  0.00     0.048 A 
ATOM     34  C   UNL     1       0.999  -3.204  -3.958  1.00  0.00     0.030 A 
ATOM     35  C   UNL     1       3.054  -3.502  -2.711  1.00  0.00     0.030 A 
BRANCH  31  36
ATOM     36  O   UNL     1       0.371  -2.400  -0.459  1.00  0.00    -0.497 OA
ATOM     37  C   UNL     1       0.861  -1.112  -0.062  1.00  0.00     0.278 C 
ENDBRANCH  31  36
ENDBRANCH  20  30
ENDBRANCH  18  19
ENDBRANCH  17  18
ENDBRANCH  13  17
ENDBRANCH   7  12
ENDBRANCH   4   6
ENDBRANCH   3   4
ENDBRANCH   2   3
ENDBRANCH   1   2
BRANCH   1  38
ATOM     38  O   UNL     1      -7.159   2.668  -3.970  1.00  0.00    -0.376 OA
BRANCH  38  39
ATOM     39  C   UNL     1      -5.773   2.833  -4.199  1.00  0.00     0.188 C 
BRANCH  39  40
ATOM     40  C   UNL     1      -4.919   2.700  -2.922  1.00  0.00     0.188 C 
BRANCH  40  41
ATOM     41  O   UNL     1      -5.431   2.084  -1.745  1.00  0.00    -0.376 OA
BRANCH  41  42
ATOM     42  C   UNL     1      -6.734   2.390  -1.260  1.00  0.00     0.202 C 
BRANCH  42  43
ATOM     43  C   UNL     1      -7.154   3.835  -0.997  1.00  0.00     0.261 C 
BRANCH  43  44
ATOM     44  O   UNL     1      -6.791   4.748  -2.019  1.00  0.00    -0.460 OA
BRANCH  44  45
ATOM     45  C   UNL     1      -5.653   5.423  -1.762  1.00  0.00     0.338 C 
ATOM     46  O   UNL     1      -4.870   5.241  -0.847  1.00  0.00    -0.246 OA
BRANCH  45  47
ATOM     47  C   UNL     1      -5.516   6.511  -2.735  1.00  0.00     0.060 A 
ATOM     48  C   UNL     1      -4.306   7.208  -2.717  1.00  0.00     0.016 A 
ATOM     49  C   UNL     1      -6.658   7.007  -3.377  1.00  0.00     0.016 A 
ATOM     50  C   UNL     1      -4.312   8.522  -3.120  1.00  0.00     0.010 A 
ATOM     51  C   UNL     1      -6.669   8.327  -3.759  1.00  0.00     0.010 A 
ATOM     52  C   UNL     1      -5.524   9.085  -3.528  1.00  0.00    -0.014 A 
BRANCH  52  53
ATOM     53  C   UNL     1      -5.578  10.522  -3.646  1.00  0.00     0.031 A 
ATOM     54  C   UNL     1      -5.081  11.064  -4.918  1.00  0.00     0.074 A 
ATOM     55  C   UNL     1      -6.118  11.297  -2.689  1.00  0.00     0.049 A 
ATOM     56  N   UNL     1      -4.025  11.779  -5.108  1.00  0.00    -0.248 NA
ATOM     57  C   UNL     1      -5.792  10.672  -6.141  1.00  0.00     0.031 C 
ATOM     58  C   UNL     1      -6.925  10.884  -1.538  1.00  0.00     0.029 A 
ATOM     59  N   UNL     1      -6.147  12.654  -2.627  1.00  0.00    -0.354 N 
ATOM     60  C   UNL     1      -4.019  12.072  -6.463  1.00  0.00     0.074 A 
ATOM     61  C   UNL     1      -5.031  11.244  -7.072  1.00  0.00     0.031 C 
ATOM     62  C   UNL     1      -7.549  11.972  -1.031  1.00  0.00     0.029 A 
ATOM     63  C   UNL     1      -7.084  13.155  -1.740  1.00  0.00     0.049 A 
ATOM     64  H   UNL     1      -5.555  13.229  -3.164  1.00  0.00     0.167 HD
ATOM     65  C   UNL     1      -3.348  13.144  -6.960  1.00  0.00     0.031 A 
ATOM     66  C   UNL     1      -7.500  14.440  -1.665  1.00  0.00     0.031 A 
ATOM     67  C   UNL     1      -2.402  13.686  -6.023  1.00  0.00     0.049 A 
ATOM     68  C   UNL     1      -6.496  15.290  -2.350  1.00  0.00     0.074 A 
ATOM     69  C   UNL     1      -1.287  13.199  -5.370  1.00  0.00     0.029 A 
ATOM     70  N   UNL     1      -2.762  14.833  -5.357  1.00  0.00    -0.354 N 
ATOM     71  N   UNL     1      -5.304  15.524  -1.882  1.00  0.00    -0.248 NA
ATOM     72  C   UNL     1      -6.670  15.572  -3.768  1.00  0.00     0.031 C 
ATOM     73  C   UNL     1      -1.300  13.825  -4.090  1.00  0.00     0.029 A 
ATOM     74  C   UNL     1      -2.407  14.675  -4.043  1.00  0.00     0.049 A 
ATOM     75  H   UNL     1      -3.196  15.624  -5.753  1.00  0.00     0.167 HD
ATOM     76  C   UNL     1      -4.483  15.566  -3.000  1.00  0.00     0.074 A 
ATOM     77  C   UNL     1      -5.393  15.719  -4.131  1.00  0.00     0.031 C 
ATOM     78  C   UNL     1      -3.172  15.187  -2.926  1.00  0.00     0.031 A 
BRANCH  65  79
ATOM     79  C   UNL     1      -3.835  13.922  -8.149  1.00  0.00    -0.014 A 
ATOM     80  C   UNL     1      -3.001  14.902  -8.707  1.00  0.00     0.009 A 
ATOM     81  C   UNL     1      -5.180  13.912  -8.568  1.00  0.00     0.009 A 
ATOM     82  C   UNL     1      -3.501  15.849  -9.608  1.00  0.00     0.001 A 
ATOM     83  C   UNL     1      -5.671  14.824  -9.502  1.00  0.00     0.001 A 
ATOM     84  C   UNL     1      -4.835  15.809 -10.004  1.00  0.00     0.000 A 
ENDBRANCH  65  79
BRANCH  66  85
ATOM     85  C   UNL     1      -8.828  14.949  -1.268  1.00  0.00    -0.014 A 
ATOM     86  C   UNL     1      -9.005  16.300  -0.937  1.00  0.00     0.009 A 
ATOM     87  C   UNL     1      -9.980  14.162  -1.455  1.00  0.00     0.009 A 
ATOM     88  C   UNL     1     -10.289  16.851  -0.832  1.00  0.00     0.001 A 
ATOM     89  C   UNL     1     -11.261  14.709  -1.341  1.00  0.00     0.001 A 
ATOM     90  C   UNL     1     -11.415  16.058  -1.045  1.00  0.00     0.000 A 
ENDBRANCH  66  85
BRANCH  78  91
ATOM     91  C   UNL     1      -2.570  15.001  -1.556  1.00  0.00    -0.014 A 
ATOM     92  C   UNL     1      -3.065  14.067  -0.628  1.00  0.00     0.009 A 
ATOM     93  C   UNL     1      -1.384  15.682  -1.245  1.00  0.00     0.009 A 
ATOM     94  C   UNL     1      -2.414  13.852   0.590  1.00  0.00     0.001 A 
ATOM     95  C   UNL     1      -0.721  15.450  -0.038  1.00  0.00     0.001 A 
ATOM     96  C   UNL     1      -1.240  14.541   0.882  1.00  0.00     0.000 A 
ENDBRANCH  78  91
ENDBRANCH  52  53
ENDBRANCH  45  47
ENDBRANCH  44  45
ENDBRANCH  43  44
ENDBRANCH  42  43
ENDBRANCH  41  42
ENDBRANCH  40  41
ENDBRANCH  39  40
ENDBRANCH  38  39
ENDBRANCH   1  38
TORSDOF 23
