REMARK SMILES COC(=O)[C@@H]1CCN(S(=O)(=O)N2CCC(C(=O)OCCOCCOCCOC(=O)c3ccc(-c4c5nc(c(-c6ccccc6)c6ccc([nH]6)c(-c6ccccc6)c6nc(c(-c7ccccc7)c7ccc4[nH]7)C=C6)C=C5)cc3)CC2)C1
REMARK SMILES IDX 22 1 21 2 20 3 19 4 18 5 16 6 17 7 15 8 12 9 13 10 79 11
REMARK SMILES IDX 14 12 78 13 9 14 10 15 11 16 8 17 5 18 6 19 80 20 7 21 3 22
REMARK SMILES IDX 4 23 2 24 1 25 23 26 24 27 25 28 26 29 27 30 28 31 29 32
REMARK SMILES IDX 30 33 31 34 77 35 32 36 76 37 33 38 34 39 35 40 70 41 36 42
REMARK SMILES IDX 75 43 69 44 71 45 37 46 74 47 68 48 67 49 38 51 60 52 45 53
REMARK SMILES IDX 59 54 46 55 49 56 58 57 72 58 47 59 48 60 57 62 73 63 50 64
REMARK SMILES IDX 39 65 40 66 44 67 41 68 43 69 42 70 61 71 62 72 66 73 63 74
REMARK SMILES IDX 65 75 64 76 51 77 52 78 56 79 53 80 55 81 54 82
REMARK H PARENT 71 50 49 61
REMARK Flexibility Score: inf
ROOT
ATOM      1  C   UNL     1       7.427   9.017  -6.076  1.00  0.00     0.188 C 
ENDROOT
BRANCH   1   2
ATOM      2  O   UNL     1       8.192   9.185  -7.263  1.00  0.00    -0.376 OA
BRANCH   2   3
ATOM      3  C   UNL     1       7.498   9.587  -8.443  1.00  0.00     0.202 C 
BRANCH   3   4
ATOM      4  C   UNL     1       6.381   8.665  -8.959  1.00  0.00     0.261 C 
BRANCH   4   5
ATOM      5  O   UNL     1       5.351   8.346  -7.998  1.00  0.00    -0.463 OA
BRANCH   5   6
ATOM      6  C   UNL     1       5.395   7.078  -7.532  1.00  0.00     0.309 C 
ATOM      7  O   UNL     1       6.216   6.232  -7.881  1.00  0.00    -0.252 OA
BRANCH   6   8
ATOM      8  C   UNL     1       4.360   6.737  -6.487  1.00  0.00     0.102 C 
ATOM      9  N   UNL     1       1.821   6.034  -5.325  1.00  0.00    -0.189 NA
ATOM     10  C   UNL     1       2.560   7.181  -4.746  1.00  0.00     0.104 C 
ATOM     11  C   UNL     1       2.656   5.054  -6.032  1.00  0.00     0.104 C 
ATOM     12  C   UNL     1       3.526   7.810  -5.782  1.00  0.00     0.032 C 
ATOM     13  C   UNL     1       3.423   5.727  -7.136  1.00  0.00     0.032 C 
BRANCH   9  14
ATOM     14  S   UNL     1       0.485   5.440  -4.487  1.00  0.00     0.281 S 
ATOM     15  O   UNL     1      -0.163   4.444  -5.303  1.00  0.00    -0.195 OA
ATOM     16  O   UNL     1      -0.260   6.575  -3.980  1.00  0.00    -0.195 OA
BRANCH  14  17
ATOM     17  N   UNL     1       1.145   4.639  -3.137  1.00  0.00    -0.188 NA
ATOM     18  C   UNL     1       0.087   2.636  -2.202  1.00  0.00     0.116 C 
ATOM     19  C   UNL     1       1.034   2.271  -3.329  1.00  0.00     0.033 C 
ATOM     20  C   UNL     1       0.082   4.171  -2.162  1.00  0.00     0.118 C 
ATOM     21  C   UNL     1       1.990   3.440  -3.337  1.00  0.00     0.104 C 
BRANCH  18  22
ATOM     22  C   UNL     1       0.602   2.002  -0.931  1.00  0.00     0.310 C 
ATOM     23  O   UNL     1       1.270   2.561  -0.075  1.00  0.00    -0.252 OA
BRANCH  22  24
ATOM     24  O   UNL     1       0.293   0.672  -0.940  1.00  0.00    -0.469 OA
ATOM     25  C   UNL     1       0.888  -0.079   0.118  1.00  0.00     0.282 C 
ENDBRANCH  22  24
ENDBRANCH  18  22
ENDBRANCH  14  17
ENDBRANCH   9  14
ENDBRANCH   6   8
ENDBRANCH   5   6
ENDBRANCH   4   5
ENDBRANCH   3   4
ENDBRANCH   2   3
ENDBRANCH   1   2
BRANCH   1  26
ATOM     26  C   UNL     1       6.559  10.198  -5.650  1.00  0.00     0.188 C 
BRANCH  26  27
ATOM     27  O   UNL     1       5.864  10.865  -6.685  1.00  0.00    -0.376 OA
BRANCH  27  28
ATOM     28  C   UNL     1       5.421  12.199  -6.430  1.00  0.00     0.202 C 
BRANCH  28  29
ATOM     29  C   UNL     1       6.413  13.218  -5.809  1.00  0.00     0.261 C 
BRANCH  29  30
ATOM     30  O   UNL     1       7.082  12.846  -4.580  1.00  0.00    -0.460 OA
BRANCH  30  31
ATOM     31  C   UNL     1       6.314  12.433  -3.544  1.00  0.00     0.338 C 
ATOM     32  O   UNL     1       5.107  12.575  -3.451  1.00  0.00    -0.246 OA
BRANCH  31  33
ATOM     33  C   UNL     1       7.109  11.519  -2.663  1.00  0.00     0.060 A 
ATOM     34  C   UNL     1       6.472  10.363  -2.186  1.00  0.00     0.016 A 
ATOM     35  C   UNL     1       8.456  11.731  -2.350  1.00  0.00     0.016 A 
ATOM     36  C   UNL     1       7.144   9.463  -1.351  1.00  0.00     0.010 A 
ATOM     37  C   UNL     1       9.127  10.835  -1.497  1.00  0.00     0.010 A 
ATOM     38  C   UNL     1       8.463   9.718  -0.954  1.00  0.00    -0.014 A 
BRANCH  38  39
ATOM     39  C   UNL     1       9.050   8.940   0.177  1.00  0.00     0.031 A 
ATOM     40  C   UNL     1       9.044   9.555   1.556  1.00  0.00     0.074 A 
ATOM     41  C   UNL     1       9.525   7.689   0.026  1.00  0.00     0.049 A 
ATOM     42  N   UNL     1       9.450   9.056   2.698  1.00  0.00    -0.248 NA
ATOM     43  C   UNL     1       8.504  10.919   1.654  1.00  0.00     0.031 C 
ATOM     44  C   UNL     1       9.551   6.934  -1.224  1.00  0.00     0.029 A 
ATOM     45  N   UNL     1      10.068   6.827   0.951  1.00  0.00    -0.354 N 
ATOM     46  C   UNL     1       9.222  10.048   3.646  1.00  0.00     0.074 A 
ATOM     47  C   UNL     1       8.683  11.189   2.937  1.00  0.00     0.031 C 
ATOM     48  C   UNL     1      10.068   5.715  -0.985  1.00  0.00     0.029 A 
ATOM     49  C   UNL     1      10.438   5.612   0.427  1.00  0.00     0.049 A 
ATOM     50  H   UNL     1      10.181   7.059   1.901  1.00  0.00     0.167 HD
ATOM     51  C   UNL     1       9.432  10.022   4.986  1.00  0.00     0.031 A 
ATOM     52  C   UNL     1      11.012   4.541   1.012  1.00  0.00     0.031 A 
ATOM     53  C   UNL     1       9.994   8.906   5.703  1.00  0.00     0.049 A 
ATOM     54  C   UNL     1      11.330   4.567   2.486  1.00  0.00     0.074 A 
ATOM     55  C   UNL     1      10.228   8.783   7.062  1.00  0.00     0.029 A 
ATOM     56  N   UNL     1      10.428   7.727   5.117  1.00  0.00    -0.354 N 
ATOM     57  N   UNL     1      11.080   5.498   3.374  1.00  0.00    -0.248 NA
ATOM     58  C   UNL     1      12.002   3.379   3.036  1.00  0.00     0.031 C 
ATOM     59  C   UNL     1      10.873   7.561   7.288  1.00  0.00     0.029 A 
ATOM     60  C   UNL     1      10.965   6.887   6.082  1.00  0.00     0.049 A 
ATOM     61  H   UNL     1      10.364   7.517   4.158  1.00  0.00     0.167 HD
ATOM     62  C   UNL     1      11.529   4.995   4.592  1.00  0.00     0.074 A 
ATOM     63  C   UNL     1      12.050   3.670   4.329  1.00  0.00     0.031 C 
ATOM     64  C   UNL     1      11.502   5.575   5.818  1.00  0.00     0.031 A 
BRANCH  51  65
ATOM     65  C   UNL     1       9.101  11.277   5.752  1.00  0.00    -0.014 A 
ATOM     66  C   UNL     1       7.778  11.728   5.896  1.00  0.00     0.009 A 
ATOM     67  C   UNL     1      10.136  12.028   6.331  1.00  0.00     0.009 A 
ATOM     68  C   UNL     1       7.506  12.933   6.549  1.00  0.00     0.001 A 
ATOM     69  C   UNL     1       9.858  13.212   7.017  1.00  0.00     0.001 A 
ATOM     70  C   UNL     1       8.546  13.673   7.110  1.00  0.00     0.000 A 
ENDBRANCH  51  65
BRANCH  52  71
ATOM     71  C   UNL     1      11.318   3.325   0.209  1.00  0.00    -0.014 A 
ATOM     72  C   UNL     1      10.613   2.130   0.428  1.00  0.00     0.009 A 
ATOM     73  C   UNL     1      12.330   3.343  -0.763  1.00  0.00     0.009 A 
ATOM     74  C   UNL     1      10.928   0.977  -0.296  1.00  0.00     0.001 A 
ATOM     75  C   UNL     1      12.621   2.197  -1.507  1.00  0.00     0.001 A 
ATOM     76  C   UNL     1      11.925   1.013  -1.268  1.00  0.00     0.000 A 
ENDBRANCH  52  71
BRANCH  64  77
ATOM     77  C   UNL     1      12.018   4.763   6.979  1.00  0.00    -0.014 A 
ATOM     78  C   UNL     1      13.376   4.424   7.102  1.00  0.00     0.009 A 
ATOM     79  C   UNL     1      11.125   4.328   7.973  1.00  0.00     0.009 A 
ATOM     80  C   UNL     1      13.815   3.622   8.159  1.00  0.00     0.001 A 
ATOM     81  C   UNL     1      11.573   3.559   9.049  1.00  0.00     0.001 A 
ATOM     82  C   UNL     1      12.914   3.192   9.132  1.00  0.00     0.000 A 
ENDBRANCH  64  77
ENDBRANCH  38  39
ENDBRANCH  31  33
ENDBRANCH  30  31
ENDBRANCH  29  30
ENDBRANCH  28  29
ENDBRANCH  27  28
ENDBRANCH  26  27
ENDBRANCH   1  26
TORSDOF 21
