REMARK SMILES O=C(OCCOCCOCCOC(=O)c1cc(NC(=S)NC(=O)c2ccccc2F)ccc1Cl)c1ccc(-c2c3nc(c(-c4ccccc4)c4ccc([nH]4)c(-c4ccccc4)c4nc(c(-c5ccccc5)c5ccc2[nH]5)C=C4)C=C3)cc1
REMARK SMILES IDX 8 1 7 2 6 3 5 4 4 5 3 6 2 7 1 8 35 9 36 10 82 11 37 12 81 13
REMARK SMILES IDX 38 14 39 15 40 16 75 17 41 18 80 19 74 20 76 21 42 22 79 23
REMARK SMILES IDX 73 24 72 25 43 27 65 28 50 29 64 30 51 31 54 32 63 33 77 34
REMARK SMILES IDX 52 35 53 36 62 38 78 39 55 40 44 41 45 42 49 43 46 44 48 45
REMARK SMILES IDX 47 46 66 47 67 48 71 49 68 50 70 51 69 52 56 53 57 54 61 55
REMARK SMILES IDX 58 56 60 57 59 58 9 59 10 60 11 61 12 62 13 63 14 64 15 65
REMARK SMILES IDX 16 66 33 67 17 68 32 69 34 70 31 71 18 72 19 74 20 75 21 76
REMARK SMILES IDX 22 77 23 79 24 80 25 81 29 82 26 83 28 84 30 85 27 86
REMARK H PARENT 76 26 54 37 18 73 21 78
REMARK Flexibility Score: inf
ROOT
ATOM      1  C   UNL     1       2.276   2.694   1.734  1.00  0.00     0.188 C 
ENDROOT
BRANCH   1   2
ATOM      2  C   UNL     1       2.814   1.854   0.578  1.00  0.00     0.188 C 
BRANCH   2   3
ATOM      3  O   UNL     1       4.135   1.366   0.803  1.00  0.00    -0.376 OA
BRANCH   3   4
ATOM      4  C   UNL     1       4.981   1.336  -0.351  1.00  0.00     0.202 C 
BRANCH   4   5
ATOM      5  C   UNL     1       4.486   0.524  -1.569  1.00  0.00     0.261 C 
BRANCH   5   6
ATOM      6  O   UNL     1       3.102   0.107  -1.537  1.00  0.00    -0.460 OA
BRANCH   6   7
ATOM      7  C   UNL     1       2.542  -1.048  -1.096  1.00  0.00     0.338 C 
ATOM      8  O   UNL     1       1.378  -1.308  -1.393  1.00  0.00    -0.246 OA
BRANCH   7   9
ATOM      9  C   UNL     1       3.276  -2.018  -0.238  1.00  0.00     0.060 A 
ATOM     10  C   UNL     1       4.371  -1.662   0.533  1.00  0.00     0.016 A 
ATOM     11  C   UNL     1       2.797  -3.329  -0.109  1.00  0.00     0.016 A 
ATOM     12  C   UNL     1       5.089  -2.569   1.277  1.00  0.00     0.010 A 
ATOM     13  C   UNL     1       3.442  -4.238   0.745  1.00  0.00     0.010 A 
ATOM     14  C   UNL     1       4.618  -3.861   1.415  1.00  0.00    -0.014 A 
BRANCH  14  15
ATOM     15  C   UNL     1       5.481  -4.800   2.152  1.00  0.00     0.031 A 
ATOM     16  C   UNL     1       6.164  -5.868   1.364  1.00  0.00     0.074 A 
ATOM     17  C   UNL     1       5.819  -4.572   3.438  1.00  0.00     0.049 A 
ATOM     18  N   UNL     1       6.992  -6.785   1.778  1.00  0.00    -0.248 NA
ATOM     19  C   UNL     1       5.927  -5.873  -0.092  1.00  0.00     0.031 C 
ATOM     20  C   UNL     1       5.403  -3.414   4.232  1.00  0.00     0.029 A 
ATOM     21  N   UNL     1       6.625  -5.274   4.297  1.00  0.00    -0.354 N 
ATOM     22  C   UNL     1       7.380  -7.467   0.637  1.00  0.00     0.074 A 
ATOM     23  C   UNL     1       6.661  -6.901  -0.480  1.00  0.00     0.031 C 
ATOM     24  C   UNL     1       5.928  -3.507   5.461  1.00  0.00     0.029 A 
ATOM     25  C   UNL     1       6.667  -4.744   5.565  1.00  0.00     0.049 A 
ATOM     26  H   UNL     1       7.124  -6.079   4.032  1.00  0.00     0.167 HD
ATOM     27  C   UNL     1       8.284  -8.462   0.534  1.00  0.00     0.031 A 
ATOM     28  C   UNL     1       7.215  -5.209   6.699  1.00  0.00     0.031 A 
ATOM     29  C   UNL     1       8.975  -9.019   1.662  1.00  0.00     0.049 A 
ATOM     30  C   UNL     1       8.029  -6.453   6.597  1.00  0.00     0.074 A 
ATOM     31  C   UNL     1       9.852 -10.085   1.693  1.00  0.00     0.029 A 
ATOM     32  N   UNL     1       8.858  -8.550   2.964  1.00  0.00    -0.354 N 
ATOM     33  N   UNL     1       8.325  -7.144   5.525  1.00  0.00    -0.248 NA
ATOM     34  C   UNL     1       8.613  -6.958   7.842  1.00  0.00     0.031 C 
ATOM     35  C   UNL     1      10.210 -10.307   3.026  1.00  0.00     0.029 A 
ATOM     36  C   UNL     1       9.619  -9.331   3.814  1.00  0.00     0.049 A 
ATOM     37  H   UNL     1       8.315  -7.777   3.240  1.00  0.00     0.167 HD
ATOM     38  C   UNL     1       9.168  -8.149   5.957  1.00  0.00     0.074 A 
ATOM     39  C   UNL     1       9.347  -7.960   7.385  1.00  0.00     0.031 C 
ATOM     40  C   UNL     1       9.751  -9.134   5.234  1.00  0.00     0.031 A 
BRANCH  27  41
ATOM     41  C   UNL     1       8.501  -9.038  -0.832  1.00  0.00    -0.014 A 
ATOM     42  C   UNL     1       9.168  -8.319  -1.837  1.00  0.00     0.009 A 
ATOM     43  C   UNL     1       7.999 -10.314  -1.123  1.00  0.00     0.009 A 
ATOM     44  C   UNL     1       9.306  -8.861  -3.116  1.00  0.00     0.001 A 
ATOM     45  C   UNL     1       8.165 -10.865  -2.393  1.00  0.00     0.001 A 
ATOM     46  C   UNL     1       8.811 -10.136  -3.390  1.00  0.00     0.000 A 
ENDBRANCH  27  41
BRANCH  28  47
ATOM     47  C   UNL     1       6.958  -4.567   8.016  1.00  0.00    -0.014 A 
ATOM     48  C   UNL     1       7.969  -3.909   8.731  1.00  0.00     0.009 A 
ATOM     49  C   UNL     1       5.688  -4.687   8.604  1.00  0.00     0.009 A 
ATOM     50  C   UNL     1       7.718  -3.408  10.014  1.00  0.00     0.001 A 
ATOM     51  C   UNL     1       5.430  -4.156   9.870  1.00  0.00     0.001 A 
ATOM     52  C   UNL     1       6.448  -3.525  10.579  1.00  0.00     0.000 A 
ENDBRANCH  28  47
BRANCH  40  53
ATOM     53  C   UNL     1      10.654 -10.054   5.995  1.00  0.00    -0.014 A 
ATOM     54  C   UNL     1      10.147 -10.945   6.953  1.00  0.00     0.009 A 
ATOM     55  C   UNL     1      12.035 -10.011   5.755  1.00  0.00     0.009 A 
ATOM     56  C   UNL     1      11.017 -11.738   7.698  1.00  0.00     0.001 A 
ATOM     57  C   UNL     1      12.897 -10.839   6.468  1.00  0.00     0.001 A 
ATOM     58  C   UNL     1      12.389 -11.689   7.450  1.00  0.00     0.000 A 
ENDBRANCH  40  53
ENDBRANCH  14  15
ENDBRANCH   7   9
ENDBRANCH   6   7
ENDBRANCH   5   6
ENDBRANCH   4   5
ENDBRANCH   3   4
ENDBRANCH   2   3
ENDBRANCH   1   2
BRANCH   1  59
ATOM     59  O   UNL     1       3.049   3.812   2.141  1.00  0.00    -0.376 OA
BRANCH  59  60
ATOM     60  C   UNL     1       4.390   3.534   2.524  1.00  0.00     0.202 C 
BRANCH  60  61
ATOM     61  C   UNL     1       4.679   2.569   3.702  1.00  0.00     0.261 C 
BRANCH  61  62
ATOM     62  O   UNL     1       3.871   1.371   3.853  1.00  0.00    -0.460 OA
BRANCH  62  63
ATOM     63  C   UNL     1       3.114   1.337   4.989  1.00  0.00     0.339 C 
ATOM     64  O   UNL     1       3.027   2.249   5.801  1.00  0.00    -0.246 OA
BRANCH  63  65
ATOM     65  C   UNL     1       2.507  -0.058   5.271  1.00  0.00     0.080 A 
ATOM     66  C   UNL     1       0.724  -0.991   5.089  1.00  0.00     0.043 A 
ATOM     67  C   UNL     1       3.673  -0.863   6.404  1.00  0.00     0.055 A 
ATOM     68  C   UNL     1       0.387  -2.511   5.789  1.00  0.00     0.041 A 
ATOM     69  C   UNL     1       3.165  -2.385   7.194  1.00  0.00     0.023 A 
ATOM     70  Cl  UNL     1       5.180  -0.154   6.840  1.00  0.00    -0.083 Cl
ATOM     71  C   UNL     1       1.582  -3.180   6.882  1.00  0.00     0.028 A 
BRANCH  68  72
ATOM     72  N   UNL     1      -0.498  -3.227   4.960  1.00  0.00    -0.332 N 
ATOM     73  H   UNL     1      -0.795  -4.091   5.328  1.00  0.00     0.169 HD
BRANCH  72  74
ATOM     74  C   UNL     1      -1.021  -2.921   3.718  1.00  0.00     0.177 C 
ATOM     75  S   UNL     1      -2.143  -4.021   3.111  1.00  0.00    -0.040 S 
BRANCH  74  76
ATOM     76  N   UNL     1      -0.734  -1.807   2.861  1.00  0.00    -0.299 N 
ATOM     77  C   UNL     1      -0.030  -0.544   2.480  1.00  0.00     0.260 C 
ATOM     78  H   UNL     1      -1.339  -1.957   2.099  1.00  0.00     0.172 HD
ATOM     79  O   UNL     1      -0.451   0.147   1.556  1.00  0.00    -0.269 OA
BRANCH  77  80
ATOM     80  C   UNL     1       1.148  -0.018   3.274  1.00  0.00     0.075 A 
ATOM     81  C   UNL     1       0.599   1.091   4.591  1.00  0.00     0.017 A 
ATOM     82  C   UNL     1       2.111  -1.425   3.542  1.00  0.00     0.135 A 
ATOM     83  C   UNL     1       0.763   0.680   6.328  1.00  0.00     0.001 A 
ATOM     84  C   UNL     1       2.349  -1.958   5.198  1.00  0.00     0.040 A 
ATOM     85  F   UNL     1       2.192  -2.368   2.598  1.00  0.00    -0.206 F 
ATOM     86  C   UNL     1       1.587  -0.883   6.733  1.00  0.00     0.003 A 
ENDBRANCH  77  80
ENDBRANCH  74  76
ENDBRANCH  72  74
ENDBRANCH  68  72
ENDBRANCH  63  65
ENDBRANCH  62  63
ENDBRANCH  61  62
ENDBRANCH  60  61
ENDBRANCH  59  60
ENDBRANCH   1  59
TORSDOF 21
