REMARK SMILES CCCCCNC(=O)N1Cc2nc[nH]c2C[C@@H]1C(=O)OCCOCCOCCOC(=O)c1ccc(-c2c3nc(c(-c4ccccc4)c4ccc([nH]4)c(-c4ccccc4)c4nc(c(-c5ccccc5)c5ccc2[nH]5)C=C4)C=C3)cc1
REMARK SMILES IDX 23 1 22 2 21 3 20 4 18 5 19 6 17 7 9 8 10 9 11 10 16 11
REMARK SMILES IDX 12 12 15 13 13 14 14 15 7 17 6 18 8 20 5 21 4 22 3 23 2 24
REMARK SMILES IDX 1 25 24 26 25 27 26 28 27 29 28 30 29 31 30 32 31 33 32 34
REMARK SMILES IDX 33 35 79 36 34 37 78 38 35 39 36 40 37 41 72 42 38 43 77 44
REMARK SMILES IDX 71 45 73 46 39 47 76 48 70 49 69 50 40 52 62 53 47 54 61 55
REMARK SMILES IDX 48 56 51 57 60 58 74 59 49 60 50 61 59 63 75 64 52 65 41 66
REMARK SMILES IDX 42 67 46 68 43 69 45 70 44 71 63 72 64 73 68 74 65 75 67 76
REMARK SMILES IDX 66 77 53 78 54 79 58 80 55 81 57 82 56 83
REMARK H PARENT 14 16 6 19 73 51 51 62
REMARK Flexibility Score: inf
ROOT
ATOM      1  O   UNL     1      -2.810  -0.022  -2.396  1.00  0.00    -0.376 OA
ENDROOT
BRANCH   1   2
ATOM      2  C   UNL     1      -2.218   0.279  -1.142  1.00  0.00     0.202 C 
BRANCH   2   3
ATOM      3  C   UNL     1      -3.155   0.966  -0.142  1.00  0.00     0.261 C 
BRANCH   3   4
ATOM      4  O   UNL     1      -3.520   2.350  -0.333  1.00  0.00    -0.462 OA
BRANCH   4   5
ATOM      5  C   UNL     1      -2.656   3.238  -0.872  1.00  0.00     0.329 C 
ATOM      6  O   UNL     1      -1.585   2.958  -1.396  1.00  0.00    -0.250 OA
BRANCH   5   7
ATOM      7  C   UNL     1      -3.120   4.669  -0.742  1.00  0.00     0.203 C 
ATOM      8  N   UNL     1      -2.364   5.558   0.193  1.00  0.00    -0.305 N 
ATOM      9  C   UNL     1      -2.604   7.012  -0.019  1.00  0.00     0.180 C 
ATOM     10  C   UNL     1      -3.976   7.264  -0.585  1.00  0.00     0.081 A 
ATOM     11  C   UNL     1      -4.659   4.835  -0.633  1.00  0.00     0.093 C 
ATOM     12  N   UNL     1      -4.414   8.466  -1.079  1.00  0.00    -0.240 NA
ATOM     13  C   UNL     1      -4.902   6.280  -0.857  1.00  0.00     0.042 A 
ATOM     14  C   UNL     1      -5.587   8.211  -1.622  1.00  0.00     0.197 A 
ATOM     15  N   UNL     1      -5.933   6.889  -1.504  1.00  0.00    -0.348 N 
ATOM     16  H   UNL     1      -6.762   6.466  -1.825  1.00  0.00     0.167 HD
BRANCH   8  17
ATOM     17  C   UNL     1      -2.147   5.172   1.499  1.00  0.00     0.318 C 
ATOM     18  N   UNL     1      -1.119   4.306   1.755  1.00  0.00    -0.338 N 
ATOM     19  H   UNL     1      -0.985   4.078   2.704  1.00  0.00     0.165 HD
ATOM     20  O   UNL     1      -2.770   5.642   2.448  1.00  0.00    -0.249 OA
BRANCH  18  21
ATOM     21  C   UNL     1      -0.199   3.676   0.828  1.00  0.00     0.117 C 
BRANCH  21  22
ATOM     22  C   UNL     1       1.211   3.371   1.322  1.00  0.00     0.021 C 
BRANCH  22  23
ATOM     23  C   UNL     1       1.355   2.133   2.219  1.00  0.00     0.002 C 
BRANCH  23  24
ATOM     24  C   UNL     1       0.771   0.809   1.703  1.00  0.00    -0.003 C 
ATOM     25  C   UNL     1       1.317   0.346   0.360  1.00  0.00     0.004 C 
ENDBRANCH  23  24
ENDBRANCH  22  23
ENDBRANCH  21  22
ENDBRANCH  18  21
ENDBRANCH   8  17
ENDBRANCH   5   7
ENDBRANCH   4   5
ENDBRANCH   3   4
ENDBRANCH   2   3
ENDBRANCH   1   2
BRANCH   1  26
ATOM     26  C   UNL     1      -2.996   1.053  -3.300  1.00  0.00     0.188 C 
BRANCH  26  27
ATOM     27  C   UNL     1      -4.431   1.609  -3.364  1.00  0.00     0.188 C 
BRANCH  27  28
ATOM     28  O   UNL     1      -5.587   0.775  -3.406  1.00  0.00    -0.376 OA
BRANCH  28  29
ATOM     29  C   UNL     1      -5.495  -0.607  -3.103  1.00  0.00     0.202 C 
BRANCH  29  30
ATOM     30  C   UNL     1      -5.194  -1.494  -4.311  1.00  0.00     0.261 C 
BRANCH  30  31
ATOM     31  O   UNL     1      -4.091  -1.046  -5.092  1.00  0.00    -0.460 OA
BRANCH  31  32
ATOM     32  C   UNL     1      -4.389  -0.109  -6.016  1.00  0.00     0.338 C 
ATOM     33  O   UNL     1      -5.480   0.413  -6.226  1.00  0.00    -0.246 OA
BRANCH  32  34
ATOM     34  C   UNL     1      -3.200   0.177  -6.832  1.00  0.00     0.060 A 
ATOM     35  C   UNL     1      -3.312   1.200  -7.778  1.00  0.00     0.016 A 
ATOM     36  C   UNL     1      -2.088  -0.678  -6.806  1.00  0.00     0.016 A 
ATOM     37  C   UNL     1      -2.444   1.206  -8.847  1.00  0.00     0.010 A 
ATOM     38  C   UNL     1      -1.219  -0.673  -7.876  1.00  0.00     0.010 A 
ATOM     39  C   UNL     1      -1.482   0.195  -8.934  1.00  0.00    -0.014 A 
BRANCH  39  40
ATOM     40  C   UNL     1      -0.870  -0.018 -10.230  1.00  0.00     0.031 A 
ATOM     41  C   UNL     1       0.206   0.911 -10.613  1.00  0.00     0.074 A 
ATOM     42  C   UNL     1      -1.247  -1.045 -11.017  1.00  0.00     0.049 A 
ATOM     43  N   UNL     1       0.236   1.704 -11.633  1.00  0.00    -0.248 NA
ATOM     44  C   UNL     1       1.366   1.012  -9.719  1.00  0.00     0.031 C 
ATOM     45  C   UNL     1      -2.100  -2.181 -10.651  1.00  0.00     0.029 A 
ATOM     46  N   UNL     1      -0.849  -1.344 -12.286  1.00  0.00    -0.354 N 
ATOM     47  C   UNL     1       1.497   2.284 -11.614  1.00  0.00     0.074 A 
ATOM     48  C   UNL     1       2.102   1.921 -10.355  1.00  0.00     0.031 C 
ATOM     49  C   UNL     1      -1.973  -3.145 -11.588  1.00  0.00     0.029 A 
ATOM     50  C   UNL     1      -1.130  -2.648 -12.664  1.00  0.00     0.049 A 
ATOM     51  H   UNL     1      -0.405  -0.695 -12.878  1.00  0.00     0.167 HD
ATOM     52  C   UNL     1       2.050   2.825 -12.730  1.00  0.00     0.031 A 
ATOM     53  C   UNL     1      -0.647  -3.301 -13.746  1.00  0.00     0.031 A 
ATOM     54  C   UNL     1       1.073   3.135 -13.739  1.00  0.00     0.049 A 
ATOM     55  C   UNL     1      -0.138  -2.295 -14.705  1.00  0.00     0.074 A 
ATOM     56  C   UNL     1      -0.050   3.935 -13.798  1.00  0.00     0.029 A 
ATOM     57  N   UNL     1       1.015   2.319 -14.842  1.00  0.00    -0.354 N 
ATOM     58  N   UNL     1      -0.898  -1.522 -15.425  1.00  0.00    -0.248 NA
ATOM     59  C   UNL     1       1.259  -1.895 -14.626  1.00  0.00     0.031 C 
ATOM     60  C   UNL     1      -0.940   3.275 -14.693  1.00  0.00     0.029 A 
ATOM     61  C   UNL     1      -0.306   2.114 -15.140  1.00  0.00     0.049 A 
ATOM     62  H   UNL     1       1.785   1.948 -15.331  1.00  0.00     0.167 HD
ATOM     63  C   UNL     1      -0.192  -0.333 -15.531  1.00  0.00     0.074 A 
ATOM     64  C   UNL     1       1.174  -0.670 -15.151  1.00  0.00     0.031 C 
ATOM     65  C   UNL     1      -0.842   0.864 -15.635  1.00  0.00     0.031 A 
BRANCH  52  66
ATOM     66  C   UNL     1       3.519   2.701 -13.043  1.00  0.00    -0.014 A 
ATOM     67  C   UNL     1       4.035   3.373 -14.164  1.00  0.00     0.009 A 
ATOM     68  C   UNL     1       4.346   1.729 -12.447  1.00  0.00     0.009 A 
ATOM     69  C   UNL     1       5.288   3.043 -14.694  1.00  0.00     0.001 A 
ATOM     70  C   UNL     1       5.617   1.431 -12.944  1.00  0.00     0.001 A 
ATOM     71  C   UNL     1       6.076   2.070 -14.085  1.00  0.00     0.000 A 
ENDBRANCH  52  66
BRANCH  53  72
ATOM     72  C   UNL     1      -0.427  -4.750 -13.932  1.00  0.00    -0.014 A 
ATOM     73  C   UNL     1      -0.211  -5.281 -15.212  1.00  0.00     0.009 A 
ATOM     74  C   UNL     1      -0.197  -5.593 -12.828  1.00  0.00     0.009 A 
ATOM     75  C   UNL     1       0.246  -6.595 -15.379  1.00  0.00     0.001 A 
ATOM     76  C   UNL     1       0.244  -6.909 -12.994  1.00  0.00     0.001 A 
ATOM     77  C   UNL     1       0.481  -7.405 -14.271  1.00  0.00     0.000 A 
ENDBRANCH  53  72
BRANCH  65  78
ATOM     78  C   UNL     1      -2.310   0.849 -15.981  1.00  0.00    -0.014 A 
ATOM     79  C   UNL     1      -3.271   0.191 -15.194  1.00  0.00     0.009 A 
ATOM     80  C   UNL     1      -2.755   1.637 -17.054  1.00  0.00     0.009 A 
ATOM     81  C   UNL     1      -4.632   0.283 -15.499  1.00  0.00     0.001 A 
ATOM     82  C   UNL     1      -4.117   1.750 -17.343  1.00  0.00     0.001 A 
ATOM     83  C   UNL     1      -5.054   1.067 -16.571  1.00  0.00     0.000 A 
ENDBRANCH  65  78
ENDBRANCH  39  40
ENDBRANCH  32  34
ENDBRANCH  31  32
ENDBRANCH  30  31
ENDBRANCH  29  30
ENDBRANCH  28  29
ENDBRANCH  27  28
ENDBRANCH  26  27
ENDBRANCH   1  26
TORSDOF 22
