REMARK SMILES Cc1nc(-c2ccccc2)sc1C(=O)N[C@@H](CC1=c2ccccc2=NC1)C(=O)OCCOCCOCCOC(=O)c1ccc(-c2c3nc(c(-c4ccccc4)c4ccc([nH]4)c(-c4ccccc4)c4nc(c(-c5ccccc5)c5ccc2[nH]5)C=C4)C=C3)cc1
REMARK SMILES IDX 33 1 32 2 31 3 30 4 29 5 27 6 28 7 16 8 15 9 13 10 14 11
REMARK SMILES IDX 12 13 1 14 2 15 3 16 4 17 11 18 5 19 6 20 10 21 7 22 9 23
REMARK SMILES IDX 8 24 17 25 18 26 19 27 26 28 20 29 24 30 25 31 21 32 23 33
REMARK SMILES IDX 22 34 34 35 35 36 36 37 37 38 38 39 39 40 40 41 41 42 42 43
REMARK SMILES IDX 88 44 43 45 87 46 44 47 45 48 46 49 81 50 47 51 86 52 80 53
REMARK SMILES IDX 82 54 48 55 85 56 79 57 78 58 49 60 71 61 56 62 70 63 57 64
REMARK SMILES IDX 60 65 69 66 83 67 58 68 59 69 68 71 84 72 61 73 50 74 51 75
REMARK SMILES IDX 55 76 52 77 54 78 53 79 72 80 73 81 77 82 74 83 76 84 75 85
REMARK SMILES IDX 62 86 63 87 67 88 64 89 66 90 65 91
REMARK H PARENT 15 12 82 59 60 70
REMARK Flexibility Score: inf
ROOT
ATOM      1  C   UNL     1      -3.182  -1.810   3.577  1.00  0.00     0.188 C 
ENDROOT
BRANCH   1   2
ATOM      2  O   UNL     1      -4.261  -2.161   4.432  1.00  0.00    -0.376 OA
BRANCH   2   3
ATOM      3  C   UNL     1      -5.033  -3.316   4.106  1.00  0.00     0.202 C 
BRANCH   3   4
ATOM      4  C   UNL     1      -5.526  -3.496   2.657  1.00  0.00     0.261 C 
BRANCH   4   5
ATOM      5  O   UNL     1      -4.489  -3.398   1.651  1.00  0.00    -0.462 OA
BRANCH   5   6
ATOM      6  C   UNL     1      -4.753  -2.572   0.612  1.00  0.00     0.329 C 
ATOM      7  O   UNL     1      -5.839  -2.031   0.419  1.00  0.00    -0.250 OA
BRANCH   6   8
ATOM      8  C   UNL     1      -3.572  -2.335  -0.353  1.00  0.00     0.196 C 
BRANCH   8   9
ATOM      9  N   UNL     1      -2.201  -2.758  -0.085  1.00  0.00    -0.338 N 
ATOM     10  C   UNL     1      -0.967  -2.156  -0.243  1.00  0.00     0.264 C 
ATOM     11  O   UNL     1      -0.036  -2.967  -0.149  1.00  0.00    -0.268 OA
ATOM     12  H   UNL     1      -2.142  -3.667   0.288  1.00  0.00     0.164 HD
BRANCH  10  13
ATOM     13  C   UNL     1      -0.716  -0.718  -0.430  1.00  0.00     0.115 A 
ATOM     14  C   UNL     1      -2.880   0.802  -0.630  1.00  0.00     0.068 C 
ATOM     15  C   UNL     1      -1.437   0.471  -0.543  1.00  0.00     0.062 A 
ATOM     16  N   UNL     1      -0.676   1.624  -0.540  1.00  0.00    -0.241 NA
ATOM     17  C   UNL     1       0.607   1.383  -0.530  1.00  0.00     0.124 A 
ATOM     18  S   UNL     1       1.004  -0.270  -0.519  1.00  0.00    -0.108 S 
BRANCH  17  19
ATOM     19  C   UNL     1       1.575   2.478  -0.457  1.00  0.00     0.010 A 
ATOM     20  C   UNL     1       1.339   3.491   0.488  1.00  0.00     0.011 A 
ATOM     21  C   UNL     1       2.612   2.651  -1.378  1.00  0.00     0.011 A 
ATOM     22  C   UNL     1       2.110   4.650   0.521  1.00  0.00     0.001 A 
ATOM     23  C   UNL     1       3.373   3.828  -1.360  1.00  0.00     0.001 A 
ATOM     24  C   UNL     1       3.121   4.824  -0.414  1.00  0.00     0.000 A 
ENDBRANCH  17  19
ENDBRANCH  10  13
ENDBRANCH   8   9
BRANCH   8  25
ATOM     25  C   UNL     1      -3.983  -2.777  -1.770  1.00  0.00     0.070 C 
BRANCH  25  26
ATOM     26  C   UNL     1      -4.155  -4.263  -1.836  1.00  0.00    -0.037 C 
ATOM     27  C   UNL     1      -3.207  -5.187  -1.972  1.00  0.00     0.001 A 
ATOM     28  C   UNL     1      -5.489  -4.906  -1.587  1.00  0.00     0.174 C 
ATOM     29  C   UNL     1      -1.796  -5.165  -2.182  1.00  0.00     0.010 A 
ATOM     30  C   UNL     1      -3.925  -6.428  -1.643  1.00  0.00     0.065 A 
ATOM     31  N   UNL     1      -5.205  -6.351  -1.443  1.00  0.00    -0.280 NA
ATOM     32  C   UNL     1      -1.104  -6.305  -2.022  1.00  0.00     0.001 A 
ATOM     33  C   UNL     1      -3.097  -7.643  -1.498  1.00  0.00     0.028 A 
ATOM     34  C   UNL     1      -1.766  -7.547  -1.661  1.00  0.00     0.002 A 
ENDBRANCH  25  26
ENDBRANCH   8  25
ENDBRANCH   6   8
ENDBRANCH   5   6
ENDBRANCH   4   5
ENDBRANCH   3   4
ENDBRANCH   2   3
ENDBRANCH   1   2
BRANCH   1  35
ATOM     35  C   UNL     1      -2.169  -2.896   3.186  1.00  0.00     0.188 C 
BRANCH  35  36
ATOM     36  O   UNL     1      -2.579  -4.218   3.419  1.00  0.00    -0.376 OA
BRANCH  36  37
ATOM     37  C   UNL     1      -1.858  -5.014   4.341  1.00  0.00     0.202 C 
BRANCH  37  38
ATOM     38  C   UNL     1      -1.278  -4.447   5.658  1.00  0.00     0.261 C 
BRANCH  38  39
ATOM     39  O   UNL     1      -0.857  -3.073   5.680  1.00  0.00    -0.460 OA
BRANCH  39  40
ATOM     40  C   UNL     1       0.386  -2.799   5.204  1.00  0.00     0.338 C 
ATOM     41  O   UNL     1       1.206  -3.596   4.799  1.00  0.00    -0.246 OA
BRANCH  40  42
ATOM     42  C   UNL     1       0.478  -1.326   5.013  1.00  0.00     0.060 A 
ATOM     43  C   UNL     1       0.601  -0.818   3.710  1.00  0.00     0.016 A 
ATOM     44  C   UNL     1       0.421  -0.455   6.101  1.00  0.00     0.016 A 
ATOM     45  C   UNL     1       0.672   0.561   3.496  1.00  0.00     0.010 A 
ATOM     46  C   UNL     1       0.535   0.925   5.886  1.00  0.00     0.010 A 
ATOM     47  C   UNL     1       0.683   1.440   4.585  1.00  0.00    -0.014 A 
BRANCH  47  48
ATOM     48  C   UNL     1       1.069   2.860   4.380  1.00  0.00     0.031 A 
ATOM     49  C   UNL     1       2.512   3.241   4.583  1.00  0.00     0.074 A 
ATOM     50  C   UNL     1       0.194   3.789   3.956  1.00  0.00     0.049 A 
ATOM     51  N   UNL     1       3.083   4.417   4.512  1.00  0.00    -0.248 NA
ATOM     52  C   UNL     1       3.434   2.140   4.906  1.00  0.00     0.031 C 
ATOM     53  C   UNL     1      -1.196   3.539   3.579  1.00  0.00     0.029 A 
ATOM     54  N   UNL     1       0.370   5.133   3.722  1.00  0.00    -0.354 N 
ATOM     55  C   UNL     1       4.423   4.200   4.814  1.00  0.00     0.074 A 
ATOM     56  C   UNL     1       4.577   2.785   5.073  1.00  0.00     0.031 C 
ATOM     57  C   UNL     1      -1.735   4.686   3.127  1.00  0.00     0.029 A 
ATOM     58  C   UNL     1      -0.751   5.763   3.238  1.00  0.00     0.049 A 
ATOM     59  H   UNL     1       1.221   5.600   3.886  1.00  0.00     0.167 HD
ATOM     60  C   UNL     1       5.435   5.096   4.884  1.00  0.00     0.031 A 
ATOM     61  C   UNL     1      -0.960   7.059   2.930  1.00  0.00     0.031 A 
ATOM     62  C   UNL     1       5.292   6.504   4.628  1.00  0.00     0.049 A 
ATOM     63  C   UNL     1       0.159   8.056   3.108  1.00  0.00     0.074 A 
ATOM     64  C   UNL     1       6.256   7.495   4.703  1.00  0.00     0.029 A 
ATOM     65  N   UNL     1       4.112   7.121   4.249  1.00  0.00    -0.354 N 
ATOM     66  N   UNL     1       1.413   7.848   3.428  1.00  0.00    -0.248 NA
ATOM     67  C   UNL     1      -0.175   9.473   2.888  1.00  0.00     0.031 C 
ATOM     68  C   UNL     1       5.642   8.722   4.432  1.00  0.00     0.029 A 
ATOM     69  C   UNL     1       4.314   8.485   4.117  1.00  0.00     0.049 A 
ATOM     70  H   UNL     1       3.256   6.659   4.095  1.00  0.00     0.167 HD
ATOM     71  C   UNL     1       2.019   9.101   3.432  1.00  0.00     0.074 A 
ATOM     72  C   UNL     1       1.003  10.059   3.049  1.00  0.00     0.031 C 
ATOM     73  C   UNL     1       3.299   9.431   3.733  1.00  0.00     0.031 A 
BRANCH  60  74
ATOM     74  C   UNL     1       6.777   4.586   5.330  1.00  0.00    -0.014 A 
ATOM     75  C   UNL     1       7.572   3.774   4.506  1.00  0.00     0.009 A 
ATOM     76  C   UNL     1       7.260   4.946   6.598  1.00  0.00     0.009 A 
ATOM     77  C   UNL     1       8.806   3.303   4.961  1.00  0.00     0.001 A 
ATOM     78  C   UNL     1       8.507   4.502   7.037  1.00  0.00     0.001 A 
ATOM     79  C   UNL     1       9.274   3.672   6.222  1.00  0.00     0.000 A 
ENDBRANCH  60  74
BRANCH  61  80
ATOM     80  C   UNL     1      -2.297   7.518   2.459  1.00  0.00    -0.014 A 
ATOM     81  C   UNL     1      -2.461   8.062   1.175  1.00  0.00     0.009 A 
ATOM     82  C   UNL     1      -3.410   7.463   3.314  1.00  0.00     0.009 A 
ATOM     83  C   UNL     1      -3.701   8.565   0.770  1.00  0.00     0.001 A 
ATOM     84  C   UNL     1      -4.656   7.932   2.893  1.00  0.00     0.001 A 
ATOM     85  C   UNL     1      -4.798   8.494   1.627  1.00  0.00     0.000 A 
ENDBRANCH  61  80
BRANCH  73  86
ATOM     86  C   UNL     1       3.691  10.882   3.635  1.00  0.00    -0.014 A 
ATOM     87  C   UNL     1       3.218  11.832   4.555  1.00  0.00     0.009 A 
ATOM     88  C   UNL     1       4.591  11.295   2.639  1.00  0.00     0.009 A 
ATOM     89  C   UNL     1       3.610  13.169   4.456  1.00  0.00     0.001 A 
ATOM     90  C   UNL     1       5.007  12.625   2.563  1.00  0.00     0.001 A 
ATOM     91  C   UNL     1       4.508  13.563   3.464  1.00  0.00     0.000 A 
ENDBRANCH  73  86
ENDBRANCH  47  48
ENDBRANCH  40  42
ENDBRANCH  39  40
ENDBRANCH  38  39
ENDBRANCH  37  38
ENDBRANCH  36  37
ENDBRANCH  35  36
ENDBRANCH   1  35
TORSDOF 22
