REMARK SMILES Cc1cccc(-c2ccc(Cl)c(C(=O)OCCOCCOCCOC(=O)c3ccc(-c4c5nc(c(-c6ccccc6)c6ccc([nH]6)c(-c6ccccc6)c6nc(c(-c7ccccc7)c7ccc4[nH]7)C=C6)C=C5)cc3)c2)c1
REMARK SMILES IDX 20 1 19 2 18 3 17 4 16 5 15 6 13 7 14 8 12 9 7 10 8 11 75 12
REMARK SMILES IDX 9 13 10 14 11 15 6 16 1 17 2 18 3 19 76 20 4 21 5 22 21 23
REMARK SMILES IDX 22 24 23 25 24 26 25 27 26 28 27 29 28 30 74 31 29 32 73 33
REMARK SMILES IDX 30 34 31 35 32 36 67 37 33 38 72 39 66 40 68 41 34 42 71 43
REMARK SMILES IDX 65 44 64 45 35 47 57 48 42 49 56 50 43 51 46 52 55 53 69 54
REMARK SMILES IDX 44 55 45 56 54 58 70 59 47 60 36 61 37 62 41 63 38 64 40 65
REMARK SMILES IDX 39 66 58 67 59 68 63 69 60 70 62 71 61 72 48 73 49 74 53 75
REMARK SMILES IDX 50 76 52 77 51 78
REMARK H PARENT 68 46 46 57
REMARK Flexibility Score: inf
ROOT
ATOM      1  C   UNL     1      -9.376   3.878   2.627  1.00  0.00     0.188 C 
ENDROOT
BRANCH   1   2
ATOM      2  C   UNL     1      -8.143   4.396   3.365  1.00  0.00     0.188 C 
BRANCH   2   3
ATOM      3  O   UNL     1      -7.484   5.656   3.103  1.00  0.00    -0.376 OA
BRANCH   3   4
ATOM      4  C   UNL     1      -7.717   6.542   1.998  1.00  0.00     0.202 C 
BRANCH   4   5
ATOM      5  C   UNL     1      -6.668   6.928   0.665  1.00  0.00     0.261 C 
BRANCH   5   6
ATOM      6  O   UNL     1      -5.643   6.014  -0.327  1.00  0.00    -0.460 OA
BRANCH   6   7
ATOM      7  C   UNL     1      -4.325   5.478  -0.291  1.00  0.00     0.339 C 
ATOM      8  O   UNL     1      -3.454   5.651   0.561  1.00  0.00    -0.246 OA
BRANCH   7   9
ATOM      9  C   UNL     1      -3.682   4.542  -1.240  1.00  0.00     0.079 A 
ATOM     10  C   UNL     1      -1.882   2.760  -1.286  1.00  0.00    -0.017 A 
ATOM     11  C   UNL     1      -1.487   3.291  -2.516  1.00  0.00     0.010 A 
ATOM     12  C   UNL     1      -2.973   3.413  -0.668  1.00  0.00     0.026 A 
ATOM     13  C   UNL     1      -2.136   4.408  -3.080  1.00  0.00     0.022 A 
ATOM     14  C   UNL     1      -3.215   5.043  -2.443  1.00  0.00     0.055 A 
ATOM     15  Cl  UNL     1      -3.800   6.526  -3.102  1.00  0.00    -0.083 Cl
BRANCH  10  16
ATOM     16  C   UNL     1      -1.188   1.573  -0.698  1.00  0.00    -0.018 A 
ATOM     17  C   UNL     1       2.359   0.183  -0.029  1.00  0.00     0.044 C 
ATOM     18  C   UNL     1       0.860   0.299  -0.126  1.00  0.00    -0.051 A 
ATOM     19  C   UNL     1       0.084  -0.832   0.139  1.00  0.00     0.003 A 
ATOM     20  C   UNL     1       0.219   1.490  -0.546  1.00  0.00     0.012 A 
ATOM     21  C   UNL     1      -1.302  -0.764   0.037  1.00  0.00     0.001 A 
ATOM     22  C   UNL     1      -1.927   0.425  -0.363  1.00  0.00     0.009 A 
ENDBRANCH  10  16
ENDBRANCH   7   9
ENDBRANCH   6   7
ENDBRANCH   5   6
ENDBRANCH   4   5
ENDBRANCH   3   4
ENDBRANCH   2   3
ENDBRANCH   1   2
BRANCH   1  23
ATOM     23  O   UNL     1      -9.325   4.223   1.257  1.00  0.00    -0.376 OA
BRANCH  23  24
ATOM     24  C   UNL     1     -10.369   3.666   0.470  1.00  0.00     0.202 C 
BRANCH  24  25
ATOM     25  C   UNL     1     -10.150   2.177   0.114  1.00  0.00     0.261 C 
BRANCH  25  26
ATOM     26  O   UNL     1      -8.813   1.958  -0.401  1.00  0.00    -0.460 OA
BRANCH  26  27
ATOM     27  C   UNL     1      -7.949   1.174   0.325  1.00  0.00     0.338 C 
ATOM     28  O   UNL     1      -8.247   0.112   0.856  1.00  0.00    -0.246 OA
BRANCH  27  29
ATOM     29  C   UNL     1      -6.678   1.933   0.602  1.00  0.00     0.060 A 
ATOM     30  C   UNL     1      -5.707   1.627   1.572  1.00  0.00     0.016 A 
ATOM     31  C   UNL     1      -6.686   3.217   0.192  1.00  0.00     0.016 A 
ATOM     32  C   UNL     1      -4.910   2.668   2.232  1.00  0.00     0.010 A 
ATOM     33  C   UNL     1      -6.147   4.124   1.101  1.00  0.00     0.010 A 
ATOM     34  C   UNL     1      -5.157   4.033   2.070  1.00  0.00    -0.014 A 
BRANCH  34  35
ATOM     35  C   UNL     1      -4.710   5.270   2.995  1.00  0.00     0.031 A 
ATOM     36  C   UNL     1      -3.992   6.716   2.735  1.00  0.00     0.074 A 
ATOM     37  C   UNL     1      -4.972   5.095   4.311  1.00  0.00     0.049 A 
ATOM     38  N   UNL     1      -3.099   7.255   3.556  1.00  0.00    -0.248 NA
ATOM     39  C   UNL     1      -4.087   7.640   1.563  1.00  0.00     0.031 C 
ATOM     40  C   UNL     1      -4.863   6.056   5.406  1.00  0.00     0.029 A 
ATOM     41  N   UNL     1      -5.272   3.892   4.954  1.00  0.00    -0.354 N 
ATOM     42  C   UNL     1      -2.725   8.503   3.041  1.00  0.00     0.074 A 
ATOM     43  C   UNL     1      -3.064   8.463   1.690  1.00  0.00     0.031 C 
ATOM     44  C   UNL     1      -4.756   5.372   6.557  1.00  0.00     0.029 A 
ATOM     45  C   UNL     1      -4.685   3.961   6.219  1.00  0.00     0.049 A 
ATOM     46  H   UNL     1      -5.795   3.143   4.587  1.00  0.00     0.167 HD
ATOM     47  C   UNL     1      -2.364   9.605   3.753  1.00  0.00     0.031 A 
ATOM     48  C   UNL     1      -3.707   3.077   6.558  1.00  0.00     0.031 A 
ATOM     49  C   UNL     1      -2.103   9.223   5.115  1.00  0.00     0.049 A 
ATOM     50  C   UNL     1      -2.406   3.764   6.908  1.00  0.00     0.074 A 
ATOM     51  C   UNL     1      -2.820   9.315   6.290  1.00  0.00     0.029 A 
ATOM     52  N   UNL     1      -1.104   8.287   5.321  1.00  0.00    -0.354 N 
ATOM     53  N   UNL     1      -2.187   5.041   6.748  1.00  0.00    -0.248 NA
ATOM     54  C   UNL     1      -1.239   3.071   7.446  1.00  0.00     0.031 C 
ATOM     55  C   UNL     1      -2.331   8.294   7.159  1.00  0.00     0.029 A 
ATOM     56  C   UNL     1      -1.276   7.652   6.532  1.00  0.00     0.049 A 
ATOM     57  H   UNL     1      -0.373   8.100   4.689  1.00  0.00     0.167 HD
ATOM     58  C   UNL     1      -0.892   5.335   7.067  1.00  0.00     0.074 A 
ATOM     59  C   UNL     1      -0.349   4.076   7.541  1.00  0.00     0.031 C 
ATOM     60  C   UNL     1      -0.357   6.576   6.876  1.00  0.00     0.031 A 
BRANCH  47  61
ATOM     61  C   UNL     1      -2.481  11.053   3.221  1.00  0.00    -0.014 A 
ATOM     62  C   UNL     1      -2.373  12.134   4.112  1.00  0.00     0.009 A 
ATOM     63  C   UNL     1      -2.795  11.437   1.892  1.00  0.00     0.009 A 
ATOM     64  C   UNL     1      -2.605  13.471   3.712  1.00  0.00     0.001 A 
ATOM     65  C   UNL     1      -3.020  12.761   1.480  1.00  0.00     0.001 A 
ATOM     66  C   UNL     1      -2.937  13.785   2.399  1.00  0.00     0.000 A 
ENDBRANCH  47  61
BRANCH  48  67
ATOM     67  C   UNL     1      -3.895   1.711   5.963  1.00  0.00    -0.014 A 
ATOM     68  C   UNL     1      -5.131   1.061   6.209  1.00  0.00     0.009 A 
ATOM     69  C   UNL     1      -3.081   1.186   4.950  1.00  0.00     0.009 A 
ATOM     70  C   UNL     1      -5.588   0.013   5.403  1.00  0.00     0.001 A 
ATOM     71  C   UNL     1      -3.530   0.108   4.160  1.00  0.00     0.001 A 
ATOM     72  C   UNL     1      -4.791  -0.456   4.368  1.00  0.00     0.000 A 
ENDBRANCH  48  67
BRANCH  60  73
ATOM     73  C   UNL     1       1.113   6.909   6.937  1.00  0.00    -0.014 A 
ATOM     74  C   UNL     1       2.134   5.987   6.680  1.00  0.00     0.009 A 
ATOM     75  C   UNL     1       1.496   8.264   7.075  1.00  0.00     0.009 A 
ATOM     76  C   UNL     1       3.473   6.391   6.602  1.00  0.00     0.001 A 
ATOM     77  C   UNL     1       2.821   8.678   6.939  1.00  0.00     0.001 A 
ATOM     78  C   UNL     1       3.813   7.736   6.714  1.00  0.00     0.000 A 
ENDBRANCH  60  73
ENDBRANCH  34  35
ENDBRANCH  27  29
ENDBRANCH  26  27
ENDBRANCH  25  26
ENDBRANCH  24  25
ENDBRANCH  23  24
ENDBRANCH   1  23
TORSDOF 18
