REMARK SMILES CNC(=O)c1cc(S(=O)(=O)N2CCC(C(=O)OCCOCCOCCOC(=O)c3ccc(-c4c5nc(c(-c6ccccc6)c6ccc([nH]6)c(-c6ccccc6)c6nc(c(-c7ccccc7)c7ccc4[nH]7)C=C6)C=C5)cc3)CC2)ccc1OC
REMARK SMILES IDX 21 1 20 2 19 3 18 4 17 5 15 6 16 7 14 8 11 9 12 10 78 11
REMARK SMILES IDX 13 12 77 13 8 14 9 15 10 16 7 17 5 18 6 19 81 20 80 21 79 22
REMARK SMILES IDX 3 23 1 24 2 25 4 27 82 28 83 29 22 30 23 31 24 32 25 33
REMARK SMILES IDX 26 34 27 35 28 36 29 37 30 38 76 39 31 40 75 41 32 42 33 43
REMARK SMILES IDX 34 44 69 45 35 46 74 47 68 48 70 49 36 50 73 51 67 52 66 53
REMARK SMILES IDX 37 55 59 56 44 57 58 58 45 59 48 60 57 61 71 62 46 63 47 64
REMARK SMILES IDX 56 66 72 67 49 68 38 69 39 70 43 71 40 72 42 73 41 74 60 75
REMARK SMILES IDX 61 76 65 77 62 78 64 79 63 80 50 81 51 82 55 83 52 84 54 85
REMARK SMILES IDX 53 86
REMARK H PARENT 2 26 70 54 48 65
REMARK Flexibility Score: inf
ROOT
ATOM      1  C   UNL     1      -3.087  -5.518  -8.764  1.00  0.00     0.188 C 
ENDROOT
BRANCH   1   2
ATOM      2  O   UNL     1      -4.220  -5.965  -9.500  1.00  0.00    -0.376 OA
BRANCH   2   3
ATOM      3  C   UNL     1      -4.516  -5.276 -10.714  1.00  0.00     0.202 C 
BRANCH   3   4
ATOM      4  C   UNL     1      -5.017  -3.831 -10.578  1.00  0.00     0.261 C 
BRANCH   4   5
ATOM      5  O   UNL     1      -4.138  -2.961  -9.838  1.00  0.00    -0.463 OA
BRANCH   5   6
ATOM      6  C   UNL     1      -4.627  -2.515  -8.653  1.00  0.00     0.309 C 
ATOM      7  O   UNL     1      -5.737  -2.785  -8.206  1.00  0.00    -0.252 OA
BRANCH   6   8
ATOM      8  C   UNL     1      -3.649  -1.673  -7.857  1.00  0.00     0.102 C 
ATOM      9  N   UNL     1      -2.060   0.530  -6.889  1.00  0.00    -0.198 NA
ATOM     10  C   UNL     1      -1.382  -0.657  -7.466  1.00  0.00     0.103 C 
ATOM     11  C   UNL     1      -3.498   0.449  -6.551  1.00  0.00     0.103 C 
ATOM     12  C   UNL     1      -2.263  -1.438  -8.446  1.00  0.00     0.032 C 
ATOM     13  C   UNL     1      -4.287  -0.312  -7.597  1.00  0.00     0.032 C 
BRANCH   9  14
ATOM     14  S   UNL     1      -1.121   1.545  -5.879  1.00  0.00     0.243 S 
ATOM     15  O   UNL     1      -1.854   2.783  -5.725  1.00  0.00    -0.207 OA
ATOM     16  O   UNL     1       0.241   1.525  -6.368  1.00  0.00    -0.207 OA
BRANCH  14  17
ATOM     17  C   UNL     1      -1.071   0.805  -4.251  1.00  0.00     0.083 A 
ATOM     18  C   UNL     1      -0.511   1.091  -1.900  1.00  0.00     0.083 A 
ATOM     19  C   UNL     1      -0.574   1.600  -3.208  1.00  0.00     0.039 A 
ATOM     20  C   UNL     1      -1.019  -0.182  -1.619  1.00  0.00     0.131 A 
ATOM     21  C   UNL     1      -1.482  -0.979  -2.669  1.00  0.00     0.048 A 
ATOM     22  C   UNL     1      -1.507  -0.492  -3.980  1.00  0.00     0.025 A 
BRANCH  18  23
ATOM     23  C   UNL     1       0.114   1.958  -0.882  1.00  0.00     0.254 C 
ATOM     24  C   UNL     1       1.941   0.279  -0.352  1.00  0.00     0.143 C 
ATOM     25  N   UNL     1       1.224   1.525  -0.203  1.00  0.00    -0.355 N 
ATOM     26  H   UNL     1       1.579   2.145   0.475  1.00  0.00     0.163 HD
ATOM     27  O   UNL     1      -0.356   3.071  -0.672  1.00  0.00    -0.269 OA
ENDBRANCH  18  23
BRANCH  20  28
ATOM     28  O   UNL     1      -1.063  -0.775  -0.386  1.00  0.00    -0.496 OA
ATOM     29  C   UNL     1      -1.716   0.013   0.612  1.00  0.00     0.278 C 
ENDBRANCH  20  28
ENDBRANCH  14  17
ENDBRANCH   9  14
ENDBRANCH   6   8
ENDBRANCH   5   6
ENDBRANCH   4   5
ENDBRANCH   3   4
ENDBRANCH   2   3
ENDBRANCH   1   2
BRANCH   1  30
ATOM     30  C   UNL     1      -1.743  -5.553  -9.491  1.00  0.00     0.188 C 
BRANCH  30  31
ATOM     31  O   UNL     1      -1.703  -4.792 -10.693  1.00  0.00    -0.376 OA
BRANCH  31  32
ATOM     32  C   UNL     1      -0.414  -4.678 -11.310  1.00  0.00     0.202 C 
BRANCH  32  33
ATOM     33  C   UNL     1       0.322  -6.005 -11.589  1.00  0.00     0.261 C 
BRANCH  33  34
ATOM     34  O   UNL     1       0.673  -6.740 -10.399  1.00  0.00    -0.460 OA
BRANCH  34  35
ATOM     35  C   UNL     1       1.443  -6.096  -9.491  1.00  0.00     0.338 C 
ATOM     36  O   UNL     1       2.068  -5.066  -9.671  1.00  0.00    -0.246 OA
BRANCH  35  37
ATOM     37  C   UNL     1       1.196  -6.693  -8.154  1.00  0.00     0.060 A 
ATOM     38  C   UNL     1       1.149  -5.829  -7.051  1.00  0.00     0.016 A 
ATOM     39  C   UNL     1       0.955  -8.061  -7.980  1.00  0.00     0.016 A 
ATOM     40  C   UNL     1       0.924  -6.336  -5.770  1.00  0.00     0.010 A 
ATOM     41  C   UNL     1       0.736  -8.569  -6.695  1.00  0.00     0.010 A 
ATOM     42  C   UNL     1       0.763  -7.715  -5.579  1.00  0.00    -0.014 A 
BRANCH  42  43
ATOM     43  C   UNL     1       0.857  -8.269  -4.206  1.00  0.00     0.031 A 
ATOM     44  C   UNL     1       2.200  -8.755  -3.728  1.00  0.00     0.074 A 
ATOM     45  C   UNL     1      -0.198  -8.296  -3.372  1.00  0.00     0.049 A 
ATOM     46  N   UNL     1       2.548  -9.210  -2.552  1.00  0.00    -0.248 NA
ATOM     47  C   UNL     1       3.297  -8.715  -4.709  1.00  0.00     0.031 C 
ATOM     48  C   UNL     1      -1.548  -7.838  -3.688  1.00  0.00     0.029 A 
ATOM     49  N   UNL     1      -0.283  -8.730  -2.071  1.00  0.00    -0.354 N 
ATOM     50  C   UNL     1       3.903  -9.502  -2.650  1.00  0.00     0.074 A 
ATOM     51  C   UNL     1       4.304  -9.210  -4.008  1.00  0.00     0.031 C 
ATOM     52  C   UNL     1      -2.330  -8.011  -2.606  1.00  0.00     0.029 A 
ATOM     53  C   UNL     1      -1.539  -8.606  -1.529  1.00  0.00     0.049 A 
ATOM     54  H   UNL     1       0.484  -9.096  -1.574  1.00  0.00     0.167 HD
ATOM     55  C   UNL     1       4.747  -9.959  -1.696  1.00  0.00     0.031 A 
ATOM     56  C   UNL     1      -1.996  -8.937  -0.305  1.00  0.00     0.031 A 
ATOM     57  C   UNL     1       4.361 -10.278  -0.350  1.00  0.00     0.049 A 
ATOM     58  C   UNL     1      -1.052  -9.514   0.719  1.00  0.00     0.074 A 
ATOM     59  C   UNL     1       5.153 -10.741   0.686  1.00  0.00     0.029 A 
ATOM     60  N   UNL     1       3.072 -10.178   0.143  1.00  0.00    -0.354 N 
ATOM     61  N   UNL     1       0.237  -9.738   0.627  1.00  0.00    -0.248 NA
ATOM     62  C   UNL     1      -1.630  -9.868   2.025  1.00  0.00     0.031 C 
ATOM     63  C   UNL     1       4.332 -10.967   1.796  1.00  0.00     0.029 A 
ATOM     64  C   UNL     1       3.040 -10.592   1.464  1.00  0.00     0.049 A 
ATOM     65  H   UNL     1       2.293  -9.860  -0.369  1.00  0.00     0.167 HD
ATOM     66  C   UNL     1       0.627 -10.227   1.869  1.00  0.00     0.074 A 
ATOM     67  C   UNL     1      -0.557 -10.255   2.701  1.00  0.00     0.031 C 
ATOM     68  C   UNL     1       1.858 -10.614   2.285  1.00  0.00     0.031 A 
BRANCH  55  69
ATOM     69  C   UNL     1       6.178 -10.165  -2.098  1.00  0.00    -0.014 A 
ATOM     70  C   UNL     1       7.036  -9.074  -2.310  1.00  0.00     0.009 A 
ATOM     71  C   UNL     1       6.678 -11.467  -2.253  1.00  0.00     0.009 A 
ATOM     72  C   UNL     1       8.359  -9.283  -2.702  1.00  0.00     0.001 A 
ATOM     73  C   UNL     1       8.009 -11.672  -2.620  1.00  0.00     0.001 A 
ATOM     74  C   UNL     1       8.845 -10.581  -2.853  1.00  0.00     0.000 A 
ENDBRANCH  55  69
BRANCH  56  75
ATOM     75  C   UNL     1      -3.427  -8.735   0.040  1.00  0.00    -0.014 A 
ATOM     76  C   UNL     1      -3.810  -7.747   0.961  1.00  0.00     0.009 A 
ATOM     77  C   UNL     1      -4.413  -9.565  -0.515  1.00  0.00     0.009 A 
ATOM     78  C   UNL     1      -5.147  -7.615   1.342  1.00  0.00     0.001 A 
ATOM     79  C   UNL     1      -5.753  -9.413  -0.151  1.00  0.00     0.001 A 
ATOM     80  C   UNL     1      -6.118  -8.446   0.784  1.00  0.00     0.000 A 
ENDBRANCH  56  75
BRANCH  68  81
ATOM     81  C   UNL     1       1.999 -11.060   3.713  1.00  0.00    -0.014 A 
ATOM     82  C   UNL     1       1.488 -12.292   4.150  1.00  0.00     0.009 A 
ATOM     83  C   UNL     1       2.688 -10.248   4.628  1.00  0.00     0.009 A 
ATOM     84  C   UNL     1       1.633 -12.684   5.484  1.00  0.00     0.001 A 
ATOM     85  C   UNL     1       2.855 -10.654   5.953  1.00  0.00     0.001 A 
ATOM     86  C   UNL     1       2.318 -11.866   6.382  1.00  0.00     0.000 A 
ENDBRANCH  68  81
ENDBRANCH  42  43
ENDBRANCH  35  37
ENDBRANCH  34  35
ENDBRANCH  33  34
ENDBRANCH  32  33
ENDBRANCH  31  32
ENDBRANCH  30  31
ENDBRANCH   1  30
TORSDOF 21
