REMARK SMILES CC[N@@H+](C)Cc1cc2c(cc1Cl)C=C(C(=O)OCCOCCOCCOC(=O)c1ccc(-c3c4nc(c(-c5ccccc5)c5ccc([nH]5)c(-c5ccccc5)c5nc(c(-c6ccccc6)c6ccc3[nH]6)C=C5)C=C4)cc1)[C@@H](C(F)(F)F)O2
REMARK SMILES IDX 21 1 20 2 19 3 18 4 17 5 15 6 16 7 14 8 6 9 7 10 11 11 8 12
REMARK SMILES IDX 10 13 12 14 9 15 82 16 13 17 77 18 5 19 3 20 4 21 2 23 1 24
REMARK SMILES IDX 78 25 79 26 80 27 81 28 22 29 23 30 24 31 25 32 26 33 27 34
REMARK SMILES IDX 28 35 29 36 30 37 76 38 31 39 75 40 32 41 33 42 34 43 69 44
REMARK SMILES IDX 35 45 74 46 68 47 70 48 36 49 73 50 67 51 66 52 37 54 59 55
REMARK SMILES IDX 44 56 58 57 45 58 48 59 57 60 71 61 46 62 47 63 56 65 72 66
REMARK SMILES IDX 49 67 38 68 39 69 43 70 40 71 42 72 41 73 60 74 61 75 65 76
REMARK SMILES IDX 62 77 64 78 63 79 50 80 51 81 55 82 52 83 54 84 53 85
REMARK H PARENT 3 22 70 53 48 64
REMARK Flexibility Score: inf
ROOT
ATOM      1  C   UNL     1       3.386   8.931   2.748  1.00  0.00     0.188 C 
ENDROOT
BRANCH   1   2
ATOM      2  O   UNL     1       3.862  10.236   3.008  1.00  0.00    -0.376 OA
BRANCH   2   3
ATOM      3  C   UNL     1       3.946  11.207   1.980  1.00  0.00     0.202 C 
BRANCH   3   4
ATOM      4  C   UNL     1       4.487  10.870   0.589  1.00  0.00     0.261 C 
BRANCH   4   5
ATOM      5  O   UNL     1       3.963   9.664   0.027  1.00  0.00    -0.460 OA
BRANCH   5   6
ATOM      6  C   UNL     1       4.881   8.695  -0.204  1.00  0.00     0.338 C 
ATOM      7  O   UNL     1       6.082   8.756   0.008  1.00  0.00    -0.246 OA
BRANCH   6   8
ATOM      8  C   UNL     1       4.196   7.464  -0.630  1.00  0.00     0.087 C 
ATOM      9  C   UNL     1       2.896   2.668  -1.451  1.00  0.00     0.029 A 
ATOM     10  C   UNL     1       2.542   3.914  -2.004  1.00  0.00     0.058 A 
ATOM     11  C   UNL     1       3.805   2.671  -0.379  1.00  0.00     0.050 A 
ATOM     12  C   UNL     1       3.046   5.112  -1.498  1.00  0.00     0.128 A 
ATOM     13  C   UNL     1       4.331   3.874   0.114  1.00  0.00     0.033 A 
ATOM     14  Cl  UNL     1       4.382   1.224   0.368  1.00  0.00    -0.084 Cl
ATOM     15  C   UNL     1       3.964   5.094  -0.455  1.00  0.00     0.019 A 
ATOM     16  O   UNL     1       2.594   6.247  -2.103  1.00  0.00    -0.475 OA
ATOM     17  C   UNL     1       4.581   6.334  -0.023  1.00  0.00     0.027 C 
ATOM     18  C   UNL     1       3.124   7.534  -1.686  1.00  0.00     0.316 C 
BRANCH   9  19
ATOM     19  C   UNL     1       2.345   1.398  -2.078  1.00  0.00     0.300 C 
BRANCH  19  20
ATOM     20  N   UNL     1       0.895   1.153  -1.979  1.00  0.00    -0.334 N 
ATOM     21  C   UNL     1       0.082   1.985  -2.857  1.00  0.00     0.333 C 
ATOM     22  H   UNL     1       0.816   0.197  -2.327  1.00  0.00     0.348 HD
BRANCH  20  23
ATOM     23  C   UNL     1       0.359   1.123  -0.616  1.00  0.00     0.258 C 
ATOM     24  C   UNL     1       0.781  -0.121   0.152  1.00  0.00     0.071 C 
ENDBRANCH  20  23
ENDBRANCH  19  20
ENDBRANCH   9  19
BRANCH  18  25
ATOM     25  C   UNL     1       3.580   8.280  -2.948  1.00  0.00     0.430 C 
ATOM     26  F   UNL     1       2.602   8.298  -3.886  1.00  0.00    -0.167 F 
ATOM     27  F   UNL     1       3.892   9.572  -2.691  1.00  0.00    -0.167 F 
ATOM     28  F   UNL     1       4.669   7.705  -3.507  1.00  0.00    -0.167 F 
ENDBRANCH  18  25
ENDBRANCH   6   8
ENDBRANCH   5   6
ENDBRANCH   4   5
ENDBRANCH   3   4
ENDBRANCH   2   3
ENDBRANCH   1   2
BRANCH   1  29
ATOM     29  C   UNL     1       2.005   8.686   2.103  1.00  0.00     0.188 C 
BRANCH  29  30
ATOM     30  O   UNL     1       1.125   9.753   1.819  1.00  0.00    -0.376 OA
BRANCH  30  31
ATOM     31  C   UNL     1       0.683  10.617   2.855  1.00  0.00     0.202 C 
BRANCH  31  32
ATOM     32  C   UNL     1       0.257  10.097   4.232  1.00  0.00     0.261 C 
BRANCH  32  33
ATOM     33  O   UNL     1       1.156   9.153   4.824  1.00  0.00    -0.460 OA
BRANCH  33  34
ATOM     34  C   UNL     1       0.646   7.908   5.003  1.00  0.00     0.338 C 
ATOM     35  O   UNL     1      -0.478   7.522   4.735  1.00  0.00    -0.246 OA
BRANCH  34  36
ATOM     36  C   UNL     1       1.738   6.995   5.390  1.00  0.00     0.060 A 
ATOM     37  C   UNL     1       2.527   7.249   6.512  1.00  0.00     0.016 A 
ATOM     38  C   UNL     1       1.958   5.856   4.604  1.00  0.00     0.016 A 
ATOM     39  C   UNL     1       3.516   6.330   6.872  1.00  0.00     0.010 A 
ATOM     40  C   UNL     1       2.955   4.947   4.956  1.00  0.00     0.010 A 
ATOM     41  C   UNL     1       3.720   5.163   6.111  1.00  0.00    -0.014 A 
BRANCH  41  42
ATOM     42  C   UNL     1       4.566   4.074   6.651  1.00  0.00     0.031 A 
ATOM     43  C   UNL     1       5.966   3.832   6.183  1.00  0.00     0.074 A 
ATOM     44  C   UNL     1       4.021   3.276   7.590  1.00  0.00     0.049 A 
ATOM     45  N   UNL     1       6.849   2.990   6.659  1.00  0.00    -0.248 NA
ATOM     46  C   UNL     1       6.439   4.621   5.037  1.00  0.00     0.031 C 
ATOM     47  C   UNL     1       2.649   3.392   8.090  1.00  0.00     0.029 A 
ATOM     48  N   UNL     1       4.549   2.227   8.296  1.00  0.00    -0.354 N 
ATOM     49  C   UNL     1       7.992   3.161   5.892  1.00  0.00     0.074 A 
ATOM     50  C   UNL     1       7.675   4.155   4.886  1.00  0.00     0.031 C 
ATOM     51  C   UNL     1       2.455   2.473   9.046  1.00  0.00     0.029 A 
ATOM     52  C   UNL     1       3.676   1.691   9.211  1.00  0.00     0.049 A 
ATOM     53  H   UNL     1       5.465   1.890   8.161  1.00  0.00     0.167 HD
ATOM     54  C   UNL     1       9.195   2.555   6.033  1.00  0.00     0.031 A 
ATOM     55  C   UNL     1       3.839   0.693  10.100  1.00  0.00     0.031 A 
ATOM     56  C   UNL     1       9.491   1.548   7.023  1.00  0.00     0.049 A 
ATOM     57  C   UNL     1       5.174   0.018  10.212  1.00  0.00     0.074 A 
ATOM     58  C   UNL     1      10.703   0.928   7.278  1.00  0.00     0.029 A 
ATOM     59  N   UNL     1       8.572   0.999   7.904  1.00  0.00    -0.354 N 
ATOM     60  N   UNL     1       6.279   0.268   9.553  1.00  0.00    -0.248 NA
ATOM     61  C   UNL     1       5.291  -1.062  11.201  1.00  0.00     0.031 C 
ATOM     62  C   UNL     1      10.501  -0.046   8.259  1.00  0.00     0.029 A 
ATOM     63  C   UNL     1       9.180   0.018   8.671  1.00  0.00     0.049 A 
ATOM     64  H   UNL     1       7.627   1.266   7.973  1.00  0.00     0.167 HD
ATOM     65  C   UNL     1       7.227  -0.613  10.057  1.00  0.00     0.074 A 
ATOM     66  C   UNL     1       6.573  -1.384  11.094  1.00  0.00     0.031 C 
ATOM     67  C   UNL     1       8.522  -0.766   9.687  1.00  0.00     0.031 A 
BRANCH  54  68
ATOM     68  C   UNL     1      10.312   2.962   5.110  1.00  0.00    -0.014 A 
ATOM     69  C   UNL     1      10.838   2.038   4.192  1.00  0.00     0.009 A 
ATOM     70  C   UNL     1      10.940   4.210   5.249  1.00  0.00     0.009 A 
ATOM     71  C   UNL     1      11.979   2.346   3.449  1.00  0.00     0.001 A 
ATOM     72  C   UNL     1      12.065   4.525   4.485  1.00  0.00     0.001 A 
ATOM     73  C   UNL     1      12.591   3.589   3.594  1.00  0.00     0.000 A 
ENDBRANCH  54  68
BRANCH  55  74
ATOM     74  C   UNL     1       2.705   0.323  10.985  1.00  0.00    -0.014 A 
ATOM     75  C   UNL     1       1.557  -0.289  10.455  1.00  0.00     0.009 A 
ATOM     76  C   UNL     1       2.738   0.638  12.351  1.00  0.00     0.009 A 
ATOM     77  C   UNL     1       0.455  -0.553  11.270  1.00  0.00     0.001 A 
ATOM     78  C   UNL     1       1.646   0.344  13.170  1.00  0.00     0.001 A 
ATOM     79  C   UNL     1       0.502  -0.241  12.627  1.00  0.00     0.000 A 
ENDBRANCH  55  74
BRANCH  67  80
ATOM     80  C   UNL     1       9.331  -1.819  10.396  1.00  0.00    -0.014 A 
ATOM     81  C   UNL     1      10.398  -1.444  11.228  1.00  0.00     0.009 A 
ATOM     82  C   UNL     1       9.090  -3.185  10.178  1.00  0.00     0.009 A 
ATOM     83  C   UNL     1      11.213  -2.411  11.817  1.00  0.00     0.001 A 
ATOM     84  C   UNL     1       9.887  -4.151  10.796  1.00  0.00     0.001 A 
ATOM     85  C   UNL     1      10.953  -3.764  11.606  1.00  0.00     0.000 A 
ENDBRANCH  67  80
ENDBRANCH  41  42
ENDBRANCH  34  36
ENDBRANCH  33  34
ENDBRANCH  32  33
ENDBRANCH  31  32
ENDBRANCH  30  31
ENDBRANCH  29  30
ENDBRANCH   1  29
TORSDOF 21
