REMARK SMILES O=C1CC[C@H](CNC(=O)N[C@@H]2C=C[C@@H](C(=O)OCCOCCOCCOC(=O)c3ccc(-c4c5nc(c(-c6ccccc6)c6ccc([nH]6)c(-c6ccccc6)c6nc(c(-c7ccccc7)c7ccc4[nH]7)C=C6)C=C5)cc3)C2)N1
REMARK SMILES IDX 21 1 20 2 19 3 18 4 17 5 15 6 16 7 14 8 11 9 12 10 77 11
REMARK SMILES IDX 13 12 10 13 7 14 8 15 9 17 6 19 5 20 1 21 2 22 3 23 78 24
REMARK SMILES IDX 4 25 22 27 23 28 24 29 25 30 26 31 27 32 28 33 29 34 30 35
REMARK SMILES IDX 76 36 31 37 75 38 32 39 33 40 34 41 69 42 35 43 74 44 68 45
REMARK SMILES IDX 70 46 36 47 73 48 67 49 66 50 37 52 59 53 44 54 58 55 45 56
REMARK SMILES IDX 48 57 57 58 71 59 46 60 47 61 56 63 72 64 49 65 38 66 39 67
REMARK SMILES IDX 43 68 40 69 42 70 41 71 60 72 61 73 65 74 62 75 64 76 63 77
REMARK SMILES IDX 50 78 51 79 55 80 52 81 54 82 53 83
REMARK H PARENT 7 16 10 18 78 26 70 51 48 62
REMARK Flexibility Score: inf
ROOT
ATOM      1  C   UNL     1      -1.443  -7.755   5.266  1.00  0.00     0.188 C 
ENDROOT
BRANCH   1   2
ATOM      2  O   UNL     1      -1.485  -7.804   6.682  1.00  0.00    -0.376 OA
BRANCH   2   3
ATOM      3  C   UNL     1      -2.278  -6.858   7.386  1.00  0.00     0.202 C 
BRANCH   3   4
ATOM      4  C   UNL     1      -1.932  -5.376   7.225  1.00  0.00     0.261 C 
BRANCH   4   5
ATOM      5  O   UNL     1      -1.912  -4.972   5.847  1.00  0.00    -0.463 OA
BRANCH   5   6
ATOM      6  C   UNL     1      -1.090  -3.935   5.531  1.00  0.00     0.312 C 
ATOM      7  O   UNL     1      -0.411  -3.323   6.348  1.00  0.00    -0.252 OA
BRANCH   6   8
ATOM      8  C   UNL     1      -1.025  -3.683   4.019  1.00  0.00     0.124 C 
ATOM      9  C   UNL     1      -2.624  -3.184   2.174  1.00  0.00     0.107 C 
ATOM     10  C   UNL     1      -1.938  -1.960   2.692  1.00  0.00    -0.006 C 
ATOM     11  C   UNL     1      -2.191  -4.237   3.193  1.00  0.00     0.048 C 
ATOM     12  C   UNL     1      -1.087  -2.223   3.692  1.00  0.00    -0.014 C 
BRANCH   9  13
ATOM     13  N   UNL     1      -2.172  -3.459   0.829  1.00  0.00    -0.332 N 
ATOM     14  N   UNL     1      -3.454  -5.299   0.036  1.00  0.00    -0.336 N 
ATOM     15  C   UNL     1      -2.562  -4.310  -0.130  1.00  0.00     0.315 C 
ATOM     16  H   UNL     1      -3.724  -5.724  -0.809  1.00  0.00     0.165 HD
ATOM     17  O   UNL     1      -2.059  -4.184  -1.249  1.00  0.00    -0.249 OA
ATOM     18  H   UNL     1      -1.410  -2.897   0.558  1.00  0.00     0.165 HD
BRANCH  14  19
ATOM     19  C   UNL     1      -4.103  -5.874   1.198  1.00  0.00     0.142 C 
BRANCH  19  20
ATOM     20  C   UNL     1      -5.489  -6.487   0.933  1.00  0.00     0.101 C 
ATOM     21  O   UNL     1      -7.351  -8.274   3.328  1.00  0.00    -0.275 OA
ATOM     22  C   UNL     1      -6.726  -7.920   2.358  1.00  0.00     0.220 C 
ATOM     23  C   UNL     1      -6.435  -8.736   1.129  1.00  0.00     0.102 C 
ATOM     24  N   UNL     1      -6.197  -6.665   2.174  1.00  0.00    -0.352 N 
ATOM     25  C   UNL     1      -5.453  -7.887   0.318  1.00  0.00     0.036 C 
ATOM     26  H   UNL     1      -6.295  -5.944   2.838  1.00  0.00     0.163 HD
ENDBRANCH  19  20
ENDBRANCH  14  19
ENDBRANCH   9  13
ENDBRANCH   6   8
ENDBRANCH   5   6
ENDBRANCH   4   5
ENDBRANCH   3   4
ENDBRANCH   2   3
ENDBRANCH   1   2
BRANCH   1  27
ATOM     27  C   UNL     1      -2.717  -7.483   4.446  1.00  0.00     0.188 C 
BRANCH  27  28
ATOM     28  O   UNL     1      -4.017  -7.656   4.964  1.00  0.00    -0.376 OA
BRANCH  28  29
ATOM     29  C   UNL     1      -4.381  -8.912   5.511  1.00  0.00     0.202 C 
BRANCH  29  30
ATOM     30  C   UNL     1      -4.269 -10.146   4.615  1.00  0.00     0.261 C 
BRANCH  30  31
ATOM     31  O   UNL     1      -2.936 -10.366   4.118  1.00  0.00    -0.460 OA
BRANCH  31  32
ATOM     32  C   UNL     1      -2.821 -10.318   2.771  1.00  0.00     0.338 C 
ATOM     33  O   UNL     1      -3.702 -10.123   1.951  1.00  0.00    -0.246 OA
BRANCH  32  34
ATOM     34  C   UNL     1      -1.415 -10.374   2.362  1.00  0.00     0.060 A 
ATOM     35  C   UNL     1      -0.882  -9.280   1.665  1.00  0.00     0.016 A 
ATOM     36  C   UNL     1      -0.687 -11.550   2.526  1.00  0.00     0.016 A 
ATOM     37  C   UNL     1       0.386  -9.370   1.101  1.00  0.00     0.010 A 
ATOM     38  C   UNL     1       0.577 -11.643   1.948  1.00  0.00     0.010 A 
ATOM     39  C   UNL     1       1.106 -10.565   1.215  1.00  0.00    -0.014 A 
BRANCH  39  40
ATOM     40  C   UNL     1       2.392 -10.731   0.509  1.00  0.00     0.031 A 
ATOM     41  C   UNL     1       2.436 -11.535  -0.757  1.00  0.00     0.074 A 
ATOM     42  C   UNL     1       3.508 -10.202   1.037  1.00  0.00     0.049 A 
ATOM     43  N   UNL     1       3.474 -11.940  -1.441  1.00  0.00    -0.248 NA
ATOM     44  C   UNL     1       1.141 -11.947  -1.324  1.00  0.00     0.031 C 
ATOM     45  C   UNL     1       3.562  -9.373   2.241  1.00  0.00     0.029 A 
ATOM     46  N   UNL     1       4.816 -10.309   0.642  1.00  0.00    -0.354 N 
ATOM     47  C   UNL     1       2.961 -12.677  -2.502  1.00  0.00     0.074 A 
ATOM     48  C   UNL     1       1.520 -12.668  -2.370  1.00  0.00     0.031 C 
ATOM     49  C   UNL     1       4.843  -9.071   2.505  1.00  0.00     0.029 A 
ATOM     50  C   UNL     1       5.696  -9.724   1.518  1.00  0.00     0.049 A 
ATOM     51  H   UNL     1       5.095 -10.761  -0.187  1.00  0.00     0.167 HD
ATOM     52  C   UNL     1       3.639 -13.311  -3.487  1.00  0.00     0.031 A 
ATOM     53  C   UNL     1       7.041  -9.755   1.542  1.00  0.00     0.031 A 
ATOM     54  C   UNL     1       5.074 -13.312  -3.598  1.00  0.00     0.049 A 
ATOM     55  C   UNL     1       7.768 -10.511   0.464  1.00  0.00     0.074 A 
ATOM     56  C   UNL     1       5.863 -13.899  -4.571  1.00  0.00     0.029 A 
ATOM     57  N   UNL     1       5.933 -12.701  -2.697  1.00  0.00    -0.354 N 
ATOM     58  N   UNL     1       7.275 -11.185  -0.548  1.00  0.00    -0.248 NA
ATOM     59  C   UNL     1       9.235 -10.508   0.529  1.00  0.00     0.031 C 
ATOM     60  C   UNL     1       7.203 -13.688  -4.229  1.00  0.00     0.029 A 
ATOM     61  C   UNL     1       7.245 -12.919  -3.076  1.00  0.00     0.049 A 
ATOM     62  H   UNL     1       5.651 -12.187  -1.906  1.00  0.00     0.167 HD
ATOM     63  C   UNL     1       8.371 -11.663  -1.254  1.00  0.00     0.074 A 
ATOM     64  C   UNL     1       9.553 -11.187  -0.564  1.00  0.00     0.031 C 
ATOM     65  C   UNL     1       8.401 -12.429  -2.372  1.00  0.00     0.031 A 
BRANCH  52  66
ATOM     66  C   UNL     1       2.848 -14.091  -4.499  1.00  0.00    -0.014 A 
ATOM     67  C   UNL     1       2.089 -13.450  -5.490  1.00  0.00     0.009 A 
ATOM     68  C   UNL     1       2.914 -15.493  -4.497  1.00  0.00     0.009 A 
ATOM     69  C   UNL     1       1.398 -14.199  -6.446  1.00  0.00     0.001 A 
ATOM     70  C   UNL     1       2.243 -16.239  -5.467  1.00  0.00     0.001 A 
ATOM     71  C   UNL     1       1.481 -15.591  -6.438  1.00  0.00     0.000 A 
ENDBRANCH  52  66
BRANCH  53  72
ATOM     72  C   UNL     1       7.784  -9.092   2.645  1.00  0.00    -0.014 A 
ATOM     73  C   UNL     1       8.577  -7.962   2.399  1.00  0.00     0.009 A 
ATOM     74  C   UNL     1       7.715  -9.599   3.953  1.00  0.00     0.009 A 
ATOM     75  C   UNL     1       9.310  -7.373   3.433  1.00  0.00     0.001 A 
ATOM     76  C   UNL     1       8.422  -8.989   4.991  1.00  0.00     0.001 A 
ATOM     77  C   UNL     1       9.229  -7.883   4.727  1.00  0.00     0.000 A 
ENDBRANCH  53  72
BRANCH  65  78
ATOM     78  C   UNL     1       9.753 -12.760  -2.935  1.00  0.00    -0.014 A 
ATOM     79  C   UNL     1      10.599 -13.686  -2.304  1.00  0.00     0.009 A 
ATOM     80  C   UNL     1      10.168 -12.162  -4.135  1.00  0.00     0.009 A 
ATOM     81  C   UNL     1      11.850 -13.980  -2.849  1.00  0.00     0.001 A 
ATOM     82  C   UNL     1      11.406 -12.482  -4.693  1.00  0.00     0.001 A 
ATOM     83  C   UNL     1      12.249 -13.382  -4.045  1.00  0.00     0.000 A 
ENDBRANCH  65  78
ENDBRANCH  39  40
ENDBRANCH  32  34
ENDBRANCH  31  32
ENDBRANCH  30  31
ENDBRANCH  29  30
ENDBRANCH  28  29
ENDBRANCH  27  28
ENDBRANCH   1  27
TORSDOF 20
