REMARK SMILES CCC(CC)[C@H](C(=O)OCCOCCOCCOC(=O)c1ccc(-c2c3nc(c(-c4ccccc4)c4ccc([nH]4)c(-c4ccccc4)c4nc(c(-c5ccccc5)c5ccc2[nH]5)C=C4)C=C3)cc1)c1ccccc1
REMARK SMILES IDX 13 1 12 2 11 3 10 4 9 5 7 6 8 7 6 8 3 9 2 10 1 11 4 12 5 13
REMARK SMILES IDX 69 14 70 15 74 16 71 17 73 18 72 19 14 20 15 21 16 22 17 23
REMARK SMILES IDX 18 24 19 25 20 26 21 27 22 28 68 29 23 30 67 31 24 32 25 33
REMARK SMILES IDX 26 34 61 35 27 36 66 37 60 38 62 39 28 40 65 41 59 42 58 43
REMARK SMILES IDX 29 45 51 46 36 47 50 48 37 49 40 50 49 51 63 52 38 53 39 54
REMARK SMILES IDX 48 56 64 57 41 58 30 59 31 60 35 61 32 62 34 63 33 64 52 65
REMARK SMILES IDX 53 66 57 67 54 68 56 69 55 70 42 71 43 72 47 73 44 74 46 75
REMARK SMILES IDX 45 76
REMARK H PARENT 62 44 40 55
REMARK Flexibility Score: inf
ROOT
ATOM      1  C   UNL     1       0.671   2.716   1.356  1.00  0.00     0.188 C 
ENDROOT
BRANCH   1   2
ATOM      2  O   UNL     1       0.846   2.144   0.066  1.00  0.00    -0.376 OA
BRANCH   2   3
ATOM      3  C   UNL     1       1.646   0.972   0.019  1.00  0.00     0.202 C 
BRANCH   3   4
ATOM      4  C   UNL     1       0.910  -0.276   0.506  1.00  0.00     0.261 C 
BRANCH   4   5
ATOM      5  O   UNL     1       0.621  -0.406   1.915  1.00  0.00    -0.463 OA
BRANCH   5   6
ATOM      6  C   UNL     1       1.574  -0.153   2.858  1.00  0.00     0.313 C 
ATOM      7  O   UNL     1       2.650   0.366   2.648  1.00  0.00    -0.252 OA
BRANCH   6   8
ATOM      8  C   UNL     1       1.124  -0.740   4.201  1.00  0.00     0.132 C 
BRANCH   8   9
ATOM      9  C   UNL     1       1.913  -2.086   4.369  1.00  0.00     0.007 C 
BRANCH   9  10
ATOM     10  C   UNL     1       3.450  -1.932   4.521  1.00  0.00     0.001 C 
ATOM     11  C   UNL     1       4.224  -3.216   4.758  1.00  0.00     0.004 C 
ENDBRANCH   9  10
BRANCH   9  12
ATOM     12  C   UNL     1       1.196  -3.108   5.282  1.00  0.00     0.001 C 
ATOM     13  C   UNL     1       0.731  -2.644   6.649  1.00  0.00     0.004 C 
ENDBRANCH   9  12
ENDBRANCH   8   9
BRANCH   8  14
ATOM     14  C   UNL     1       1.029   0.307   5.317  1.00  0.00    -0.034 A 
ATOM     15  C   UNL     1       1.907   0.407   6.406  1.00  0.00     0.004 A 
ATOM     16  C   UNL     1      -0.070   1.189   5.316  1.00  0.00     0.004 A 
ATOM     17  C   UNL     1       1.710   1.335   7.436  1.00  0.00     0.000 A 
ATOM     18  C   UNL     1      -0.276   2.113   6.350  1.00  0.00     0.000 A 
ATOM     19  C   UNL     1       0.618   2.189   7.410  1.00  0.00     0.000 A 
ENDBRANCH   8  14
ENDBRANCH   6   8
ENDBRANCH   5   6
ENDBRANCH   4   5
ENDBRANCH   3   4
ENDBRANCH   2   3
ENDBRANCH   1   2
BRANCH   1  20
ATOM     20  C   UNL     1      -0.754   2.495   1.884  1.00  0.00     0.188 C 
BRANCH  20  21
ATOM     21  O   UNL     1      -1.836   2.694   0.980  1.00  0.00    -0.376 OA
BRANCH  21  22
ATOM     22  C   UNL     1      -1.732   3.764   0.047  1.00  0.00     0.202 C 
BRANCH  22  23
ATOM     23  C   UNL     1      -1.815   5.171   0.646  1.00  0.00     0.261 C 
BRANCH  23  24
ATOM     24  O   UNL     1      -0.646   5.521   1.419  1.00  0.00    -0.460 OA
BRANCH  24  25
ATOM     25  C   UNL     1      -0.871   5.788   2.724  1.00  0.00     0.338 C 
ATOM     26  O   UNL     1      -1.948   5.801   3.301  1.00  0.00    -0.246 OA
BRANCH  25  27
ATOM     27  C   UNL     1       0.391   5.957   3.470  1.00  0.00     0.060 A 
ATOM     28  C   UNL     1       0.719   4.979   4.412  1.00  0.00     0.016 A 
ATOM     29  C   UNL     1       1.084   7.167   3.451  1.00  0.00     0.016 A 
ATOM     30  C   UNL     1       1.652   5.247   5.412  1.00  0.00     0.010 A 
ATOM     31  C   UNL     1       2.035   7.429   4.451  1.00  0.00     0.010 A 
ATOM     32  C   UNL     1       2.265   6.501   5.487  1.00  0.00    -0.014 A 
BRANCH  32  33
ATOM     33  C   UNL     1       2.915   6.916   6.766  1.00  0.00     0.031 A 
ATOM     34  C   UNL     1       2.232   7.959   7.622  1.00  0.00     0.074 A 
ATOM     35  C   UNL     1       4.022   6.315   7.242  1.00  0.00     0.049 A 
ATOM     36  N   UNL     1       2.654   8.554   8.711  1.00  0.00    -0.248 NA
ATOM     37  C   UNL     1       0.889   8.383   7.193  1.00  0.00     0.031 C 
ATOM     38  C   UNL     1       4.732   5.206   6.606  1.00  0.00     0.029 A 
ATOM     39  N   UNL     1       4.733   6.548   8.397  1.00  0.00    -0.354 N 
ATOM     40  C   UNL     1       1.656   9.460   9.057  1.00  0.00     0.074 A 
ATOM     41  C   UNL     1       0.611   9.339   8.065  1.00  0.00     0.031 C 
ATOM     42  C   UNL     1       5.763   4.843   7.388  1.00  0.00     0.029 A 
ATOM     43  C   UNL     1       5.825   5.729   8.549  1.00  0.00     0.049 A 
ATOM     44  H   UNL     1       4.481   7.238   9.053  1.00  0.00     0.167 HD
ATOM     45  C   UNL     1       1.607  10.318  10.105  1.00  0.00     0.031 A 
ATOM     46  C   UNL     1       6.783   5.712   9.498  1.00  0.00     0.031 A 
ATOM     47  C   UNL     1       2.613  10.417  11.127  1.00  0.00     0.049 A 
ATOM     48  C   UNL     1       6.741   6.715  10.622  1.00  0.00     0.074 A 
ATOM     49  C   UNL     1       2.665  11.281  12.208  1.00  0.00     0.029 A 
ATOM     50  N   UNL     1       3.733   9.606  11.208  1.00  0.00    -0.354 N 
ATOM     51  N   UNL     1       5.841   7.630  10.886  1.00  0.00    -0.248 NA
ATOM     52  C   UNL     1       7.859   6.681  11.579  1.00  0.00     0.031 C 
ATOM     53  C   UNL     1       3.836  11.013  12.927  1.00  0.00     0.029 A 
ATOM     54  C   UNL     1       4.483   9.949  12.320  1.00  0.00     0.049 A 
ATOM     55  H   UNL     1       3.961   8.892  10.570  1.00  0.00     0.167 HD
ATOM     56  C   UNL     1       6.269   8.261  12.049  1.00  0.00     0.074 A 
ATOM     57  C   UNL     1       7.499   7.612  12.451  1.00  0.00     0.031 C 
ATOM     58  C   UNL     1       5.697   9.289  12.721  1.00  0.00     0.031 A 
BRANCH  45  59
ATOM     59  C   UNL     1       0.439  11.263  10.163  1.00  0.00    -0.014 A 
ATOM     60  C   UNL     1      -0.847  10.827  10.517  1.00  0.00     0.009 A 
ATOM     61  C   UNL     1       0.640  12.620   9.866  1.00  0.00     0.009 A 
ATOM     62  C   UNL     1      -1.916  11.727  10.534  1.00  0.00     0.001 A 
ATOM     63  C   UNL     1      -0.424  13.522   9.912  1.00  0.00     0.001 A 
ATOM     64  C   UNL     1      -1.703  13.073  10.235  1.00  0.00     0.000 A 
ENDBRANCH  45  59
BRANCH  46  65
ATOM     65  C   UNL     1       7.904   4.736   9.415  1.00  0.00    -0.014 A 
ATOM     66  C   UNL     1       8.043   3.718  10.371  1.00  0.00     0.009 A 
ATOM     67  C   UNL     1       8.871   4.852   8.404  1.00  0.00     0.009 A 
ATOM     68  C   UNL     1       9.141   2.854  10.332  1.00  0.00     0.001 A 
ATOM     69  C   UNL     1       9.950   3.967   8.348  1.00  0.00     0.001 A 
ATOM     70  C   UNL     1      10.090   2.977   9.318  1.00  0.00     0.000 A 
ENDBRANCH  46  65
BRANCH  58  71
ATOM     71  C   UNL     1       6.361   9.739  13.992  1.00  0.00    -0.014 A 
ATOM     72  C   UNL     1       7.567  10.456  13.976  1.00  0.00     0.009 A 
ATOM     73  C   UNL     1       5.750   9.465  15.227  1.00  0.00     0.009 A 
ATOM     74  C   UNL     1       8.169  10.853  15.172  1.00  0.00     0.001 A 
ATOM     75  C   UNL     1       6.340   9.887  16.419  1.00  0.00     0.001 A 
ATOM     76  C   UNL     1       7.554  10.571  16.392  1.00  0.00     0.000 A 
ENDBRANCH  58  71
ENDBRANCH  32  33
ENDBRANCH  25  27
ENDBRANCH  24  25
ENDBRANCH  23  24
ENDBRANCH  22  23
ENDBRANCH  21  22
ENDBRANCH  20  21
ENDBRANCH   1  20
TORSDOF 21
