REMARK SMILES Cc1cc(C(=O)OCCOCCOCCOC(=O)c2ccc(-c3c4nc(c(-c5ccccc5)c5ccc([nH]5)c(-c5ccccc5)c5nc(c(-c6ccccc6)c6ccc3[nH]6)C=C5)C=C4)cc2)ccc1NC(=O)N1C[C@@H](C)[C@H](C)C1
REMARK SMILES IDX 12 1 11 2 10 3 9 4 8 5 7 6 5 7 6 8 4 9 1 10 2 11 3 12 69 13
REMARK SMILES IDX 68 14 67 15 70 16 71 17 72 19 73 20 74 21 79 22 75 23 77 24
REMARK SMILES IDX 76 25 78 26 13 27 14 28 15 29 16 30 17 31 18 32 19 33 20 34
REMARK SMILES IDX 66 35 21 36 65 37 22 38 23 39 24 40 59 41 25 42 64 43 58 44
REMARK SMILES IDX 60 45 26 46 63 47 57 48 56 49 27 51 49 52 34 53 48 54 35 55
REMARK SMILES IDX 38 56 47 57 61 58 36 59 37 60 46 62 62 63 39 64 28 65 29 66
REMARK SMILES IDX 33 67 30 68 32 69 31 70 50 71 51 72 55 73 52 74 54 75 53 76
REMARK SMILES IDX 40 77 41 78 45 79 42 80 44 81 43 82
REMARK H PARENT 70 18 60 50 38 61
REMARK Flexibility Score: inf
ROOT
ATOM      1  C   UNL     1      -3.738  -5.368  -3.695  1.00  0.00     0.188 C 
ENDROOT
BRANCH   1   2
ATOM      2  C   UNL     1      -3.464  -5.460  -2.206  1.00  0.00     0.188 C 
BRANCH   2   3
ATOM      3  O   UNL     1      -4.098  -4.611  -1.247  1.00  0.00    -0.376 OA
BRANCH   3   4
ATOM      4  C   UNL     1      -5.251  -3.776  -1.359  1.00  0.00     0.202 C 
BRANCH   4   5
ATOM      5  C   UNL     1      -5.272  -2.089  -1.672  1.00  0.00     0.261 C 
BRANCH   5   6
ATOM      6  O   UNL     1      -4.075  -1.000  -1.395  1.00  0.00    -0.460 OA
BRANCH   6   7
ATOM      7  C   UNL     1      -3.351  -0.271  -0.467  1.00  0.00     0.338 C 
ATOM      8  O   UNL     1      -3.702   0.113   0.639  1.00  0.00    -0.246 OA
BRANCH   7   9
ATOM      9  C   UNL     1      -1.998   0.260  -0.879  1.00  0.00     0.060 A 
ATOM     10  C   UNL     1       1.706   0.555   0.288  1.00  0.00     0.046 C 
ATOM     11  C   UNL     1       0.354   0.891  -0.297  1.00  0.00    -0.027 A 
ATOM     12  C   UNL     1      -0.751   0.001  -0.208  1.00  0.00     0.021 A 
ATOM     13  C   UNL     1       0.090   2.114  -0.911  1.00  0.00     0.045 A 
ATOM     14  C   UNL     1      -1.040   2.257  -1.738  1.00  0.00     0.027 A 
ATOM     15  C   UNL     1      -2.077   1.338  -1.733  1.00  0.00     0.018 A 
BRANCH  13  16
ATOM     16  N   UNL     1       0.810   3.277  -0.561  1.00  0.00    -0.308 N 
ATOM     17  C   UNL     1       0.242   4.528  -0.435  1.00  0.00     0.321 C 
ATOM     18  H   UNL     1       1.776   3.190  -0.397  1.00  0.00     0.171 HD
ATOM     19  O   UNL     1       0.896   5.541  -0.671  1.00  0.00    -0.248 OA
ATOM     20  N   UNL     1      -1.079   4.567  -0.042  1.00  0.00    -0.324 N 
ATOM     21  C   UNL     1      -2.042   5.461  -0.645  1.00  0.00     0.125 C 
ATOM     22  C   UNL     1      -1.614   3.925   1.156  1.00  0.00     0.125 C 
ATOM     23  C   UNL     1      -3.238   5.478   0.306  1.00  0.00     0.010 C 
ATOM     24  C   UNL     1      -3.124   4.146   1.074  1.00  0.00     0.010 C 
ATOM     25  C   UNL     1      -4.566   5.621  -0.424  1.00  0.00     0.010 C 
ATOM     26  C   UNL     1      -3.804   4.194   2.438  1.00  0.00     0.010 C 
ENDBRANCH  13  16
ENDBRANCH   7   9
ENDBRANCH   6   7
ENDBRANCH   5   6
ENDBRANCH   4   5
ENDBRANCH   3   4
ENDBRANCH   2   3
ENDBRANCH   1   2
BRANCH   1  27
ATOM     27  O   UNL     1      -4.081  -4.041  -4.039  1.00  0.00    -0.376 OA
BRANCH  27  28
ATOM     28  C   UNL     1      -4.199  -3.814  -5.437  1.00  0.00     0.202 C 
BRANCH  28  29
ATOM     29  C   UNL     1      -2.845  -3.784  -6.182  1.00  0.00     0.261 C 
BRANCH  29  30
ATOM     30  O   UNL     1      -1.932  -2.862  -5.540  1.00  0.00    -0.460 OA
BRANCH  30  31
ATOM     31  C   UNL     1      -0.805  -3.380  -4.923  1.00  0.00     0.338 C 
ATOM     32  O   UNL     1      -0.115  -4.248  -5.360  1.00  0.00    -0.246 OA
BRANCH  31  33
ATOM     33  C   UNL     1      -0.759  -2.872  -3.491  1.00  0.00     0.060 A 
ATOM     34  C   UNL     1      -0.011  -3.445  -2.453  1.00  0.00     0.016 A 
ATOM     35  C   UNL     1      -1.823  -2.148  -3.088  1.00  0.00     0.016 A 
ATOM     36  C   UNL     1      -0.474  -3.422  -1.060  1.00  0.00     0.010 A 
ATOM     37  C   UNL     1      -2.330  -2.535  -1.845  1.00  0.00     0.010 A 
ATOM     38  C   UNL     1      -1.755  -3.017  -0.685  1.00  0.00    -0.014 A 
BRANCH  38  39
ATOM     39  C   UNL     1      -2.583  -3.372   0.637  1.00  0.00     0.031 A 
ATOM     40  C   UNL     1      -3.549  -2.558   1.615  1.00  0.00     0.074 A 
ATOM     41  C   UNL     1      -2.474  -4.649   1.070  1.00  0.00     0.049 A 
ATOM     42  N   UNL     1      -3.355  -2.381   2.912  1.00  0.00    -0.248 NA
ATOM     43  C   UNL     1      -4.874  -2.002   1.284  1.00  0.00     0.031 C 
ATOM     44  C   UNL     1      -3.138  -5.296   2.201  1.00  0.00     0.029 A 
ATOM     45  N   UNL     1      -1.566  -5.606   0.620  1.00  0.00    -0.354 N 
ATOM     46  C   UNL     1      -4.471  -1.703   3.451  1.00  0.00     0.074 A 
ATOM     47  C   UNL     1      -5.303  -1.360   2.364  1.00  0.00     0.031 C 
ATOM     48  C   UNL     1      -2.397  -6.357   2.563  1.00  0.00     0.029 A 
ATOM     49  C   UNL     1      -1.201  -6.364   1.733  1.00  0.00     0.049 A 
ATOM     50  H   UNL     1      -1.245  -5.724  -0.303  1.00  0.00     0.167 HD
ATOM     51  C   UNL     1      -4.863  -1.608   4.755  1.00  0.00     0.031 A 
ATOM     52  C   UNL     1       0.092  -6.340   2.160  1.00  0.00     0.031 A 
ATOM     53  C   UNL     1      -4.239  -2.648   5.514  1.00  0.00     0.049 A 
ATOM     54  C   UNL     1       0.221  -5.793   3.562  1.00  0.00     0.074 A 
ATOM     55  C   UNL     1      -4.640  -3.951   5.754  1.00  0.00     0.029 A 
ATOM     56  N   UNL     1      -2.886  -2.576   5.744  1.00  0.00    -0.354 N 
ATOM     57  N   UNL     1      -0.711  -5.122   4.184  1.00  0.00    -0.248 NA
ATOM     58  C   UNL     1       1.428  -5.949   4.368  1.00  0.00     0.031 C 
ATOM     59  C   UNL     1      -3.466  -4.708   5.989  1.00  0.00     0.029 A 
ATOM     60  C   UNL     1      -2.391  -3.838   5.991  1.00  0.00     0.049 A 
ATOM     61  H   UNL     1      -2.352  -1.750   5.732  1.00  0.00     0.167 HD
ATOM     62  C   UNL     1      -0.250  -4.742   5.415  1.00  0.00     0.074 A 
ATOM     63  C   UNL     1       1.085  -5.298   5.492  1.00  0.00     0.031 C 
ATOM     64  C   UNL     1      -0.982  -3.986   6.278  1.00  0.00     0.031 A 
BRANCH  51  65
ATOM     65  C   UNL     1      -6.106  -0.830   5.175  1.00  0.00    -0.014 A 
ATOM     66  C   UNL     1      -7.036  -1.347   6.094  1.00  0.00     0.009 A 
ATOM     67  C   UNL     1      -6.410   0.442   4.637  1.00  0.00     0.009 A 
ATOM     68  C   UNL     1      -8.259  -0.700   6.353  1.00  0.00     0.001 A 
ATOM     69  C   UNL     1      -7.647   1.073   4.861  1.00  0.00     0.001 A 
ATOM     70  C   UNL     1      -8.583   0.488   5.704  1.00  0.00     0.000 A 
ENDBRANCH  51  65
BRANCH  52  71
ATOM     71  C   UNL     1       1.115  -6.236   1.066  1.00  0.00    -0.014 A 
ATOM     72  C   UNL     1       1.048  -7.178   0.010  1.00  0.00     0.009 A 
ATOM     73  C   UNL     1       1.940  -5.117   0.882  1.00  0.00     0.009 A 
ATOM     74  C   UNL     1       1.685  -6.960  -1.216  1.00  0.00     0.001 A 
ATOM     75  C   UNL     1       2.599  -4.909  -0.347  1.00  0.00     0.001 A 
ATOM     76  C   UNL     1       2.452  -5.817  -1.399  1.00  0.00     0.000 A 
ENDBRANCH  52  71
BRANCH  64  77
ATOM     77  C   UNL     1      -0.458  -3.298   7.509  1.00  0.00    -0.014 A 
ATOM     78  C   UNL     1       0.867  -2.874   7.645  1.00  0.00     0.009 A 
ATOM     79  C   UNL     1      -1.374  -2.880   8.503  1.00  0.00     0.009 A 
ATOM     80  C   UNL     1       1.268  -2.105   8.743  1.00  0.00     0.001 A 
ATOM     81  C   UNL     1      -0.990  -2.066   9.567  1.00  0.00     0.001 A 
ATOM     82  C   UNL     1       0.338  -1.690   9.694  1.00  0.00     0.000 A 
ENDBRANCH  64  77
ENDBRANCH  38  39
ENDBRANCH  31  33
ENDBRANCH  30  31
ENDBRANCH  29  30
ENDBRANCH  28  29
ENDBRANCH  27  28
ENDBRANCH   1  27
TORSDOF 18
