REMARK SMILES Cc1cccc(S(=O)(=O)Nc2cc(C(=O)OCCOCCOCCOC(=O)c3ccc(-c4c5nc(c(-c6ccccc6)c6ccc([nH]6)c(-c6ccccc6)c6nc(c(-c7ccccc7)c7ccc4[nH]7)C=C6)C=C5)cc3)ccc2N2CCC[C@H](C[NH+]3CCCC3)C2)c1
REMARK SMILES IDX 20 1 19 2 18 3 17 4 16 5 14 6 15 7 13 8 11 9 12 10 78 11
REMARK SMILES IDX 77 12 76 13 10 14 7 16 8 17 9 18 6 19 1 20 2 21 3 22 91 23
REMARK SMILES IDX 4 24 5 25 79 26 80 27 90 28 81 29 83 30 82 31 84 32 85 33
REMARK SMILES IDX 86 34 89 35 87 37 88 38 21 39 22 40 23 41 24 42 25 43 26 44
REMARK SMILES IDX 27 45 28 46 29 47 75 48 30 49 74 50 31 51 32 52 33 53 68 54
REMARK SMILES IDX 34 55 73 56 67 57 69 58 35 59 72 60 66 61 65 62 36 64 58 65
REMARK SMILES IDX 43 66 57 67 44 68 47 69 56 70 70 71 45 72 46 73 55 75 71 76
REMARK SMILES IDX 48 77 37 78 38 79 42 80 39 81 41 82 40 83 59 84 60 85 64 86
REMARK SMILES IDX 61 87 63 88 62 89 49 90 50 91 54 92 51 93 53 94 52 95
REMARK H PARENT 10 15 85 36 69 63 47 74
REMARK Flexibility Score: inf
ROOT
ATOM      1  C   UNL     1       4.499   0.423  -5.203  1.00  0.00     0.188 C 
ENDROOT
BRANCH   1   2
ATOM      2  O   UNL     1       3.556  -0.567  -5.595  1.00  0.00    -0.376 OA
BRANCH   2   3
ATOM      3  C   UNL     1       2.160  -0.192  -5.612  1.00  0.00     0.202 C 
BRANCH   3   4
ATOM      4  C   UNL     1       1.332  -0.335  -4.304  1.00  0.00     0.261 C 
BRANCH   4   5
ATOM      5  O   UNL     1       1.188   0.821  -3.360  1.00  0.00    -0.460 OA
BRANCH   5   6
ATOM      6  C   UNL     1       0.247   1.827  -3.321  1.00  0.00     0.338 C 
ATOM      7  O   UNL     1      -0.540   2.012  -4.236  1.00  0.00    -0.246 OA
BRANCH   6   8
ATOM      8  C   UNL     1       0.298   2.817  -2.051  1.00  0.00     0.062 A 
ATOM      9  C   UNL     1      -0.831   4.191  -0.360  1.00  0.00     0.073 A 
ATOM     10  C   UNL     1      -0.847   3.427  -1.585  1.00  0.00     0.044 A 
ATOM     11  C   UNL     1       0.333   4.579   0.357  1.00  0.00     0.061 A 
ATOM     12  C   UNL     1       1.469   3.977  -0.103  1.00  0.00     0.029 A 
ATOM     13  C   UNL     1       1.390   3.096  -1.198  1.00  0.00     0.018 A 
BRANCH   9  14
ATOM     14  N   UNL     1      -2.057   4.407   0.288  1.00  0.00    -0.277 N 
ATOM     15  H   UNL     1      -2.390   5.324   0.417  1.00  0.00     0.180 HD
BRANCH  14  16
ATOM     16  S   UNL     1      -2.952   3.104   0.842  1.00  0.00     0.261 S 
ATOM     17  O   UNL     1      -3.663   2.590  -0.320  1.00  0.00    -0.201 OA
ATOM     18  O   UNL     1      -3.673   3.621   1.981  1.00  0.00    -0.201 OA
BRANCH  16  19
ATOM     19  C   UNL     1      -1.981   1.715   1.462  1.00  0.00     0.088 A 
ATOM     20  C   UNL     1       1.454   0.506   2.690  1.00  0.00     0.044 C 
ATOM     21  C   UNL     1      -0.021   0.547   2.371  1.00  0.00    -0.050 A 
ATOM     22  C   UNL     1      -0.756  -0.641   2.425  1.00  0.00     0.003 A 
ATOM     23  C   UNL     1      -0.652   1.727   1.905  1.00  0.00     0.025 A 
ATOM     24  C   UNL     1      -2.074  -0.668   1.978  1.00  0.00     0.002 A 
ATOM     25  C   UNL     1      -2.674   0.495   1.490  1.00  0.00     0.022 A 
ENDBRANCH  16  19
ENDBRANCH  14  16
ENDBRANCH   9  14
BRANCH  11  26
ATOM     26  N   UNL     1       0.449   5.363   1.509  1.00  0.00    -0.369 N 
ATOM     27  C   UNL     1       1.049   6.693   1.276  1.00  0.00     0.116 C 
ATOM     28  C   UNL     1      -0.376   5.218   2.715  1.00  0.00     0.126 C 
ATOM     29  C   UNL     1       1.672   7.284   2.545  1.00  0.00     0.022 C 
ATOM     30  C   UNL     1       0.334   5.716   3.997  1.00  0.00     0.064 C 
ATOM     31  C   UNL     1       0.749   7.169   3.753  1.00  0.00     0.013 C 
BRANCH  30  32
ATOM     32  C   UNL     1       1.482   4.770   4.453  1.00  0.00     0.267 C 
BRANCH  32  33
ATOM     33  N   UNL     1       1.992   4.835   5.832  1.00  0.00    -0.335 N 
ATOM     34  C   UNL     1       1.016   4.554   6.883  1.00  0.00     0.262 C 
ATOM     35  C   UNL     1       2.725   6.032   6.236  1.00  0.00     0.262 C 
ATOM     36  H   UNL     1       2.663   4.070   5.756  1.00  0.00     0.348 HD
ATOM     37  C   UNL     1       0.625   5.908   7.443  1.00  0.00     0.067 C 
ATOM     38  C   UNL     1       1.880   6.747   7.288  1.00  0.00     0.067 C 
ENDBRANCH  32  33
ENDBRANCH  30  32
ENDBRANCH  11  26
ENDBRANCH   6   8
ENDBRANCH   5   6
ENDBRANCH   4   5
ENDBRANCH   3   4
ENDBRANCH   2   3
ENDBRANCH   1   2
BRANCH   1  39
ATOM     39  C   UNL     1       4.732   1.582  -6.170  1.00  0.00     0.188 C 
BRANCH  39  40
ATOM     40  O   UNL     1       3.540   2.355  -6.243  1.00  0.00    -0.376 OA
BRANCH  40  41
ATOM     41  C   UNL     1       3.432   3.211  -7.370  1.00  0.00     0.202 C 
BRANCH  41  42
ATOM     42  C   UNL     1       4.349   4.441  -7.287  1.00  0.00     0.261 C 
BRANCH  42  43
ATOM     43  O   UNL     1       4.108   5.159  -6.055  1.00  0.00    -0.460 OA
BRANCH  43  44
ATOM     44  C   UNL     1       5.124   5.166  -5.139  1.00  0.00     0.338 C 
ATOM     45  O   UNL     1       6.297   5.376  -5.392  1.00  0.00    -0.246 OA
BRANCH  44  46
ATOM     46  C   UNL     1       4.634   4.567  -3.851  1.00  0.00     0.060 A 
ATOM     47  C   UNL     1       5.502   4.011  -2.909  1.00  0.00     0.016 A 
ATOM     48  C   UNL     1       3.342   4.132  -3.821  1.00  0.00     0.016 A 
ATOM     49  C   UNL     1       5.107   2.881  -2.116  1.00  0.00     0.010 A 
ATOM     50  C   UNL     1       3.142   2.850  -3.296  1.00  0.00     0.010 A 
ATOM     51  C   UNL     1       3.940   2.146  -2.365  1.00  0.00    -0.014 A 
BRANCH  51  52
ATOM     52  C   UNL     1       3.648   0.627  -1.856  1.00  0.00     0.031 A 
ATOM     53  C   UNL     1       2.351  -0.193  -1.334  1.00  0.00     0.074 A 
ATOM     54  C   UNL     1       4.701  -0.205  -2.033  1.00  0.00     0.049 A 
ATOM     55  N   UNL     1       2.189  -1.496  -1.435  1.00  0.00    -0.248 NA
ATOM     56  C   UNL     1       1.120   0.312  -0.704  1.00  0.00     0.031 C 
ATOM     57  C   UNL     1       4.765  -1.662  -2.034  1.00  0.00     0.029 A 
ATOM     58  N   UNL     1       6.032   0.169  -2.005  1.00  0.00    -0.354 N 
ATOM     59  C   UNL     1       0.896  -1.868  -1.097  1.00  0.00     0.074 A 
ATOM     60  C   UNL     1       0.203  -0.655  -0.829  1.00  0.00     0.031 C 
ATOM     61  C   UNL     1       5.987  -2.042  -1.647  1.00  0.00     0.029 A 
ATOM     62  C   UNL     1       6.736  -0.845  -1.352  1.00  0.00     0.049 A 
ATOM     63  H   UNL     1       6.413   0.997  -2.377  1.00  0.00     0.167 HD
ATOM     64  C   UNL     1       0.513  -3.109  -0.683  1.00  0.00     0.031 A 
ATOM     65  C   UNL     1       7.352  -0.550  -0.177  1.00  0.00     0.031 A 
ATOM     66  C   UNL     1       1.643  -3.763  -0.062  1.00  0.00     0.049 A 
ATOM     67  C   UNL     1       6.711  -1.246   1.004  1.00  0.00     0.074 A 
ATOM     68  C   UNL     1       2.612  -4.648  -0.480  1.00  0.00     0.029 A 
ATOM     69  N   UNL     1       2.084  -3.216   1.138  1.00  0.00    -0.354 N 
ATOM     70  N   UNL     1       5.562  -1.875   0.980  1.00  0.00    -0.248 NA
ATOM     71  C   UNL     1       7.344  -1.299   2.316  1.00  0.00     0.031 C 
ATOM     72  C   UNL     1       3.717  -4.501   0.411  1.00  0.00     0.029 A 
ATOM     73  C   UNL     1       3.387  -3.582   1.398  1.00  0.00     0.049 A 
ATOM     74  H   UNL     1       1.538  -2.644   1.725  1.00  0.00     0.167 HD
ATOM     75  C   UNL     1       5.281  -2.370   2.230  1.00  0.00     0.074 A 
ATOM     76  C   UNL     1       6.447  -2.011   3.017  1.00  0.00     0.031 C 
ATOM     77  C   UNL     1       4.113  -3.017   2.537  1.00  0.00     0.031 A 
BRANCH  64  78
ATOM     78  C   UNL     1      -0.923  -3.608  -0.606  1.00  0.00    -0.014 A 
ATOM     79  C   UNL     1      -1.226  -4.857  -0.026  1.00  0.00     0.009 A 
ATOM     80  C   UNL     1      -2.012  -2.938  -1.207  1.00  0.00     0.009 A 
ATOM     81  C   UNL     1      -2.538  -5.370   0.004  1.00  0.00     0.001 A 
ATOM     82  C   UNL     1      -3.330  -3.427  -1.145  1.00  0.00     0.001 A 
ATOM     83  C   UNL     1      -3.595  -4.645  -0.535  1.00  0.00     0.000 A 
ENDBRANCH  64  78
BRANCH  65  84
ATOM     84  C   UNL     1       8.043   0.781  -0.239  1.00  0.00    -0.014 A 
ATOM     85  C   UNL     1       8.938   0.945  -1.330  1.00  0.00     0.009 A 
ATOM     86  C   UNL     1       7.589   1.936   0.409  1.00  0.00     0.009 A 
ATOM     87  C   UNL     1       9.214   2.201  -1.871  1.00  0.00     0.001 A 
ATOM     88  C   UNL     1       7.924   3.208  -0.103  1.00  0.00     0.001 A 
ATOM     89  C   UNL     1       8.692   3.335  -1.265  1.00  0.00     0.000 A 
ENDBRANCH  65  84
BRANCH  77  90
ATOM     90  C   UNL     1       3.590  -3.213   3.955  1.00  0.00    -0.014 A 
ATOM     91  C   UNL     1       4.115  -2.561   5.083  1.00  0.00     0.009 A 
ATOM     92  C   UNL     1       2.441  -4.002   4.189  1.00  0.00     0.009 A 
ATOM     93  C   UNL     1       3.595  -2.752   6.371  1.00  0.00     0.001 A 
ATOM     94  C   UNL     1       1.873  -4.143   5.464  1.00  0.00     0.001 A 
ATOM     95  C   UNL     1       2.468  -3.538   6.561  1.00  0.00     0.000 A 
ENDBRANCH  77  90
ENDBRANCH  51  52
ENDBRANCH  44  46
ENDBRANCH  43  44
ENDBRANCH  42  43
ENDBRANCH  41  42
ENDBRANCH  40  41
ENDBRANCH  39  40
ENDBRANCH   1  39
TORSDOF 23
