REMARK SMILES CS(=O)(=O)c1ccc(/C=C(/C(=O)OCCOCCOCCOC(=O)c2ccc(-c3c4nc(c(-c5ccccc5)c5ccc([nH]5)c(-c5ccccc5)c5nc(c(-c6ccccc6)c6ccc3[nH]6)C=C5)C=C4)cc2)c2ccc(O)cc2)cc1
REMARK SMILES IDX 17 1 16 2 15 3 14 4 13 5 11 6 12 7 10 8 9 9 8 10 5 11 6 12
REMARK SMILES IDX 81 13 7 14 80 15 2 16 1 17 3 18 4 19 73 20 74 21 79 22 75 23
REMARK SMILES IDX 78 24 76 25 77 26 18 28 19 29 20 30 21 31 22 32 23 33 24 34
REMARK SMILES IDX 25 35 26 36 72 37 27 38 71 39 28 40 29 41 30 42 65 43 31 44
REMARK SMILES IDX 70 45 64 46 66 47 32 48 69 49 63 50 62 51 33 53 55 54 40 55
REMARK SMILES IDX 54 56 41 57 44 58 53 59 67 60 42 61 43 62 52 64 68 65 45 66
REMARK SMILES IDX 34 67 35 68 39 69 36 70 38 71 37 72 56 73 57 74 61 75 58 76
REMARK SMILES IDX 60 77 59 78 46 79 47 80 51 81 48 82 50 83 49 84
REMARK H PARENT 77 27 66 52 44 63
REMARK Flexibility Score: inf
ROOT
ATOM      1  C   UNL     1       1.188   6.787   7.949  1.00  0.00     0.188 C 
ENDROOT
BRANCH   1   2
ATOM      2  O   UNL     1       1.684   8.092   8.201  1.00  0.00    -0.376 OA
BRANCH   2   3
ATOM      3  C   UNL     1       3.036   8.327   7.836  1.00  0.00     0.202 C 
BRANCH   3   4
ATOM      4  C   UNL     1       3.276   8.461   6.328  1.00  0.00     0.261 C 
BRANCH   4   5
ATOM      5  O   UNL     1       2.819   7.349   5.539  1.00  0.00    -0.460 OA
BRANCH   5   6
ATOM      6  C   UNL     1       3.553   6.210   5.566  1.00  0.00     0.338 C 
ATOM      7  O   UNL     1       4.574   6.049   6.216  1.00  0.00    -0.246 OA
BRANCH   6   8
ATOM      8  C   UNL     1       2.879   5.128   4.766  1.00  0.00     0.067 C 
ATOM      9  C   UNL     1       2.147   5.464   3.674  1.00  0.00     0.024 C 
BRANCH   9  10
ATOM     10  C   UNL     1       1.488   4.579   2.684  1.00  0.00    -0.025 A 
ATOM     11  C   UNL     1       0.549   2.867   0.662  1.00  0.00     0.067 A 
ATOM     12  C   UNL     1       0.414   2.497   1.999  1.00  0.00     0.021 A 
ATOM     13  C   UNL     1       1.051   4.125   0.328  1.00  0.00     0.021 A 
ATOM     14  C   UNL     1       0.860   3.366   3.002  1.00  0.00     0.009 A 
ATOM     15  C   UNL     1       1.513   4.975   1.338  1.00  0.00     0.009 A 
BRANCH  11  16
ATOM     16  S   UNL     1       0.145   1.712  -0.626  1.00  0.00     0.175 S 
ATOM     17  C   UNL     1       0.966   0.207  -0.163  1.00  0.00     0.163 C 
ATOM     18  O   UNL     1       0.786   2.182  -1.842  1.00  0.00    -0.224 OA
ATOM     19  O   UNL     1      -1.285   1.494  -0.568  1.00  0.00    -0.224 OA
ENDBRANCH  11  16
ENDBRANCH   9  10
BRANCH   8  20
ATOM     20  C   UNL     1       3.045   3.728   5.207  1.00  0.00    -0.011 A 
ATOM     21  C   UNL     1       2.327   3.270   6.324  1.00  0.00     0.013 A 
ATOM     22  C   UNL     1       3.802   2.814   4.460  1.00  0.00     0.013 A 
ATOM     23  C   UNL     1       2.330   1.917   6.659  1.00  0.00     0.047 A 
ATOM     24  C   UNL     1       3.802   1.457   4.797  1.00  0.00     0.047 A 
ATOM     25  C   UNL     1       3.054   1.020   5.886  1.00  0.00     0.115 A 
BRANCH  25  26
ATOM     26  O   UNL     1       2.985  -0.298   6.222  1.00  0.00    -0.508 OA
ATOM     27  H   UNL     1       2.474  -0.567   6.960  1.00  0.00     0.293 HD
ENDBRANCH  25  26
ENDBRANCH   8  20
ENDBRANCH   6   8
ENDBRANCH   5   6
ENDBRANCH   4   5
ENDBRANCH   3   4
ENDBRANCH   2   3
ENDBRANCH   1   2
BRANCH   1  28
ATOM     28  C   UNL     1       0.133   6.727   6.827  1.00  0.00     0.188 C 
BRANCH  28  29
ATOM     29  O   UNL     1      -0.621   7.878   6.469  1.00  0.00    -0.376 OA
BRANCH  29  30
ATOM     30  C   UNL     1      -0.971   8.826   7.464  1.00  0.00     0.202 C 
BRANCH  30  31
ATOM     31  C   UNL     1      -1.927   8.381   8.576  1.00  0.00     0.261 C 
BRANCH  31  32
ATOM     32  O   UNL     1      -1.594   7.123   9.184  1.00  0.00    -0.460 OA
BRANCH  32  33
ATOM     33  C   UNL     1      -2.397   6.089   8.833  1.00  0.00     0.338 C 
ATOM     34  O   UNL     1      -3.369   6.119   8.101  1.00  0.00    -0.246 OA
BRANCH  33  35
ATOM     35  C   UNL     1      -1.841   4.822   9.354  1.00  0.00     0.060 A 
ATOM     36  C   UNL     1      -1.653   3.770   8.448  1.00  0.00     0.016 A 
ATOM     37  C   UNL     1      -1.585   4.639  10.714  1.00  0.00     0.016 A 
ATOM     38  C   UNL     1      -1.242   2.518   8.904  1.00  0.00     0.010 A 
ATOM     39  C   UNL     1      -1.198   3.376  11.175  1.00  0.00     0.010 A 
ATOM     40  C   UNL     1      -1.058   2.303  10.276  1.00  0.00    -0.014 A 
BRANCH  40  41
ATOM     41  C   UNL     1      -0.908   0.917  10.778  1.00  0.00     0.031 A 
ATOM     42  C   UNL     1      -2.146   0.152  11.161  1.00  0.00     0.074 A 
ATOM     43  C   UNL     1       0.298   0.331  10.865  1.00  0.00     0.049 A 
ATOM     44  N   UNL     1      -2.259  -1.072  11.611  1.00  0.00    -0.248 NA
ATOM     45  C   UNL     1      -3.427   0.862  11.013  1.00  0.00     0.031 C 
ATOM     46  C   UNL     1       1.568   0.946  10.487  1.00  0.00     0.029 A 
ATOM     47  N   UNL     1       0.644  -0.924  11.298  1.00  0.00    -0.354 N 
ATOM     48  C   UNL     1      -3.619  -1.278  11.799  1.00  0.00     0.074 A 
ATOM     49  C   UNL     1      -4.290  -0.049  11.437  1.00  0.00     0.031 C 
ATOM     50  C   UNL     1       2.559   0.061  10.698  1.00  0.00     0.029 A 
ATOM     51  C   UNL     1       1.996  -1.166  11.259  1.00  0.00     0.049 A 
ATOM     52  H   UNL     1      -0.013  -1.589  11.606  1.00  0.00     0.167 HD
ATOM     53  C   UNL     1      -4.257  -2.391  12.234  1.00  0.00     0.031 A 
ATOM     54  C   UNL     1       2.697  -2.248  11.650  1.00  0.00     0.031 A 
ATOM     55  C   UNL     1      -3.596  -3.605  12.627  1.00  0.00     0.049 A 
ATOM     56  C   UNL     1       1.970  -3.441  12.214  1.00  0.00     0.074 A 
ATOM     57  C   UNL     1      -4.158  -4.784  13.085  1.00  0.00     0.029 A 
ATOM     58  N   UNL     1      -2.223  -3.790  12.623  1.00  0.00    -0.354 N 
ATOM     59  N   UNL     1       0.682  -3.635  12.358  1.00  0.00    -0.248 NA
ATOM     60  C   UNL     1       2.801  -4.568  12.665  1.00  0.00     0.031 C 
ATOM     61  C   UNL     1      -3.121  -5.665  13.407  1.00  0.00     0.029 A 
ATOM     62  C   UNL     1      -1.917  -5.054  13.096  1.00  0.00     0.049 A 
ATOM     63  H   UNL     1      -1.563  -3.122  12.327  1.00  0.00     0.167 HD
ATOM     64  C   UNL     1       0.547  -4.913  12.889  1.00  0.00     0.074 A 
ATOM     65  C   UNL     1       1.883  -5.453  13.030  1.00  0.00     0.031 C 
ATOM     66  C   UNL     1      -0.583  -5.581  13.227  1.00  0.00     0.031 A 
BRANCH  53  67
ATOM     67  C   UNL     1      -5.753  -2.323  12.345  1.00  0.00    -0.014 A 
ATOM     68  C   UNL     1      -6.568  -2.334  11.202  1.00  0.00     0.009 A 
ATOM     69  C   UNL     1      -6.355  -2.266  13.611  1.00  0.00     0.009 A 
ATOM     70  C   UNL     1      -7.957  -2.257  11.325  1.00  0.00     0.001 A 
ATOM     71  C   UNL     1      -7.744  -2.214  13.732  1.00  0.00     0.001 A 
ATOM     72  C   UNL     1      -8.543  -2.201  12.589  1.00  0.00     0.000 A 
ENDBRANCH  53  67
BRANCH  54  73
ATOM     73  C   UNL     1       4.179  -2.255  11.547  1.00  0.00    -0.014 A 
ATOM     74  C   UNL     1       4.830  -3.091  10.627  1.00  0.00     0.009 A 
ATOM     75  C   UNL     1       4.954  -1.450  12.398  1.00  0.00     0.009 A 
ATOM     76  C   UNL     1       6.225  -3.140  10.579  1.00  0.00     0.001 A 
ATOM     77  C   UNL     1       6.348  -1.481  12.329  1.00  0.00     0.001 A 
ATOM     78  C   UNL     1       6.982  -2.333  11.427  1.00  0.00     0.000 A 
ENDBRANCH  54  73
BRANCH  66  79
ATOM     79  C   UNL     1      -0.431  -6.984  13.744  1.00  0.00    -0.014 A 
ATOM     80  C   UNL     1       0.059  -7.239  15.034  1.00  0.00     0.009 A 
ATOM     81  C   UNL     1      -0.834  -8.065  12.943  1.00  0.00     0.009 A 
ATOM     82  C   UNL     1       0.169  -8.551  15.500  1.00  0.00     0.001 A 
ATOM     83  C   UNL     1      -0.748  -9.373  13.422  1.00  0.00     0.001 A 
ATOM     84  C   UNL     1      -0.238  -9.615  14.696  1.00  0.00     0.000 A 
ENDBRANCH  66  79
ENDBRANCH  40  41
ENDBRANCH  33  35
ENDBRANCH  32  33
ENDBRANCH  31  32
ENDBRANCH  30  31
ENDBRANCH  29  30
ENDBRANCH  28  29
ENDBRANCH   1  28
TORSDOF 21
