REMARK SMILES C#CCN(CC(=O)OCCOCCOCCOC(=O)c1ccc(-c2c3nc(c(-c4ccccc4)c4ccc([nH]4)c(-c4ccccc4)c4nc(c(-c5ccccc5)c5ccc2[nH]5)C=C4)C=C3)cc1)C(=O)Cc1csc(-c2ccsc2)n1
REMARK SMILES IDX 11 1 10 2 9 3 8 4 6 5 7 6 5 7 4 8 3 9 2 10 1 11 68 12 69 13
REMARK SMILES IDX 70 14 71 15 72 16 80 17 73 18 74 19 75 20 76 21 79 22 77 23
REMARK SMILES IDX 78 24 12 25 13 26 14 27 15 28 16 29 17 30 18 31 19 32 20 33
REMARK SMILES IDX 21 34 67 35 22 36 66 37 23 38 24 39 25 40 60 41 26 42 65 43
REMARK SMILES IDX 59 44 61 45 27 46 64 47 58 48 57 49 28 51 50 52 35 53 49 54
REMARK SMILES IDX 36 55 39 56 48 57 62 58 37 59 38 60 47 62 63 63 40 64 29 65
REMARK SMILES IDX 30 66 34 67 31 68 33 69 32 70 51 71 52 72 56 73 53 74 55 75
REMARK SMILES IDX 54 76 41 77 42 78 46 79 43 80 45 81 44 82
REMARK H PARENT 61 50 39 61
REMARK Flexibility Score: inf
ROOT
ATOM      1  O   UNL     1      -6.752  -1.449   3.294  1.00  0.00    -0.376 OA
ENDROOT
BRANCH   1   2
ATOM      2  C   UNL     1      -7.113  -1.049   1.981  1.00  0.00     0.202 C 
BRANCH   2   3
ATOM      3  C   UNL     1      -6.524   0.288   1.523  1.00  0.00     0.261 C 
BRANCH   3   4
ATOM      4  O   UNL     1      -5.079   0.282   1.452  1.00  0.00    -0.462 OA
BRANCH   4   5
ATOM      5  C   UNL     1      -4.463   1.437   1.825  1.00  0.00     0.325 C 
ATOM      6  O   UNL     1      -5.053   2.427   2.248  1.00  0.00    -0.250 OA
BRANCH   5   7
ATOM      7  C   UNL     1      -2.940   1.444   1.606  1.00  0.00     0.243 C 
BRANCH   7   8
ATOM      8  N   UNL     1      -2.282   0.174   1.297  1.00  0.00    -0.320 N 
BRANCH   8   9
ATOM      9  C   UNL     1      -1.863  -0.043  -0.082  1.00  0.00     0.210 C 
BRANCH   9  10
ATOM     10  C   UNL     1      -0.343  -0.043  -0.082  1.00  0.00    -0.085 C 
ATOM     11  C   UNL     1       0.961  -0.043  -0.082  1.00  0.00     0.006 C 
ENDBRANCH   9  10
ENDBRANCH   8   9
BRANCH   8  12
ATOM     12  C   UNL     1      -1.932  -0.840   2.150  1.00  0.00     0.229 C 
ATOM     13  O   UNL     1      -1.829  -1.992   1.689  1.00  0.00    -0.274 OA
BRANCH  12  14
ATOM     14  C   UNL     1      -1.510  -0.707   3.583  1.00  0.00     0.157 C 
BRANCH  14  15
ATOM     15  C   UNL     1      -1.609   0.480   4.463  1.00  0.00     0.061 A 
ATOM     16  C   UNL     1      -2.702   1.225   4.862  1.00  0.00     0.091 A 
ATOM     17  N   UNL     1      -0.472   0.731   5.218  1.00  0.00    -0.241 NA
ATOM     18  S   UNL     1      -2.228   2.394   6.036  1.00  0.00    -0.122 S 
ATOM     19  C   UNL     1      -0.678   1.669   6.115  1.00  0.00     0.124 A 
BRANCH  19  20
ATOM     20  C   UNL     1       0.377   1.970   7.137  1.00  0.00     0.021 A 
ATOM     21  C   UNL     1       1.496   1.111   7.377  1.00  0.00     0.023 A 
ATOM     22  C   UNL     1       0.379   3.059   7.979  1.00  0.00     0.076 A 
ATOM     23  C   UNL     1       2.288   1.560   8.410  1.00  0.00     0.065 A 
ATOM     24  S   UNL     1       1.750   3.066   9.009  1.00  0.00    -0.152 S 
ENDBRANCH  19  20
ENDBRANCH  14  15
ENDBRANCH  12  14
ENDBRANCH   8  12
ENDBRANCH   7   8
ENDBRANCH   5   7
ENDBRANCH   4   5
ENDBRANCH   3   4
ENDBRANCH   2   3
ENDBRANCH   1   2
BRANCH   1  25
ATOM     25  C   UNL     1      -5.429  -1.925   3.502  1.00  0.00     0.188 C 
BRANCH  25  26
ATOM     26  C   UNL     1      -4.721  -2.712   2.384  1.00  0.00     0.188 C 
BRANCH  26  27
ATOM     27  O   UNL     1      -5.454  -3.709   1.691  1.00  0.00    -0.376 OA
BRANCH  27  28
ATOM     28  C   UNL     1      -5.921  -4.833   2.423  1.00  0.00     0.202 C 
BRANCH  28  29
ATOM     29  C   UNL     1      -4.900  -5.543   3.314  1.00  0.00     0.261 C 
BRANCH  29  30
ATOM     30  O   UNL     1      -4.576  -4.757   4.477  1.00  0.00    -0.460 OA
BRANCH  30  31
ATOM     31  C   UNL     1      -3.620  -5.314   5.249  1.00  0.00     0.338 C 
ATOM     32  O   UNL     1      -3.102  -6.418   5.074  1.00  0.00    -0.246 OA
BRANCH  31  33
ATOM     33  C   UNL     1      -3.212  -4.428   6.358  1.00  0.00     0.060 A 
ATOM     34  C   UNL     1      -2.916  -3.086   6.130  1.00  0.00     0.016 A 
ATOM     35  C   UNL     1      -2.930  -4.988   7.602  1.00  0.00     0.016 A 
ATOM     36  C   UNL     1      -2.206  -2.344   7.082  1.00  0.00     0.010 A 
ATOM     37  C   UNL     1      -2.302  -4.220   8.589  1.00  0.00     0.010 A 
ATOM     38  C   UNL     1      -1.864  -2.912   8.316  1.00  0.00    -0.014 A 
BRANCH  38  39
ATOM     39  C   UNL     1      -0.936  -2.222   9.264  1.00  0.00     0.031 A 
ATOM     40  C   UNL     1       0.376  -2.884   9.619  1.00  0.00     0.074 A 
ATOM     41  C   UNL     1      -1.214  -1.011   9.787  1.00  0.00     0.049 A 
ATOM     42  N   UNL     1       1.228  -2.590  10.570  1.00  0.00    -0.248 NA
ATOM     43  C   UNL     1       0.774  -4.042   8.800  1.00  0.00     0.031 C 
ATOM     44  C   UNL     1      -2.375  -0.187   9.459  1.00  0.00     0.029 A 
ATOM     45  N   UNL     1      -0.513  -0.247  10.691  1.00  0.00    -0.354 N 
ATOM     46  C   UNL     1       2.200  -3.583  10.528  1.00  0.00     0.074 A 
ATOM     47  C   UNL     1       1.859  -4.465   9.433  1.00  0.00     0.031 C 
ATOM     48  C   UNL     1      -2.265   0.996  10.086  1.00  0.00     0.029 A 
ATOM     49  C   UNL     1      -1.080   0.981  10.939  1.00  0.00     0.049 A 
ATOM     50  H   UNL     1       0.319  -0.552  11.122  1.00  0.00     0.167 HD
ATOM     51  C   UNL     1       3.264  -3.764  11.347  1.00  0.00     0.031 A 
ATOM     52  C   UNL     1      -0.697   1.973  11.769  1.00  0.00     0.031 A 
ATOM     53  C   UNL     1       3.640  -2.855  12.395  1.00  0.00     0.049 A 
ATOM     54  C   UNL     1       0.504   1.761  12.656  1.00  0.00     0.074 A 
ATOM     55  C   UNL     1       4.660  -2.975  13.323  1.00  0.00     0.029 A 
ATOM     56  N   UNL     1       3.026  -1.635  12.630  1.00  0.00    -0.354 N 
ATOM     57  N   UNL     1       1.343   0.754  12.694  1.00  0.00    -0.248 NA
ATOM     58  C   UNL     1       0.789   2.817  13.641  1.00  0.00     0.031 C 
ATOM     59  C   UNL     1       4.646  -1.837  14.137  1.00  0.00     0.029 A 
ATOM     60  C   UNL     1       3.644  -0.992  13.687  1.00  0.00     0.049 A 
ATOM     61  H   UNL     1       2.263  -1.279  12.120  1.00  0.00     0.167 HD
ATOM     62  C   UNL     1       2.250   1.055  13.703  1.00  0.00     0.074 A 
ATOM     63  C   UNL     1       1.889   2.358  14.220  1.00  0.00     0.031 C 
ATOM     64  C   UNL     1       3.275   0.307  14.181  1.00  0.00     0.031 A 
BRANCH  51  65
ATOM     65  C   UNL     1       4.038  -5.042  11.198  1.00  0.00    -0.014 A 
ATOM     66  C   UNL     1       4.947  -5.248  10.151  1.00  0.00     0.009 A 
ATOM     67  C   UNL     1       3.849  -6.063  12.146  1.00  0.00     0.009 A 
ATOM     68  C   UNL     1       5.625  -6.465  10.037  1.00  0.00     0.001 A 
ATOM     69  C   UNL     1       4.546  -7.267  12.043  1.00  0.00     0.001 A 
ATOM     70  C   UNL     1       5.426  -7.471  10.983  1.00  0.00     0.000 A 
ENDBRANCH  51  65
BRANCH  52  71
ATOM     71  C   UNL     1      -1.446   3.262  11.812  1.00  0.00    -0.014 A 
ATOM     72  C   UNL     1      -0.817   4.456  11.421  1.00  0.00     0.009 A 
ATOM     73  C   UNL     1      -2.777   3.325  12.250  1.00  0.00     0.009 A 
ATOM     74  C   UNL     1      -1.498   5.675  11.456  1.00  0.00     0.001 A 
ATOM     75  C   UNL     1      -3.467   4.541  12.262  1.00  0.00     0.001 A 
ATOM     76  C   UNL     1      -2.826   5.715  11.868  1.00  0.00     0.000 A 
ENDBRANCH  52  71
BRANCH  64  77
ATOM     77  C   UNL     1       4.077   0.883  15.313  1.00  0.00    -0.014 A 
ATOM     78  C   UNL     1       3.548   0.943  16.612  1.00  0.00     0.009 A 
ATOM     79  C   UNL     1       5.388   1.329  15.090  1.00  0.00     0.009 A 
ATOM     80  C   UNL     1       4.306   1.470  17.660  1.00  0.00     0.001 A 
ATOM     81  C   UNL     1       6.152   1.833  16.144  1.00  0.00     0.001 A 
ATOM     82  C   UNL     1       5.608   1.911  17.426  1.00  0.00     0.000 A 
ENDBRANCH  64  77
ENDBRANCH  38  39
ENDBRANCH  31  33
ENDBRANCH  30  31
ENDBRANCH  29  30
ENDBRANCH  28  29
ENDBRANCH  27  28
ENDBRANCH  26  27
ENDBRANCH  25  26
ENDBRANCH   1  25
TORSDOF 24
