REMARK SMILES O=C(CC1(CC(=O)OCCOCCOCCOC(=O)c2ccc(-c3c4nc(c(-c5ccccc5)c5ccc([nH]5)c(-c5ccccc5)c5nc(c(-c6ccccc6)c6ccc3[nH]6)C=C5)C=C4)cc2)CCCC1)N[C@H]1CO[C@H]2[C@@H]1OC[C@@H]2n1nnnc1-c1ccccc1
REMARK SMILES IDX 10 1 9 2 8 3 6 4 7 5 5 6 4 7 68 8 71 9 69 10 70 11 3 12 2 13
REMARK SMILES IDX 1 14 72 15 73 17 74 18 77 19 75 20 76 21 78 22 80 23 79 24
REMARK SMILES IDX 81 25 82 26 85 27 83 28 84 29 86 30 87 31 91 32 88 33 90 34
REMARK SMILES IDX 89 35 11 36 12 37 13 38 14 39 15 40 16 41 17 42 18 43 19 44
REMARK SMILES IDX 20 45 21 46 67 47 22 48 66 49 23 50 24 51 25 52 60 53 26 54
REMARK SMILES IDX 65 55 59 56 61 57 27 58 64 59 58 60 57 61 28 63 50 64 35 65
REMARK SMILES IDX 49 66 36 67 39 68 48 69 62 70 37 71 38 72 47 74 63 75 40 76
REMARK SMILES IDX 29 77 30 78 34 79 31 80 33 81 32 82 51 83 52 84 56 85 53 86
REMARK SMILES IDX 55 87 54 88 41 89 42 90 46 91 43 92 45 93 44 94
REMARK H PARENT 72 16 61 62 39 73
REMARK Flexibility Score: inf
ROOT
ATOM      1  C   UNL     1       3.728   6.450  -2.063  1.00  0.00     0.202 C 
ENDROOT
BRANCH   1   2
ATOM      2  C   UNL     1       3.117   6.266  -3.457  1.00  0.00     0.261 C 
BRANCH   2   3
ATOM      3  O   UNL     1       3.449   4.982  -4.038  1.00  0.00    -0.463 OA
BRANCH   3   4
ATOM      4  C   UNL     1       3.679   5.013  -5.378  1.00  0.00     0.306 C 
ATOM      5  O   UNL     1       3.550   6.010  -6.080  1.00  0.00    -0.252 OA
BRANCH   4   6
ATOM      6  C   UNL     1       4.264   3.725  -5.920  1.00  0.00     0.130 C 
BRANCH   6   7
ATOM      7  C   UNL     1       3.509   2.381  -5.699  1.00  0.00    -0.011 C 
ATOM      8  C   UNL     1       3.717   1.504  -6.962  1.00  0.00     0.008 C 
ATOM      9  C   UNL     1       1.978   2.517  -5.721  1.00  0.00     0.008 C 
ATOM     10  C   UNL     1       2.722   2.035  -7.992  1.00  0.00     0.001 C 
ATOM     11  C   UNL     1       1.596   2.676  -7.189  1.00  0.00     0.001 C 
BRANCH   7  12
ATOM     12  C   UNL     1       4.085   1.650  -4.461  1.00  0.00     0.107 C 
BRANCH  12  13
ATOM     13  C   UNL     1       3.081   0.927  -3.581  1.00  0.00     0.220 C 
ATOM     14  O   UNL     1       2.693  -0.210  -3.837  1.00  0.00    -0.275 OA
ATOM     15  N   UNL     1       2.603   1.670  -2.520  1.00  0.00    -0.348 N 
ATOM     16  H   UNL     1       2.837   2.623  -2.443  1.00  0.00     0.163 HD
BRANCH  15  17
ATOM     17  C   UNL     1       1.750   1.044  -1.510  1.00  0.00     0.139 C 
ATOM     18  C   UNL     1       1.436   1.954  -0.327  1.00  0.00     0.188 C 
ATOM     19  C   UNL     1       0.341   0.782  -2.010  1.00  0.00     0.174 C 
ATOM     20  O   UNL     1       0.371   2.818  -0.745  1.00  0.00    -0.371 OA
ATOM     21  C   UNL     1      -0.419   2.067  -1.694  1.00  0.00     0.176 C 
ATOM     22  O   UNL     1      -0.278  -0.252  -1.228  1.00  0.00    -0.371 OA
ATOM     23  C   UNL     1      -1.716   1.629  -1.024  1.00  0.00     0.169 C 
ATOM     24  C   UNL     1      -1.656   0.106  -1.108  1.00  0.00     0.191 C 
BRANCH  23  25
ATOM     25  N   UNL     1      -2.995   2.124  -1.467  1.00  0.00    -0.217 N 
ATOM     26  N   UNL     1      -4.081   1.638  -0.821  1.00  0.00    -0.044 NA
ATOM     27  C   UNL     1      -3.406   3.082  -2.365  1.00  0.00     0.182 A 
ATOM     28  N   UNL     1      -5.120   2.275  -1.327  1.00  0.00    -0.023 NA
ATOM     29  N   UNL     1      -4.721   3.174  -2.273  1.00  0.00    -0.108 NA
BRANCH  27  30
ATOM     30  C   UNL     1      -2.597   3.911  -3.241  1.00  0.00     0.021 A 
ATOM     31  C   UNL     1      -2.451   5.276  -2.959  1.00  0.00     0.012 A 
ATOM     32  C   UNL     1      -2.005   3.384  -4.395  1.00  0.00     0.012 A 
ATOM     33  C   UNL     1      -1.667   6.088  -3.780  1.00  0.00     0.001 A 
ATOM     34  C   UNL     1      -1.218   4.200  -5.210  1.00  0.00     0.001 A 
ATOM     35  C   UNL     1      -1.035   5.545  -4.895  1.00  0.00     0.000 A 
ENDBRANCH  27  30
ENDBRANCH  23  25
ENDBRANCH  15  17
ENDBRANCH  12  13
ENDBRANCH   7  12
ENDBRANCH   6   7
ENDBRANCH   4   6
ENDBRANCH   3   4
ENDBRANCH   2   3
ENDBRANCH   1   2
BRANCH   1  36
ATOM     36  O   UNL     1       5.150   6.590  -1.966  1.00  0.00    -0.376 OA
BRANCH  36  37
ATOM     37  C   UNL     1       5.951   5.679  -2.705  1.00  0.00     0.188 C 
BRANCH  37  38
ATOM     38  C   UNL     1       6.007   4.236  -2.189  1.00  0.00     0.188 C 
BRANCH  38  39
ATOM     39  O   UNL     1       4.771   3.711  -1.692  1.00  0.00    -0.376 OA
BRANCH  39  40
ATOM     40  C   UNL     1       4.692   3.759  -0.257  1.00  0.00     0.202 C 
BRANCH  40  41
ATOM     41  C   UNL     1       4.913   2.380   0.367  1.00  0.00     0.261 C 
BRANCH  41  42
ATOM     42  O   UNL     1       6.235   1.934   0.069  1.00  0.00    -0.460 OA
BRANCH  42  43
ATOM     43  C   UNL     1       6.325   1.114  -1.005  1.00  0.00     0.338 C 
ATOM     44  O   UNL     1       5.426   0.512  -1.565  1.00  0.00    -0.246 OA
BRANCH  43  45
ATOM     45  C   UNL     1       7.684   1.250  -1.548  1.00  0.00     0.060 A 
ATOM     46  C   UNL     1       7.849   1.169  -2.937  1.00  0.00     0.016 A 
ATOM     47  C   UNL     1       8.765   1.537  -0.709  1.00  0.00     0.016 A 
ATOM     48  C   UNL     1       9.108   1.355  -3.492  1.00  0.00     0.010 A 
ATOM     49  C   UNL     1      10.021   1.730  -1.263  1.00  0.00     0.010 A 
ATOM     50  C   UNL     1      10.197   1.606  -2.650  1.00  0.00    -0.014 A 
BRANCH  50  51
ATOM     51  C   UNL     1      11.568   1.543  -3.180  1.00  0.00     0.031 A 
ATOM     52  C   UNL     1      12.344   0.282  -2.949  1.00  0.00     0.074 A 
ATOM     53  C   UNL     1      12.099   2.595  -3.822  1.00  0.00     0.049 A 
ATOM     54  N   UNL     1      13.595   0.021  -3.215  1.00  0.00    -0.248 NA
ATOM     55  C   UNL     1      11.612  -0.831  -2.317  1.00  0.00     0.031 C 
ATOM     56  C   UNL     1      11.403   3.845  -4.125  1.00  0.00     0.029 A 
ATOM     57  N   UNL     1      13.359   2.776  -4.324  1.00  0.00    -0.354 N 
ATOM     58  C   UNL     1      13.803  -1.278  -2.768  1.00  0.00     0.074 A 
ATOM     59  C   UNL     1      12.564  -1.739  -2.185  1.00  0.00     0.031 C 
ATOM     60  C   UNL     1      12.254   4.671  -4.759  1.00  0.00     0.029 A 
ATOM     61  C   UNL     1      13.558   4.022  -4.862  1.00  0.00     0.049 A 
ATOM     62  H   UNL     1      14.055   2.080  -4.300  1.00  0.00     0.167 HD
ATOM     63  C   UNL     1      14.932  -2.018  -2.844  1.00  0.00     0.031 A 
ATOM     64  C   UNL     1      14.681   4.575  -5.355  1.00  0.00     0.031 A 
ATOM     65  C   UNL     1      16.158  -1.533  -3.413  1.00  0.00     0.049 A 
ATOM     66  C   UNL     1      15.944   3.755  -5.362  1.00  0.00     0.074 A 
ATOM     67  C   UNL     1      17.365  -2.192  -3.553  1.00  0.00     0.029 A 
ATOM     68  N   UNL     1      16.330  -0.257  -3.932  1.00  0.00    -0.354 N 
ATOM     69  N   UNL     1      16.132   2.521  -4.955  1.00  0.00    -0.248 NA
ATOM     70  C   UNL     1      17.146   4.402  -5.902  1.00  0.00     0.031 C 
ATOM     71  C   UNL     1      18.285  -1.294  -4.104  1.00  0.00     0.029 A 
ATOM     72  C   UNL     1      17.631  -0.099  -4.370  1.00  0.00     0.049 A 
ATOM     73  H   UNL     1      15.629   0.432  -3.980  1.00  0.00     0.167 HD
ATOM     74  C   UNL     1      17.465   2.233  -5.219  1.00  0.00     0.074 A 
ATOM     75  C   UNL     1      18.032   3.417  -5.834  1.00  0.00     0.031 C 
ATOM     76  C   UNL     1      18.162   1.094  -4.979  1.00  0.00     0.031 A 
BRANCH  63  77
ATOM     77  C   UNL     1      14.891  -3.400  -2.257  1.00  0.00    -0.014 A 
ATOM     78  C   UNL     1      14.133  -4.426  -2.847  1.00  0.00     0.009 A 
ATOM     79  C   UNL     1      15.626  -3.683  -1.096  1.00  0.00     0.009 A 
ATOM     80  C   UNL     1      14.084  -5.694  -2.264  1.00  0.00     0.001 A 
ATOM     81  C   UNL     1      15.600  -4.960  -0.533  1.00  0.00     0.001 A 
ATOM     82  C   UNL     1      14.822  -5.961  -1.111  1.00  0.00     0.000 A 
ENDBRANCH  63  77
BRANCH  64  83
ATOM     83  C   UNL     1      14.667   5.972  -5.861  1.00  0.00    -0.014 A 
ATOM     84  C   UNL     1      14.842   6.240  -7.227  1.00  0.00     0.009 A 
ATOM     85  C   UNL     1      14.486   7.049  -4.979  1.00  0.00     0.009 A 
ATOM     86  C   UNL     1      14.863   7.556  -7.694  1.00  0.00     0.001 A 
ATOM     87  C   UNL     1      14.475   8.362  -5.452  1.00  0.00     0.001 A 
ATOM     88  C   UNL     1      14.674   8.616  -6.808  1.00  0.00     0.000 A 
ENDBRANCH  64  83
BRANCH  76  89
ATOM     89  C   UNL     1      19.596   1.062  -5.426  1.00  0.00    -0.014 A 
ATOM     90  C   UNL     1      20.587   1.801  -4.763  1.00  0.00     0.009 A 
ATOM     91  C   UNL     1      19.965   0.238  -6.501  1.00  0.00     0.009 A 
ATOM     92  C   UNL     1      21.914   1.742  -5.192  1.00  0.00     0.001 A 
ATOM     93  C   UNL     1      21.296   0.154  -6.905  1.00  0.00     0.001 A 
ATOM     94  C   UNL     1      22.268   0.914  -6.258  1.00  0.00     0.000 A 
ENDBRANCH  76  89
ENDBRANCH  50  51
ENDBRANCH  43  45
ENDBRANCH  42  43
ENDBRANCH  41  42
ENDBRANCH  40  41
ENDBRANCH  39  40
ENDBRANCH  38  39
ENDBRANCH  37  38
ENDBRANCH  36  37
ENDBRANCH   1  36
TORSDOF 23
