REMARK SMILES O=C(OCCOCCOCCOC(=O)c1ccc([C@@H]2CC(O)=Nc3c2ncn3-c2cccc(Cl)c2)cc1)c1ccc(-c2c3nc(c(-c4ccccc4)c4ccc([nH]4)c(-c4ccccc4)c4nc(c(-c5ccccc5)c5ccc2[nH]5)C=C4)C=C3)cc1
REMARK SMILES IDX 7 1 6 2 5 3 4 4 3 5 2 6 1 7 38 8 39 9 85 10 40 11 84 12
REMARK SMILES IDX 41 13 42 14 43 15 78 16 44 17 83 18 77 19 79 20 45 21 82 22
REMARK SMILES IDX 76 23 75 24 46 26 68 27 53 28 67 29 54 30 57 31 66 32 80 33
REMARK SMILES IDX 55 34 56 35 65 37 81 38 58 39 47 40 48 41 52 42 49 43 51 44
REMARK SMILES IDX 50 45 69 46 70 47 74 48 71 49 73 50 72 51 59 52 60 53 64 54
REMARK SMILES IDX 61 55 63 56 62 57 8 58 9 59 10 60 11 61 12 62 13 63 14 64
REMARK SMILES IDX 15 65 16 66 37 67 17 68 36 69 18 70 19 71 20 72 25 73 21 74
REMARK SMILES IDX 24 75 26 76 23 77 28 78 27 79 22 80 29 82 30 83 35 84 31 85
REMARK SMILES IDX 33 86 32 87 34 88
REMARK H PARENT 79 25 57 36 22 81
REMARK Flexibility Score: inf
ROOT
ATOM      1  C   UNL     1       3.528  -0.801  -1.469  1.00  0.00     0.188 C 
ENDROOT
BRANCH   1   2
ATOM      2  O   UNL     1       4.861  -1.052  -1.058  1.00  0.00    -0.376 OA
BRANCH   2   3
ATOM      3  C   UNL     1       5.380  -0.251  -0.015  1.00  0.00     0.202 C 
BRANCH   3   4
ATOM      4  C   UNL     1       4.761  -0.443   1.374  1.00  0.00     0.261 C 
BRANCH   4   5
ATOM      5  O   UNL     1       3.347  -0.699   1.403  1.00  0.00    -0.460 OA
BRANCH   5   6
ATOM      6  C   UNL     1       2.281   0.111   1.516  1.00  0.00     0.338 C 
ATOM      7  O   UNL     1       1.214  -0.362   1.902  1.00  0.00    -0.246 OA
BRANCH   6   8
ATOM      8  C   UNL     1       2.269   1.523   1.048  1.00  0.00     0.060 A 
ATOM      9  C   UNL     1       3.377   2.366   0.964  1.00  0.00     0.016 A 
ATOM     10  C   UNL     1       0.997   2.042   0.730  1.00  0.00     0.016 A 
ATOM     11  C   UNL     1       3.208   3.718   0.685  1.00  0.00     0.010 A 
ATOM     12  C   UNL     1       0.821   3.391   0.456  1.00  0.00     0.010 A 
ATOM     13  C   UNL     1       1.925   4.235   0.508  1.00  0.00    -0.014 A 
BRANCH  13  14
ATOM     14  C   UNL     1       1.776   5.683   0.506  1.00  0.00     0.031 A 
ATOM     15  C   UNL     1       2.254   6.429  -0.684  1.00  0.00     0.074 A 
ATOM     16  C   UNL     1       1.173   6.323   1.528  1.00  0.00     0.049 A 
ATOM     17  N   UNL     1       3.156   7.355  -0.732  1.00  0.00    -0.248 NA
ATOM     18  C   UNL     1       1.672   6.081  -1.986  1.00  0.00     0.031 C 
ATOM     19  C   UNL     1       0.408   5.729   2.629  1.00  0.00     0.029 A 
ATOM     20  N   UNL     1       1.023   7.662   1.728  1.00  0.00    -0.354 N 
ATOM     21  C   UNL     1       3.159   7.821  -2.045  1.00  0.00     0.074 A 
ATOM     22  C   UNL     1       2.297   6.940  -2.794  1.00  0.00     0.031 C 
ATOM     23  C   UNL     1      -0.315   6.696   3.234  1.00  0.00     0.029 A 
ATOM     24  C   UNL     1       0.042   7.979   2.654  1.00  0.00     0.049 A 
ATOM     25  H   UNL     1       1.560   8.341   1.258  1.00  0.00     0.167 HD
ATOM     26  C   UNL     1       3.723   9.009  -2.398  1.00  0.00     0.031 A 
ATOM     27  C   UNL     1      -0.498   9.199   2.879  1.00  0.00     0.031 A 
ATOM     28  C   UNL     1       4.621   9.518  -1.400  1.00  0.00     0.049 A 
ATOM     29  C   UNL     1       0.424  10.222   2.340  1.00  0.00     0.074 A 
ATOM     30  C   UNL     1       5.795   9.078  -0.823  1.00  0.00     0.029 A 
ATOM     31  N   UNL     1       4.181  10.554  -0.614  1.00  0.00    -0.354 N 
ATOM     32  N   UNL     1       1.580  10.503   2.866  1.00  0.00    -0.248 NA
ATOM     33  C   UNL     1       0.232  10.687   0.976  1.00  0.00     0.031 C 
ATOM     34  C   UNL     1       5.748   9.552   0.520  1.00  0.00     0.029 A 
ATOM     35  C   UNL     1       4.559  10.269   0.672  1.00  0.00     0.049 A 
ATOM     36  H   UNL     1       3.688  11.350  -0.916  1.00  0.00     0.167 HD
ATOM     37  C   UNL     1       2.401  10.790   1.786  1.00  0.00     0.074 A 
ATOM     38  C   UNL     1       1.490  11.015   0.669  1.00  0.00     0.031 C 
ATOM     39  C   UNL     1       3.743  10.539   1.834  1.00  0.00     0.031 A 
BRANCH  26  40
ATOM     40  C   UNL     1       3.196   9.885  -3.504  1.00  0.00    -0.014 A 
ATOM     41  C   UNL     1       3.936  11.015  -3.899  1.00  0.00     0.009 A 
ATOM     42  C   UNL     1       1.871   9.798  -3.973  1.00  0.00     0.009 A 
ATOM     43  C   UNL     1       3.361  12.027  -4.677  1.00  0.00     0.001 A 
ATOM     44  C   UNL     1       1.308  10.786  -4.785  1.00  0.00     0.001 A 
ATOM     45  C   UNL     1       2.046  11.913  -5.117  1.00  0.00     0.000 A 
ENDBRANCH  26  40
BRANCH  27  46
ATOM     46  C   UNL     1      -1.877   9.509   3.307  1.00  0.00    -0.014 A 
ATOM     47  C   UNL     1      -2.203  10.764   3.838  1.00  0.00     0.009 A 
ATOM     48  C   UNL     1      -2.935   8.643   2.970  1.00  0.00     0.009 A 
ATOM     49  C   UNL     1      -3.541  11.147   4.000  1.00  0.00     0.001 A 
ATOM     50  C   UNL     1      -4.269   9.021   3.140  1.00  0.00     0.001 A 
ATOM     51  C   UNL     1      -4.572  10.280   3.642  1.00  0.00     0.000 A 
ENDBRANCH  27  46
BRANCH  39  52
ATOM     52  C   UNL     1       4.352  10.203   3.173  1.00  0.00    -0.014 A 
ATOM     53  C   UNL     1       3.950   9.086   3.927  1.00  0.00     0.009 A 
ATOM     54  C   UNL     1       5.461  10.939   3.614  1.00  0.00     0.009 A 
ATOM     55  C   UNL     1       4.614   8.741   5.107  1.00  0.00     0.001 A 
ATOM     56  C   UNL     1       6.139  10.580   4.781  1.00  0.00     0.001 A 
ATOM     57  C   UNL     1       5.712   9.486   5.531  1.00  0.00     0.000 A 
ENDBRANCH  39  52
ENDBRANCH  13  14
ENDBRANCH   6   8
ENDBRANCH   5   6
ENDBRANCH   4   5
ENDBRANCH   3   4
ENDBRANCH   2   3
ENDBRANCH   1   2
BRANCH   1  58
ATOM     58  C   UNL     1       2.569  -1.990  -1.235  1.00  0.00     0.188 C 
BRANCH  58  59
ATOM     59  O   UNL     1       3.080  -3.256  -0.835  1.00  0.00    -0.376 OA
BRANCH  59  60
ATOM     60  C   UNL     1       4.291  -3.731  -1.403  1.00  0.00     0.202 C 
BRANCH  60  61
ATOM     61  C   UNL     1       4.372  -3.887  -2.927  1.00  0.00     0.261 C 
BRANCH  61  62
ATOM     62  O   UNL     1       3.997  -2.720  -3.681  1.00  0.00    -0.460 OA
BRANCH  62  63
ATOM     63  C   UNL     1       2.921  -2.857  -4.488  1.00  0.00     0.338 C 
ATOM     64  O   UNL     1       2.236  -3.860  -4.662  1.00  0.00    -0.246 OA
BRANCH  63  65
ATOM     65  C   UNL     1       2.583  -1.562  -5.097  1.00  0.00     0.060 A 
ATOM     66  C   UNL     1       1.475  -0.855  -4.621  1.00  0.00     0.016 A 
ATOM     67  C   UNL     1       3.303  -1.085  -6.192  1.00  0.00     0.016 A 
ATOM     68  C   UNL     1       1.107   0.350  -5.217  1.00  0.00     0.005 A 
ATOM     69  C   UNL     1       2.901   0.102  -6.817  1.00  0.00     0.005 A 
ATOM     70  C   UNL     1       1.807   0.845  -6.331  1.00  0.00    -0.038 A 
BRANCH  70  71
ATOM     71  C   UNL     1       1.269   2.098  -7.010  1.00  0.00     0.081 C 
ATOM     72  C   UNL     1       0.437   1.746  -8.261  1.00  0.00     0.111 C 
ATOM     73  C   UNL     1       2.419   2.968  -7.353  1.00  0.00     0.093 A 
ATOM     74  C   UNL     1       1.136   2.012  -9.584  1.00  0.00     0.188 C 
ATOM     75  C   UNL     1       2.743   3.243  -8.663  1.00  0.00     0.164 A 
ATOM     76  N   UNL     1       3.309   3.526  -6.478  1.00  0.00    -0.238 NA
ATOM     77  N   UNL     1       2.174   2.757  -9.792  1.00  0.00    -0.198 NA
ATOM     78  N   UNL     1       3.910   3.980  -8.598  1.00  0.00    -0.283 N 
ATOM     79  C   UNL     1       4.217   4.083  -7.255  1.00  0.00     0.206 A 
BRANCH  74  80
ATOM     80  O   UNL     1       0.541   1.438 -10.648  1.00  0.00    -0.496 OA
ATOM     81  H   UNL     1      -0.212   0.894 -10.526  1.00  0.00     0.294 HD
ENDBRANCH  74  80
BRANCH  78  82
ATOM     82  C   UNL     1       4.665   4.483  -9.682  1.00  0.00     0.050 A 
ATOM     83  C   UNL     1       6.063   4.422  -9.649  1.00  0.00     0.027 A 
ATOM     84  C   UNL     1       4.004   5.018 -10.796  1.00  0.00     0.047 A 
ATOM     85  C   UNL     1       6.796   4.860 -10.755  1.00  0.00     0.004 A 
ATOM     86  C   UNL     1       4.750   5.497 -11.869  1.00  0.00     0.043 A 
ATOM     87  C   UNL     1       6.140   5.406 -11.861  1.00  0.00     0.020 A 
ATOM     88  Cl  UNL     1       3.949   6.222 -13.209  1.00  0.00    -0.084 Cl
ENDBRANCH  78  82
ENDBRANCH  70  71
ENDBRANCH  63  65
ENDBRANCH  62  63
ENDBRANCH  61  62
ENDBRANCH  60  61
ENDBRANCH  59  60
ENDBRANCH  58  59
ENDBRANCH   1  58
TORSDOF 20
