REMARK SMILES C[NH+]1CCN(c2nc3c(cc2F)c(=O)c(C(=O)OCCOCCOCCOC(=O)c2ccc(-c4c5nc(c(-c6ccccc6)c6ccc([nH]6)c(-c6ccccc6)c6nc(c(-c7ccccc7)c7ccc4[nH]7)C=C6)C=C5)cc2)cn3-c2ccc(F)cc2F)CC1
REMARK SMILES IDX 23 1 22 2 21 3 20 4 19 5 18 6 16 7 17 8 15 9 6 10 7 11 11 12
REMARK SMILES IDX 8 13 10 14 12 15 9 16 79 17 13 18 78 19 14 20 5 21 1 22 2 23
REMARK SMILES IDX 3 24 89 25 4 27 88 28 80 29 81 30 86 31 82 32 85 33 87 34
REMARK SMILES IDX 83 35 84 36 24 37 25 38 26 39 27 40 28 41 29 42 30 43 31 44
REMARK SMILES IDX 77 45 32 46 76 47 33 48 34 49 35 50 70 51 36 52 75 53 69 54
REMARK SMILES IDX 71 55 37 56 74 57 68 58 67 59 38 61 60 62 45 63 59 64 46 65
REMARK SMILES IDX 49 66 58 67 72 68 47 69 48 70 57 72 73 73 50 74 39 75 40 76
REMARK SMILES IDX 44 77 41 78 43 79 42 80 61 81 62 82 66 83 63 84 65 85 64 86
REMARK SMILES IDX 51 87 52 88 56 89 53 90 55 91 54 92
REMARK H PARENT 2 26 71 60 49 71
REMARK Flexibility Score: inf
ROOT
ATOM      1  C   UNL     1      -9.106   2.257   3.973  1.00  0.00     0.188 C 
ENDROOT
BRANCH   1   2
ATOM      2  C   UNL     1     -10.401   2.151   3.137  1.00  0.00     0.188 C 
BRANCH   2   3
ATOM      3  O   UNL     1     -11.600   1.650   3.697  1.00  0.00    -0.376 OA
BRANCH   3   4
ATOM      4  C   UNL     1     -11.609   0.384   4.341  1.00  0.00     0.202 C 
BRANCH   4   5
ATOM      5  C   UNL     1     -11.050  -0.833   3.607  1.00  0.00     0.261 C 
BRANCH   5   6
ATOM      6  O   UNL     1      -9.673  -0.667   3.250  1.00  0.00    -0.459 OA
BRANCH   6   7
ATOM      7  C   UNL     1      -9.377  -0.804   1.938  1.00  0.00     0.343 C 
ATOM      8  O   UNL     1     -10.168  -1.066   1.042  1.00  0.00    -0.246 OA
BRANCH   7   9
ATOM      9  C   UNL     1      -7.978  -0.433   1.678  1.00  0.00     0.124 A 
ATOM     10  C   UNL     1      -2.993  -0.096   0.967  1.00  0.00     0.167 A 
ATOM     11  N   UNL     1      -4.059   0.474   0.357  1.00  0.00    -0.209 NA
ATOM     12  C   UNL     1      -3.138  -0.815   2.161  1.00  0.00     0.166 A 
ATOM     13  C   UNL     1      -5.304   0.246   0.862  1.00  0.00     0.151 A 
ATOM     14  C   UNL     1      -4.385  -0.998   2.722  1.00  0.00     0.059 A 
ATOM     15  F   UNL     1      -2.071  -1.353   2.772  1.00  0.00    -0.203 F 
ATOM     16  C   UNL     1      -5.486  -0.492   2.042  1.00  0.00     0.069 A 
ATOM     17  N   UNL     1      -6.462   0.714   0.157  1.00  0.00    -0.297 N 
ATOM     18  C   UNL     1      -6.840  -0.819   2.531  1.00  0.00     0.205 A 
ATOM     19  C   UNL     1      -7.717   0.309   0.592  1.00  0.00     0.113 A 
ATOM     20  O   UNL     1      -6.981  -1.444   3.575  1.00  0.00    -0.288 OA
BRANCH  10  21
ATOM     21  N   UNL     1      -1.756  -0.012   0.378  1.00  0.00    -0.343 N 
ATOM     22  C   UNL     1       2.429   0.129   0.041  1.00  0.00     0.332 C 
ATOM     23  N   UNL     1       1.026   0.064  -0.366  1.00  0.00    -0.334 N 
ATOM     24  C   UNL     1       0.292   1.275   0.088  1.00  0.00     0.283 C 
ATOM     25  C   UNL     1       0.399  -1.153   0.202  1.00  0.00     0.283 C 
ATOM     26  H   UNL     1       0.981   0.025  -1.385  1.00  0.00     0.347 HD
ATOM     27  C   UNL     1      -1.238   1.223  -0.192  1.00  0.00     0.179 C 
ATOM     28  C   UNL     1      -1.110  -1.237  -0.089  1.00  0.00     0.179 C 
ENDBRANCH  10  21
BRANCH  17  29
ATOM     29  C   UNL     1      -6.354   1.433  -1.067  1.00  0.00     0.083 A 
ATOM     30  C   UNL     1      -6.019   0.759  -2.252  1.00  0.00     0.033 A 
ATOM     31  C   UNL     1      -6.601   2.814  -1.127  1.00  0.00     0.150 A 
ATOM     32  C   UNL     1      -5.941   1.454  -3.461  1.00  0.00     0.041 A 
ATOM     33  C   UNL     1      -6.518   3.514  -2.326  1.00  0.00     0.080 A 
ATOM     34  F   UNL     1      -6.926   3.482  -0.009  1.00  0.00    -0.205 F 
ATOM     35  C   UNL     1      -6.189   2.823  -3.484  1.00  0.00     0.126 A 
ATOM     36  F   UNL     1      -6.110   3.483  -4.647  1.00  0.00    -0.207 F 
ENDBRANCH  17  29
ENDBRANCH   7   9
ENDBRANCH   6   7
ENDBRANCH   5   6
ENDBRANCH   4   5
ENDBRANCH   3   4
ENDBRANCH   2   3
ENDBRANCH   1   2
BRANCH   1  37
ATOM     37  O   UNL     1      -9.098   1.990   5.359  1.00  0.00    -0.376 OA
BRANCH  37  38
ATOM     38  C   UNL     1      -9.954   2.710   6.232  1.00  0.00     0.202 C 
BRANCH  38  39
ATOM     39  C   UNL     1     -10.070   4.233   6.141  1.00  0.00     0.261 C 
BRANCH  39  40
ATOM     40  O   UNL     1     -10.369   4.723   4.828  1.00  0.00    -0.460 OA
BRANCH  40  41
ATOM     41  C   UNL     1      -9.443   5.567   4.311  1.00  0.00     0.338 C 
ATOM     42  O   UNL     1      -8.412   5.955   4.824  1.00  0.00    -0.246 OA
BRANCH  41  43
ATOM     43  C   UNL     1      -9.798   5.870   2.917  1.00  0.00     0.060 A 
ATOM     44  C   UNL     1      -9.005   5.342   1.891  1.00  0.00     0.016 A 
ATOM     45  C   UNL     1     -10.850   6.743   2.636  1.00  0.00     0.016 A 
ATOM     46  C   UNL     1      -9.255   5.700   0.569  1.00  0.00     0.010 A 
ATOM     47  C   UNL     1     -11.074   7.130   1.314  1.00  0.00     0.010 A 
ATOM     48  C   UNL     1     -10.259   6.633   0.283  1.00  0.00    -0.014 A 
BRANCH  48  49
ATOM     49  C   UNL     1     -10.315   7.249  -1.059  1.00  0.00     0.031 A 
ATOM     50  C   UNL     1      -9.496   8.483  -1.308  1.00  0.00     0.074 A 
ATOM     51  C   UNL     1     -11.058   6.714  -2.042  1.00  0.00     0.049 A 
ATOM     52  N   UNL     1      -9.453   9.243  -2.371  1.00  0.00    -0.248 NA
ATOM     53  C   UNL     1      -8.597   8.911  -0.222  1.00  0.00     0.031 C 
ATOM     54  C   UNL     1     -11.819   5.470  -1.950  1.00  0.00     0.029 A 
ATOM     55  N   UNL     1     -11.289   7.161  -3.318  1.00  0.00    -0.354 N 
ATOM     56  C   UNL     1      -8.525  10.235  -2.082  1.00  0.00     0.074 A 
ATOM     57  C   UNL     1      -8.036   9.992  -0.744  1.00  0.00     0.031 C 
ATOM     58  C   UNL     1     -12.441   5.256  -3.123  1.00  0.00     0.029 A 
ATOM     59  C   UNL     1     -12.153   6.367  -4.029  1.00  0.00     0.049 A 
ATOM     60  H   UNL     1     -10.874   7.974  -3.688  1.00  0.00     0.167 HD
ATOM     61  C   UNL     1      -8.119  11.259  -2.864  1.00  0.00     0.031 A 
ATOM     62  C   UNL     1     -12.669   6.534  -5.262  1.00  0.00     0.031 A 
ATOM     63  C   UNL     1      -8.624  11.518  -4.182  1.00  0.00     0.049 A 
ATOM     64  C   UNL     1     -12.297   7.750  -6.066  1.00  0.00     0.074 A 
ATOM     65  C   UNL     1      -8.299  12.557  -5.035  1.00  0.00     0.029 A 
ATOM     66  N   UNL     1      -9.559  10.733  -4.835  1.00  0.00    -0.354 N 
ATOM     67  N   UNL     1     -11.457   8.711  -5.765  1.00  0.00    -0.248 NA
ATOM     68  C   UNL     1     -12.949   7.910  -7.375  1.00  0.00     0.031 C 
ATOM     69  C   UNL     1      -9.068  12.423  -6.193  1.00  0.00     0.029 A 
ATOM     70  C   UNL     1      -9.831  11.272  -6.079  1.00  0.00     0.049 A 
ATOM     71  H   UNL     1      -9.967   9.915  -4.470  1.00  0.00     0.167 HD
ATOM     72  C   UNL     1     -11.458   9.572  -6.855  1.00  0.00     0.074 A 
ATOM     73  C   UNL     1     -12.382   9.023  -7.825  1.00  0.00     0.031 C 
ATOM     74  C   UNL     1     -10.748  10.711  -7.036  1.00  0.00     0.031 A 
BRANCH  61  75
ATOM     75  C   UNL     1      -7.091  12.197  -2.309  1.00  0.00    -0.014 A 
ATOM     76  C   UNL     1      -5.736  11.838  -2.277  1.00  0.00     0.009 A 
ATOM     77  C   UNL     1      -7.471  13.484  -1.898  1.00  0.00     0.009 A 
ATOM     78  C   UNL     1      -4.777  12.753  -1.840  1.00  0.00     0.001 A 
ATOM     79  C   UNL     1      -6.507  14.402  -1.480  1.00  0.00     0.001 A 
ATOM     80  C   UNL     1      -5.162  14.036  -1.451  1.00  0.00     0.000 A 
ENDBRANCH  61  75
BRANCH  62  81
ATOM     81  C   UNL     1     -13.606   5.521  -5.809  1.00  0.00    -0.014 A 
ATOM     82  C   UNL     1     -13.189   4.643  -6.820  1.00  0.00     0.009 A 
ATOM     83  C   UNL     1     -14.914   5.412  -5.310  1.00  0.00     0.009 A 
ATOM     84  C   UNL     1     -14.064   3.679  -7.324  1.00  0.00     0.001 A 
ATOM     85  C   UNL     1     -15.780   4.434  -5.802  1.00  0.00     0.001 A 
ATOM     86  C   UNL     1     -15.356   3.570  -6.811  1.00  0.00     0.000 A 
ENDBRANCH  62  81
BRANCH  74  87
ATOM     87  C   UNL     1     -10.897  11.440  -8.339  1.00  0.00    -0.014 A 
ATOM     88  C   UNL     1     -12.012  12.251  -8.590  1.00  0.00     0.009 A 
ATOM     89  C   UNL     1      -9.844  11.416  -9.268  1.00  0.00     0.009 A 
ATOM     90  C   UNL     1     -12.072  13.022  -9.753  1.00  0.00     0.001 A 
ATOM     91  C   UNL     1      -9.897  12.204 -10.418  1.00  0.00     0.001 A 
ATOM     92  C   UNL     1     -11.011  13.006 -10.660  1.00  0.00     0.000 A 
ENDBRANCH  74  87
ENDBRANCH  48  49
ENDBRANCH  41  43
ENDBRANCH  40  41
ENDBRANCH  39  40
ENDBRANCH  38  39
ENDBRANCH  37  38
ENDBRANCH   1  37
TORSDOF 19
