REMARK SMILES CC(C)(C)OC(=O)N[C@@H](Cc1c[nH]c2cccc(Cl)c12)C(=O)OCCOCCOCCOC(=O)c1ccc(-c2c3nc(c(-c4ccccc4)c4ccc([nH]4)c(-c4ccccc4)c4nc(c(-c5ccccc5)c5ccc2[nH]5)C=C4)C=C3)cc1
REMARK SMILES IDX 27 1 26 2 25 3 24 4 23 5 21 6 22 7 9 8 8 9 6 10 7 11 5 13
REMARK SMILES IDX 2 14 1 15 3 16 4 17 10 18 11 19 12 20 20 21 13 22 14 23
REMARK SMILES IDX 18 24 15 26 17 27 19 28 16 29 28 30 29 31 30 32 31 33 32 34
REMARK SMILES IDX 33 35 34 36 35 37 36 38 82 39 37 40 81 41 38 42 39 43 40 44
REMARK SMILES IDX 75 45 41 46 80 47 74 48 76 49 42 50 79 51 73 52 72 53 43 55
REMARK SMILES IDX 65 56 50 57 64 58 51 59 54 60 63 61 77 62 52 63 53 64 62 66
REMARK SMILES IDX 78 67 55 68 44 69 45 70 49 71 46 72 48 73 47 74 66 75 67 76
REMARK SMILES IDX 71 77 68 78 70 79 69 80 56 81 57 82 61 83 58 84 60 85 59 86
REMARK H PARENT 8 12 13 25 76 54 54 65
REMARK Flexibility Score: inf
ROOT
ATOM      1  C   UNL     1      -0.981  -1.667  -5.211  1.00  0.00     0.188 C 
ENDROOT
BRANCH   1   2
ATOM      2  O   UNL     1      -1.450  -1.948  -6.503  1.00  0.00    -0.376 OA
BRANCH   2   3
ATOM      3  C   UNL     1      -0.668  -2.760  -7.358  1.00  0.00     0.202 C 
BRANCH   3   4
ATOM      4  C   UNL     1       0.726  -3.325  -7.017  1.00  0.00     0.261 C 
BRANCH   4   5
ATOM      5  O   UNL     1       1.095  -3.553  -5.645  1.00  0.00    -0.462 OA
BRANCH   5   6
ATOM      6  C   UNL     1       2.076  -2.755  -5.134  1.00  0.00     0.329 C 
ATOM      7  O   UNL     1       2.557  -1.798  -5.736  1.00  0.00    -0.250 OA
BRANCH   6   8
ATOM      8  C   UNL     1       2.630  -3.219  -3.770  1.00  0.00     0.200 C 
BRANCH   8   9
ATOM      9  N   UNL     1       1.733  -3.966  -2.874  1.00  0.00    -0.308 N 
ATOM     10  C   UNL     1       1.190  -3.579  -1.677  1.00  0.00     0.408 C 
ATOM     11  O   UNL     1       0.529  -4.360  -1.010  1.00  0.00    -0.225 OA
ATOM     12  H   UNL     1       1.489  -4.870  -3.176  1.00  0.00     0.168 HD
BRANCH  10  13
ATOM     13  O   UNL     1       1.427  -2.280  -1.352  1.00  0.00    -0.444 OA
BRANCH  13  14
ATOM     14  C   UNL     1       0.868  -1.706  -0.129  1.00  0.00     0.106 C 
ATOM     15  C   UNL     1       1.284  -0.225  -0.142  1.00  0.00     0.056 C 
ATOM     16  C   UNL     1       1.454  -2.367   1.123  1.00  0.00     0.056 C 
ATOM     17  C   UNL     1      -0.665  -1.747  -0.105  1.00  0.00     0.056 C 
ENDBRANCH  13  14
ENDBRANCH  10  13
ENDBRANCH   8   9
BRANCH   8  18
ATOM     18  C   UNL     1       3.934  -4.016  -4.037  1.00  0.00     0.075 C 
BRANCH  18  19
ATOM     19  C   UNL     1       3.696  -5.407  -4.583  1.00  0.00    -0.018 A 
ATOM     20  C   UNL     1       3.582  -6.534  -3.789  1.00  0.00     0.087 A 
ATOM     21  C   UNL     1       3.458  -5.836  -5.943  1.00  0.00     0.021 A 
ATOM     22  N   UNL     1       3.165  -7.575  -4.567  1.00  0.00    -0.361 N 
ATOM     23  C   UNL     1       2.980  -7.151  -5.860  1.00  0.00     0.047 A 
ATOM     24  C   UNL     1       3.510  -5.279  -7.242  1.00  0.00     0.050 A 
ATOM     25  H   UNL     1       3.018  -8.495  -4.248  1.00  0.00     0.166 HD
ATOM     26  C   UNL     1       2.439  -7.843  -6.955  1.00  0.00     0.027 A 
ATOM     27  C   UNL     1       2.955  -5.934  -8.346  1.00  0.00     0.021 A 
ATOM     28  Cl  UNL     1       4.338  -3.800  -7.454  1.00  0.00    -0.084 Cl
ATOM     29  C   UNL     1       2.392  -7.194  -8.190  1.00  0.00     0.004 A 
ENDBRANCH  18  19
ENDBRANCH   8  18
ENDBRANCH   6   8
ENDBRANCH   5   6
ENDBRANCH   4   5
ENDBRANCH   3   4
ENDBRANCH   2   3
ENDBRANCH   1   2
BRANCH   1  30
ATOM     30  C   UNL     1      -1.125  -2.770  -4.151  1.00  0.00     0.188 C 
BRANCH  30  31
ATOM     31  O   UNL     1      -1.263  -4.143  -4.461  1.00  0.00    -0.376 OA
BRANCH  31  32
ATOM     32  C   UNL     1      -2.292  -4.701  -5.261  1.00  0.00     0.202 C 
BRANCH  32  33
ATOM     33  C   UNL     1      -3.704  -4.133  -5.402  1.00  0.00     0.261 C 
BRANCH  33  34
ATOM     34  O   UNL     1      -3.832  -2.766  -5.089  1.00  0.00    -0.460 OA
BRANCH  34  35
ATOM     35  C   UNL     1      -4.030  -2.595  -3.771  1.00  0.00     0.338 C 
ATOM     36  O   UNL     1      -4.044  -3.438  -2.891  1.00  0.00    -0.246 OA
BRANCH  35  37
ATOM     37  C   UNL     1      -4.265  -1.184  -3.515  1.00  0.00     0.060 A 
ATOM     38  C   UNL     1      -3.911  -0.748  -2.237  1.00  0.00     0.016 A 
ATOM     39  C   UNL     1      -5.266  -0.599  -4.288  1.00  0.00     0.016 A 
ATOM     40  C   UNL     1      -4.779   0.089  -1.598  1.00  0.00     0.010 A 
ATOM     41  C   UNL     1      -6.163   0.193  -3.630  1.00  0.00     0.010 A 
ATOM     42  C   UNL     1      -5.949   0.443  -2.273  1.00  0.00    -0.014 A 
BRANCH  42  43
ATOM     43  C   UNL     1      -6.914   1.218  -1.543  1.00  0.00     0.031 A 
ATOM     44  C   UNL     1      -6.487   2.624  -1.429  1.00  0.00     0.074 A 
ATOM     45  C   UNL     1      -8.076   0.696  -1.117  1.00  0.00     0.049 A 
ATOM     46  N   UNL     1      -6.146   3.256  -0.358  1.00  0.00    -0.248 NA
ATOM     47  C   UNL     1      -6.196   3.342  -2.684  1.00  0.00     0.031 C 
ATOM     48  C   UNL     1      -8.647  -0.618  -1.423  1.00  0.00     0.029 A 
ATOM     49  N   UNL     1      -9.061   1.304  -0.411  1.00  0.00    -0.354 N 
ATOM     50  C   UNL     1      -5.797   4.526  -0.793  1.00  0.00     0.074 A 
ATOM     51  C   UNL     1      -5.631   4.453  -2.220  1.00  0.00     0.031 C 
ATOM     52  C   UNL     1      -9.967  -0.603  -1.124  1.00  0.00     0.029 A 
ATOM     53  C   UNL     1     -10.292   0.667  -0.495  1.00  0.00     0.049 A 
ATOM     54  H   UNL     1      -8.916   2.124   0.114  1.00  0.00     0.167 HD
ATOM     55  C   UNL     1      -5.998   5.612  -0.005  1.00  0.00     0.031 A 
ATOM     56  C   UNL     1     -11.485   1.214  -0.153  1.00  0.00     0.031 A 
ATOM     57  C   UNL     1      -6.145   5.251   1.378  1.00  0.00     0.049 A 
ATOM     58  C   UNL     1     -11.191   2.369   0.730  1.00  0.00     0.074 A 
ATOM     59  C   UNL     1      -5.336   4.641   2.313  1.00  0.00     0.029 A 
ATOM     60  N   UNL     1      -7.432   5.158   1.849  1.00  0.00    -0.354 N 
ATOM     61  N   UNL     1     -10.689   2.259   1.925  1.00  0.00    -0.248 NA
ATOM     62  C   UNL     1     -11.080   3.690   0.126  1.00  0.00     0.031 C 
ATOM     63  C   UNL     1      -6.213   3.856   3.113  1.00  0.00     0.029 A 
ATOM     64  C   UNL     1      -7.520   4.061   2.663  1.00  0.00     0.049 A 
ATOM     65  H   UNL     1      -8.168   5.777   1.637  1.00  0.00     0.167 HD
ATOM     66  C   UNL     1      -9.833   3.342   2.049  1.00  0.00     0.074 A 
ATOM     67  C   UNL     1     -10.213   4.252   0.972  1.00  0.00     0.031 C 
ATOM     68  C   UNL     1      -8.716   3.261   2.826  1.00  0.00     0.031 A 
BRANCH  55  69
ATOM     69  C   UNL     1      -6.532   6.900  -0.572  1.00  0.00    -0.014 A 
ATOM     70  C   UNL     1      -6.616   8.023   0.262  1.00  0.00     0.009 A 
ATOM     71  C   UNL     1      -7.203   6.975  -1.811  1.00  0.00     0.009 A 
ATOM     72  C   UNL     1      -7.357   9.149  -0.118  1.00  0.00     0.001 A 
ATOM     73  C   UNL     1      -7.903   8.111  -2.213  1.00  0.00     0.001 A 
ATOM     74  C   UNL     1      -7.997   9.193  -1.355  1.00  0.00     0.000 A 
ENDBRANCH  55  69
BRANCH  56  75
ATOM     75  C   UNL     1     -12.819   1.035  -0.775  1.00  0.00    -0.014 A 
ATOM     76  C   UNL     1     -13.947   1.639  -0.188  1.00  0.00     0.009 A 
ATOM     77  C   UNL     1     -12.959   0.536  -2.081  1.00  0.00     0.009 A 
ATOM     78  C   UNL     1     -15.137   1.807  -0.907  1.00  0.00     0.001 A 
ATOM     79  C   UNL     1     -14.153   0.691  -2.795  1.00  0.00     0.001 A 
ATOM     80  C   UNL     1     -15.234   1.349  -2.217  1.00  0.00     0.000 A 
ENDBRANCH  56  75
BRANCH  68  81
ATOM     81  C   UNL     1      -8.594   2.088   3.766  1.00  0.00    -0.014 A 
ATOM     82  C   UNL     1      -8.393   0.769   3.323  1.00  0.00     0.009 A 
ATOM     83  C   UNL     1      -8.474   2.362   5.136  1.00  0.00     0.009 A 
ATOM     84  C   UNL     1      -8.071  -0.244   4.233  1.00  0.00     0.001 A 
ATOM     85  C   UNL     1      -8.135   1.355   6.039  1.00  0.00     0.001 A 
ATOM     86  C   UNL     1      -7.928   0.053   5.588  1.00  0.00     0.000 A 
ENDBRANCH  68  81
ENDBRANCH  42  43
ENDBRANCH  35  37
ENDBRANCH  34  35
ENDBRANCH  33  34
ENDBRANCH  32  33
ENDBRANCH  31  32
ENDBRANCH  30  31
ENDBRANCH   1  30
TORSDOF 22
