REMARK SMILES O=C(C[C@@H]1C(=O)OC2[C@H]3OC(=O)c4cc(O)c(O)c(O)c4-c4ccccc4C(=O)OC[C@H]2O[C@@H](OC(=O)c2cc(O)c(O)c(O)c2)[C@@H]3OC(=O)c2cc(O)c(O)c3c2[C@@H]1[C@H](O)C(=O)O3)OCCOCCOCCOC(=O)c1ccc(-c2c3nc(c(-c4ccccc4)c4ccc([nH]4)c(-c4ccccc4)c4nc(c(-c5ccccc5)c5ccc2[nH]5)C=C4)C=C3)cc1
REMARK SMILES IDX 65 1 2 2 1 3 3 4 4 5 5 7 6 8 7 9 8 10 9 11 32 12 47 13 33 14
REMARK SMILES IDX 34 16 10 17 11 18 12 19 13 20 14 21 21 22 15 23 19 24 17 25
REMARK SMILES IDX 22 26 23 27 27 28 24 29 26 30 25 31 28 32 29 33 30 34 31 35
REMARK SMILES IDX 16 37 20 39 18 41 48 43 49 44 50 45 51 46 52 47 58 48 53 49
REMARK SMILES IDX 57 50 59 51 55 52 64 53 60 54 62 56 63 57 54 58 56 60 61 62
REMARK SMILES IDX 35 64 36 65 37 66 38 67 39 68 46 69 40 70 44 71 42 72 41 73
REMARK SMILES IDX 45 75 43 77 66 79 67 80 68 81 69 82 70 83 71 84 72 85 73 86
REMARK SMILES IDX 74 87 75 88 76 89 77 90 78 91 124 92 79 93 123 94 80 95
REMARK SMILES IDX 81 96 82 97 117 98 83 99 122 100 116 101 118 102 84 103
REMARK SMILES IDX 121 104 115 105 114 106 85 108 107 109 92 110 106 111 93 112
REMARK SMILES IDX 96 113 105 114 119 115 94 116 95 117 104 119 120 120 97 121
REMARK SMILES IDX 86 122 87 123 91 124 88 125 90 126 89 127 108 128 109 129
REMARK SMILES IDX 113 130 110 131 112 132 111 133 98 134 99 135 103 136
REMARK SMILES IDX 100 137 102 138 101 139
REMARK H PARENT 16 38 20 40 18 42 54 59 56 61 61 63 41 74 45 76 43 78 118 107
REMARK H PARENT 96 118
REMARK Flexibility Score: 170.00
ROOT
ATOM      1  O   UNL     1       3.366  -0.158  -2.486  1.00  0.00    -0.463 OA
ENDROOT
BRANCH   1   2
ATOM      2  C   UNL     1       2.818  -0.798  -1.445  1.00  0.00     0.306 C 
ATOM      3  O   UNL     1       1.643  -0.544  -1.228  1.00  0.00    -0.252 OA
BRANCH   2   4
ATOM      4  C   UNL     1       4.024  -1.717  -0.659  1.00  0.00     0.138 C 
BRANCH   4   5
ATOM      5  C   UNL     1       4.173  -2.859   1.028  1.00  0.00     0.121 CG0
ATOM      6  G   UNL     1       3.809  -3.984   0.325  1.00  0.00     0.000 G0
BRANCH   5   7
ATOM      7  C   UNL     1       5.961  -3.201   1.976  1.00  0.00     0.310 C 
ATOM      8  O   UNL     1       6.566  -4.128   2.515  1.00  0.00    -0.252 OA
BRANCH   7   9
ATOM      9  O   UNL     1       6.839  -2.253   1.728  1.00  0.00    -0.455 OA
BRANCH   9  10
ATOM     10  C   UNL     1       5.997  -2.115   0.722  1.00  0.00     0.254 C 
ATOM     11  C   UNL     1       4.479  -0.927   1.278  1.00  0.00     0.267 C 
ATOM     12  C   UNL     1       6.577  -2.969  -0.413  1.00  0.00     0.205 CG1
ATOM     13  C   UNL     1       5.538  -0.306   2.093  1.00  0.00     0.290 C 
ATOM     14  O   UNL     1       6.615  -1.346  -0.711  1.00  0.00    -0.329 OA
ATOM     15  G   UNL     1       5.702  -4.848  -0.214  1.00  0.00     0.000 G1
ATOM     16  C   UNL     1       6.794  -0.182   0.655  1.00  0.00     0.357 C 
BRANCH  11  17
ATOM     17  O   UNL     1       2.639  -1.228   1.103  1.00  0.00    -0.450 OA
BRANCH  17  18
ATOM     18  C   UNL     1       1.660  -2.205   0.244  1.00  0.00     0.339 C 
ATOM     19  O   UNL     1       2.200  -2.944  -0.583  1.00  0.00    -0.246 OA
BRANCH  18  20
ATOM     20  C   UNL     1       0.192  -2.788  -0.051  1.00  0.00     0.075 A 
ATOM     21  C   UNL     1      -0.126  -3.500  -1.249  1.00  0.00     0.066 A 
ATOM     22  C   UNL     1      -0.445  -3.417   0.997  1.00  0.00     0.043 A 
ATOM     23  C   UNL     1      -1.074  -4.569  -1.276  1.00  0.00     0.162 A 
ATOM     24  C   UNL     1      -1.567  -4.257   0.994  1.00  0.00     0.170 A 
ATOM     25  C   UNL     1      -1.855  -4.885  -0.175  1.00  0.00     0.200 A 
BRANCH  22  26
ATOM     26  C   UNL     1       0.408  -3.442   2.088  1.00  0.00     0.001 A 
ATOM     27  C   UNL     1       0.118  -2.233   2.831  1.00  0.00     0.010 A 
ATOM     28  C   UNL     1       1.560  -4.307   2.138  1.00  0.00     0.068 A 
ATOM     29  C   UNL     1       1.043  -1.788   3.679  1.00  0.00     0.001 A 
ATOM     30  C   UNL     1       1.955  -4.056   3.421  1.00  0.00     0.016 A 
ATOM     31  C   UNL     1       1.882  -2.773   4.072  1.00  0.00     0.001 A 
BRANCH  28  32
ATOM     32  C   UNL     1       2.293  -5.494   0.931  1.00  0.00     0.338 C 
ATOM     33  O   UNL     1       1.529  -6.389   0.557  1.00  0.00    -0.246 OA
BRANCH  32  34
ATOM     34  O   UNL     1       3.881  -5.637   0.146  1.00  0.00    -0.459 OA
BRANCH  34  35
ATOM     35  C   UNL     1       5.702  -4.848  -0.214  1.00  0.00     0.269 CG1
ATOM     36  G   UNL     1       6.577  -2.969  -0.413  1.00  0.00     0.000 G1
ENDBRANCH  34  35
ENDBRANCH  32  34
ENDBRANCH  28  32
ENDBRANCH  22  26
BRANCH  23  37
ATOM     37  O   UNL     1      -1.104  -5.434  -2.338  1.00  0.00    -0.504 OA
ATOM     38  H   UNL     1      -0.590  -5.257  -3.101  1.00  0.00     0.293 HD
ENDBRANCH  23  37
BRANCH  24  39
ATOM     39  O   UNL     1      -2.213  -4.666   2.131  1.00  0.00    -0.504 OA
ATOM     40  H   UNL     1      -2.960  -5.229   2.069  1.00  0.00     0.293 HD
ENDBRANCH  24  39
BRANCH  25  41
ATOM     41  O   UNL     1      -2.730  -5.932  -0.188  1.00  0.00    -0.502 OA
ATOM     42  H   UNL     1      -2.930  -6.367  -0.994  1.00  0.00     0.293 HD
ENDBRANCH  25  41
ENDBRANCH  18  20
ENDBRANCH  17  18
ENDBRANCH  11  17
BRANCH  13  43
ATOM     43  O   UNL     1       5.508  -1.488   3.450  1.00  0.00    -0.448 OA
BRANCH  43  44
ATOM     44  C   UNL     1       4.901  -2.819   3.991  1.00  0.00     0.339 C 
ATOM     45  O   UNL     1       4.842  -2.823   5.227  1.00  0.00    -0.246 OA
BRANCH  44  46
ATOM     46  C   UNL     1       4.506  -4.454   3.259  1.00  0.00     0.071 A 
ATOM     47  C   UNL     1       4.381  -5.553   4.122  1.00  0.00     0.066 A 
ATOM     48  C   UNL     1       4.521  -4.998   1.853  1.00  0.00     0.021 A 
ATOM     49  C   UNL     1       3.904  -6.851   3.622  1.00  0.00     0.162 A 
ATOM     50  C   UNL     1       4.829  -6.636   1.566  1.00  0.00     0.180 A 
ATOM     51  C   UNL     1       3.809  -3.984   0.325  1.00  0.00     0.079 CG0
ATOM     52  C   UNL     1       4.227  -7.488   2.418  1.00  0.00     0.201 A 
ATOM     53  O   UNL     1       4.748  -7.250  -0.079  1.00  0.00    -0.420 OA
ATOM     54  C   UNL     1       3.768  -4.795  -1.514  1.00  0.00     0.232 C 
ATOM     55  G   UNL     1       4.173  -2.859   1.028  1.00  0.00     0.000 G0
ATOM     56  C   UNL     1       4.166  -6.652  -1.544  1.00  0.00     0.341 C 
ATOM     57  O   UNL     1       4.128  -7.373  -2.534  1.00  0.00    -0.249 OA
BRANCH  49  58
ATOM     58  O   UNL     1       2.563  -7.090   3.983  1.00  0.00    -0.504 OA
ATOM     59  H   UNL     1       2.217  -6.719   4.771  1.00  0.00     0.293 HD
ENDBRANCH  49  58
BRANCH  52  60
ATOM     60  O   UNL     1       3.444  -8.520   1.969  1.00  0.00    -0.502 OA
ATOM     61  H   UNL     1       3.036  -9.099   2.582  1.00  0.00     0.293 HD
ENDBRANCH  52  60
BRANCH  54  62
ATOM     62  O   UNL     1       2.960  -4.142  -2.479  1.00  0.00    -0.381 OA
ATOM     63  H   UNL     1       2.026  -4.234  -2.234  1.00  0.00     0.211 HD
ENDBRANCH  54  62
ENDBRANCH  44  46
ENDBRANCH  43  44
ENDBRANCH  13  43
BRANCH  16  64
ATOM     64  O   UNL     1       6.695   1.194   0.176  1.00  0.00    -0.428 OA
BRANCH  64  65
ATOM     65  C   UNL     1       7.180   1.572  -1.038  1.00  0.00     0.340 C 
ATOM     66  O   UNL     1       7.629   0.870  -1.920  1.00  0.00    -0.246 OA
BRANCH  65  67
ATOM     67  C   UNL     1       6.902   3.029  -1.192  1.00  0.00     0.067 A 
ATOM     68  C   UNL     1       5.921   3.459  -2.096  1.00  0.00     0.066 A 
ATOM     69  C   UNL     1       7.472   3.946  -0.310  1.00  0.00     0.066 A 
ATOM     70  C   UNL     1       5.282   4.673  -1.877  1.00  0.00     0.162 A 
ATOM     71  C   UNL     1       6.959   5.240  -0.266  1.00  0.00     0.162 A 
ATOM     72  C   UNL     1       5.811   5.575  -0.976  1.00  0.00     0.200 A 
BRANCH  70  73
ATOM     73  O   UNL     1       4.076   4.908  -2.473  1.00  0.00    -0.504 OA
ATOM     74  H   UNL     1       3.727   4.289  -3.083  1.00  0.00     0.293 HD
ENDBRANCH  70  73
BRANCH  71  75
ATOM     75  O   UNL     1       7.537   6.203   0.506  1.00  0.00    -0.504 OA
ATOM     76  H   UNL     1       7.178   7.069   0.523  1.00  0.00     0.293 HD
ENDBRANCH  71  75
BRANCH  72  77
ATOM     77  O   UNL     1       5.192   6.778  -0.800  1.00  0.00    -0.502 OA
ATOM     78  H   UNL     1       4.420   6.984  -1.288  1.00  0.00     0.293 HD
ENDBRANCH  72  77
ENDBRANCH  65  67
ENDBRANCH  64  65
ENDBRANCH  16  64
ENDBRANCH   9  10
ENDBRANCH   7   9
ENDBRANCH   5   7
ENDBRANCH   4   5
ENDBRANCH   2   4
ENDBRANCH   1   2
BRANCH   1  79
ATOM     79  C   UNL     1       3.990   1.019  -2.032  1.00  0.00     0.261 C 
BRANCH  79  80
ATOM     80  C   UNL     1       3.463   1.885  -0.844  1.00  0.00     0.202 C 
BRANCH  80  81
ATOM     81  O   UNL     1       3.101   1.286   0.400  1.00  0.00    -0.376 OA
BRANCH  81  82
ATOM     82  C   UNL     1       1.761   1.632   0.788  1.00  0.00     0.188 C 
BRANCH  82  83
ATOM     83  C   UNL     1       1.553   2.874   1.673  1.00  0.00     0.188 C 
BRANCH  83  84
ATOM     84  O   UNL     1       2.352   4.026   1.481  1.00  0.00    -0.376 OA
BRANCH  84  85
ATOM     85  C   UNL     1       3.722   3.984   1.847  1.00  0.00     0.202 C 
BRANCH  85  86
ATOM     86  C   UNL     1       4.170   3.679   3.284  1.00  0.00     0.261 C 
BRANCH  86  87
ATOM     87  O   UNL     1       3.635   2.496   3.903  1.00  0.00    -0.460 OA
BRANCH  87  88
ATOM     88  C   UNL     1       2.706   2.734   4.871  1.00  0.00     0.338 C 
ATOM     89  O   UNL     1       2.169   3.801   5.115  1.00  0.00    -0.246 OA
BRANCH  88  90
ATOM     90  C   UNL     1       2.359   1.478   5.579  1.00  0.00     0.060 A 
ATOM     91  C   UNL     1       3.349   0.705   6.187  1.00  0.00     0.016 A 
ATOM     92  C   UNL     1       1.016   1.112   5.725  1.00  0.00     0.016 A 
ATOM     93  C   UNL     1       2.997  -0.447   6.914  1.00  0.00     0.010 A 
ATOM     94  C   UNL     1       0.669  -0.056   6.441  1.00  0.00     0.010 A 
ATOM     95  C   UNL     1       1.656  -0.870   7.035  1.00  0.00    -0.014 A 
BRANCH  95  96
ATOM     96  C   UNL     1       1.284  -1.960   7.998  1.00  0.00     0.031 A 
ATOM     97  C   UNL     1       1.338  -3.455   7.779  1.00  0.00     0.074 A 
ATOM     98  C   UNL     1       1.133  -1.589   9.273  1.00  0.00     0.049 A 
ATOM     99  N   UNL     1       0.672  -4.462   8.300  1.00  0.00    -0.248 NA
ATOM    100  C   UNL     1       2.342  -3.895   6.842  1.00  0.00     0.031 C 
ATOM    101  C   UNL     1       1.228  -0.224   9.778  1.00  0.00     0.029 A 
ATOM    102  N   UNL     1       0.973  -2.374  10.374  1.00  0.00    -0.354 N 
ATOM    103  C   UNL     1       1.032  -5.590   7.545  1.00  0.00     0.074 A 
ATOM    104  C   UNL     1       1.956  -5.129   6.568  1.00  0.00     0.031 C 
ATOM    105  C   UNL     1       1.182  -0.273  11.115  1.00  0.00     0.029 A 
ATOM    106  C   UNL     1       0.999  -1.664  11.534  1.00  0.00     0.049 A 
ATOM    107  H   UNL     1       0.853  -3.350  10.335  1.00  0.00     0.167 HD
ATOM    108  C   UNL     1       0.911  -6.928   7.742  1.00  0.00     0.031 A 
ATOM    109  C   UNL     1       0.890  -2.104  12.796  1.00  0.00     0.031 A 
ATOM    110  C   UNL     1       0.733  -7.466   9.046  1.00  0.00     0.049 A 
ATOM    111  C   UNL     1       0.837  -3.582  13.064  1.00  0.00     0.074 A 
ATOM    112  C   UNL     1       0.736  -8.793   9.426  1.00  0.00     0.029 A 
ATOM    113  N   UNL     1       0.768  -6.692  10.182  1.00  0.00    -0.354 N 
ATOM    114  N   UNL     1       0.897  -4.588  12.222  1.00  0.00    -0.248 NA
ATOM    115  C   UNL     1       0.734  -3.985  14.470  1.00  0.00     0.031 C 
ATOM    116  C   UNL     1       0.784  -8.822  10.816  1.00  0.00     0.029 A 
ATOM    117  C   UNL     1       0.830  -7.514  11.278  1.00  0.00     0.049 A 
ATOM    118  H   UNL     1       0.752  -5.708  10.205  1.00  0.00     0.167 HD
ATOM    119  C   UNL     1       0.884  -5.739  13.005  1.00  0.00     0.074 A 
ATOM    120  C   UNL     1       0.824  -5.306  14.382  1.00  0.00     0.031 C 
ATOM    121  C   UNL     1       0.896  -7.041  12.628  1.00  0.00     0.031 A 
BRANCH 108 122
ATOM    122  C   UNL     1       1.198  -7.958   6.662  1.00  0.00    -0.014 A 
ATOM    123  C   UNL     1       0.112  -8.631   6.072  1.00  0.00     0.009 A 
ATOM    124  C   UNL     1       2.493  -8.421   6.368  1.00  0.00     0.009 A 
ATOM    125  C   UNL     1       0.313  -9.687   5.174  1.00  0.00     0.001 A 
ATOM    126  C   UNL     1       2.694  -9.462   5.444  1.00  0.00     0.001 A 
ATOM    127  C   UNL     1       1.604 -10.085   4.838  1.00  0.00     0.000 A 
ENDBRANCH 108 122
BRANCH 109 128
ATOM    128  C   UNL     1       0.890  -1.083  13.865  1.00  0.00    -0.014 A 
ATOM    129  C   UNL     1      -0.144  -0.129  13.914  1.00  0.00     0.009 A 
ATOM    130  C   UNL     1       1.981  -0.956  14.731  1.00  0.00     0.009 A 
ATOM    131  C   UNL     1      -0.060   0.959  14.778  1.00  0.00     0.001 A 
ATOM    132  C   UNL     1       2.038   0.109  15.628  1.00  0.00     0.001 A 
ATOM    133  C   UNL     1       1.029   1.073  15.639  1.00  0.00     0.000 A 
ENDBRANCH 109 128
BRANCH 121 134
ATOM    134  C   UNL     1       0.905  -8.114  13.669  1.00  0.00    -0.014 A 
ATOM    135  C   UNL     1       2.010  -8.978  13.764  1.00  0.00     0.009 A 
ATOM    136  C   UNL     1      -0.277  -8.426  14.351  1.00  0.00     0.009 A 
ATOM    137  C   UNL     1       1.913 -10.160  14.494  1.00  0.00     0.001 A 
ATOM    138  C   UNL     1      -0.356  -9.590  15.110  1.00  0.00     0.001 A 
ATOM    139  C   UNL     1       0.730 -10.464  15.166  1.00  0.00     0.000 A 
ENDBRANCH 121 134
ENDBRANCH  95  96
ENDBRANCH  88  90
ENDBRANCH  87  88
ENDBRANCH  86  87
ENDBRANCH  85  86
ENDBRANCH  84  85
ENDBRANCH  83  84
ENDBRANCH  82  83
ENDBRANCH  81  82
ENDBRANCH  80  81
ENDBRANCH  79  80
ENDBRANCH   1  79
TORSDOF 30
