REMARK SMILES O=C(OCCOCCOCCOC(=O)c1cncc(Oc2cc(F)ccc2F)n1)c1ccc(-c2c3nc(c(-c4ccccc4)c4ccc([nH]4)c(-c4ccccc4)c4nc(c(-c5ccccc5)c5ccc2[nH]5)C=C4)C=C3)cc1
REMARK SMILES IDX 7 1 6 2 5 3 4 4 3 5 2 6 1 7 30 8 31 9 77 10 32 11 76 12
REMARK SMILES IDX 33 13 34 14 35 15 70 16 36 17 75 18 69 19 71 20 37 21 74 22
REMARK SMILES IDX 68 23 67 24 38 26 60 27 45 28 59 29 46 30 49 31 58 32 72 33
REMARK SMILES IDX 47 34 48 35 57 37 73 38 50 39 39 40 40 41 44 42 41 43 43 44
REMARK SMILES IDX 42 45 61 46 62 47 66 48 63 49 65 50 64 51 51 52 52 53 56 54
REMARK SMILES IDX 53 55 55 56 54 57 8 58 9 59 10 60 11 61 12 62 13 63 14 64
REMARK SMILES IDX 15 65 16 66 29 67 17 68 19 69 18 70 20 71 21 72 22 73 27 74
REMARK SMILES IDX 23 75 26 76 28 77 24 78 25 79
REMARK H PARENT 71 25 49 36
REMARK Flexibility Score: inf
ROOT
ATOM      1  C   UNL     1       2.521   1.611   1.352  1.00  0.00     0.188 C 
ENDROOT
BRANCH   1   2
ATOM      2  O   UNL     1       3.832   1.025   1.313  1.00  0.00    -0.376 OA
BRANCH   2   3
ATOM      3  C   UNL     1       4.737   1.694   0.429  1.00  0.00     0.202 C 
BRANCH   3   4
ATOM      4  C   UNL     1       4.741   1.139  -0.998  1.00  0.00     0.261 C 
BRANCH   4   5
ATOM      5  O   UNL     1       3.409   0.873  -1.457  1.00  0.00    -0.460 OA
BRANCH   5   6
ATOM      6  C   UNL     1       2.776  -0.323  -1.532  1.00  0.00     0.338 C 
ATOM      7  O   UNL     1       1.665  -0.355  -2.056  1.00  0.00    -0.246 OA
BRANCH   6   8
ATOM      8  C   UNL     1       3.372  -1.616  -1.061  1.00  0.00     0.060 A 
ATOM      9  C   UNL     1       4.338  -1.752  -0.063  1.00  0.00     0.016 A 
ATOM     10  C   UNL     1       2.875  -2.795  -1.643  1.00  0.00     0.016 A 
ATOM     11  C   UNL     1       4.897  -2.993   0.243  1.00  0.00     0.010 A 
ATOM     12  C   UNL     1       3.358  -4.054  -1.268  1.00  0.00     0.010 A 
ATOM     13  C   UNL     1       4.422  -4.155  -0.365  1.00  0.00    -0.014 A 
BRANCH  13  14
ATOM     14  C   UNL     1       5.139  -5.437  -0.155  1.00  0.00     0.031 A 
ATOM     15  C   UNL     1       5.873  -6.054  -1.313  1.00  0.00     0.074 A 
ATOM     16  C   UNL     1       5.221  -5.992   1.069  1.00  0.00     0.049 A 
ATOM     17  N   UNL     1       6.542  -7.176  -1.366  1.00  0.00    -0.248 NA
ATOM     18  C   UNL     1       5.853  -5.306  -2.581  1.00  0.00     0.031 C 
ATOM     19  C   UNL     1       4.623  -5.443   2.285  1.00  0.00     0.029 A 
ATOM     20  N   UNL     1       5.869  -7.123   1.499  1.00  0.00    -0.354 N 
ATOM     21  C   UNL     1       6.989  -7.283  -2.676  1.00  0.00     0.074 A 
ATOM     22  C   UNL     1       6.498  -6.128  -3.392  1.00  0.00     0.031 C 
ATOM     23  C   UNL     1       4.969  -6.214   3.329  1.00  0.00     0.029 A 
ATOM     24  C   UNL     1       5.758  -7.340   2.851  1.00  0.00     0.049 A 
ATOM     25  H   UNL     1       6.366  -7.721   0.895  1.00  0.00     0.167 HD
ATOM     26  C   UNL     1       7.751  -8.251  -3.236  1.00  0.00     0.031 A 
ATOM     27  C   UNL     1       6.228  -8.341   3.619  1.00  0.00     0.031 A 
ATOM     28  C   UNL     1       8.258  -9.386  -2.520  1.00  0.00     0.049 A 
ATOM     29  C   UNL     1       7.027  -9.433   2.967  1.00  0.00     0.074 A 
ATOM     30  C   UNL     1       9.006 -10.448  -2.996  1.00  0.00     0.029 A 
ATOM     31  N   UNL     1       8.074  -9.597  -1.162  1.00  0.00    -0.354 N 
ATOM     32  N   UNL     1       7.399  -9.543   1.714  1.00  0.00    -0.248 NA
ATOM     33  C   UNL     1       7.465 -10.539   3.829  1.00  0.00     0.031 C 
ATOM     34  C   UNL     1       9.254 -11.316  -1.926  1.00  0.00     0.029 A 
ATOM     35  C   UNL     1       8.691 -10.774  -0.780  1.00  0.00     0.049 A 
ATOM     36  H   UNL     1       7.579  -8.997  -0.558  1.00  0.00     0.167 HD
ATOM     37  C   UNL     1       8.129 -10.721   1.640  1.00  0.00     0.074 A 
ATOM     38  C   UNL     1       8.163 -11.278   2.978  1.00  0.00     0.031 C 
ATOM     39  C   UNL     1       8.713 -11.296   0.561  1.00  0.00     0.031 A 
BRANCH  26  40
ATOM     40  C   UNL     1       8.026  -8.121  -4.706  1.00  0.00    -0.014 A 
ATOM     41  C   UNL     1       8.932  -7.167  -5.197  1.00  0.00     0.009 A 
ATOM     42  C   UNL     1       7.325  -8.927  -5.614  1.00  0.00     0.009 A 
ATOM     43  C   UNL     1       9.093  -6.991  -6.573  1.00  0.00     0.001 A 
ATOM     44  C   UNL     1       7.506  -8.765  -6.989  1.00  0.00     0.001 A 
ATOM     45  C   UNL     1       8.379  -7.789  -7.467  1.00  0.00     0.000 A 
ENDBRANCH  26  40
BRANCH  27  46
ATOM     46  C   UNL     1       5.941  -8.368   5.080  1.00  0.00    -0.014 A 
ATOM     47  C   UNL     1       6.967  -8.177   6.018  1.00  0.00     0.009 A 
ATOM     48  C   UNL     1       4.634  -8.589   5.544  1.00  0.00     0.009 A 
ATOM     49  C   UNL     1       6.693  -8.227   7.388  1.00  0.00     0.001 A 
ATOM     50  C   UNL     1       4.359  -8.611   6.913  1.00  0.00     0.001 A 
ATOM     51  C   UNL     1       5.389  -8.439   7.834  1.00  0.00     0.000 A 
ENDBRANCH  27  46
BRANCH  39  52
ATOM     52  C   UNL     1       9.459 -12.574   0.795  1.00  0.00    -0.014 A 
ATOM     53  C   UNL     1       8.775 -13.787   0.966  1.00  0.00     0.009 A 
ATOM     54  C   UNL     1      10.862 -12.569   0.797  1.00  0.00     0.009 A 
ATOM     55  C   UNL     1       9.487 -14.972   1.158  1.00  0.00     0.001 A 
ATOM     56  C   UNL     1      11.569 -13.758   0.969  1.00  0.00     0.001 A 
ATOM     57  C   UNL     1      10.882 -14.957   1.155  1.00  0.00     0.000 A 
ENDBRANCH  39  52
ENDBRANCH  13  14
ENDBRANCH   6   8
ENDBRANCH   5   6
ENDBRANCH   4   5
ENDBRANCH   3   4
ENDBRANCH   2   3
ENDBRANCH   1   2
BRANCH   1  58
ATOM     58  C   UNL     1       1.869   1.394   2.722  1.00  0.00     0.188 C 
BRANCH  58  59
ATOM     59  O   UNL     1       2.409   2.184   3.787  1.00  0.00    -0.376 OA
BRANCH  59  60
ATOM     60  C   UNL     1       3.796   2.035   4.064  1.00  0.00     0.202 C 
BRANCH  60  61
ATOM     61  C   UNL     1       4.215   0.770   4.821  1.00  0.00     0.261 C 
BRANCH  61  62
ATOM     62  O   UNL     1       3.652  -0.456   4.321  1.00  0.00    -0.458 OA
BRANCH  62  63
ATOM     63  C   UNL     1       2.672  -0.984   5.091  1.00  0.00     0.358 C 
ATOM     64  O   UNL     1       2.222  -0.517   6.141  1.00  0.00    -0.244 OA
BRANCH  63  65
ATOM     65  C   UNL     1       2.327  -2.336   4.636  1.00  0.00     0.170 A 
ATOM     66  C   UNL     1       2.955  -3.378   5.311  1.00  0.00     0.147 A 
ATOM     67  N   UNL     1       1.296  -2.522   3.753  1.00  0.00    -0.203 NA
ATOM     68  N   UNL     1       2.603  -4.670   5.135  1.00  0.00    -0.257 NA
ATOM     69  C   UNL     1       0.936  -3.821   3.605  1.00  0.00     0.238 A 
ATOM     70  C   UNL     1       1.570  -4.862   4.282  1.00  0.00     0.179 A 
BRANCH  69  71
ATOM     71  O   UNL     1      -0.208  -4.204   2.918  1.00  0.00    -0.434 OA
BRANCH  71  72
ATOM     72  C   UNL     1      -0.718  -3.410   1.927  1.00  0.00     0.168 A 
ATOM     73  C   UNL     1      -0.018  -3.158   0.750  1.00  0.00     0.089 A 
ATOM     74  C   UNL     1      -2.078  -3.094   2.003  1.00  0.00     0.166 A 
ATOM     75  C   UNL     1      -0.702  -2.600  -0.330  1.00  0.00     0.127 A 
ATOM     76  C   UNL     1      -2.747  -2.513   0.928  1.00  0.00     0.046 A 
ATOM     77  F   UNL     1      -2.777  -3.409   3.103  1.00  0.00    -0.203 F 
ATOM     78  F   UNL     1      -0.076  -2.448  -1.501  1.00  0.00    -0.207 F 
ATOM     79  C   UNL     1      -2.052  -2.268  -0.252  1.00  0.00     0.042 A 
ENDBRANCH  71  72
ENDBRANCH  69  71
ENDBRANCH  63  65
ENDBRANCH  62  63
ENDBRANCH  61  62
ENDBRANCH  60  61
ENDBRANCH  59  60
ENDBRANCH  58  59
ENDBRANCH   1  58
TORSDOF 19
