REMARK SMILES Cc1ccc(Nc2c(Cl)cc(Cl)cc2Cl)c(CC(=O)OCCOCCOCCOC(=O)c2ccc(-c3c4nc(c(-c5ccccc5)c5ccc([nH]5)c(-c5ccccc5)c5nc(c(-c6ccccc6)c6ccc3[nH]6)C=C5)C=C4)cc2)c1
REMARK SMILES IDX 24 1 23 2 22 3 21 4 20 5 18 6 19 7 17 8 16 9 1 10 2 11 3 12
REMARK SMILES IDX 80 13 4 14 5 15 6 16 7 18 8 19 14 20 9 21 10 22 13 23 15 24
REMARK SMILES IDX 11 25 12 26 25 27 26 28 27 29 28 30 29 31 30 32 31 33 32 34
REMARK SMILES IDX 33 35 79 36 34 37 78 38 35 39 36 40 37 41 72 42 38 43 77 44
REMARK SMILES IDX 71 45 73 46 39 47 76 48 70 49 69 50 40 52 62 53 47 54 61 55
REMARK SMILES IDX 48 56 51 57 60 58 74 59 49 60 50 61 59 63 75 64 52 65 41 66
REMARK SMILES IDX 42 67 46 68 43 69 45 70 44 71 63 72 64 73 68 74 65 75 67 76
REMARK SMILES IDX 66 77 53 78 54 79 58 80 55 81 57 82 56 83
REMARK H PARENT 6 17 73 51 51 62
REMARK Flexibility Score: inf
ROOT
ATOM      1  C   UNL     1      -4.938   0.944  -3.716  1.00  0.00     0.188 C 
ENDROOT
BRANCH   1   2
ATOM      2  O   UNL     1      -4.526   2.024  -4.510  1.00  0.00    -0.376 OA
BRANCH   2   3
ATOM      3  C   UNL     1      -3.157   2.218  -4.809  1.00  0.00     0.202 C 
BRANCH   3   4
ATOM      4  C   UNL     1      -1.823   2.617  -3.945  1.00  0.00     0.261 C 
BRANCH   4   5
ATOM      5  O   UNL     1      -1.178   2.525  -2.227  1.00  0.00    -0.463 OA
BRANCH   5   6
ATOM      6  C   UNL     1      -1.195   3.259  -0.730  1.00  0.00     0.310 C 
ATOM      7  O   UNL     1      -1.806   4.227  -0.247  1.00  0.00    -0.252 OA
BRANCH   6   8
ATOM      8  C   UNL     1      -0.630   2.455   0.297  1.00  0.00     0.160 C 
BRANCH   8   9
ATOM      9  C   UNL     1      -0.522   1.141  -0.363  1.00  0.00    -0.013 A 
ATOM     10  C   UNL     1       3.149  -0.032  -0.020  1.00  0.00     0.044 C 
ATOM     11  C   UNL     1       1.657  -0.044   0.011  1.00  0.00    -0.051 A 
ATOM     12  C   UNL     1       0.923  -1.030   0.605  1.00  0.00     0.005 A 
ATOM     13  C   UNL     1       0.939   1.024  -0.467  1.00  0.00     0.009 A 
ATOM     14  C   UNL     1      -0.493  -0.928   0.639  1.00  0.00     0.026 A 
ATOM     15  C   UNL     1      -1.472   0.119  -0.109  1.00  0.00     0.042 A 
BRANCH  15  16
ATOM     16  N   UNL     1      -3.371  -0.351  -0.691  1.00  0.00    -0.353 N 
ATOM     17  H   UNL     1      -3.668   0.132  -1.496  1.00  0.00     0.167 HD
BRANCH  16  18
ATOM     18  C   UNL     1      -4.639  -1.504  -0.008  1.00  0.00     0.076 A 
ATOM     19  C   UNL     1      -4.423  -2.555   1.148  1.00  0.00     0.067 A 
ATOM     20  C   UNL     1      -5.775  -1.854  -0.796  1.00  0.00     0.067 A 
ATOM     21  Cl  UNL     1      -3.264  -2.735   2.509  1.00  0.00    -0.082 Cl
ATOM     22  C   UNL     1      -5.179  -3.744   1.272  1.00  0.00     0.043 A 
ATOM     23  C   UNL     1      -6.492  -3.087  -0.586  1.00  0.00     0.043 A 
ATOM     24  Cl  UNL     1      -6.540  -0.977  -2.025  1.00  0.00    -0.082 Cl
ATOM     25  C   UNL     1      -6.164  -4.031   0.375  1.00  0.00     0.044 A 
ATOM     26  Cl  UNL     1      -6.898  -5.586   0.405  1.00  0.00    -0.084 Cl
ENDBRANCH  16  18
ENDBRANCH  15  16
ENDBRANCH   8   9
ENDBRANCH   6   8
ENDBRANCH   5   6
ENDBRANCH   4   5
ENDBRANCH   3   4
ENDBRANCH   2   3
ENDBRANCH   1   2
BRANCH   1  27
ATOM     27  C   UNL     1      -4.465  -0.436  -4.104  1.00  0.00     0.188 C 
BRANCH  27  28
ATOM     28  O   UNL     1      -3.145  -0.474  -4.585  1.00  0.00    -0.376 OA
BRANCH  28  29
ATOM     29  C   UNL     1      -2.687  -1.777  -4.906  1.00  0.00     0.202 C 
BRANCH  29  30
ATOM     30  C   UNL     1      -3.061  -2.969  -3.936  1.00  0.00     0.261 C 
BRANCH  30  31
ATOM     31  O   UNL     1      -2.289  -3.038  -2.670  1.00  0.00    -0.460 OA
BRANCH  31  32
ATOM     32  C   UNL     1      -2.864  -3.051  -1.376  1.00  0.00     0.338 C 
ATOM     33  O   UNL     1      -3.721  -3.887  -1.160  1.00  0.00    -0.246 OA
BRANCH  32  34
ATOM     34  C   UNL     1      -2.254  -1.815  -0.311  1.00  0.00     0.060 A 
ATOM     35  C   UNL     1      -2.902  -0.545   1.058  1.00  0.00     0.016 A 
ATOM     36  C   UNL     1      -1.839  -1.002  -1.865  1.00  0.00     0.016 A 
ATOM     37  C   UNL     1      -3.292   1.240   0.524  1.00  0.00     0.010 A 
ATOM     38  C   UNL     1      -2.329   0.618  -2.224  1.00  0.00     0.010 A 
ATOM     39  C   UNL     1      -3.074   1.865  -1.185  1.00  0.00    -0.014 A 
BRANCH  39  40
ATOM     40  C   UNL     1      -3.107   3.571  -2.047  1.00  0.00     0.031 A 
ATOM     41  C   UNL     1      -1.574   4.666  -2.483  1.00  0.00     0.074 A 
ATOM     42  C   UNL     1      -4.178   4.051  -2.725  1.00  0.00     0.049 A 
ATOM     43  N   UNL     1      -1.212   5.827  -1.956  1.00  0.00    -0.248 NA
ATOM     44  C   UNL     1      -0.071   4.153  -3.092  1.00  0.00     0.031 C 
ATOM     45  C   UNL     1      -4.215   5.108  -3.756  1.00  0.00     0.029 A 
ATOM     46  N   UNL     1      -5.491   3.608  -2.734  1.00  0.00    -0.354 N 
ATOM     47  C   UNL     1       0.148   6.086  -2.336  1.00  0.00     0.074 A 
ATOM     48  C   UNL     1       0.825   4.860  -2.437  1.00  0.00     0.031 C 
ATOM     49  C   UNL     1      -5.498   5.459  -3.992  1.00  0.00     0.029 A 
ATOM     50  C   UNL     1      -6.313   4.701  -3.058  1.00  0.00     0.049 A 
ATOM     51  H   UNL     1      -5.794   2.690  -2.547  1.00  0.00     0.167 HD
ATOM     52  C   UNL     1       0.495   7.091  -3.204  1.00  0.00     0.031 A 
ATOM     53  C   UNL     1      -7.068   5.179  -2.035  1.00  0.00     0.031 A 
ATOM     54  C   UNL     1      -0.734   7.742  -3.591  1.00  0.00     0.049 A 
ATOM     55  C   UNL     1      -6.388   6.443  -1.549  1.00  0.00     0.074 A 
ATOM     56  C   UNL     1      -1.550   7.664  -4.703  1.00  0.00     0.029 A 
ATOM     57  N   UNL     1      -1.534   8.155  -2.547  1.00  0.00    -0.354 N 
ATOM     58  N   UNL     1      -5.113   6.710  -1.719  1.00  0.00    -0.248 NA
ATOM     59  C   UNL     1      -7.136   7.591  -1.060  1.00  0.00     0.031 C 
ATOM     60  C   UNL     1      -2.875   8.017  -4.274  1.00  0.00     0.029 A 
ATOM     61  C   UNL     1      -2.855   8.263  -2.908  1.00  0.00     0.049 A 
ATOM     62  H   UNL     1      -1.196   8.351  -1.644  1.00  0.00     0.167 HD
ATOM     63  C   UNL     1      -4.902   8.044  -1.550  1.00  0.00     0.074 A 
ATOM     64  C   UNL     1      -6.189   8.543  -1.091  1.00  0.00     0.031 C 
ATOM     65  C   UNL     1      -3.763   8.730  -1.868  1.00  0.00     0.031 A 
BRANCH  52  66
ATOM     66  C   UNL     1       1.840   7.212  -3.945  1.00  0.00    -0.014 A 
ATOM     67  C   UNL     1       1.918   8.061  -5.061  1.00  0.00     0.009 A 
ATOM     68  C   UNL     1       3.064   6.585  -3.593  1.00  0.00     0.009 A 
ATOM     69  C   UNL     1       3.113   8.274  -5.773  1.00  0.00     0.001 A 
ATOM     70  C   UNL     1       4.256   6.756  -4.328  1.00  0.00     0.001 A 
ATOM     71  C   UNL     1       4.283   7.619  -5.411  1.00  0.00     0.000 A 
ENDBRANCH  52  66
BRANCH  53  72
ATOM     72  C   UNL     1      -7.637   4.002  -1.282  1.00  0.00    -0.014 A 
ATOM     73  C   UNL     1      -8.500   3.140  -2.022  1.00  0.00     0.009 A 
ATOM     74  C   UNL     1      -6.996   3.461  -0.155  1.00  0.00     0.009 A 
ATOM     75  C   UNL     1      -8.671   1.796  -1.678  1.00  0.00     0.001 A 
ATOM     76  C   UNL     1      -7.185   2.113   0.195  1.00  0.00     0.001 A 
ATOM     77  C   UNL     1      -8.040   1.298  -0.545  1.00  0.00     0.000 A 
ENDBRANCH  53  72
BRANCH  65  78
ATOM     78  C   UNL     1      -3.357   9.975  -1.103  1.00  0.00    -0.014 A 
ATOM     79  C   UNL     1      -3.981  10.375   0.080  1.00  0.00     0.009 A 
ATOM     80  C   UNL     1      -2.188  10.689  -1.466  1.00  0.00     0.009 A 
ATOM     81  C   UNL     1      -3.552  11.502   0.780  1.00  0.00     0.001 A 
ATOM     82  C   UNL     1      -1.677  11.727  -0.697  1.00  0.00     0.001 A 
ATOM     83  C   UNL     1      -2.394  12.169   0.400  1.00  0.00     0.000 A 
ENDBRANCH  65  78
ENDBRANCH  39  40
ENDBRANCH  32  34
ENDBRANCH  31  32
ENDBRANCH  30  31
ENDBRANCH  29  30
ENDBRANCH  28  29
ENDBRANCH  27  28
ENDBRANCH   1  27
TORSDOF 20
