REMARK SMILES O=C(CCCc1nc(-c2ccc(Cl)c(Cl)c2)c(-c2ccccc2)o1)OCCOCCOCCOC(=O)c1ccc(-c2c3nc(c(-c4ccccc4)c4ccc([nH]4)c(-c4ccccc4)c4nc(c(-c5ccccc5)c5ccc2[nH]5)C=C4)C=C3)cc1
REMARK SMILES IDX 29 1 28 2 27 3 26 4 25 5 2 6 1 7 3 8 4 9 5 10 6 11 7 12
REMARK SMILES IDX 24 13 8 14 17 15 9 16 10 17 16 18 11 19 14 20 12 21 15 22
REMARK SMILES IDX 13 23 18 24 19 25 23 26 20 27 22 28 21 29 30 30 31 31 32 32
REMARK SMILES IDX 33 33 34 34 35 35 36 36 37 37 38 38 84 39 39 40 83 41 40 42
REMARK SMILES IDX 41 43 42 44 77 45 43 46 82 47 76 48 78 49 44 50 81 51 75 52
REMARK SMILES IDX 74 53 45 55 67 56 52 57 66 58 53 59 56 60 65 61 79 62 54 63
REMARK SMILES IDX 55 64 64 66 80 67 57 68 46 69 47 70 51 71 48 72 50 73 49 74
REMARK SMILES IDX 68 75 69 76 73 77 70 78 72 79 71 80 58 81 59 82 63 83 60 84
REMARK SMILES IDX 62 85 61 86
REMARK H PARENT 78 54 56 65
REMARK Flexibility Score: inf
ROOT
ATOM      1  C   UNL     1       2.742  -1.374   1.340  1.00  0.00     0.188 C 
ENDROOT
BRANCH   1   2
ATOM      2  O   UNL     1       3.940  -0.605   1.413  1.00  0.00    -0.376 OA
BRANCH   2   3
ATOM      3  C   UNL     1       3.799   0.679   2.004  1.00  0.00     0.202 C 
BRANCH   3   4
ATOM      4  C   UNL     1       3.899   1.750   0.928  1.00  0.00     0.261 C 
BRANCH   4   5
ATOM      5  O   UNL     1       2.700   1.817   0.133  1.00  0.00    -0.463 OA
BRANCH   5   6
ATOM      6  C   UNL     1       2.596   1.392  -1.145  1.00  0.00     0.305 C 
ATOM      7  O   UNL     1       1.687   1.818  -1.857  1.00  0.00    -0.252 OA
BRANCH   6   8
ATOM      8  C   UNL     1       3.539   0.333  -1.664  1.00  0.00     0.123 C 
BRANCH   8   9
ATOM      9  C   UNL     1       4.668   0.839  -2.561  1.00  0.00     0.021 C 
BRANCH   9  10
ATOM     10  C   UNL     1       6.055   0.955  -1.916  1.00  0.00     0.098 C 
BRANCH  10  11
ATOM     11  C   UNL     1       6.514  -0.251  -1.167  1.00  0.00     0.195 A 
ATOM     12  N   UNL     1       6.194  -1.522  -1.330  1.00  0.00    -0.213 NA
ATOM     13  O   UNL     1       7.428  -0.018  -0.172  1.00  0.00    -0.440 OA
ATOM     14  C   UNL     1       6.928  -2.174  -0.360  1.00  0.00     0.117 A 
ATOM     15  C   UNL     1       7.721  -1.263   0.314  1.00  0.00     0.162 A 
BRANCH  14  16
ATOM     16  C   UNL     1       6.922  -3.614  -0.160  1.00  0.00     0.006 A 
ATOM     17  C   UNL     1       6.771  -4.465  -1.259  1.00  0.00     0.012 A 
ATOM     18  C   UNL     1       7.109  -4.179   1.112  1.00  0.00     0.032 A 
ATOM     19  C   UNL     1       6.857  -5.853  -1.099  1.00  0.00     0.023 A 
ATOM     20  C   UNL     1       7.196  -5.566   1.275  1.00  0.00     0.060 A 
ATOM     21  C   UNL     1       7.075  -6.405   0.166  1.00  0.00     0.059 A 
ATOM     22  Cl  UNL     1       7.463  -6.173   2.872  1.00  0.00    -0.083 Cl
ATOM     23  Cl  UNL     1       7.154  -8.126   0.292  1.00  0.00    -0.083 Cl
ENDBRANCH  14  16
BRANCH  15  24
ATOM     24  C   UNL     1       8.790  -1.352   1.292  1.00  0.00     0.020 A 
ATOM     25  C   UNL     1       8.698  -0.708   2.530  1.00  0.00     0.012 A 
ATOM     26  C   UNL     1       9.907  -2.160   1.024  1.00  0.00     0.012 A 
ATOM     27  C   UNL     1       9.697  -0.890   3.492  1.00  0.00     0.001 A 
ATOM     28  C   UNL     1      10.903  -2.338   1.983  1.00  0.00     0.001 A 
ATOM     29  C   UNL     1      10.795  -1.707   3.220  1.00  0.00     0.000 A 
ENDBRANCH  15  24
ENDBRANCH  10  11
ENDBRANCH   9  10
ENDBRANCH   8   9
ENDBRANCH   6   8
ENDBRANCH   5   6
ENDBRANCH   4   5
ENDBRANCH   3   4
ENDBRANCH   2   3
ENDBRANCH   1   2
BRANCH   1  30
ATOM     30  C   UNL     1       2.164  -1.772   2.701  1.00  0.00     0.188 C 
BRANCH  30  31
ATOM     31  O   UNL     1       3.095  -1.879   3.774  1.00  0.00    -0.376 OA
BRANCH  31  32
ATOM     32  C   UNL     1       4.257  -2.683   3.572  1.00  0.00     0.202 C 
BRANCH  32  33
ATOM     33  C   UNL     1       3.983  -4.175   3.403  1.00  0.00     0.261 C 
BRANCH  33  34
ATOM     34  O   UNL     1       3.761  -4.500   2.017  1.00  0.00    -0.460 OA
BRANCH  34  35
ATOM     35  C   UNL     1       2.557  -5.038   1.720  1.00  0.00     0.338 C 
ATOM     36  O   UNL     1       1.627  -5.246   2.478  1.00  0.00    -0.246 OA
BRANCH  35  37
ATOM     37  C   UNL     1       2.468  -5.280   0.271  1.00  0.00     0.060 A 
ATOM     38  C   UNL     1       1.391  -4.738  -0.438  1.00  0.00     0.016 A 
ATOM     39  C   UNL     1       3.363  -6.151  -0.349  1.00  0.00     0.016 A 
ATOM     40  C   UNL     1       1.176  -5.111  -1.766  1.00  0.00     0.010 A 
ATOM     41  C   UNL     1       3.155  -6.514  -1.679  1.00  0.00     0.010 A 
ATOM     42  C   UNL     1       2.033  -6.035  -2.378  1.00  0.00    -0.014 A 
BRANCH  42  43
ATOM     43  C   UNL     1       1.670  -6.671  -3.667  1.00  0.00     0.031 A 
ATOM     44  C   UNL     1       1.111  -8.067  -3.645  1.00  0.00     0.074 A 
ATOM     45  C   UNL     1       1.876  -6.046  -4.838  1.00  0.00     0.049 A 
ATOM     46  N   UNL     1       0.870  -8.882  -4.640  1.00  0.00    -0.248 NA
ATOM     47  C   UNL     1       0.801  -8.624  -2.318  1.00  0.00     0.031 C 
ATOM     48  C   UNL     1       2.381  -4.684  -4.997  1.00  0.00     0.029 A 
ATOM     49  N   UNL     1       1.709  -6.500  -6.123  1.00  0.00    -0.354 N 
ATOM     50  C   UNL     1       0.411 -10.057  -4.058  1.00  0.00     0.074 A 
ATOM     51  C   UNL     1       0.423  -9.856  -2.625  1.00  0.00     0.031 C 
ATOM     52  C   UNL     1       2.510  -4.422  -6.309  1.00  0.00     0.029 A 
ATOM     53  C   UNL     1       2.135  -5.609  -7.075  1.00  0.00     0.049 A 
ATOM     54  H   UNL     1       1.321  -7.379  -6.339  1.00  0.00     0.167 HD
ATOM     55  C   UNL     1       0.018 -11.204  -4.660  1.00  0.00     0.031 A 
ATOM     56  C   UNL     1       2.248  -5.750  -8.410  1.00  0.00     0.031 A 
ATOM     57  C   UNL     1       0.004 -11.406  -6.082  1.00  0.00     0.049 A 
ATOM     58  C   UNL     1       1.849  -7.047  -9.060  1.00  0.00     0.074 A 
ATOM     59  C   UNL     1      -0.415 -12.518  -6.792  1.00  0.00     0.029 A 
ATOM     60  N   UNL     1       0.436 -10.474  -7.012  1.00  0.00    -0.354 N 
ATOM     61  N   UNL     1       1.392  -8.143  -8.504  1.00  0.00    -0.248 NA
ATOM     62  C   UNL     1       1.983  -7.126 -10.523  1.00  0.00     0.031 C 
ATOM     63  C   UNL     1      -0.189 -12.276  -8.151  1.00  0.00     0.029 A 
ATOM     64  C   UNL     1       0.322 -10.995  -8.289  1.00  0.00     0.049 A 
ATOM     65  H   UNL     1       0.774  -9.575  -6.797  1.00  0.00     0.167 HD
ATOM     66  C   UNL     1       1.161  -9.031  -9.547  1.00  0.00     0.074 A 
ATOM     67  C   UNL     1       1.524  -8.346 -10.771  1.00  0.00     0.031 C 
ATOM     68  C   UNL     1       0.687 -10.300  -9.496  1.00  0.00     0.031 A 
BRANCH  55  69
ATOM     69  C   UNL     1      -0.383 -12.344  -3.767  1.00  0.00    -0.014 A 
ATOM     70  C   UNL     1      -1.585 -12.320  -3.043  1.00  0.00     0.009 A 
ATOM     71  C   UNL     1       0.461 -13.459  -3.650  1.00  0.00     0.009 A 
ATOM     72  C   UNL     1      -1.913 -13.373  -2.186  1.00  0.00     0.001 A 
ATOM     73  C   UNL     1       0.117 -14.523  -2.814  1.00  0.00     0.001 A 
ATOM     74  C   UNL     1      -1.063 -14.474  -2.074  1.00  0.00     0.000 A 
ENDBRANCH  55  69
BRANCH  56  75
ATOM     75  C   UNL     1       2.800  -4.633  -9.218  1.00  0.00    -0.014 A 
ATOM     76  C   UNL     1       1.965  -3.857 -10.034  1.00  0.00     0.009 A 
ATOM     77  C   UNL     1       4.169  -4.326  -9.157  1.00  0.00     0.009 A 
ATOM     78  C   UNL     1       2.493  -2.801 -10.782  1.00  0.00     0.001 A 
ATOM     79  C   UNL     1       4.689  -3.257  -9.888  1.00  0.00     0.001 A 
ATOM     80  C   UNL     1       3.852  -2.498 -10.703  1.00  0.00     0.000 A 
ENDBRANCH  56  75
BRANCH  68  81
ATOM     81  C   UNL     1       0.499 -11.025 -10.797  1.00  0.00    -0.014 A 
ATOM     82  C   UNL     1       1.592 -11.556 -11.499  1.00  0.00     0.009 A 
ATOM     83  C   UNL     1      -0.798 -11.242 -11.289  1.00  0.00     0.009 A 
ATOM     84  C   UNL     1       1.389 -12.276 -12.679  1.00  0.00     0.001 A 
ATOM     85  C   UNL     1      -0.999 -11.981 -12.456  1.00  0.00     0.001 A 
ATOM     86  C   UNL     1       0.094 -12.493 -13.152  1.00  0.00     0.000 A 
ENDBRANCH  68  81
ENDBRANCH  42  43
ENDBRANCH  35  37
ENDBRANCH  34  35
ENDBRANCH  33  34
ENDBRANCH  32  33
ENDBRANCH  31  32
ENDBRANCH  30  31
ENDBRANCH   1  30
TORSDOF 22
