REMARK SMILES COC[C@@H](C)CC(=O)Nc1cccc(/C=C/C(=O)OCCOCCOCCOC(=O)c2ccc(-c3c4nc(c(-c5ccccc5)c5ccc([nH]5)c(-c5ccccc5)c5nc(c(-c6ccccc6)c6ccc3[nH]6)C=C5)C=C4)cc2)c1
REMARK SMILES IDX 21 1 20 2 19 3 17 4 18 5 16 6 15 7 14 8 10 9 11 10 79 11
REMARK SMILES IDX 12 12 13 13 9 14 7 15 8 16 6 18 4 19 5 20 3 21 2 22 1 23
REMARK SMILES IDX 22 24 23 25 24 26 25 27 26 28 27 29 28 30 29 31 30 32 31 33
REMARK SMILES IDX 32 34 78 35 33 36 77 37 34 38 35 39 36 40 71 41 37 42 76 43
REMARK SMILES IDX 70 44 72 45 38 46 75 47 69 48 68 49 39 51 61 52 46 53 60 54
REMARK SMILES IDX 47 55 50 56 59 57 73 58 48 59 49 60 58 62 74 63 51 64 40 65
REMARK SMILES IDX 41 66 45 67 42 68 44 69 43 70 62 71 63 72 67 73 64 74 66 75
REMARK SMILES IDX 65 76 52 77 53 78 57 79 54 80 56 81 55 82
REMARK H PARENT 9 17 72 50 50 61
REMARK Flexibility Score: inf
ROOT
ATOM      1  C   UNL     1       0.932   2.522   4.033  1.00  0.00     0.202 C 
ENDROOT
BRANCH   1   2
ATOM      2  C   UNL     1       1.646   2.457   2.673  1.00  0.00     0.261 C 
BRANCH   2   3
ATOM      3  O   UNL     1       1.806   1.139   2.104  1.00  0.00    -0.460 OA
BRANCH   3   4
ATOM      4  C   UNL     1       3.085   0.722   1.936  1.00  0.00     0.330 C 
ATOM      5  O   UNL     1       4.089   1.362   2.215  1.00  0.00    -0.247 OA
BRANCH   4   6
ATOM      6  C   UNL     1       3.207  -0.644   1.367  1.00  0.00     0.094 C 
ATOM      7  C   UNL     1       2.229  -1.491   1.006  1.00  0.00     0.015 C 
BRANCH   7   8
ATOM      8  C   UNL     1       2.493  -2.756   0.293  1.00  0.00    -0.023 A 
ATOM      9  C   UNL     1       1.922  -4.095  -1.670  1.00  0.00     0.041 A 
ATOM     10  C   UNL     1       2.993  -4.941  -1.415  1.00  0.00     0.026 A 
ATOM     11  C   UNL     1       1.621  -3.106  -0.740  1.00  0.00     0.034 A 
ATOM     12  C   UNL     1       3.811  -4.699  -0.303  1.00  0.00     0.003 A 
ATOM     13  C   UNL     1       3.581  -3.594   0.530  1.00  0.00     0.008 A 
BRANCH   9  14
ATOM     14  N   UNL     1       1.130  -4.251  -2.820  1.00  0.00    -0.326 N 
ATOM     15  C   UNL     1       0.475  -3.273  -3.544  1.00  0.00     0.224 C 
ATOM     16  O   UNL     1      -0.480  -3.583  -4.258  1.00  0.00    -0.275 OA
ATOM     17  H   UNL     1       1.029  -5.172  -3.152  1.00  0.00     0.169 HD
BRANCH  15  18
ATOM     18  C   UNL     1       1.095  -1.874  -3.625  1.00  0.00     0.106 C 
BRANCH  18  19
ATOM     19  C   UNL     1       0.178  -0.664  -3.347  1.00  0.00     0.021 C 
ATOM     20  C   UNL     1       0.923   0.621  -3.744  1.00  0.00     0.010 C 
BRANCH  19  21
ATOM     21  C   UNL     1      -0.222  -0.580  -1.871  1.00  0.00     0.163 C 
BRANCH  21  22
ATOM     22  O   UNL     1      -0.837   0.665  -1.549  1.00  0.00    -0.384 OA
ATOM     23  C   UNL     1      -0.211   1.281  -0.426  1.00  0.00     0.194 C 
ENDBRANCH  21  22
ENDBRANCH  19  21
ENDBRANCH  18  19
ENDBRANCH  15  18
ENDBRANCH   9  14
ENDBRANCH   7   8
ENDBRANCH   4   6
ENDBRANCH   3   4
ENDBRANCH   2   3
ENDBRANCH   1   2
BRANCH   1  24
ATOM     24  O   UNL     1       1.297   1.604   5.054  1.00  0.00    -0.376 OA
BRANCH  24  25
ATOM     25  C   UNL     1       1.319   0.212   4.762  1.00  0.00     0.188 C 
BRANCH  25  26
ATOM     26  C   UNL     1       0.174  -0.415   3.941  1.00  0.00     0.188 C 
BRANCH  26  27
ATOM     27  O   UNL     1      -0.853   0.481   3.595  1.00  0.00    -0.376 OA
BRANCH  27  28
ATOM     28  C   UNL     1      -2.065   0.454   4.326  1.00  0.00     0.202 C 
BRANCH  28  29
ATOM     29  C   UNL     1      -2.139   0.169   5.842  1.00  0.00     0.261 C 
BRANCH  29  30
ATOM     30  O   UNL     1      -1.048  -0.531   6.456  1.00  0.00    -0.460 OA
BRANCH  30  31
ATOM     31  C   UNL     1      -1.128  -1.880   6.513  1.00  0.00     0.338 C 
ATOM     32  O   UNL     1      -2.022  -2.584   6.068  1.00  0.00    -0.246 OA
BRANCH  31  33
ATOM     33  C   UNL     1       0.161  -2.401   7.018  1.00  0.00     0.060 A 
ATOM     34  C   UNL     1       0.971  -3.153   6.154  1.00  0.00     0.016 A 
ATOM     35  C   UNL     1       0.578  -2.141   8.325  1.00  0.00     0.016 A 
ATOM     36  C   UNL     1       2.191  -3.664   6.603  1.00  0.00     0.010 A 
ATOM     37  C   UNL     1       1.790  -2.675   8.780  1.00  0.00     0.010 A 
ATOM     38  C   UNL     1       2.590  -3.461   7.930  1.00  0.00    -0.014 A 
BRANCH  38  39
ATOM     39  C   UNL     1       3.758  -4.204   8.468  1.00  0.00     0.031 A 
ATOM     40  C   UNL     1       3.515  -5.455   9.268  1.00  0.00     0.074 A 
ATOM     41  C   UNL     1       5.017  -3.793   8.235  1.00  0.00     0.049 A 
ATOM     42  N   UNL     1       4.377  -6.255   9.842  1.00  0.00    -0.248 NA
ATOM     43  C   UNL     1       2.109  -5.854   9.444  1.00  0.00     0.031 C 
ATOM     44  C   UNL     1       5.395  -2.620   7.450  1.00  0.00     0.029 A 
ATOM     45  N   UNL     1       6.215  -4.323   8.650  1.00  0.00    -0.354 N 
ATOM     46  C   UNL     1       3.619  -7.244  10.459  1.00  0.00     0.074 A 
ATOM     47  C   UNL     1       2.229  -6.927  10.211  1.00  0.00     0.031 C 
ATOM     48  C   UNL     1       6.736  -2.513   7.448  1.00  0.00     0.029 A 
ATOM     49  C   UNL     1       7.307  -3.589   8.257  1.00  0.00     0.049 A 
ATOM     50  H   UNL     1       6.284  -5.151   9.179  1.00  0.00     0.167 HD
ATOM     51  C   UNL     1       4.040  -8.320  11.166  1.00  0.00     0.031 A 
ATOM     52  C   UNL     1       8.615  -3.751   8.537  1.00  0.00     0.031 A 
ATOM     53  C   UNL     1       5.420  -8.626  11.431  1.00  0.00     0.049 A 
ATOM     54  C   UNL     1       9.056  -4.916   9.385  1.00  0.00     0.074 A 
ATOM     55  C   UNL     1       5.946  -9.711  12.112  1.00  0.00     0.029 A 
ATOM     56  N   UNL     1       6.494  -7.838  11.046  1.00  0.00    -0.354 N 
ATOM     57  N   UNL     1       8.334  -5.871   9.920  1.00  0.00    -0.248 NA
ATOM     58  C   UNL     1      10.497  -5.029   9.657  1.00  0.00     0.031 C 
ATOM     59  C   UNL     1       7.332  -9.542  12.201  1.00  0.00     0.029 A 
ATOM     60  C   UNL     1       7.677  -8.392  11.509  1.00  0.00     0.049 A 
ATOM     61  H   UNL     1       6.425  -7.008  10.521  1.00  0.00     0.167 HD
ATOM     62  C   UNL     1       9.233  -6.710  10.570  1.00  0.00     0.074 A 
ATOM     63  C   UNL     1      10.554  -6.162  10.342  1.00  0.00     0.031 C 
ATOM     64  C   UNL     1       8.987  -7.833  11.289  1.00  0.00     0.031 A 
BRANCH  51  65
ATOM     65  C   UNL     1       2.983  -9.220  11.747  1.00  0.00    -0.014 A 
ATOM     66  C   UNL     1       2.177 -10.032  10.933  1.00  0.00     0.009 A 
ATOM     67  C   UNL     1       2.809  -9.272  13.139  1.00  0.00     0.009 A 
ATOM     68  C   UNL     1       1.193 -10.846  11.499  1.00  0.00     0.001 A 
ATOM     69  C   UNL     1       1.847 -10.110  13.705  1.00  0.00     0.001 A 
ATOM     70  C   UNL     1       1.032 -10.888  12.884  1.00  0.00     0.000 A 
ENDBRANCH  51  65
BRANCH  52  71
ATOM     71  C   UNL     1       9.610  -2.767   8.030  1.00  0.00    -0.014 A 
ATOM     72  C   UNL     1      10.553  -3.131   7.057  1.00  0.00     0.009 A 
ATOM     73  C   UNL     1       9.630  -1.457   8.534  1.00  0.00     0.009 A 
ATOM     74  C   UNL     1      11.507  -2.210   6.616  1.00  0.00     0.001 A 
ATOM     75  C   UNL     1      10.563  -0.529   8.068  1.00  0.00     0.001 A 
ATOM     76  C   UNL     1      11.507  -0.909   7.117  1.00  0.00     0.000 A 
ENDBRANCH  52  71
BRANCH  64  77
ATOM     77  C   UNL     1      10.173  -8.565  11.859  1.00  0.00    -0.014 A 
ATOM     78  C   UNL     1      10.934  -8.026  12.909  1.00  0.00     0.009 A 
ATOM     79  C   UNL     1      10.517  -9.830  11.356  1.00  0.00     0.009 A 
ATOM     80  C   UNL     1      12.037  -8.720  13.412  1.00  0.00     0.001 A 
ATOM     81  C   UNL     1      11.598 -10.537  11.884  1.00  0.00     0.001 A 
ATOM     82  C   UNL     1      12.365  -9.976  12.903  1.00  0.00     0.000 A 
ENDBRANCH  64  77
ENDBRANCH  38  39
ENDBRANCH  31  33
ENDBRANCH  30  31
ENDBRANCH  29  30
ENDBRANCH  28  29
ENDBRANCH  27  28
ENDBRANCH  26  27
ENDBRANCH  25  26
ENDBRANCH  24  25
ENDBRANCH   1  24
TORSDOF 23
