REMARK SMILES CCn1cnc(S(=O)(=O)N[C@H](CC(C)C)C(=O)OCCOCCOCCOC(=O)c2ccc(-c3c4nc(c(-c5ccccc5)c5ccc([nH]5)c(-c5ccccc5)c5nc(c(-c6ccccc6)c6ccc3[nH]6)C=C5)C=C4)cc2)c1
REMARK SMILES IDX 22 1 21 2 20 3 19 4 18 5 16 6 17 7 11 8 10 9 7 11 8 12 9 13
REMARK SMILES IDX 6 14 3 15 4 16 78 17 5 18 2 19 1 20 12 21 13 22 14 23 15 24
REMARK SMILES IDX 23 25 24 26 25 27 26 28 27 29 28 30 29 31 30 32 31 33 77 34
REMARK SMILES IDX 32 35 76 36 33 37 34 38 35 39 70 40 36 41 75 42 69 43 71 44
REMARK SMILES IDX 37 45 74 46 68 47 67 48 38 50 60 51 45 52 59 53 46 54 49 55
REMARK SMILES IDX 58 56 72 57 47 58 48 59 57 61 73 62 50 63 39 64 40 65 44 66
REMARK SMILES IDX 41 67 43 68 42 69 61 70 62 71 66 72 63 73 65 74 64 75 51 76
REMARK SMILES IDX 52 77 56 78 53 79 55 80 54 81
REMARK H PARENT 10 10 71 49 49 60
REMARK Flexibility Score: inf
ROOT
ATOM      1  C   UNL     1       3.976  -2.175   5.973  1.00  0.00     0.188 C 
ENDROOT
BRANCH   1   2
ATOM      2  O   UNL     1       5.167  -2.944   6.186  1.00  0.00    -0.376 OA
BRANCH   2   3
ATOM      3  C   UNL     1       6.094  -2.444   7.155  1.00  0.00     0.202 C 
BRANCH   3   4
ATOM      4  C   UNL     1       6.822  -1.148   6.765  1.00  0.00     0.261 C 
BRANCH   4   5
ATOM      5  O   UNL     1       5.899  -0.100   6.429  1.00  0.00    -0.462 OA
BRANCH   5   6
ATOM      6  C   UNL     1       6.188   0.664   5.352  1.00  0.00     0.324 C 
ATOM      7  O   UNL     1       7.258   0.652   4.751  1.00  0.00    -0.250 OA
BRANCH   6   8
ATOM      8  C   UNL     1       4.997   1.525   4.898  1.00  0.00     0.180 C 
BRANCH   8   9
ATOM      9  N   UNL     1       5.567   2.722   4.199  1.00  0.00    -0.195 NA
ATOM     10  H   UNL     1       5.346   3.540   4.766  1.00  0.00     0.142 HD
BRANCH   9  11
ATOM     11  S   UNL     1       5.035   3.042   2.622  1.00  0.00     0.260 S 
ATOM     12  O   UNL     1       4.707   1.795   1.992  1.00  0.00    -0.205 OA
ATOM     13  O   UNL     1       6.011   3.970   2.068  1.00  0.00    -0.205 OA
BRANCH  11  14
ATOM     14  C   UNL     1       3.552   3.960   2.676  1.00  0.00     0.188 A 
ATOM     15  N   UNL     1       1.801   5.064   3.367  1.00  0.00    -0.336 N 
ATOM     16  C   UNL     1       1.717   4.863   2.019  1.00  0.00     0.201 A 
ATOM     17  C   UNL     1       3.012   4.587   3.783  1.00  0.00     0.129 A 
ATOM     18  N   UNL     1       2.739   4.168   1.573  1.00  0.00    -0.224 NA
BRANCH  15  19
ATOM     19  C   UNL     1       0.780   5.641   4.219  1.00  0.00     0.120 C 
ATOM     20  C   UNL     1      -0.592   5.014   4.017  1.00  0.00     0.027 C 
ENDBRANCH  15  19
ENDBRANCH  11  14
ENDBRANCH   9  11
ENDBRANCH   8   9
BRANCH   8  21
ATOM     21  C   UNL     1       3.993   1.947   5.980  1.00  0.00     0.035 C 
BRANCH  21  22
ATOM     22  C   UNL     1       4.503   2.622   7.270  1.00  0.00    -0.015 C 
ATOM     23  C   UNL     1       5.534   3.726   7.056  1.00  0.00     0.007 C 
ATOM     24  C   UNL     1       3.308   3.192   8.048  1.00  0.00     0.007 C 
ENDBRANCH  21  22
ENDBRANCH   8  21
ENDBRANCH   6   8
ENDBRANCH   5   6
ENDBRANCH   4   5
ENDBRANCH   3   4
ENDBRANCH   2   3
ENDBRANCH   1   2
BRANCH   1  25
ATOM     25  C   UNL     1       3.209  -1.801   7.251  1.00  0.00     0.188 C 
BRANCH  25  26
ATOM     26  O   UNL     1       3.980  -0.910   8.051  1.00  0.00    -0.376 OA
BRANCH  26  27
ATOM     27  C   UNL     1       3.490  -0.431   9.294  1.00  0.00     0.202 C 
BRANCH  27  28
ATOM     28  C   UNL     1       2.895  -1.431  10.279  1.00  0.00     0.261 C 
BRANCH  28  29
ATOM     29  O   UNL     1       1.825  -2.217   9.768  1.00  0.00    -0.460 OA
BRANCH  29  30
ATOM     30  C   UNL     1       0.809  -1.627   9.113  1.00  0.00     0.338 C 
ATOM     31  O   UNL     1       0.601  -0.433   8.969  1.00  0.00    -0.246 OA
BRANCH  30  32
ATOM     32  C   UNL     1      -0.022  -2.713   8.567  1.00  0.00     0.060 A 
ATOM     33  C   UNL     1      -1.254  -2.384   8.002  1.00  0.00     0.016 A 
ATOM     34  C   UNL     1       0.380  -4.055   8.707  1.00  0.00     0.016 A 
ATOM     35  C   UNL     1      -2.155  -3.401   7.755  1.00  0.00     0.010 A 
ATOM     36  C   UNL     1      -0.519  -5.067   8.468  1.00  0.00     0.010 A 
ATOM     37  C   UNL     1      -1.803  -4.721   8.070  1.00  0.00    -0.014 A 
BRANCH  37  38
ATOM     38  C   UNL     1      -2.827  -5.739   7.982  1.00  0.00     0.031 A 
ATOM     39  C   UNL     1      -3.126  -6.201   6.620  1.00  0.00     0.074 A 
ATOM     40  C   UNL     1      -3.409  -6.281   9.069  1.00  0.00     0.049 A 
ATOM     41  N   UNL     1      -4.186  -5.951   5.929  1.00  0.00    -0.248 NA
ATOM     42  C   UNL     1      -2.085  -6.952   5.903  1.00  0.00     0.031 C 
ATOM     43  C   UNL     1      -2.954  -6.157  10.457  1.00  0.00     0.029 A 
ATOM     44  N   UNL     1      -4.471  -7.136   9.155  1.00  0.00    -0.354 N 
ATOM     45  C   UNL     1      -4.059  -6.731   4.788  1.00  0.00     0.074 A 
ATOM     46  C   UNL     1      -2.683  -7.159   4.729  1.00  0.00     0.031 C 
ATOM     47  C   UNL     1      -3.604  -7.065  11.217  1.00  0.00     0.029 A 
ATOM     48  C   UNL     1      -4.618  -7.719  10.404  1.00  0.00     0.049 A 
ATOM     49  H   UNL     1      -5.075  -7.321   8.400  1.00  0.00     0.167 HD
ATOM     50  C   UNL     1      -5.164  -7.270   4.210  1.00  0.00     0.031 A 
ATOM     51  C   UNL     1      -5.489  -8.690  10.758  1.00  0.00     0.031 A 
ATOM     52  C   UNL     1      -6.379  -6.632   4.650  1.00  0.00     0.049 A 
ATOM     53  C   UNL     1      -6.623  -8.689   9.812  1.00  0.00     0.074 A 
ATOM     54  C   UNL     1      -7.076  -5.473   4.399  1.00  0.00     0.029 A 
ATOM     55  N   UNL     1      -6.895  -7.175   5.793  1.00  0.00    -0.354 N 
ATOM     56  N   UNL     1      -7.503  -7.731   9.744  1.00  0.00    -0.248 NA
ATOM     57  C   UNL     1      -6.661  -9.652   8.716  1.00  0.00     0.031 C 
ATOM     58  C   UNL     1      -7.976  -5.293   5.496  1.00  0.00     0.029 A 
ATOM     59  C   UNL     1      -7.811  -6.349   6.387  1.00  0.00     0.049 A 
ATOM     60  H   UNL     1      -6.638  -8.057   6.148  1.00  0.00     0.167 HD
ATOM     61  C   UNL     1      -7.900  -7.729   8.423  1.00  0.00     0.074 A 
ATOM     62  C   UNL     1      -7.507  -9.026   7.894  1.00  0.00     0.031 C 
ATOM     63  C   UNL     1      -8.172  -6.562   7.772  1.00  0.00     0.031 A 
BRANCH  50  64
ATOM     64  C   UNL     1      -5.201  -8.704   3.722  1.00  0.00    -0.014 A 
ATOM     65  C   UNL     1      -6.375  -9.162   3.100  1.00  0.00     0.009 A 
ATOM     66  C   UNL     1      -4.278  -9.689   4.131  1.00  0.00     0.009 A 
ATOM     67  C   UNL     1      -6.631 -10.530   2.942  1.00  0.00     0.001 A 
ATOM     68  C   UNL     1      -4.512 -11.053   3.939  1.00  0.00     0.001 A 
ATOM     69  C   UNL     1      -5.701 -11.474   3.365  1.00  0.00     0.000 A 
ENDBRANCH  50  64
BRANCH  51  70
ATOM     70  C   UNL     1      -5.342  -9.730  11.794  1.00  0.00    -0.014 A 
ATOM     71  C   UNL     1      -6.465 -10.418  12.280  1.00  0.00     0.009 A 
ATOM     72  C   UNL     1      -4.069 -10.236  12.114  1.00  0.00     0.009 A 
ATOM     73  C   UNL     1      -6.319 -11.598  13.018  1.00  0.00     0.001 A 
ATOM     74  C   UNL     1      -3.923 -11.408  12.860  1.00  0.00     0.001 A 
ATOM     75  C   UNL     1      -5.049 -12.099  13.296  1.00  0.00     0.000 A 
ENDBRANCH  51  70
BRANCH  63  76
ATOM     76  C   UNL     1      -8.662  -5.405   8.590  1.00  0.00    -0.014 A 
ATOM     77  C   UNL     1      -7.909  -4.799   9.607  1.00  0.00     0.009 A 
ATOM     78  C   UNL     1      -9.938  -4.893   8.307  1.00  0.00     0.009 A 
ATOM     79  C   UNL     1      -8.436  -3.736  10.348  1.00  0.00     0.001 A 
ATOM     80  C   UNL     1     -10.457  -3.819   9.033  1.00  0.00     0.001 A 
ATOM     81  C   UNL     1      -9.709  -3.247  10.059  1.00  0.00     0.000 A 
ENDBRANCH  63  76
ENDBRANCH  37  38
ENDBRANCH  30  32
ENDBRANCH  29  30
ENDBRANCH  28  29
ENDBRANCH  27  28
ENDBRANCH  26  27
ENDBRANCH  25  26
ENDBRANCH   1  25
TORSDOF 23
