REMARK SMILES O=C(OCCOCCOCCOC(=O)[C@@H]1[C@@H](C(=O)Nc2cccc([N+](=O)[O-])c2)[C@@H]2C=C[C@H]1O2)c1ccc(-c2c3nc(c(-c4ccccc4)c4ccc([nH]4)c(-c4ccccc4)c4nc(c(-c5ccccc5)c5ccc2[nH]5)C=C4)C=C3)cc1
REMARK SMILES IDX 8 1 7 2 6 3 5 4 4 5 3 6 2 7 1 8 34 9 35 10 81 11 36 12 80 13
REMARK SMILES IDX 37 14 38 15 39 16 74 17 40 18 79 19 73 20 75 21 41 22 78 23
REMARK SMILES IDX 72 24 71 25 42 27 64 28 49 29 63 30 50 31 53 32 62 33 76 34
REMARK SMILES IDX 51 35 52 36 61 38 77 39 54 40 43 41 44 42 48 43 45 44 47 45
REMARK SMILES IDX 46 46 65 47 66 48 70 49 67 50 69 51 68 52 55 53 56 54 60 55
REMARK SMILES IDX 57 56 59 57 58 58 9 59 10 60 11 61 12 62 13 63 14 64 15 65
REMARK SMILES IDX 16 66 32 67 29 68 31 69 33 70 30 71 17 72 18 73 19 74 20 76
REMARK SMILES IDX 21 77 28 78 22 79 24 80 23 81 25 82 26 83 27 84
REMARK H PARENT 75 26 53 37 19 75
REMARK Flexibility Score: inf
ROOT
ATOM      1  C   UNL     1       1.933  -0.924  -3.124  1.00  0.00     0.188 C 
ENDROOT
BRANCH   1   2
ATOM      2  C   UNL     1       2.502  -1.107  -1.715  1.00  0.00     0.188 C 
BRANCH   2   3
ATOM      3  O   UNL     1       3.838  -0.611  -1.561  1.00  0.00    -0.376 OA
BRANCH   3   4
ATOM      4  C   UNL     1       4.661  -1.468  -0.755  1.00  0.00     0.202 C 
BRANCH   4   5
ATOM      5  C   UNL     1       4.410  -1.382   0.763  1.00  0.00     0.261 C 
BRANCH   5   6
ATOM      6  O   UNL     1       3.082  -0.954   1.106  1.00  0.00    -0.460 OA
BRANCH   6   7
ATOM      7  C   UNL     1       2.604   0.308   1.257  1.00  0.00     0.338 C 
ATOM      8  O   UNL     1       1.425   0.444   1.585  1.00  0.00    -0.246 OA
BRANCH   7   9
ATOM      9  C   UNL     1       3.418   1.549   1.043  1.00  0.00     0.060 A 
ATOM     10  C   UNL     1       4.663   1.603   0.414  1.00  0.00     0.016 A 
ATOM     11  C   UNL     1       2.868   2.764   1.480  1.00  0.00     0.016 A 
ATOM     12  C   UNL     1       5.399   2.776   0.314  1.00  0.00     0.010 A 
ATOM     13  C   UNL     1       3.564   3.967   1.307  1.00  0.00     0.010 A 
ATOM     14  C   UNL     1       4.856   3.970   0.750  1.00  0.00    -0.014 A 
BRANCH  14  15
ATOM     15  C   UNL     1       5.686   5.188   0.762  1.00  0.00     0.031 A 
ATOM     16  C   UNL     1       6.080   5.732   2.094  1.00  0.00     0.074 A 
ATOM     17  C   UNL     1       6.157   5.768  -0.360  1.00  0.00     0.049 A 
ATOM     18  N   UNL     1       6.716   6.835   2.367  1.00  0.00    -0.248 NA
ATOM     19  C   UNL     1       5.807   4.878   3.265  1.00  0.00     0.031 C 
ATOM     20  C   UNL     1       6.159   5.206  -1.704  1.00  0.00     0.029 A 
ATOM     21  N   UNL     1       6.636   7.038  -0.557  1.00  0.00    -0.354 N 
ATOM     22  C   UNL     1       6.998   6.764   3.719  1.00  0.00     0.074 A 
ATOM     23  C   UNL     1       6.358   5.579   4.241  1.00  0.00     0.031 C 
ATOM     24  C   UNL     1       6.342   6.185  -2.604  1.00  0.00     0.029 A 
ATOM     25  C   UNL     1       6.555   7.419  -1.881  1.00  0.00     0.049 A 
ATOM     26  H   UNL     1       6.995   7.609   0.160  1.00  0.00     0.167 HD
ATOM     27  C   UNL     1       7.798   7.584   4.433  1.00  0.00     0.031 A 
ATOM     28  C   UNL     1       6.610   8.643  -2.430  1.00  0.00     0.031 A 
ATOM     29  C   UNL     1       8.370   8.780   3.884  1.00  0.00     0.049 A 
ATOM     30  C   UNL     1       7.141   9.729  -1.556  1.00  0.00     0.074 A 
ATOM     31  C   UNL     1       9.177   9.718   4.493  1.00  0.00     0.029 A 
ATOM     32  N   UNL     1       8.154   9.214   2.580  1.00  0.00    -0.354 N 
ATOM     33  N   UNL     1       7.441   9.666  -0.281  1.00  0.00    -0.248 NA
ATOM     34  C   UNL     1       7.476  10.997  -2.205  1.00  0.00     0.031 C 
ATOM     35  C   UNL     1       9.386  10.759   3.579  1.00  0.00     0.029 A 
ATOM     36  C   UNL     1       8.766  10.437   2.379  1.00  0.00     0.049 A 
ATOM     37  H   UNL     1       7.641   8.722   1.899  1.00  0.00     0.167 HD
ATOM     38  C   UNL     1       8.114  10.839   0.002  1.00  0.00     0.074 A 
ATOM     39  C   UNL     1       8.117  11.618  -1.224  1.00  0.00     0.031 C 
ATOM     40  C   UNL     1       8.732  11.199   1.153  1.00  0.00     0.031 A 
BRANCH  27  41
ATOM     41  C   UNL     1       8.036   7.194   5.860  1.00  0.00    -0.014 A 
ATOM     42  C   UNL     1       8.787   6.048   6.182  1.00  0.00     0.009 A 
ATOM     43  C   UNL     1       7.426   7.919   6.891  1.00  0.00     0.009 A 
ATOM     44  C   UNL     1       8.873   5.607   7.504  1.00  0.00     0.001 A 
ATOM     45  C   UNL     1       7.536   7.490   8.214  1.00  0.00     0.001 A 
ATOM     46  C   UNL     1       8.245   6.328   8.518  1.00  0.00     0.000 A 
ENDBRANCH  27  41
BRANCH  28  47
ATOM     47  C   UNL     1       6.236   8.870  -3.848  1.00  0.00    -0.014 A 
ATOM     48  C   UNL     1       7.207   8.982  -4.850  1.00  0.00     0.009 A 
ATOM     49  C   UNL     1       4.880   8.986  -4.203  1.00  0.00     0.009 A 
ATOM     50  C   UNL     1       6.833   9.241  -6.173  1.00  0.00     0.001 A 
ATOM     51  C   UNL     1       4.508   9.233  -5.529  1.00  0.00     0.001 A 
ATOM     52  C   UNL     1       5.487   9.369  -6.511  1.00  0.00     0.000 A 
ENDBRANCH  28  47
BRANCH  40  53
ATOM     53  C   UNL     1       9.512  12.475   1.114  1.00  0.00    -0.014 A 
ATOM     54  C   UNL     1       8.874  13.720   1.049  1.00  0.00     0.009 A 
ATOM     55  C   UNL     1      10.914  12.419   1.180  1.00  0.00     0.009 A 
ATOM     56  C   UNL     1       9.630  14.891   1.022  1.00  0.00     0.001 A 
ATOM     57  C   UNL     1      11.664  13.592   1.192  1.00  0.00     0.001 A 
ATOM     58  C   UNL     1      11.021  14.826   1.103  1.00  0.00     0.000 A 
ENDBRANCH  40  53
ENDBRANCH  14  15
ENDBRANCH   7   9
ENDBRANCH   6   7
ENDBRANCH   5   6
ENDBRANCH   4   5
ENDBRANCH   3   4
ENDBRANCH   2   3
ENDBRANCH   1   2
BRANCH   1  59
ATOM     59  O   UNL     1       2.597  -1.591  -4.195  1.00  0.00    -0.376 OA
BRANCH  59  60
ATOM     60  C   UNL     1       3.998  -1.372  -4.338  1.00  0.00     0.202 C 
BRANCH  60  61
ATOM     61  C   UNL     1       4.462   0.041  -4.734  1.00  0.00     0.261 C 
BRANCH  61  62
ATOM     62  O   UNL     1       3.683   1.086  -4.127  1.00  0.00    -0.463 OA
BRANCH  62  63
ATOM     63  C   UNL     1       3.159   2.018  -4.968  1.00  0.00     0.312 C 
ATOM     64  O   UNL     1       3.494   2.155  -6.144  1.00  0.00    -0.252 OA
BRANCH  63  65
ATOM     65  C   UNL     1       1.998   2.757  -4.343  1.00  0.00     0.147 C 
ATOM     66  C   UNL     1       1.766   4.173  -4.949  1.00  0.00     0.129 C 
ATOM     67  C   UNL     1       2.184   3.084  -2.862  1.00  0.00     0.157 C 
ATOM     68  C   UNL     1       1.834   5.058  -3.716  1.00  0.00     0.155 C 
ATOM     69  C   UNL     1       3.398   3.890  -2.596  1.00  0.00     0.004 C 
ATOM     70  O   UNL     1       1.250   4.174  -2.720  1.00  0.00    -0.365 OA
ATOM     71  C   UNL     1       3.194   5.103  -3.123  1.00  0.00     0.004 C 
BRANCH  66  72
ATOM     72  C   UNL     1       0.467   4.231  -5.761  1.00  0.00     0.231 C 
ATOM     73  O   UNL     1       0.550   4.198  -6.997  1.00  0.00    -0.274 OA
ATOM     74  N   UNL     1      -0.799   4.135  -5.244  1.00  0.00    -0.325 N 
ATOM     75  H   UNL     1      -1.499   3.947  -5.911  1.00  0.00     0.169 HD
BRANCH  74  76
ATOM     76  C   UNL     1      -1.266   4.259  -3.930  1.00  0.00     0.048 A 
ATOM     77  C   UNL     1      -1.883   3.157  -3.335  1.00  0.00     0.026 A 
ATOM     78  C   UNL     1      -1.071   5.427  -3.193  1.00  0.00     0.111 A 
ATOM     79  C   UNL     1      -2.134   3.158  -1.958  1.00  0.00     0.009 A 
ATOM     80  C   UNL     1      -1.222   5.384  -1.799  1.00  0.00     0.271 A 
ATOM     81  C   UNL     1      -1.762   4.253  -1.176  1.00  0.00     0.086 A 
BRANCH  80  82
ATOM     82  N   UNL     1      -0.629   6.452  -0.982  1.00  0.00     0.062 N 
ATOM     83  O   UNL     1      -0.678   6.333   0.251  1.00  0.00    -0.258 OA
ATOM     84  O   UNL     1      -0.096   7.404  -1.573  1.00  0.00    -0.258 OA
ENDBRANCH  80  82
ENDBRANCH  74  76
ENDBRANCH  66  72
ENDBRANCH  63  65
ENDBRANCH  62  63
ENDBRANCH  61  62
ENDBRANCH  60  61
ENDBRANCH  59  60
ENDBRANCH   1  59
TORSDOF 20
