REMARK SMILES O=C(OCCOCCOCCOC(=O)c1ccc(-c2c3nc(c(-c4ccccc4)c4ccc([nH]4)c(-c4ccccc4)c4nc(c(-c5ccccc5)c5ccc2[nH]5)C=C4)C=C3)cc1)C1=Cc2ccc(Cl)c(Cl)c2O[C@@H]1C(F)(F)F
REMARK SMILES IDX 8 1 7 2 6 3 5 4 4 5 3 6 2 7 1 8 63 9 64 10 74 11 65 12 73 13
REMARK SMILES IDX 66 14 72 15 67 16 70 17 68 18 71 19 69 20 75 21 76 22 77 23
REMARK SMILES IDX 78 24 9 25 10 26 11 27 12 28 13 29 14 30 15 31 16 32 62 33
REMARK SMILES IDX 17 34 61 35 18 36 19 37 20 38 55 39 21 40 60 41 54 42 56 43
REMARK SMILES IDX 22 44 59 45 53 46 52 47 23 49 45 50 30 51 44 52 31 53 34 54
REMARK SMILES IDX 43 55 57 56 32 57 33 58 42 60 58 61 35 62 24 63 25 64 29 65
REMARK SMILES IDX 26 66 28 67 27 68 46 69 47 70 51 71 48 72 50 73 49 74 36 75
REMARK SMILES IDX 37 76 41 77 38 78 40 79 39 80
REMARK H PARENT 56 48 34 59
REMARK Flexibility Score: inf
ROOT
ATOM      1  C   UNL     1       2.199   3.004   1.691  1.00  0.00     0.188 C 
ENDROOT
BRANCH   1   2
ATOM      2  C   UNL     1       2.482   1.513   1.948  1.00  0.00     0.188 C 
BRANCH   2   3
ATOM      3  O   UNL     1       3.782   0.859   1.884  1.00  0.00    -0.376 OA
BRANCH   3   4
ATOM      4  C   UNL     1       4.413  -0.192   0.787  1.00  0.00     0.202 C 
BRANCH   4   5
ATOM      5  C   UNL     1       3.640  -0.715  -1.184  1.00  0.00     0.261 C 
BRANCH   5   6
ATOM      6  O   UNL     1       2.753  -1.915  -1.517  1.00  0.00    -0.460 OA
BRANCH   6   7
ATOM      7  C   UNL     1       3.001  -2.973  -0.734  1.00  0.00     0.338 C 
ATOM      8  O   UNL     1       2.403  -4.015  -0.650  1.00  0.00    -0.246 OA
BRANCH   7   9
ATOM      9  C   UNL     1       3.849  -2.272   0.209  1.00  0.00     0.087 C 
ATOM     10  C   UNL     1       5.221  -2.052  -0.285  1.00  0.00     0.027 C 
ATOM     11  C   UNL     1       2.567  -0.878   0.564  1.00  0.00     0.316 C 
ATOM     12  C   UNL     1       5.832  -0.452  -0.876  1.00  0.00     0.019 A 
ATOM     13  O   UNL     1       3.151   0.822  -0.171  1.00  0.00    -0.474 OA
ATOM     14  C   UNL     1       7.079  -0.379  -1.430  1.00  0.00     0.013 A 
ATOM     15  C   UNL     1       4.825   0.969  -0.901  1.00  0.00     0.148 A 
ATOM     16  C   UNL     1       7.417   0.882  -1.956  1.00  0.00     0.023 A 
ATOM     17  C   UNL     1       5.231   2.150  -1.467  1.00  0.00     0.102 A 
ATOM     18  C   UNL     1       6.556   2.070  -1.978  1.00  0.00     0.063 A 
ATOM     19  Cl  UNL     1       4.230   3.516  -1.644  1.00  0.00    -0.079 Cl
ATOM     20  Cl  UNL     1       7.296   3.458  -2.735  1.00  0.00    -0.083 Cl
BRANCH  11  21
ATOM     21  C   UNL     1       2.248  -1.360   2.094  1.00  0.00     0.430 C 
ATOM     22  F   UNL     1       1.581  -0.540   2.913  1.00  0.00    -0.167 F 
ATOM     23  F   UNL     1       1.443  -2.462   1.995  1.00  0.00    -0.167 F 
ATOM     24  F   UNL     1       3.341  -1.804   2.768  1.00  0.00    -0.167 F 
ENDBRANCH  11  21
ENDBRANCH   7   9
ENDBRANCH   6   7
ENDBRANCH   5   6
ENDBRANCH   4   5
ENDBRANCH   3   4
ENDBRANCH   2   3
ENDBRANCH   1   2
BRANCH   1  25
ATOM     25  O   UNL     1       3.205   3.884   1.271  1.00  0.00    -0.376 OA
BRANCH  25  26
ATOM     26  C   UNL     1       4.479   3.770   1.874  1.00  0.00     0.202 C 
BRANCH  26  27
ATOM     27  C   UNL     1       4.553   3.981   3.389  1.00  0.00     0.261 C 
BRANCH  27  28
ATOM     28  O   UNL     1       4.034   2.873   4.149  1.00  0.00    -0.460 OA
BRANCH  28  29
ATOM     29  C   UNL     1       2.931   3.114   4.899  1.00  0.00     0.338 C 
ATOM     30  O   UNL     1       2.317   4.162   4.999  1.00  0.00    -0.246 OA
BRANCH  29  31
ATOM     31  C   UNL     1       2.449   1.849   5.493  1.00  0.00     0.060 A 
ATOM     32  C   UNL     1       1.114   1.476   5.276  1.00  0.00     0.016 A 
ATOM     33  C   UNL     1       3.286   1.061   6.286  1.00  0.00     0.016 A 
ATOM     34  C   UNL     1       0.600   0.332   5.881  1.00  0.00     0.010 A 
ATOM     35  C   UNL     1       2.760  -0.062   6.929  1.00  0.00     0.010 A 
ATOM     36  C   UNL     1       1.403  -0.397   6.767  1.00  0.00    -0.014 A 
BRANCH  36  37
ATOM     37  C   UNL     1       0.728  -1.266   7.758  1.00  0.00     0.031 A 
ATOM     38  C   UNL     1       0.305  -0.622   9.053  1.00  0.00     0.074 A 
ATOM     39  C   UNL     1       0.437  -2.552   7.505  1.00  0.00     0.049 A 
ATOM     40  N   UNL     1      -0.358  -1.127  10.060  1.00  0.00    -0.248 NA
ATOM     41  C   UNL     1       0.681   0.793   9.231  1.00  0.00     0.031 C 
ATOM     42  C   UNL     1       0.747  -3.268   6.270  1.00  0.00     0.029 A 
ATOM     43  N   UNL     1      -0.203  -3.482   8.286  1.00  0.00    -0.354 N 
ATOM     44  C   UNL     1      -0.477  -0.095  10.983  1.00  0.00     0.074 A 
ATOM     45  C   UNL     1       0.214   1.050  10.440  1.00  0.00     0.031 C 
ATOM     46  C   UNL     1       0.291  -4.531   6.376  1.00  0.00     0.029 A 
ATOM     47  C   UNL     1      -0.319  -4.714   7.692  1.00  0.00     0.049 A 
ATOM     48  H   UNL     1      -0.546  -3.284   9.188  1.00  0.00     0.167 HD
ATOM     49  C   UNL     1      -1.113  -0.095  12.177  1.00  0.00     0.031 A 
ATOM     50  C   UNL     1      -0.856  -5.855   8.167  1.00  0.00     0.031 A 
ATOM     51  C   UNL     1      -1.769  -1.247  12.730  1.00  0.00     0.049 A 
ATOM     52  C   UNL     1      -1.479  -5.855   9.542  1.00  0.00     0.074 A 
ATOM     53  C   UNL     1      -2.447  -1.360  13.930  1.00  0.00     0.029 A 
ATOM     54  N   UNL     1      -1.809  -2.494  12.124  1.00  0.00    -0.354 N 
ATOM     55  N   UNL     1      -1.621  -4.865  10.392  1.00  0.00    -0.248 NA
ATOM     56  C   UNL     1      -2.034  -7.132  10.013  1.00  0.00     0.031 C 
ATOM     57  C   UNL     1      -2.829  -2.696  14.085  1.00  0.00     0.029 A 
ATOM     58  C   UNL     1      -2.473  -3.392  12.941  1.00  0.00     0.049 A 
ATOM     59  H   UNL     1      -1.423  -2.708  11.244  1.00  0.00     0.167 HD
ATOM     60  C   UNL     1      -2.323  -5.388  11.473  1.00  0.00     0.074 A 
ATOM     61  C   UNL     1      -2.587  -6.778  11.164  1.00  0.00     0.031 C 
ATOM     62  C   UNL     1      -2.724  -4.773  12.615  1.00  0.00     0.031 A 
BRANCH  49  63
ATOM     63  C   UNL     1      -1.071   1.176  12.981  1.00  0.00    -0.014 A 
ATOM     64  C   UNL     1      -1.739   2.338  12.560  1.00  0.00     0.009 A 
ATOM     65  C   UNL     1      -0.350   1.208  14.184  1.00  0.00     0.009 A 
ATOM     66  C   UNL     1      -1.649   3.516  13.306  1.00  0.00     0.001 A 
ATOM     67  C   UNL     1      -0.292   2.375  14.947  1.00  0.00     0.001 A 
ATOM     68  C   UNL     1      -0.931   3.531  14.502  1.00  0.00     0.000 A 
ENDBRANCH  49  63
BRANCH  50  69
ATOM     69  C   UNL     1      -0.836  -7.098   7.347  1.00  0.00    -0.014 A 
ATOM     70  C   UNL     1      -2.030  -7.675   6.884  1.00  0.00     0.009 A 
ATOM     71  C   UNL     1       0.378  -7.740   7.059  1.00  0.00     0.009 A 
ATOM     72  C   UNL     1      -2.009  -8.885   6.184  1.00  0.00     0.001 A 
ATOM     73  C   UNL     1       0.399  -8.931   6.329  1.00  0.00     0.001 A 
ATOM     74  C   UNL     1      -0.795  -9.509   5.904  1.00  0.00     0.000 A 
ENDBRANCH  50  69
BRANCH  62  75
ATOM     75  C   UNL     1      -3.548  -5.581  13.583  1.00  0.00    -0.014 A 
ATOM     76  C   UNL     1      -3.011  -6.666  14.294  1.00  0.00     0.009 A 
ATOM     77  C   UNL     1      -4.888  -5.223  13.806  1.00  0.00     0.009 A 
ATOM     78  C   UNL     1      -3.814  -7.409  15.162  1.00  0.00     0.001 A 
ATOM     79  C   UNL     1      -5.676  -5.940  14.707  1.00  0.00     0.001 A 
ATOM     80  C   UNL     1      -5.144  -7.042  15.371  1.00  0.00     0.000 A 
ENDBRANCH  62  75
ENDBRANCH  36  37
ENDBRANCH  29  31
ENDBRANCH  28  29
ENDBRANCH  27  28
ENDBRANCH  26  27
ENDBRANCH  25  26
ENDBRANCH   1  25
TORSDOF 18
