REMARK SMILES CCc1nn(C)c(N[C@@](C)(CC)C(=O)OCCOCCOCCOC(=O)c2ccc(-c3c4nc(c(-c5ccccc5)c5ccc([nH]5)c(-c5ccccc5)c5nc(c(-c6ccccc6)c6ccc3[nH]6)C=C5)C=C4)cc2)c1[N+](=O)[O-]
REMARK SMILES IDX 19 1 18 2 17 3 16 4 15 5 13 6 14 7 9 8 10 9 8 10 7 12 3 13
REMARK SMILES IDX 4 14 75 15 5 16 6 17 2 18 1 19 76 20 77 21 78 22 11 23 12 24
REMARK SMILES IDX 20 25 21 26 22 27 23 28 24 29 25 30 26 31 27 32 28 33 74 34
REMARK SMILES IDX 29 35 73 36 30 37 31 38 32 39 67 40 33 41 72 42 66 43 68 44
REMARK SMILES IDX 34 45 71 46 65 47 64 48 35 50 57 51 42 52 56 53 43 54 46 55
REMARK SMILES IDX 55 56 69 57 44 58 45 59 54 61 70 62 47 63 36 64 37 65 41 66
REMARK SMILES IDX 38 67 40 68 39 69 58 70 59 71 63 72 60 73 62 74 61 75 48 76
REMARK SMILES IDX 49 77 53 78 50 79 52 80 51 81
REMARK H PARENT 8 11 68 49 46 60
REMARK Flexibility Score: inf
ROOT
ATOM      1  C   UNL     1      -0.383   2.734  -1.470  1.00  0.00     0.188 C 
ENDROOT
BRANCH   1   2
ATOM      2  O   UNL     1      -1.618   2.461  -2.113  1.00  0.00    -0.376 OA
BRANCH   2   3
ATOM      3  C   UNL     1      -2.790   2.528  -1.315  1.00  0.00     0.202 C 
BRANCH   3   4
ATOM      4  C   UNL     1      -3.091   3.873  -0.643  1.00  0.00     0.261 C 
BRANCH   4   5
ATOM      5  O   UNL     1      -1.986   4.324   0.169  1.00  0.00    -0.462 OA
BRANCH   5   6
ATOM      6  C   UNL     1      -2.267   5.235   1.136  1.00  0.00     0.331 C 
ATOM      7  O   UNL     1      -3.414   5.534   1.452  1.00  0.00    -0.249 OA
BRANCH   6   8
ATOM      8  C   UNL     1      -0.999   5.945   1.692  1.00  0.00     0.134 C 
ATOM      9  C   UNL     1      -1.449   6.707   2.962  1.00  0.00     0.047 C 
BRANCH   8  10
ATOM     10  N   UNL     1       0.167   5.147   2.137  1.00  0.00    -0.349 N 
ATOM     11  H   UNL     1       0.976   5.692   2.270  1.00  0.00     0.163 HD
BRANCH  10  12
ATOM     12  C   UNL     1       0.369   3.822   2.403  1.00  0.00     0.205 A 
ATOM     13  C   UNL     1       0.687   1.596   2.383  1.00  0.00     0.142 A 
ATOM     14  N   UNL     1       1.865   2.124   2.706  1.00  0.00    -0.169 NA
ATOM     15  C   UNL     1      -0.315   2.604   2.386  1.00  0.00     0.334 A 
ATOM     16  N   UNL     1       1.622   3.429   2.862  1.00  0.00    -0.246 N 
ATOM     17  C   UNL     1       2.649   4.208   3.518  1.00  0.00     0.176 C 
BRANCH  13  18
ATOM     18  C   UNL     1       0.625   0.125   2.113  1.00  0.00     0.062 C 
ATOM     19  C   UNL     1       1.063  -0.214   0.689  1.00  0.00     0.011 C 
ENDBRANCH  13  18
BRANCH  15  20
ATOM     20  N   UNL     1      -1.713   2.357   2.357  1.00  0.00     0.068 N 
ATOM     21  O   UNL     1      -2.108   1.431   1.639  1.00  0.00    -0.258 OA
ATOM     22  O   UNL     1      -2.416   3.036   3.113  1.00  0.00    -0.258 OA
ENDBRANCH  15  20
ENDBRANCH  10  12
ENDBRANCH   8  10
BRANCH   8  23
ATOM     23  C   UNL     1      -0.538   7.045   0.648  1.00  0.00     0.037 C 
ATOM     24  C   UNL     1       0.863   6.995   0.014  1.00  0.00     0.007 C 
ENDBRANCH   8  23
ENDBRANCH   6   8
ENDBRANCH   5   6
ENDBRANCH   4   5
ENDBRANCH   3   4
ENDBRANCH   2   3
ENDBRANCH   1   2
BRANCH   1  25
ATOM     25  C   UNL     1       0.141   4.146  -1.756  1.00  0.00     0.188 C 
BRANCH  25  26
ATOM     26  O   UNL     1      -0.183   4.809  -2.972  1.00  0.00    -0.376 OA
BRANCH  26  27
ATOM     27  C   UNL     1      -0.366   4.029  -4.140  1.00  0.00     0.202 C 
BRANCH  27  28
ATOM     28  C   UNL     1       0.841   3.252  -4.683  1.00  0.00     0.261 C 
BRANCH  28  29
ATOM     29  O   UNL     1       1.732   2.705  -3.694  1.00  0.00    -0.460 OA
BRANCH  29  30
ATOM     30  C   UNL     1       2.819   3.465  -3.419  1.00  0.00     0.338 C 
ATOM     31  O   UNL     1       3.122   4.533  -3.935  1.00  0.00    -0.246 OA
BRANCH  30  32
ATOM     32  C   UNL     1       3.565   2.906  -2.270  1.00  0.00     0.060 A 
ATOM     33  C   UNL     1       3.834   3.751  -1.183  1.00  0.00     0.016 A 
ATOM     34  C   UNL     1       4.081   1.609  -2.292  1.00  0.00     0.016 A 
ATOM     35  C   UNL     1       4.650   3.316  -0.138  1.00  0.00     0.010 A 
ATOM     36  C   UNL     1       4.923   1.183  -1.254  1.00  0.00     0.010 A 
ATOM     37  C   UNL     1       5.241   2.046  -0.191  1.00  0.00    -0.014 A 
BRANCH  37  38
ATOM     38  C   UNL     1       6.322   1.708   0.774  1.00  0.00     0.031 A 
ATOM     39  C   UNL     1       7.747   1.947   0.378  1.00  0.00     0.074 A 
ATOM     40  C   UNL     1       6.051   1.247   2.008  1.00  0.00     0.049 A 
ATOM     41  N   UNL     1       8.840   1.711   1.056  1.00  0.00    -0.248 NA
ATOM     42  C   UNL     1       7.970   2.513  -0.961  1.00  0.00     0.031 C 
ATOM     43  C   UNL     1       4.713   0.991   2.507  1.00  0.00     0.029 A 
ATOM     44  N   UNL     1       6.866   0.931   3.067  1.00  0.00    -0.354 N 
ATOM     45  C   UNL     1       9.883   2.064   0.214  1.00  0.00     0.074 A 
ATOM     46  C   UNL     1       9.293   2.534  -1.022  1.00  0.00     0.031 C 
ATOM     47  C   UNL     1       4.777   0.622   3.796  1.00  0.00     0.029 A 
ATOM     48  C   UNL     1       6.178   0.527   4.189  1.00  0.00     0.049 A 
ATOM     49  H   UNL     1       7.848   0.988   3.027  1.00  0.00     0.167 HD
ATOM     50  C   UNL     1      11.214   1.987   0.445  1.00  0.00     0.031 A 
ATOM     51  C   UNL     1       6.628   0.099   5.385  1.00  0.00     0.031 A 
ATOM     52  C   UNL     1      11.799   1.500   1.666  1.00  0.00     0.049 A 
ATOM     53  C   UNL     1       8.114  -0.018   5.598  1.00  0.00     0.074 A 
ATOM     54  C   UNL     1      13.139   1.372   1.987  1.00  0.00     0.029 A 
ATOM     55  N   UNL     1      11.079   1.055   2.765  1.00  0.00    -0.354 N 
ATOM     56  N   UNL     1       9.091   0.316   4.790  1.00  0.00    -0.248 NA
ATOM     57  C   UNL     1       8.558  -0.592   6.876  1.00  0.00     0.031 C 
ATOM     58  C   UNL     1      13.230   0.801   3.260  1.00  0.00     0.029 A 
ATOM     59  C   UNL     1      11.948   0.632   3.758  1.00  0.00     0.049 A 
ATOM     60  H   UNL     1      10.097   1.042   2.830  1.00  0.00     0.167 HD
ATOM     61  C   UNL     1      10.264   0.000   5.464  1.00  0.00     0.074 A 
ATOM     62  C   UNL     1       9.877  -0.518   6.760  1.00  0.00     0.031 C 
ATOM     63  C   UNL     1      11.546   0.119   5.042  1.00  0.00     0.031 A 
BRANCH  50  64
ATOM     64  C   UNL     1      12.125   2.380  -0.681  1.00  0.00    -0.014 A 
ATOM     65  C   UNL     1      12.283   3.721  -1.062  1.00  0.00     0.009 A 
ATOM     66  C   UNL     1      12.843   1.387  -1.365  1.00  0.00     0.009 A 
ATOM     67  C   UNL     1      13.119   4.056  -2.129  1.00  0.00     0.001 A 
ATOM     68  C   UNL     1      13.699   1.727  -2.412  1.00  0.00     0.001 A 
ATOM     69  C   UNL     1      13.830   3.060  -2.799  1.00  0.00     0.000 A 
ENDBRANCH  50  64
BRANCH  51  70
ATOM     70  C   UNL     1       5.679  -0.310   6.458  1.00  0.00    -0.014 A 
ATOM     71  C   UNL     1       5.618   0.394   7.672  1.00  0.00     0.009 A 
ATOM     72  C   UNL     1       4.858  -1.438   6.294  1.00  0.00     0.009 A 
ATOM     73  C   UNL     1       4.779  -0.038   8.704  1.00  0.00     0.001 A 
ATOM     74  C   UNL     1       3.994  -1.847   7.313  1.00  0.00     0.001 A 
ATOM     75  C   UNL     1       3.964  -1.154   8.522  1.00  0.00     0.000 A 
ENDBRANCH  51  70
BRANCH  63  76
ATOM     76  C   UNL     1      12.624  -0.287   6.008  1.00  0.00    -0.014 A 
ATOM     77  C   UNL     1      12.858  -1.636   6.318  1.00  0.00     0.009 A 
ATOM     78  C   UNL     1      13.440   0.696   6.589  1.00  0.00     0.009 A 
ATOM     79  C   UNL     1      13.865  -1.988   7.220  1.00  0.00     0.001 A 
ATOM     80  C   UNL     1      14.465   0.339   7.466  1.00  0.00     0.001 A 
ATOM     81  C   UNL     1      14.670  -1.002   7.788  1.00  0.00     0.000 A 
ENDBRANCH  63  76
ENDBRANCH  37  38
ENDBRANCH  30  32
ENDBRANCH  29  30
ENDBRANCH  28  29
ENDBRANCH  27  28
ENDBRANCH  26  27
ENDBRANCH  25  26
ENDBRANCH   1  25
TORSDOF 22
