REMARK SMILES CC[N@H+](CC(C)(C)C(=O)OCCOCCOCCOC(=O)c1ccc(-c2c3nc(c(-c4ccccc4)c4ccc([nH]4)c(-c4ccccc4)c4nc(c(-c5ccccc5)c5ccc2[nH]5)C=C4)C=C3)cc1)[C@H]1CC[NH2+]C1
REMARK SMILES IDX 14 1 13 2 12 3 11 4 10 5 8 6 9 7 5 8 6 9 7 10 4 11 3 12 2 14
REMARK SMILES IDX 1 15 70 16 71 17 74 18 72 19 73 20 15 23 16 24 17 25 18 26
REMARK SMILES IDX 19 27 20 28 21 29 22 30 23 31 69 32 24 33 68 34 25 35 26 36
REMARK SMILES IDX 27 37 62 38 28 39 67 40 61 41 63 42 29 43 66 44 60 45 59 46
REMARK SMILES IDX 30 48 52 49 37 50 51 51 38 52 41 53 50 54 64 55 39 56 40 57
REMARK SMILES IDX 49 59 65 60 42 61 31 62 32 63 36 64 33 65 35 66 34 67 53 68
REMARK SMILES IDX 54 69 58 70 55 71 57 72 56 73 43 74 44 75 48 76 45 77 47 78
REMARK SMILES IDX 46 79
REMARK H PARENT 3 13 73 21 73 22 63 47 41 58
REMARK Flexibility Score: inf
ROOT
ATOM      1  C   UNL     1       5.994  -0.979   4.001  1.00  0.00     0.188 C 
ENDROOT
BRANCH   1   2
ATOM      2  O   UNL     1       5.802  -0.670   5.375  1.00  0.00    -0.376 OA
BRANCH   2   3
ATOM      3  C   UNL     1       4.652  -1.239   5.996  1.00  0.00     0.202 C 
BRANCH   3   4
ATOM      4  C   UNL     1       4.673  -2.762   6.093  1.00  0.00     0.261 C 
BRANCH   4   5
ATOM      5  O   UNL     1       4.593  -3.329   4.772  1.00  0.00    -0.463 OA
BRANCH   5   6
ATOM      6  C   UNL     1       3.596  -4.198   4.481  1.00  0.00     0.317 C 
ATOM      7  O   UNL     1       2.680  -4.468   5.245  1.00  0.00    -0.251 OA
BRANCH   6   8
ATOM      8  C   UNL     1       3.807  -4.805   3.087  1.00  0.00     0.111 C 
ATOM      9  C   UNL     1       2.751  -5.901   2.866  1.00  0.00     0.029 C 
ATOM     10  C   UNL     1       5.206  -5.487   3.071  1.00  0.00     0.029 C 
BRANCH   8  11
ATOM     11  C   UNL     1       3.754  -3.740   1.940  1.00  0.00     0.280 C 
BRANCH  11  12
ATOM     12  N   UNL     1       2.431  -3.178   1.576  1.00  0.00    -0.327 N 
ATOM     13  H   UNL     1       1.768  -3.950   1.642  1.00  0.00     0.348 HD
BRANCH  12  14
ATOM     14  C   UNL     1       2.032  -2.121   2.534  1.00  0.00     0.259 C 
ATOM     15  C   UNL     1       0.644  -1.524   2.316  1.00  0.00     0.071 C 
ENDBRANCH  12  14
BRANCH  12  16
ATOM     16  C   UNL     1       2.331  -2.714   0.170  1.00  0.00     0.245 C 
ATOM     17  C   UNL     1       3.135  -1.475  -0.220  1.00  0.00     0.132 C 
ATOM     18  C   UNL     1       2.647  -3.700  -0.983  1.00  0.00     0.326 C 
ATOM     19  C   UNL     1       3.024  -1.493  -1.734  1.00  0.00     0.267 C 
ATOM     20  N   UNL     1       3.190  -2.901  -2.104  1.00  0.00    -0.341 N 
ATOM     21  H   UNL     1       4.178  -3.115  -2.242  1.00  0.00     0.346 HD
ATOM     22  H   UNL     1       2.703  -3.112  -2.975  1.00  0.00     0.346 HD
ENDBRANCH  12  16
ENDBRANCH  11  12
ENDBRANCH   8  11
ENDBRANCH   6   8
ENDBRANCH   5   6
ENDBRANCH   4   5
ENDBRANCH   3   4
ENDBRANCH   2   3
ENDBRANCH   1   2
BRANCH   1  23
ATOM     23  C   UNL     1       6.995  -2.119   3.716  1.00  0.00     0.188 C 
BRANCH  23  24
ATOM     24  O   UNL     1       7.921  -2.530   4.711  1.00  0.00    -0.376 OA
BRANCH  24  25
ATOM     25  C   UNL     1       8.577  -1.540   5.489  1.00  0.00     0.202 C 
BRANCH  25  26
ATOM     26  C   UNL     1       9.489  -0.546   4.761  1.00  0.00     0.261 C 
BRANCH  26  27
ATOM     27  O   UNL     1       8.853   0.140   3.668  1.00  0.00    -0.460 OA
BRANCH  27  28
ATOM     28  C   UNL     1       9.324  -0.168   2.439  1.00  0.00     0.338 C 
ATOM     29  O   UNL     1      10.257  -0.918   2.163  1.00  0.00    -0.246 OA
BRANCH  28  30
ATOM     30  C   UNL     1       8.436   0.388   1.401  1.00  0.00     0.060 A 
ATOM     31  C   UNL     1       7.883  -0.498   0.465  1.00  0.00     0.016 A 
ATOM     32  C   UNL     1       8.209   1.761   1.297  1.00  0.00     0.016 A 
ATOM     33  C   UNL     1       7.125  -0.010  -0.596  1.00  0.00     0.010 A 
ATOM     34  C   UNL     1       7.477   2.253   0.210  1.00  0.00     0.010 A 
ATOM     35  C   UNL     1       6.961   1.372  -0.756  1.00  0.00    -0.014 A 
BRANCH  35  36
ATOM     36  C   UNL     1       6.428   1.887  -2.039  1.00  0.00     0.031 A 
ATOM     37  C   UNL     1       7.389   2.115  -3.173  1.00  0.00     0.074 A 
ATOM     38  C   UNL     1       5.113   2.105  -2.211  1.00  0.00     0.049 A 
ATOM     39  N   UNL     1       7.153   2.547  -4.386  1.00  0.00    -0.248 NA
ATOM     40  C   UNL     1       8.806   1.827  -2.899  1.00  0.00     0.031 C 
ATOM     41  C   UNL     1       4.082   1.889  -1.200  1.00  0.00     0.029 A 
ATOM     42  N   UNL     1       4.420   2.525  -3.318  1.00  0.00    -0.354 N 
ATOM     43  C   UNL     1       8.394   2.620  -5.004  1.00  0.00     0.074 A 
ATOM     44  C   UNL     1       9.377   2.171  -4.043  1.00  0.00     0.031 C 
ATOM     45  C   UNL     1       2.877   2.119  -1.753  1.00  0.00     0.029 A 
ATOM     46  C   UNL     1       3.058   2.542  -3.141  1.00  0.00     0.049 A 
ATOM     47  H   UNL     1       4.857   2.788  -4.160  1.00  0.00     0.167 HD
ATOM     48  C   UNL     1       8.694   3.054  -6.251  1.00  0.00     0.031 A 
ATOM     49  C   UNL     1       2.075   2.860  -4.005  1.00  0.00     0.031 A 
ATOM     50  C   UNL     1       7.723   3.523  -7.201  1.00  0.00     0.049 A 
ATOM     51  C   UNL     1       2.434   3.330  -5.391  1.00  0.00     0.074 A 
ATOM     52  C   UNL     1       7.932   4.019  -8.476  1.00  0.00     0.029 A 
ATOM     53  N   UNL     1       6.356   3.555  -6.976  1.00  0.00    -0.354 N 
ATOM     54  N   UNL     1       3.614   3.417  -5.957  1.00  0.00    -0.248 NA
ATOM     55  C   UNL     1       1.322   3.770  -6.249  1.00  0.00     0.031 C 
ATOM     56  C   UNL     1       6.693   4.394  -9.005  1.00  0.00     0.029 A 
ATOM     57  C   UNL     1       5.710   4.082  -8.080  1.00  0.00     0.049 A 
ATOM     58  H   UNL     1       5.912   3.249  -6.153  1.00  0.00     0.167 HD
ATOM     59  C   UNL     1       3.387   3.925  -7.231  1.00  0.00     0.074 A 
ATOM     60  C   UNL     1       1.955   4.087  -7.370  1.00  0.00     0.031 C 
ATOM     61  C   UNL     1       4.285   4.247  -8.194  1.00  0.00     0.031 A 
BRANCH  48  62
ATOM     62  C   UNL     1      10.147   3.117  -6.621  1.00  0.00    -0.014 A 
ATOM     63  C   UNL     1      10.884   1.959  -6.913  1.00  0.00     0.009 A 
ATOM     64  C   UNL     1      10.786   4.366  -6.683  1.00  0.00     0.009 A 
ATOM     65  C   UNL     1      12.242   2.050  -7.229  1.00  0.00     0.001 A 
ATOM     66  C   UNL     1      12.136   4.456  -7.022  1.00  0.00     0.001 A 
ATOM     67  C   UNL     1      12.865   3.297  -7.286  1.00  0.00     0.000 A 
ENDBRANCH  48  62
BRANCH  49  68
ATOM     68  C   UNL     1       0.648   2.752  -3.599  1.00  0.00    -0.014 A 
ATOM     69  C   UNL     1      -0.182   1.785  -4.189  1.00  0.00     0.009 A 
ATOM     70  C   UNL     1       0.099   3.627  -2.650  1.00  0.00     0.009 A 
ATOM     71  C   UNL     1      -1.536   1.712  -3.853  1.00  0.00     0.001 A 
ATOM     72  C   UNL     1      -1.248   3.532  -2.293  1.00  0.00     0.001 A 
ATOM     73  C   UNL     1      -2.066   2.582  -2.902  1.00  0.00     0.000 A 
ENDBRANCH  49  68
BRANCH  61  74
ATOM     74  C   UNL     1       3.747   4.816  -9.477  1.00  0.00    -0.014 A 
ATOM     75  C   UNL     1       3.254   6.129  -9.533  1.00  0.00     0.009 A 
ATOM     76  C   UNL     1       3.784   4.051 -10.653  1.00  0.00     0.009 A 
ATOM     77  C   UNL     1       2.782   6.655 -10.737  1.00  0.00     0.001 A 
ATOM     78  C   UNL     1       3.334   4.588 -11.860  1.00  0.00     0.001 A 
ATOM     79  C   UNL     1       2.827   5.886 -11.899  1.00  0.00     0.000 A 
ENDBRANCH  61  74
ENDBRANCH  35  36
ENDBRANCH  28  30
ENDBRANCH  27  28
ENDBRANCH  26  27
ENDBRANCH  25  26
ENDBRANCH  24  25
ENDBRANCH  23  24
ENDBRANCH   1  23
TORSDOF 21
