REMARK SMILES O=C(OCCOCCOCCOC(=O)[C@H]1CCCN(c2cc(-c3ccccn3)nc(-c3ccccc3F)n2)C1)c1ccc(-c2c3nc(c(-c4ccccc4)c4ccc([nH]4)c(-c4ccccc4)c4nc(c(-c5ccccc5)c5ccc2[nH]5)C=C4)C=C3)cc1
REMARK SMILES IDX 7 1 6 2 5 3 4 4 3 5 2 6 1 7 40 8 41 9 87 10 42 11 86 12
REMARK SMILES IDX 43 13 44 14 45 15 80 16 46 17 85 18 79 19 81 20 47 21 84 22
REMARK SMILES IDX 78 23 77 24 48 26 70 27 55 28 69 29 56 30 59 31 68 32 82 33
REMARK SMILES IDX 57 34 58 35 67 37 83 38 60 39 49 40 50 41 54 42 51 43 53 44
REMARK SMILES IDX 52 45 71 46 72 47 76 48 73 49 75 50 74 51 61 52 62 53 66 54
REMARK SMILES IDX 63 55 65 56 64 57 8 58 9 59 10 60 11 61 12 62 13 63 14 64
REMARK SMILES IDX 15 65 16 66 39 67 17 68 19 69 18 70 20 71 21 72 38 73 22 74
REMARK SMILES IDX 30 75 29 76 23 77 24 78 28 79 25 80 27 81 26 82 31 83 32 84
REMARK SMILES IDX 36 85 33 86 35 87 37 88 34 89
REMARK H PARENT 81 25 59 36
REMARK Flexibility Score: inf
ROOT
ATOM      1  C   UNL     1       4.656  -1.396  -2.248  1.00  0.00     0.188 C 
ENDROOT
BRANCH   1   2
ATOM      2  O   UNL     1       3.413  -0.868  -1.775  1.00  0.00    -0.376 OA
BRANCH   2   3
ATOM      3  C   UNL     1       3.294   0.554  -1.900  1.00  0.00     0.202 C 
BRANCH   3   4
ATOM      4  C   UNL     1       4.212   1.400  -0.996  1.00  0.00     0.261 C 
BRANCH   4   5
ATOM      5  O   UNL     1       5.400   0.722  -0.553  1.00  0.00    -0.460 OA
BRANCH   5   6
ATOM      6  C   UNL     1       5.624   0.088   0.626  1.00  0.00     0.338 C 
ATOM      7  O   UNL     1       6.776  -0.234   0.911  1.00  0.00    -0.246 OA
BRANCH   6   8
ATOM      8  C   UNL     1       4.538  -0.260   1.593  1.00  0.00     0.060 A 
ATOM      9  C   UNL     1       3.192  -0.378   1.258  1.00  0.00     0.016 A 
ATOM     10  C   UNL     1       4.908  -0.570   2.913  1.00  0.00     0.016 A 
ATOM     11  C   UNL     1       2.225  -0.705   2.195  1.00  0.00     0.010 A 
ATOM     12  C   UNL     1       3.947  -0.958   3.856  1.00  0.00     0.010 A 
ATOM     13  C   UNL     1       2.594  -1.012   3.497  1.00  0.00    -0.014 A 
BRANCH  13  14
ATOM     14  C   UNL     1       1.526  -1.304   4.470  1.00  0.00     0.031 A 
ATOM     15  C   UNL     1       1.192  -0.279   5.500  1.00  0.00     0.074 A 
ATOM     16  C   UNL     1       0.757  -2.400   4.335  1.00  0.00     0.049 A 
ATOM     17  N   UNL     1       0.344  -0.360   6.488  1.00  0.00    -0.248 NA
ATOM     18  C   UNL     1       1.863   1.026   5.376  1.00  0.00     0.031 C 
ATOM     19  C   UNL     1       0.833  -3.350   3.225  1.00  0.00     0.029 A 
ATOM     20  N   UNL     1      -0.260  -2.888   5.118  1.00  0.00    -0.354 N 
ATOM     21  C   UNL     1       0.389   0.875   7.114  1.00  0.00     0.074 A 
ATOM     22  C   UNL     1       1.347   1.688   6.401  1.00  0.00     0.031 C 
ATOM     23  C   UNL     1      -0.097  -4.298   3.408  1.00  0.00     0.029 A 
ATOM     24  C   UNL     1      -0.718  -4.112   4.699  1.00  0.00     0.049 A 
ATOM     25  H   UNL     1      -0.623  -2.409   5.898  1.00  0.00     0.167 HD
ATOM     26  C   UNL     1      -0.312   1.276   8.197  1.00  0.00     0.031 A 
ATOM     27  C   UNL     1      -1.478  -5.034   5.314  1.00  0.00     0.031 A 
ATOM     28  C   UNL     1      -1.250   0.438   8.890  1.00  0.00     0.049 A 
ATOM     29  C   UNL     1      -2.056  -4.665   6.639  1.00  0.00     0.074 A 
ATOM     30  C   UNL     1      -1.993   0.726  10.019  1.00  0.00     0.029 A 
ATOM     31  N   UNL     1      -1.562  -0.864   8.523  1.00  0.00    -0.354 N 
ATOM     32  N   UNL     1      -1.974  -3.516   7.265  1.00  0.00    -0.248 NA
ATOM     33  C   UNL     1      -2.836  -5.690   7.337  1.00  0.00     0.031 C 
ATOM     34  C   UNL     1      -2.695  -0.428  10.379  1.00  0.00     0.029 A 
ATOM     35  C   UNL     1      -2.441  -1.414   9.438  1.00  0.00     0.049 A 
ATOM     36  H   UNL     1      -1.209  -1.327   7.729  1.00  0.00     0.167 HD
ATOM     37  C   UNL     1      -2.721  -3.666   8.418  1.00  0.00     0.074 A 
ATOM     38  C   UNL     1      -3.256  -5.015   8.398  1.00  0.00     0.031 C 
ATOM     39  C   UNL     1      -2.949  -2.761   9.398  1.00  0.00     0.031 A 
BRANCH  26  40
ATOM     40  C   UNL     1      -0.000   2.635   8.744  1.00  0.00    -0.014 A 
ATOM     41  C   UNL     1      -0.432   3.810   8.110  1.00  0.00     0.009 A 
ATOM     42  C   UNL     1       0.751   2.732   9.925  1.00  0.00     0.009 A 
ATOM     43  C   UNL     1      -0.094   5.058   8.640  1.00  0.00     0.001 A 
ATOM     44  C   UNL     1       1.067   3.978  10.464  1.00  0.00     0.001 A 
ATOM     45  C   UNL     1       0.650   5.140   9.818  1.00  0.00     0.000 A 
ENDBRANCH  26  40
BRANCH  27  46
ATOM     46  C   UNL     1      -1.609  -6.411   4.760  1.00  0.00    -0.014 A 
ATOM     47  C   UNL     1      -2.839  -6.915   4.317  1.00  0.00     0.009 A 
ATOM     48  C   UNL     1      -0.482  -7.254   4.717  1.00  0.00     0.009 A 
ATOM     49  C   UNL     1      -2.944  -8.239   3.876  1.00  0.00     0.001 A 
ATOM     50  C   UNL     1      -0.584  -8.568   4.253  1.00  0.00     0.001 A 
ATOM     51  C   UNL     1      -1.819  -9.063   3.844  1.00  0.00     0.000 A 
ENDBRANCH  27  46
BRANCH  39  52
ATOM     52  C   UNL     1      -3.840  -3.204  10.514  1.00  0.00    -0.014 A 
ATOM     53  C   UNL     1      -3.390  -4.117  11.479  1.00  0.00     0.009 A 
ATOM     54  C   UNL     1      -5.133  -2.671  10.616  1.00  0.00     0.009 A 
ATOM     55  C   UNL     1      -4.234  -4.507  12.518  1.00  0.00     0.001 A 
ATOM     56  C   UNL     1      -5.961  -3.038  11.674  1.00  0.00     0.001 A 
ATOM     57  C   UNL     1      -5.513  -3.960  12.619  1.00  0.00     0.000 A 
ENDBRANCH  39  52
ENDBRANCH  13  14
ENDBRANCH   6   8
ENDBRANCH   5   6
ENDBRANCH   4   5
ENDBRANCH   3   4
ENDBRANCH   2   3
ENDBRANCH   1   2
BRANCH   1  58
ATOM     58  C   UNL     1       4.506  -2.777  -2.884  1.00  0.00     0.188 C 
BRANCH  58  59
ATOM     59  O   UNL     1       3.755  -2.859  -4.093  1.00  0.00    -0.376 OA
BRANCH  59  60
ATOM     60  C   UNL     1       2.465  -2.262  -4.109  1.00  0.00     0.202 C 
BRANCH  60  61
ATOM     61  C   UNL     1       1.353  -2.929  -3.287  1.00  0.00     0.261 C 
BRANCH  61  62
ATOM     62  O   UNL     1       1.717  -3.315  -1.952  1.00  0.00    -0.463 OA
BRANCH  62  63
ATOM     63  C   UNL     1       1.993  -4.638  -1.784  1.00  0.00     0.310 C 
ATOM     64  O   UNL     1       1.965  -5.480  -2.678  1.00  0.00    -0.252 OA
BRANCH  63  65
ATOM     65  C   UNL     1       2.286  -4.970  -0.336  1.00  0.00     0.118 C 
ATOM     66  C   UNL     1       1.056  -5.722   0.194  1.00  0.00     0.019 C 
ATOM     67  C   UNL     1       3.608  -5.757  -0.256  1.00  0.00     0.133 C 
ATOM     68  C   UNL     1       1.345  -6.569   1.424  1.00  0.00     0.022 C 
ATOM     69  N   UNL     1       3.667  -6.597   0.938  1.00  0.00    -0.356 N 
ATOM     70  C   UNL     1       2.538  -7.470   1.203  1.00  0.00     0.118 C 
BRANCH  69  71
ATOM     71  C   UNL     1       4.875  -6.822   1.567  1.00  0.00     0.133 A 
ATOM     72  C   UNL     1       5.328  -8.112   1.756  1.00  0.00     0.077 A 
ATOM     73  N   UNL     1       5.564  -5.771   2.040  1.00  0.00    -0.211 NA
ATOM     74  C   UNL     1       6.504  -8.295   2.454  1.00  0.00     0.095 A 
ATOM     75  C   UNL     1       6.694  -6.037   2.729  1.00  0.00     0.165 A 
ATOM     76  N   UNL     1       7.198  -7.261   2.959  1.00  0.00    -0.226 NA
BRANCH  74  77
ATOM     77  C   UNL     1       7.047  -9.645   2.654  1.00  0.00     0.089 A 
ATOM     78  C   UNL     1       7.355 -10.463   1.564  1.00  0.00     0.030 A 
ATOM     79  N   UNL     1       7.158 -10.081   3.935  1.00  0.00    -0.255 NA
ATOM     80  C   UNL     1       7.794 -11.763   1.794  1.00  0.00     0.004 A 
ATOM     81  C   UNL     1       7.601 -11.342   4.128  1.00  0.00     0.112 A 
ATOM     82  C   UNL     1       7.922 -12.214   3.101  1.00  0.00     0.020 A 
ENDBRANCH  74  77
BRANCH  75  83
ATOM     83  C   UNL     1       7.389  -4.923   3.367  1.00  0.00     0.055 A 
ATOM     84  C   UNL     1       6.782  -4.169   4.389  1.00  0.00     0.015 A 
ATOM     85  C   UNL     1       8.710  -4.613   3.026  1.00  0.00     0.134 A 
ATOM     86  C   UNL     1       7.486  -3.157   5.053  1.00  0.00     0.001 A 
ATOM     87  C   UNL     1       9.414  -3.598   3.675  1.00  0.00     0.040 A 
ATOM     88  F   UNL     1       9.335  -5.290   2.050  1.00  0.00    -0.206 F 
ATOM     89  C   UNL     1       8.803  -2.872   4.696  1.00  0.00     0.003 A 
ENDBRANCH  75  83
ENDBRANCH  69  71
ENDBRANCH  63  65
ENDBRANCH  62  63
ENDBRANCH  61  62
ENDBRANCH  60  61
ENDBRANCH  59  60
ENDBRANCH  58  59
ENDBRANCH   1  58
TORSDOF 20
