REMARK SMILES CCN1C(=O)[C@@H](CC(=O)Nc2cccc(C(=O)OCCOCCOCCOC(=O)c3ccc(-c4c5nc(c(-c6ccccc6)c6ccc([nH]6)c(-c6ccccc6)c6nc(c(-c7ccccc7)c7ccc4[nH]7)C=C6)C=C5)cc3)c2)S/C1=[NH+]\c1cc(Cl)c(O)c(Cl)c1
REMARK SMILES IDX 21 1 20 2 19 3 18 4 16 5 17 6 15 7 11 8 12 9 78 10 13 11
REMARK SMILES IDX 14 12 10 13 8 14 9 15 7 17 6 18 3 19 4 20 80 21 5 22 79 23
REMARK SMILES IDX 81 24 2 26 1 27 82 28 83 29 90 30 84 31 88 32 85 33 86 34
REMARK SMILES IDX 89 35 87 36 22 38 23 39 24 40 25 41 26 42 27 43 28 44 29 45
REMARK SMILES IDX 30 46 31 47 77 48 32 49 76 50 33 51 34 52 35 53 70 54 36 55
REMARK SMILES IDX 75 56 69 57 71 58 37 59 74 60 68 61 67 62 38 64 60 65 45 66
REMARK SMILES IDX 59 67 46 68 49 69 58 70 72 71 47 72 48 73 57 75 73 76 50 77
REMARK SMILES IDX 39 78 40 79 44 80 41 81 43 82 42 83 61 84 62 85 66 86 63 87
REMARK SMILES IDX 65 88 64 89 51 90 52 91 56 92 53 93 55 94 54 95
REMARK H PARENT 10 16 81 25 87 37 71 63 49 74
REMARK Flexibility Score: inf
ROOT
ATOM      1  O   UNL     1       4.369   0.774   0.693  1.00  0.00    -0.376 OA
ENDROOT
BRANCH   1   2
ATOM      2  C   UNL     1       4.394  -0.151  -0.398  1.00  0.00     0.202 C 
BRANCH   2   3
ATOM      3  C   UNL     1       3.532  -1.429  -0.203  1.00  0.00     0.261 C 
BRANCH   3   4
ATOM      4  O   UNL     1       2.099  -1.247  -0.347  1.00  0.00    -0.460 OA
BRANCH   4   5
ATOM      5  C   UNL     1       1.426  -2.222  -1.028  1.00  0.00     0.338 C 
ATOM      6  O   UNL     1       1.867  -3.297  -1.402  1.00  0.00    -0.246 OA
BRANCH   5   7
ATOM      7  C   UNL     1       0.061  -1.761  -1.399  1.00  0.00     0.062 A 
ATOM      8  C   UNL     1      -1.275  -0.442  -2.950  1.00  0.00     0.042 A 
ATOM      9  C   UNL     1      -2.338  -0.512  -2.037  1.00  0.00     0.026 A 
ATOM     10  C   UNL     1      -0.115  -1.158  -2.659  1.00  0.00     0.041 A 
ATOM     11  C   UNL     1      -2.209  -1.206  -0.827  1.00  0.00     0.003 A 
ATOM     12  C   UNL     1      -0.997  -1.813  -0.491  1.00  0.00     0.016 A 
BRANCH   8  13
ATOM     13  N   UNL     1      -1.462   0.429  -4.040  1.00  0.00    -0.326 N 
ATOM     14  C   UNL     1      -0.671   1.003  -4.985  1.00  0.00     0.226 C 
ATOM     15  O   UNL     1      -1.228   1.784  -5.766  1.00  0.00    -0.275 OA
ATOM     16  H   UNL     1      -2.406   0.688  -4.145  1.00  0.00     0.169 HD
BRANCH  14  17
ATOM     17  C   UNL     1       0.819   0.792  -5.102  1.00  0.00     0.128 C 
BRANCH  17  18
ATOM     18  C   UNL     1       1.694   1.651  -4.189  1.00  0.00     0.183 C 
ATOM     19  N   UNL     1       0.619   2.461  -2.193  1.00  0.00    -0.190 N 
ATOM     20  C   UNL     1       1.418   1.486  -2.711  1.00  0.00     0.324 C 
ATOM     21  C   UNL     1       0.647   3.614  -2.926  1.00  0.00     0.319 C 
ATOM     22  O   UNL     1       1.968   0.597  -2.084  1.00  0.00    -0.245 OA
ATOM     23  S   UNL     1       1.529   3.431  -4.425  1.00  0.00    -0.022 SA
ATOM     24  N   UNL     1       0.107   4.688  -2.459  1.00  0.00    -0.235 N 
ATOM     25  H   UNL     1      -0.467   4.654  -1.660  1.00  0.00     0.313 HD
BRANCH  19  26
ATOM     26  C   UNL     1      -0.089   2.515  -0.904  1.00  0.00     0.243 C 
ATOM     27  C   UNL     1       0.019   1.460   0.174  1.00  0.00     0.054 C 
ENDBRANCH  19  26
BRANCH  24  28
ATOM     28  C   UNL     1       0.351   5.891  -3.102  1.00  0.00     0.128 A 
ATOM     29  C   UNL     1       1.380   6.701  -2.618  1.00  0.00     0.076 A 
ATOM     30  C   UNL     1      -0.379   6.255  -4.228  1.00  0.00     0.076 A 
ATOM     31  C   UNL     1       1.728   7.858  -3.300  1.00  0.00     0.088 A 
ATOM     32  C   UNL     1      -0.022   7.405  -4.914  1.00  0.00     0.088 A 
ATOM     33  Cl  UNL     1       3.040   8.800  -2.699  1.00  0.00    -0.080 Cl
ATOM     34  C   UNL     1       1.035   8.205  -4.461  1.00  0.00     0.153 A 
ATOM     35  Cl  UNL     1      -0.877   7.811  -6.355  1.00  0.00    -0.080 Cl
BRANCH  34  36
ATOM     36  O   UNL     1       1.406   9.322  -5.163  1.00  0.00    -0.505 OA
ATOM     37  H   UNL     1       2.114   9.854  -4.856  1.00  0.00     0.293 HD
ENDBRANCH  34  36
ENDBRANCH  24  28
ENDBRANCH  17  18
ENDBRANCH  14  17
ENDBRANCH   8  13
ENDBRANCH   5   7
ENDBRANCH   4   5
ENDBRANCH   3   4
ENDBRANCH   2   3
ENDBRANCH   1   2
BRANCH   1  38
ATOM     38  C   UNL     1       3.463   1.860   0.519  1.00  0.00     0.188 C 
BRANCH  38  39
ATOM     39  C   UNL     1       3.912   3.001  -0.405  1.00  0.00     0.188 C 
BRANCH  39  40
ATOM     40  O   UNL     1       5.071   3.659   0.108  1.00  0.00    -0.376 OA
BRANCH  40  41
ATOM     41  C   UNL     1       5.083   5.062  -0.173  1.00  0.00     0.202 C 
BRANCH  41  42
ATOM     42  C   UNL     1       4.941   5.869   1.122  1.00  0.00     0.261 C 
BRANCH  42  43
ATOM     43  O   UNL     1       3.942   5.358   2.028  1.00  0.00    -0.460 OA
BRANCH  43  44
ATOM     44  C   UNL     1       2.655   5.638   1.736  1.00  0.00     0.338 C 
ATOM     45  O   UNL     1       2.248   6.218   0.744  1.00  0.00    -0.246 OA
BRANCH  44  46
ATOM     46  C   UNL     1       1.764   5.075   2.785  1.00  0.00     0.060 A 
ATOM     47  C   UNL     1       0.483   4.646   2.417  1.00  0.00     0.016 A 
ATOM     48  C   UNL     1       2.148   5.022   4.129  1.00  0.00     0.016 A 
ATOM     49  C   UNL     1      -0.411   4.166   3.381  1.00  0.00     0.010 A 
ATOM     50  C   UNL     1       1.245   4.565   5.099  1.00  0.00     0.010 A 
ATOM     51  C   UNL     1      -0.047   4.151   4.734  1.00  0.00    -0.014 A 
BRANCH  51  52
ATOM     52  C   UNL     1      -1.056   3.845   5.782  1.00  0.00     0.031 A 
ATOM     53  C   UNL     1      -1.787   4.979   6.450  1.00  0.00     0.074 A 
ATOM     54  C   UNL     1      -1.329   2.580   6.148  1.00  0.00     0.049 A 
ATOM     55  N   UNL     1      -2.670   4.943   7.417  1.00  0.00    -0.248 NA
ATOM     56  C   UNL     1      -1.483   6.333   5.960  1.00  0.00     0.031 C 
ATOM     57  C   UNL     1      -0.732   1.379   5.568  1.00  0.00     0.029 A 
ATOM     58  N   UNL     1      -2.181   2.101   7.114  1.00  0.00    -0.354 N 
ATOM     59  C   UNL     1      -3.025   6.265   7.653  1.00  0.00     0.074 A 
ATOM     60  C   UNL     1      -2.248   7.080   6.743  1.00  0.00     0.031 C 
ATOM     61  C   UNL     1      -1.229   0.299   6.198  1.00  0.00     0.029 A 
ATOM     62  C   UNL     1      -2.153   0.734   7.245  1.00  0.00     0.049 A 
ATOM     63  H   UNL     1      -2.757   2.683   7.661  1.00  0.00     0.167 HD
ATOM     64  C   UNL     1      -3.918   6.762   8.543  1.00  0.00     0.031 A 
ATOM     65  C   UNL     1      -2.783  -0.073   8.122  1.00  0.00     0.031 A 
ATOM     66  C   UNL     1      -4.680   5.973   9.472  1.00  0.00     0.049 A 
ATOM     67  C   UNL     1      -3.701   0.511   9.163  1.00  0.00     0.074 A 
ATOM     68  C   UNL     1      -5.611   6.399  10.405  1.00  0.00     0.029 A 
ATOM     69  N   UNL     1      -4.591   4.597   9.598  1.00  0.00    -0.354 N 
ATOM     70  N   UNL     1      -4.048   1.760   9.356  1.00  0.00    -0.248 NA
ATOM     71  C   UNL     1      -4.319  -0.435  10.107  1.00  0.00     0.031 C 
ATOM     72  C   UNL     1      -6.051   5.285  11.128  1.00  0.00     0.029 A 
ATOM     73  C   UNL     1      -5.432   4.160  10.609  1.00  0.00     0.049 A 
ATOM     74  H   UNL     1      -4.016   4.015   9.051  1.00  0.00     0.167 HD
ATOM     75  C   UNL     1      -4.944   1.745  10.420  1.00  0.00     0.074 A 
ATOM     76  C   UNL     1      -5.097   0.364  10.824  1.00  0.00     0.031 C 
ATOM     77  C   UNL     1      -5.585   2.785  11.006  1.00  0.00     0.031 A 
BRANCH  64  78
ATOM     78  C   UNL     1      -4.094   8.253   8.573  1.00  0.00    -0.014 A 
ATOM     79  C   UNL     1      -4.794   8.921   7.557  1.00  0.00     0.009 A 
ATOM     80  C   UNL     1      -3.580   8.993   9.649  1.00  0.00     0.009 A 
ATOM     81  C   UNL     1      -4.949  10.308   7.602  1.00  0.00     0.001 A 
ATOM     82  C   UNL     1      -3.757  10.377   9.703  1.00  0.00     0.001 A 
ATOM     83  C   UNL     1      -4.434  11.033   8.676  1.00  0.00     0.000 A 
ENDBRANCH  64  78
BRANCH  65  84
ATOM     84  C   UNL     1      -2.553  -1.541   8.081  1.00  0.00    -0.014 A 
ATOM     85  C   UNL     1      -3.571  -2.411   7.659  1.00  0.00     0.009 A 
ATOM     86  C   UNL     1      -1.331  -2.081   8.511  1.00  0.00     0.009 A 
ATOM     87  C   UNL     1      -3.377  -3.794   7.693  1.00  0.00     0.001 A 
ATOM     88  C   UNL     1      -1.132  -3.463   8.519  1.00  0.00     0.001 A 
ATOM     89  C   UNL     1      -2.157  -4.318   8.119  1.00  0.00     0.000 A 
ENDBRANCH  65  84
BRANCH  77  90
ATOM     90  C   UNL     1      -6.545   2.471  12.120  1.00  0.00    -0.014 A 
ATOM     91  C   UNL     1      -6.092   2.083  13.390  1.00  0.00     0.009 A 
ATOM     92  C   UNL     1      -7.927   2.599  11.902  1.00  0.00     0.009 A 
ATOM     93  C   UNL     1      -7.005   1.800  14.410  1.00  0.00     0.001 A 
ATOM     94  C   UNL     1      -8.835   2.340  12.930  1.00  0.00     0.001 A 
ATOM     95  C   UNL     1      -8.374   1.931  14.180  1.00  0.00     0.000 A 
ENDBRANCH  77  90
ENDBRANCH  51  52
ENDBRANCH  44  46
ENDBRANCH  43  44
ENDBRANCH  42  43
ENDBRANCH  41  42
ENDBRANCH  40  41
ENDBRANCH  39  40
ENDBRANCH  38  39
ENDBRANCH   1  38
TORSDOF 23
