REMARK SMILES C[C@@H]1CC[C@@]1(SC1CCCCC1)C(=O)OCCOCCOCCOC(=O)c1ccc(-c2c3nc(c(-c4ccccc4)c4ccc([nH]4)c(-c4ccccc4)c4nc(c(-c5ccccc5)c5ccc2[nH]5)C=C4)C=C3)cc1
REMARK SMILES IDX 19 1 18 2 17 3 16 4 15 5 13 6 14 7 5 8 1 9 2 10 3 11 4 12
REMARK SMILES IDX 6 13 7 14 8 15 12 16 9 17 11 18 10 19 20 20 21 21 22 22
REMARK SMILES IDX 23 23 24 24 25 25 26 26 27 27 28 28 74 29 29 30 73 31 30 32
REMARK SMILES IDX 31 33 32 34 67 35 33 36 72 37 66 38 68 39 34 40 71 41 65 42
REMARK SMILES IDX 64 43 35 45 57 46 42 47 56 48 43 49 46 50 55 51 69 52 44 53
REMARK SMILES IDX 45 54 54 56 70 57 47 58 36 59 37 60 41 61 38 62 40 63 39 64
REMARK SMILES IDX 58 65 59 66 63 67 60 68 62 69 61 70 48 71 49 72 53 73 50 74
REMARK SMILES IDX 52 75 51 76
REMARK H PARENT 68 44 46 55
REMARK Flexibility Score: inf
ROOT
ATOM      1  C   UNL     1      -2.252   2.540  -1.379  1.00  0.00     0.188 C 
ENDROOT
BRANCH   1   2
ATOM      2  O   UNL     1      -2.060   3.882  -1.786  1.00  0.00    -0.376 OA
BRANCH   2   3
ATOM      3  C   UNL     1      -0.881   4.271  -2.461  1.00  0.00     0.202 C 
BRANCH   3   4
ATOM      4  C   UNL     1       0.468   4.083  -1.774  1.00  0.00     0.261 C 
BRANCH   4   5
ATOM      5  O   UNL     1       0.702   2.777  -1.231  1.00  0.00    -0.462 OA
BRANCH   5   6
ATOM      6  C   UNL     1       0.561   2.657   0.130  1.00  0.00     0.322 C 
ATOM      7  O   UNL     1       0.081   3.556   0.821  1.00  0.00    -0.251 OA
BRANCH   6   8
ATOM      8  C   UNL     1       1.089   1.270   0.667  1.00  0.00     0.116 C 
ATOM      9  C   UNL     1      -0.607   0.032   2.451  1.00  0.00     0.010 C 
ATOM     10  C   UNL     1      -0.085   0.265   1.045  1.00  0.00     0.013 C 
ATOM     11  C   UNL     1       0.741  -0.883   0.443  1.00  0.00     0.007 C 
ATOM     12  C   UNL     1       1.588   0.156  -0.307  1.00  0.00     0.030 C 
BRANCH   8  13
ATOM     13  S   UNL     1       2.280   1.511   2.086  1.00  0.00    -0.140 SA
BRANCH  13  14
ATOM     14  C   UNL     1       3.669   2.483   1.373  1.00  0.00     0.048 C 
ATOM     15  C   UNL     1       4.674   1.578   0.654  1.00  0.00     0.014 C 
ATOM     16  C   UNL     1       3.319   3.699   0.510  1.00  0.00     0.014 C 
ATOM     17  C   UNL     1       5.914   2.359   0.221  1.00  0.00     0.001 C 
ATOM     18  C   UNL     1       4.557   4.472   0.059  1.00  0.00     0.001 C 
ATOM     19  C   UNL     1       5.540   3.550  -0.656  1.00  0.00     0.000 C 
ENDBRANCH  13  14
ENDBRANCH   8  13
ENDBRANCH   6   8
ENDBRANCH   5   6
ENDBRANCH   4   5
ENDBRANCH   3   4
ENDBRANCH   2   3
ENDBRANCH   1   2
BRANCH   1  20
ATOM     20  C   UNL     1      -1.749   1.348  -2.222  1.00  0.00     0.188 C 
BRANCH  20  21
ATOM     21  O   UNL     1      -1.657   1.445  -3.629  1.00  0.00    -0.376 OA
BRANCH  21  22
ATOM     22  C   UNL     1      -2.753   1.990  -4.346  1.00  0.00     0.202 C 
BRANCH  22  23
ATOM     23  C   UNL     1      -4.121   1.315  -4.195  1.00  0.00     0.261 C 
BRANCH  23  24
ATOM     24  O   UNL     1      -4.648   1.380  -2.855  1.00  0.00    -0.460 OA
BRANCH  24  25
ATOM     25  C   UNL     1      -4.863   0.198  -2.237  1.00  0.00     0.338 C 
ATOM     26  O   UNL     1      -4.705  -0.926  -2.713  1.00  0.00    -0.246 OA
BRANCH  25  27
ATOM     27  C   UNL     1      -5.148   0.408  -0.804  1.00  0.00     0.060 A 
ATOM     28  C   UNL     1      -4.273  -0.145   0.142  1.00  0.00     0.016 A 
ATOM     29  C   UNL     1      -6.291   1.091  -0.385  1.00  0.00     0.016 A 
ATOM     30  C   UNL     1      -4.548  -0.035   1.507  1.00  0.00     0.010 A 
ATOM     31  C   UNL     1      -6.577   1.180   0.984  1.00  0.00     0.010 A 
ATOM     32  C   UNL     1      -5.719   0.599   1.938  1.00  0.00    -0.014 A 
BRANCH  32  33
ATOM     33  C   UNL     1      -6.122   0.534   3.367  1.00  0.00     0.031 A 
ATOM     34  C   UNL     1      -7.138  -0.491   3.795  1.00  0.00     0.074 A 
ATOM     35  C   UNL     1      -5.594   1.364   4.284  1.00  0.00     0.049 A 
ATOM     36  N   UNL     1      -7.707  -0.661   4.962  1.00  0.00    -0.248 NA
ATOM     37  C   UNL     1      -7.564  -1.454   2.768  1.00  0.00     0.031 C 
ATOM     38  C   UNL     1      -4.551   2.355   4.031  1.00  0.00     0.029 A 
ATOM     39  N   UNL     1      -5.881   1.508   5.621  1.00  0.00    -0.354 N 
ATOM     40  C   UNL     1      -8.574  -1.735   4.805  1.00  0.00     0.074 A 
ATOM     41  C   UNL     1      -8.463  -2.169   3.428  1.00  0.00     0.031 C 
ATOM     42  C   UNL     1      -4.299   3.021   5.172  1.00  0.00     0.029 A 
ATOM     43  C   UNL     1      -5.195   2.536   6.221  1.00  0.00     0.049 A 
ATOM     44  H   UNL     1      -6.517   0.931   6.102  1.00  0.00     0.167 HD
ATOM     45  C   UNL     1      -9.395  -2.305   5.720  1.00  0.00     0.031 A 
ATOM     46  C   UNL     1      -5.304   3.055   7.461  1.00  0.00     0.031 A 
ATOM     47  C   UNL     1      -9.522  -1.869   7.085  1.00  0.00     0.049 A 
ATOM     48  C   UNL     1      -6.297   2.471   8.432  1.00  0.00     0.074 A 
ATOM     49  C   UNL     1     -10.318  -2.398   8.087  1.00  0.00     0.029 A 
ATOM     50  N   UNL     1      -8.848  -0.792   7.638  1.00  0.00    -0.354 N 
ATOM     51  N   UNL     1      -7.105   1.450   8.278  1.00  0.00    -0.248 NA
ATOM     52  C   UNL     1      -6.396   3.118   9.751  1.00  0.00     0.031 C 
ATOM     53  C   UNL     1     -10.178  -1.597   9.226  1.00  0.00     0.029 A 
ATOM     54  C   UNL     1      -9.243  -0.612   8.953  1.00  0.00     0.049 A 
ATOM     55  H   UNL     1      -8.187  -0.237   7.165  1.00  0.00     0.167 HD
ATOM     56  C   UNL     1      -7.792   1.322   9.480  1.00  0.00     0.074 A 
ATOM     57  C   UNL     1      -7.292   2.356  10.362  1.00  0.00     0.031 C 
ATOM     58  C   UNL     1      -8.752   0.427   9.822  1.00  0.00     0.031 A 
BRANCH  45  59
ATOM     59  C   UNL     1     -10.273  -3.431   5.249  1.00  0.00    -0.014 A 
ATOM     60  C   UNL     1      -9.749  -4.696   4.941  1.00  0.00     0.009 A 
ATOM     61  C   UNL     1     -11.657  -3.222   5.132  1.00  0.00     0.009 A 
ATOM     62  C   UNL     1     -10.589  -5.716   4.488  1.00  0.00     0.001 A 
ATOM     63  C   UNL     1     -12.497  -4.251   4.708  1.00  0.00     0.001 A 
ATOM     64  C   UNL     1     -11.962  -5.494   4.375  1.00  0.00     0.000 A 
ENDBRANCH  45  59
BRANCH  46  65
ATOM     65  C   UNL     1      -4.488   4.239   7.843  1.00  0.00    -0.014 A 
ATOM     66  C   UNL     1      -3.476   4.138   8.809  1.00  0.00     0.009 A 
ATOM     67  C   UNL     1      -4.739   5.489   7.254  1.00  0.00     0.009 A 
ATOM     68  C   UNL     1      -2.745   5.268   9.189  1.00  0.00     0.001 A 
ATOM     69  C   UNL     1      -3.987   6.609   7.612  1.00  0.00     0.001 A 
ATOM     70  C   UNL     1      -2.997   6.499   8.586  1.00  0.00     0.000 A 
ENDBRANCH  46  65
BRANCH  58  71
ATOM     71  C   UNL     1      -9.316   0.508  11.215  1.00  0.00    -0.014 A 
ATOM     72  C   UNL     1     -10.172   1.554  11.596  1.00  0.00     0.009 A 
ATOM     73  C   UNL     1      -9.027  -0.504  12.145  1.00  0.00     0.009 A 
ATOM     74  C   UNL     1     -10.702   1.599  12.888  1.00  0.00     0.001 A 
ATOM     75  C   UNL     1      -9.582  -0.472  13.426  1.00  0.00     0.001 A 
ATOM     76  C   UNL     1     -10.412   0.584  13.799  1.00  0.00     0.000 A 
ENDBRANCH  58  71
ENDBRANCH  32  33
ENDBRANCH  25  27
ENDBRANCH  24  25
ENDBRANCH  23  24
ENDBRANCH  22  23
ENDBRANCH  21  22
ENDBRANCH  20  21
ENDBRANCH   1  20
TORSDOF 19
