REMARK SMILES CC1CC[NH+]([C@H](c2ccc(F)cc2)c2ccc([C@@H](C)C(=O)OCCOCCOCCOC(=O)c3ccc(-c4c5nc(c(-c6ccccc6)c6ccc([nH]6)c(-c6ccccc6)c6nc(c(-c7ccccc7)c7ccc4[nH]7)C=C6)C=C5)cc3)cc2-c2ccc(C(F)(F)F)cc2)CC1
REMARK SMILES IDX 26 1 25 2 24 3 23 4 22 5 20 6 21 7 18 8 19 9 17 10 14 11
REMARK SMILES IDX 15 12 83 13 16 14 82 15 6 16 5 17 1 18 2 19 3 20 95 21 4 22
REMARK SMILES IDX 94 23 7 25 8 26 13 27 9 28 12 29 10 30 11 31 84 32 85 33
REMARK SMILES IDX 93 34 86 35 92 36 87 37 88 38 89 39 90 40 91 41 27 42 28 43
REMARK SMILES IDX 29 44 30 45 31 46 32 47 33 48 34 49 35 50 81 51 36 52 80 53
REMARK SMILES IDX 37 54 38 55 39 56 74 57 40 58 79 59 73 60 75 61 41 62 78 63
REMARK SMILES IDX 72 64 71 65 42 67 64 68 49 69 63 70 50 71 53 72 62 73 76 74
REMARK SMILES IDX 51 75 52 76 61 78 77 79 54 80 43 81 44 82 48 83 45 84 47 85
REMARK SMILES IDX 46 86 65 87 66 88 70 89 67 90 69 91 68 92 55 93 56 94 60 95
REMARK SMILES IDX 57 96 59 97 58 98
REMARK H PARENT 5 24 75 66 53 77
REMARK Flexibility Score: inf
ROOT
ATOM      1  C   UNL     1       3.913   6.539  -1.043  1.00  0.00     0.188 C 
ENDROOT
BRANCH   1   2
ATOM      2  O   UNL     1       3.561   7.864  -1.423  1.00  0.00    -0.376 OA
BRANCH   2   3
ATOM      3  C   UNL     1       2.625   8.054  -2.473  1.00  0.00     0.202 C 
BRANCH   3   4
ATOM      4  C   UNL     1       3.047   7.583  -3.868  1.00  0.00     0.261 C 
BRANCH   4   5
ATOM      5  O   UNL     1       3.381   6.180  -3.954  1.00  0.00    -0.463 OA
BRANCH   5   6
ATOM      6  C   UNL     1       4.653   5.876  -4.319  1.00  0.00     0.313 C 
ATOM      7  O   UNL     1       5.500   6.726  -4.587  1.00  0.00    -0.252 OA
BRANCH   6   8
ATOM      8  C   UNL     1       4.979   4.383  -4.436  1.00  0.00     0.126 C 
ATOM      9  C   UNL     1       5.137   4.053  -5.921  1.00  0.00     0.025 C 
BRANCH   8  10
ATOM     10  C   UNL     1       4.109   3.339  -3.739  1.00  0.00    -0.033 A 
ATOM     11  C   UNL     1       2.516   1.318  -2.412  1.00  0.00     0.022 A 
ATOM     12  C   UNL     1       1.965   2.304  -3.265  1.00  0.00     0.011 A 
ATOM     13  C   UNL     1       3.928   1.340  -2.250  1.00  0.00    -0.009 A 
ATOM     14  C   UNL     1       2.736   3.259  -3.943  1.00  0.00     0.005 A 
ATOM     15  C   UNL     1       4.686   2.360  -2.900  1.00  0.00     0.013 A 
BRANCH  11  16
ATOM     16  C   UNL     1       1.625   0.199  -1.780  1.00  0.00     0.247 C 
BRANCH  16  17
ATOM     17  N   UNL     1       0.187   0.118  -2.201  1.00  0.00    -0.325 N 
ATOM     18  C   UNL     1      -3.437   1.364  -4.356  1.00  0.00     0.008 C 
ATOM     19  C   UNL     1      -2.046   1.200  -3.756  1.00  0.00    -0.003 C 
ATOM     20  C   UNL     1      -1.402  -0.123  -4.168  1.00  0.00     0.065 C 
ATOM     21  C   UNL     1      -2.098   1.219  -2.233  1.00  0.00     0.065 C 
ATOM     22  C   UNL     1       0.018  -0.249  -3.610  1.00  0.00     0.263 C 
ATOM     23  C   UNL     1      -0.694   1.144  -1.637  1.00  0.00     0.263 C 
ATOM     24  H   UNL     1      -0.204  -0.694  -1.724  1.00  0.00     0.348 HD
ENDBRANCH  16  17
BRANCH  16  25
ATOM     25  C   UNL     1       1.744   0.032  -0.251  1.00  0.00     0.014 A 
ATOM     26  C   UNL     1       1.511   1.093   0.638  1.00  0.00     0.013 A 
ATOM     27  C   UNL     1       2.030  -1.235   0.298  1.00  0.00     0.013 A 
ATOM     28  C   UNL     1       1.516   0.884   2.021  1.00  0.00     0.040 A 
ATOM     29  C   UNL     1       2.093  -1.427   1.682  1.00  0.00     0.040 A 
ATOM     30  C   UNL     1       1.822  -0.366   2.531  1.00  0.00     0.123 A 
ATOM     31  F   UNL     1       1.847  -0.552   3.858  1.00  0.00    -0.207 F 
ENDBRANCH  16  25
ENDBRANCH  11  16
BRANCH  13  32
ATOM     32  C   UNL     1       4.664   0.360  -1.420  1.00  0.00    -0.018 A 
ATOM     33  C   UNL     1       5.158   0.735  -0.164  1.00  0.00     0.009 A 
ATOM     34  C   UNL     1       4.882  -0.962  -1.832  1.00  0.00     0.009 A 
ATOM     35  C   UNL     1       5.822  -0.165   0.671  1.00  0.00     0.014 A 
ATOM     36  C   UNL     1       5.535  -1.880  -0.993  1.00  0.00     0.014 A 
ATOM     37  C   UNL     1       6.000  -1.493   0.273  1.00  0.00     0.056 A 
BRANCH  37  38
ATOM     38  C   UNL     1       6.686  -2.464   1.202  1.00  0.00     0.416 C 
ATOM     39  F   UNL     1       8.033  -2.271   1.254  1.00  0.00    -0.166 F 
ATOM     40  F   UNL     1       6.246  -2.361   2.489  1.00  0.00    -0.166 F 
ATOM     41  F   UNL     1       6.506  -3.768   0.854  1.00  0.00    -0.166 F 
ENDBRANCH  37  38
ENDBRANCH  13  32
ENDBRANCH   8  10
ENDBRANCH   6   8
ENDBRANCH   5   6
ENDBRANCH   4   5
ENDBRANCH   3   4
ENDBRANCH   2   3
ENDBRANCH   1   2
BRANCH   1  42
ATOM     42  C   UNL     1       2.861   5.420  -1.127  1.00  0.00     0.188 C 
BRANCH  42  43
ATOM     43  O   UNL     1       1.517   5.860  -1.029  1.00  0.00    -0.376 OA
BRANCH  43  44
ATOM     44  C   UNL     1       0.780   5.284   0.036  1.00  0.00     0.202 C 
BRANCH  44  45
ATOM     45  C   UNL     1       1.110   5.949   1.373  1.00  0.00     0.261 C 
BRANCH  45  46
ATOM     46  O   UNL     1       2.517   5.913   1.693  1.00  0.00    -0.460 OA
BRANCH  46  47
ATOM     47  C   UNL     1       2.969   4.769   2.234  1.00  0.00     0.338 C 
ATOM     48  O   UNL     1       2.306   3.787   2.526  1.00  0.00    -0.246 OA
BRANCH  47  49
ATOM     49  C   UNL     1       4.433   4.819   2.353  1.00  0.00     0.060 A 
ATOM     50  C   UNL     1       5.232   4.191   1.388  1.00  0.00     0.016 A 
ATOM     51  C   UNL     1       5.014   5.403   3.475  1.00  0.00     0.016 A 
ATOM     52  C   UNL     1       6.611   4.092   1.568  1.00  0.00     0.010 A 
ATOM     53  C   UNL     1       6.397   5.319   3.646  1.00  0.00     0.010 A 
ATOM     54  C   UNL     1       7.198   4.632   2.715  1.00  0.00    -0.014 A 
BRANCH  54  55
ATOM     55  C   UNL     1       8.626   4.387   3.026  1.00  0.00     0.031 A 
ATOM     56  C   UNL     1       8.975   3.416   4.117  1.00  0.00     0.074 A 
ATOM     57  C   UNL     1       9.597   5.052   2.378  1.00  0.00     0.049 A 
ATOM     58  N   UNL     1      10.131   3.182   4.682  1.00  0.00    -0.248 NA
ATOM     59  C   UNL     1       7.865   2.608   4.648  1.00  0.00     0.031 C 
ATOM     60  C   UNL     1       9.393   5.979   1.266  1.00  0.00     0.029 A 
ATOM     61  N   UNL     1      10.953   5.067   2.591  1.00  0.00    -0.354 N 
ATOM     62  C   UNL     1       9.883   2.229   5.662  1.00  0.00     0.074 A 
ATOM     63  C   UNL     1       8.466   1.936   5.619  1.00  0.00     0.031 C 
ATOM     64  C   UNL     1      10.581   6.498   0.913  1.00  0.00     0.029 A 
ATOM     65  C   UNL     1      11.614   5.978   1.806  1.00  0.00     0.049 A 
ATOM     66  H   UNL     1      11.405   4.483   3.241  1.00  0.00     0.167 HD
ATOM     67  C   UNL     1      10.755   1.658   6.526  1.00  0.00     0.031 A 
ATOM     68  C   UNL     1      12.898   6.385   1.836  1.00  0.00     0.031 A 
ATOM     69  C   UNL     1      12.161   1.960   6.572  1.00  0.00     0.049 A 
ATOM     70  C   UNL     1      13.839   5.789   2.845  1.00  0.00     0.074 A 
ATOM     71  C   UNL     1      13.135   1.420   7.393  1.00  0.00     0.029 A 
ATOM     72  N   UNL     1      12.791   2.895   5.764  1.00  0.00    -0.354 N 
ATOM     73  N   UNL     1      13.599   4.887   3.766  1.00  0.00    -0.248 NA
ATOM     74  C   UNL     1      15.228   6.269   2.818  1.00  0.00     0.031 C 
ATOM     75  C   UNL     1      14.344   2.070   7.121  1.00  0.00     0.029 A 
ATOM     76  C   UNL     1      14.135   2.972   6.089  1.00  0.00     0.049 A 
ATOM     77  H   UNL     1      12.348   3.427   5.064  1.00  0.00     0.167 HD
ATOM     78  C   UNL     1      14.809   4.676   4.416  1.00  0.00     0.074 A 
ATOM     79  C   UNL     1      15.783   5.535   3.774  1.00  0.00     0.031 C 
ATOM     80  C   UNL     1      15.088   3.842   5.449  1.00  0.00     0.031 A 
BRANCH  67  81
ATOM     81  C   UNL     1      10.187   0.696   7.533  1.00  0.00    -0.014 A 
ATOM     82  C   UNL     1       9.703  -0.567   7.156  1.00  0.00     0.009 A 
ATOM     83  C   UNL     1      10.124   1.070   8.885  1.00  0.00     0.009 A 
ATOM     84  C   UNL     1       9.122  -1.413   8.104  1.00  0.00     0.001 A 
ATOM     85  C   UNL     1       9.571   0.210   9.835  1.00  0.00     0.001 A 
ATOM     86  C   UNL     1       9.058  -1.024   9.442  1.00  0.00     0.000 A 
ENDBRANCH  67  81
BRANCH  68  87
ATOM     87  C   UNL     1      13.348   7.447   0.900  1.00  0.00    -0.014 A 
ATOM     88  C   UNL     1      14.179   7.139  -0.186  1.00  0.00     0.009 A 
ATOM     89  C   UNL     1      12.919   8.773   1.074  1.00  0.00     0.009 A 
ATOM     90  C   UNL     1      14.576   8.140  -1.077  1.00  0.00     0.001 A 
ATOM     91  C   UNL     1      13.297   9.766   0.169  1.00  0.00     0.001 A 
ATOM     92  C   UNL     1      14.129   9.450  -0.903  1.00  0.00     0.000 A 
ENDBRANCH  68  87
BRANCH  80  93
ATOM     93  C   UNL     1      16.511   3.800   5.932  1.00  0.00    -0.014 A 
ATOM     94  C   UNL     1      17.060   4.856   6.677  1.00  0.00     0.009 A 
ATOM     95  C   UNL     1      17.299   2.667   5.675  1.00  0.00     0.009 A 
ATOM     96  C   UNL     1      18.380   4.788   7.128  1.00  0.00     0.001 A 
ATOM     97  C   UNL     1      18.609   2.591   6.150  1.00  0.00     0.001 A 
ATOM     98  C   UNL     1      19.151   3.655   6.869  1.00  0.00     0.000 A 
ENDBRANCH  80  93
ENDBRANCH  54  55
ENDBRANCH  47  49
ENDBRANCH  46  47
ENDBRANCH  45  46
ENDBRANCH  44  45
ENDBRANCH  43  44
ENDBRANCH  42  43
ENDBRANCH   1  42
TORSDOF 23
