REMARK SMILES O=C(OCCOCCOCCOC(=O)c1ccc(N2C(=O)[C@@H]3N=NC(c4ccccc4)=C3[C@H]2c2cccc(Br)c2)cc1)c1ccc(-c2c3nc(c(-c4ccccc4)c4ccc([nH]4)c(-c4ccccc4)c4nc(c(-c5ccccc5)c5ccc2[nH]5)C=C4)C=C3)cc1
REMARK SMILES IDX 7 1 6 2 5 3 4 4 3 5 2 6 1 7 43 8 44 9 90 10 45 11 89 12
REMARK SMILES IDX 46 13 47 14 48 15 83 16 49 17 88 18 82 19 84 20 50 21 87 22
REMARK SMILES IDX 81 23 80 24 51 26 73 27 58 28 72 29 59 30 62 31 71 32 85 33
REMARK SMILES IDX 60 34 61 35 70 37 86 38 63 39 52 40 53 41 57 42 54 43 56 44
REMARK SMILES IDX 55 45 74 46 75 47 79 48 76 49 78 50 77 51 64 52 65 53 69 54
REMARK SMILES IDX 66 55 68 56 67 57 8 58 9 59 10 60 11 61 12 62 13 63 14 64
REMARK SMILES IDX 15 65 16 66 42 67 17 68 41 69 18 70 19 71 20 72 33 73 22 74
REMARK SMILES IDX 21 75 32 76 23 77 25 78 24 79 34 80 35 81 40 82 36 83 38 84
REMARK SMILES IDX 37 85 39 86 26 87 27 88 31 89 28 90 30 91 29 92
REMARK H PARENT 84 25 62 36
REMARK Flexibility Score: inf
ROOT
ATOM      1  C   UNL     1       3.393  -1.240  -1.180  1.00  0.00     0.188 C 
ENDROOT
BRANCH   1   2
ATOM      2  O   UNL     1       4.765  -1.256  -0.869  1.00  0.00    -0.376 OA
BRANCH   2   3
ATOM      3  C   UNL     1       5.340  -0.475   0.160  1.00  0.00     0.202 C 
BRANCH   3   4
ATOM      4  C   UNL     1       4.569   0.311   1.228  1.00  0.00     0.261 C 
BRANCH   4   5
ATOM      5  O   UNL     1       3.166   0.080   1.302  1.00  0.00    -0.460 OA
BRANCH   5   6
ATOM      6  C   UNL     1       2.120   0.827   0.902  1.00  0.00     0.338 C 
ATOM      7  O   UNL     1       0.999   0.491   1.283  1.00  0.00    -0.246 OA
BRANCH   6   8
ATOM      8  C   UNL     1       2.190   1.979  -0.048  1.00  0.00     0.060 A 
ATOM      9  C   UNL     1       3.327   2.683  -0.442  1.00  0.00     0.016 A 
ATOM     10  C   UNL     1       0.938   2.402  -0.547  1.00  0.00     0.016 A 
ATOM     11  C   UNL     1       3.193   3.893  -1.112  1.00  0.00     0.010 A 
ATOM     12  C   UNL     1       0.800   3.590  -1.245  1.00  0.00     0.010 A 
ATOM     13  C   UNL     1       1.923   4.374  -1.443  1.00  0.00    -0.014 A 
BRANCH  13  14
ATOM     14  C   UNL     1       1.827   5.681  -2.070  1.00  0.00     0.031 A 
ATOM     15  C   UNL     1       2.458   5.760  -3.407  1.00  0.00     0.074 A 
ATOM     16  C   UNL     1       1.203   6.734  -1.507  1.00  0.00     0.049 A 
ATOM     17  N   UNL     1       3.556   6.369  -3.707  1.00  0.00    -0.248 NA
ATOM     18  C   UNL     1       1.889   4.961  -4.500  1.00  0.00     0.031 C 
ATOM     19  C   UNL     1       0.335   6.758  -0.327  1.00  0.00     0.029 A 
ATOM     20  N   UNL     1       1.158   8.025  -1.942  1.00  0.00    -0.354 N 
ATOM     21  C   UNL     1       3.728   6.194  -5.074  1.00  0.00     0.074 A 
ATOM     22  C   UNL     1       2.763   5.202  -5.480  1.00  0.00     0.031 C 
ATOM     23  C   UNL     1      -0.324   7.940  -0.280  1.00  0.00     0.029 A 
ATOM     24  C   UNL     1       0.185   8.806  -1.331  1.00  0.00     0.049 A 
ATOM     25  H   UNL     1       1.765   8.375  -2.633  1.00  0.00     0.167 HD
ATOM     26  C   UNL     1       4.491   7.056  -5.800  1.00  0.00     0.031 A 
ATOM     27  C   UNL     1      -0.196  10.056  -1.695  1.00  0.00     0.031 A 
ATOM     28  C   UNL     1       5.343   7.855  -4.955  1.00  0.00     0.049 A 
ATOM     29  C   UNL     1       0.903  10.646  -2.492  1.00  0.00     0.074 A 
ATOM     30  C   UNL     1       6.351   7.583  -4.052  1.00  0.00     0.029 A 
ATOM     31  N   UNL     1       4.931   9.139  -4.691  1.00  0.00    -0.354 N 
ATOM     32  N   UNL     1       2.050  10.988  -1.983  1.00  0.00    -0.248 NA
ATOM     33  C   UNL     1       0.892  10.448  -3.933  1.00  0.00     0.031 C 
ATOM     34  C   UNL     1       6.162   8.524  -2.998  1.00  0.00     0.029 A 
ATOM     35  C   UNL     1       5.102   9.362  -3.350  1.00  0.00     0.049 A 
ATOM     36  H   UNL     1       4.577   9.782  -5.346  1.00  0.00     0.167 HD
ATOM     37  C   UNL     1       2.982  10.593  -2.931  1.00  0.00     0.074 A 
ATOM     38  C   UNL     1       2.208  10.367  -4.151  1.00  0.00     0.031 C 
ATOM     39  C   UNL     1       4.240  10.212  -2.562  1.00  0.00     0.031 A 
BRANCH  26  40
ATOM     40  C   UNL     1       4.143   7.486  -7.203  1.00  0.00    -0.014 A 
ATOM     41  C   UNL     1       4.997   8.390  -7.860  1.00  0.00     0.009 A 
ATOM     42  C   UNL     1       2.872   7.286  -7.774  1.00  0.00     0.009 A 
ATOM     43  C   UNL     1       4.566   9.124  -8.971  1.00  0.00     0.001 A 
ATOM     44  C   UNL     1       2.452   7.987  -8.907  1.00  0.00     0.001 A 
ATOM     45  C   UNL     1       3.288   8.930  -9.486  1.00  0.00     0.000 A 
ENDBRANCH  26  40
BRANCH  27  46
ATOM     46  C   UNL     1      -1.533  10.688  -1.634  1.00  0.00    -0.014 A 
ATOM     47  C   UNL     1      -1.680  12.077  -1.791  1.00  0.00     0.009 A 
ATOM     48  C   UNL     1      -2.690   9.894  -1.723  1.00  0.00     0.009 A 
ATOM     49  C   UNL     1      -2.931  12.643  -2.076  1.00  0.00     0.001 A 
ATOM     50  C   UNL     1      -3.939  10.460  -2.005  1.00  0.00     0.001 A 
ATOM     51  C   UNL     1      -4.056  11.832  -2.199  1.00  0.00     0.000 A 
ENDBRANCH  27  46
BRANCH  39  52
ATOM     52  C   UNL     1       4.677  10.487  -1.143  1.00  0.00    -0.014 A 
ATOM     53  C   UNL     1       4.016   9.975  -0.012  1.00  0.00     0.009 A 
ATOM     54  C   UNL     1       5.883  11.178  -0.951  1.00  0.00     0.009 A 
ATOM     55  C   UNL     1       4.530  10.184   1.272  1.00  0.00     0.001 A 
ATOM     56  C   UNL     1       6.408  11.365   0.328  1.00  0.00     0.001 A 
ATOM     57  C   UNL     1       5.728  10.876   1.440  1.00  0.00     0.000 A 
ENDBRANCH  39  52
ENDBRANCH  13  14
ENDBRANCH   6   8
ENDBRANCH   5   6
ENDBRANCH   4   5
ENDBRANCH   3   4
ENDBRANCH   2   3
ENDBRANCH   1   2
BRANCH   1  58
ATOM     58  C   UNL     1       2.469  -2.258  -0.466  1.00  0.00     0.188 C 
BRANCH  58  59
ATOM     59  O   UNL     1       2.979  -3.277   0.378  1.00  0.00    -0.376 OA
BRANCH  59  60
ATOM     60  C   UNL     1       4.228  -3.873   0.089  1.00  0.00     0.202 C 
BRANCH  60  61
ATOM     61  C   UNL     1       4.443  -4.562  -1.266  1.00  0.00     0.261 C 
BRANCH  61  62
ATOM     62  O   UNL     1       4.027  -3.821  -2.428  1.00  0.00    -0.460 OA
BRANCH  62  63
ATOM     63  C   UNL     1       2.933  -4.298  -3.073  1.00  0.00     0.338 C 
ATOM     64  O   UNL     1       2.253  -5.259  -2.769  1.00  0.00    -0.246 OA
BRANCH  63  65
ATOM     65  C   UNL     1       2.616  -3.448  -4.241  1.00  0.00     0.060 A 
ATOM     66  C   UNL     1       1.595  -2.497  -4.159  1.00  0.00     0.018 A 
ATOM     67  C   UNL     1       3.260  -3.668  -5.458  1.00  0.00     0.018 A 
ATOM     68  C   UNL     1       1.229  -1.759  -5.290  1.00  0.00     0.027 A 
ATOM     69  C   UNL     1       2.859  -2.954  -6.599  1.00  0.00     0.027 A 
ATOM     70  C   UNL     1       1.829  -2.009  -6.531  1.00  0.00     0.045 A 
BRANCH  70  71
ATOM     71  N   UNL     1       1.392  -1.304  -7.685  1.00  0.00    -0.299 N 
ATOM     72  C   UNL     1       1.204   0.110  -7.631  1.00  0.00     0.259 C 
ATOM     73  C   UNL     1       0.471  -1.929  -8.667  1.00  0.00     0.152 C 
ATOM     74  C   UNL     1       0.225   0.473  -8.716  1.00  0.00     0.248 C 
ATOM     75  O   UNL     1       1.718   0.892  -6.842  1.00  0.00    -0.271 OA
ATOM     76  C   UNL     1      -0.518  -0.814  -8.713  1.00  0.00     0.021 C 
ATOM     77  N   UNL     1      -0.798   1.450  -8.335  1.00  0.00    -0.170 NA
ATOM     78  C   UNL     1      -1.787  -0.494  -8.445  1.00  0.00     0.097 C 
ATOM     79  N   UNL     1      -1.925   0.880  -8.329  1.00  0.00    -0.154 NA
BRANCH  73  80
ATOM     80  C   UNL     1       1.135  -2.156 -10.046  1.00  0.00    -0.020 A 
ATOM     81  C   UNL     1       0.666  -1.525 -11.221  1.00  0.00     0.006 A 
ATOM     82  C   UNL     1       2.259  -2.986 -10.189  1.00  0.00     0.022 A 
ATOM     83  C   UNL     1       1.353  -1.611 -12.437  1.00  0.00     0.002 A 
ATOM     84  C   UNL     1       2.942  -3.078 -11.410  1.00  0.00     0.018 A 
ATOM     85  C   UNL     1       2.508  -2.375 -12.528  1.00  0.00     0.016 A 
ATOM     86  Br  UNL     1       4.487  -4.162 -11.543  1.00  0.00    -0.051 Br
ENDBRANCH  73  80
BRANCH  78  87
ATOM     87  C   UNL     1      -2.921  -1.279  -7.945  1.00  0.00     0.002 A 
ATOM     88  C   UNL     1      -4.002  -1.595  -8.778  1.00  0.00     0.010 A 
ATOM     89  C   UNL     1      -3.087  -1.363  -6.552  1.00  0.00     0.010 A 
ATOM     90  C   UNL     1      -5.248  -1.909  -8.222  1.00  0.00     0.001 A 
ATOM     91  C   UNL     1      -4.335  -1.665  -6.002  1.00  0.00     0.001 A 
ATOM     92  C   UNL     1      -5.420  -1.915  -6.837  1.00  0.00     0.000 A 
ENDBRANCH  78  87
ENDBRANCH  70  71
ENDBRANCH  63  65
ENDBRANCH  62  63
ENDBRANCH  61  62
ENDBRANCH  60  61
ENDBRANCH  59  60
ENDBRANCH  58  59
ENDBRANCH   1  58
TORSDOF 20
