REMARK SMILES COc1ccc([C@H](C)[N@H+]2CC[C@H](C(=O)OCCOCCOCCOC(=O)c3ccc(-c4c5nc(c(-c6ccccc6)c6ccc([nH]6)c(-c6ccccc6)c6nc(c(-c7ccccc7)c7ccc4[nH]7)C=C6)C=C5)cc3)[C@@H]2C)cc1
REMARK SMILES IDX 19 1 18 2 17 3 16 4 15 5 13 6 14 7 12 8 9 9 10 10 75 11
REMARK SMILES IDX 11 13 76 14 7 15 8 16 6 17 3 18 4 19 78 20 5 21 77 22 2 23
REMARK SMILES IDX 1 24 20 25 21 26 22 27 23 28 24 29 25 30 26 31 27 32 28 33
REMARK SMILES IDX 74 34 29 35 73 36 30 37 31 38 32 39 67 40 33 41 72 42 66 43
REMARK SMILES IDX 68 44 34 45 71 46 65 47 64 48 35 50 57 51 42 52 56 53 43 54
REMARK SMILES IDX 46 55 55 56 69 57 44 58 45 59 54 61 70 62 47 63 36 64 37 65
REMARK SMILES IDX 41 66 38 67 40 68 39 69 58 70 59 71 63 72 60 73 62 74 61 75
REMARK SMILES IDX 48 76 49 77 53 78 50 79 52 80 51 81
REMARK H PARENT 9 12 68 49 46 60
REMARK Flexibility Score: inf
ROOT
ATOM      1  C   UNL     1      -1.525   6.275   4.161  1.00  0.00     0.188 C 
ENDROOT
BRANCH   1   2
ATOM      2  O   UNL     1      -2.330   7.342   4.638  1.00  0.00    -0.376 OA
BRANCH   2   3
ATOM      3  C   UNL     1      -2.056   8.630   4.096  1.00  0.00     0.202 C 
BRANCH   3   4
ATOM      4  C   UNL     1      -2.569   8.806   2.665  1.00  0.00     0.261 C 
BRANCH   4   5
ATOM      5  O   UNL     1      -1.900   7.941   1.734  1.00  0.00    -0.463 OA
BRANCH   5   6
ATOM      6  C   UNL     1      -0.584   8.192   1.471  1.00  0.00     0.315 C 
ATOM      7  O   UNL     1       0.010   9.178   1.874  1.00  0.00    -0.252 OA
BRANCH   6   8
ATOM      8  C   UNL     1       0.025   6.945   0.836  1.00  0.00     0.162 C 
ATOM      9  N   UNL     1       1.227   7.135  -1.230  1.00  0.00    -0.326 N 
ATOM     10  C   UNL     1      -0.208   7.074  -1.521  1.00  0.00     0.264 C 
ATOM     11  C   UNL     1       1.425   7.025   0.223  1.00  0.00     0.196 C 
ATOM     12  H   UNL     1       1.579   8.047  -1.521  1.00  0.00     0.348 HD
ATOM     13  C   UNL     1      -0.829   6.417  -0.313  1.00  0.00     0.083 C 
ATOM     14  C   UNL     1       2.367   8.098   0.748  1.00  0.00     0.076 C 
BRANCH   9  15
ATOM     15  C   UNL     1       2.064   6.238  -2.059  1.00  0.00     0.212 C 
ATOM     16  C   UNL     1       1.762   4.738  -1.853  1.00  0.00     0.081 C 
BRANCH  15  17
ATOM     17  C   UNL     1       1.991   6.693  -3.522  1.00  0.00     0.009 A 
ATOM     18  C   UNL     1       1.594   7.708  -6.121  1.00  0.00     0.118 A 
ATOM     19  C   UNL     1       2.052   8.546  -5.109  1.00  0.00     0.047 A 
ATOM     20  C   UNL     1       1.409   6.352  -5.863  1.00  0.00     0.047 A 
ATOM     21  C   UNL     1       2.249   8.044  -3.822  1.00  0.00     0.013 A 
ATOM     22  C   UNL     1       1.605   5.848  -4.574  1.00  0.00     0.013 A 
BRANCH  18  23
ATOM     23  O   UNL     1       1.380   8.296  -7.338  1.00  0.00    -0.497 OA
ATOM     24  C   UNL     1       0.243   7.790  -8.033  1.00  0.00     0.278 C 
ENDBRANCH  18  23
ENDBRANCH  15  17
ENDBRANCH   9  15
ENDBRANCH   6   8
ENDBRANCH   5   6
ENDBRANCH   4   5
ENDBRANCH   3   4
ENDBRANCH   2   3
ENDBRANCH   1   2
BRANCH   1  25
ATOM     25  C   UNL     1      -2.237   5.287   3.209  1.00  0.00     0.188 C 
BRANCH  25  26
ATOM     26  O   UNL     1      -3.654   5.206   3.161  1.00  0.00    -0.376 OA
BRANCH  26  27
ATOM     27  C   UNL     1      -4.401   5.367   4.356  1.00  0.00     0.202 C 
BRANCH  27  28
ATOM     28  C   UNL     1      -4.194   4.333   5.467  1.00  0.00     0.261 C 
BRANCH  28  29
ATOM     29  O   UNL     1      -2.820   4.138   5.847  1.00  0.00    -0.460 OA
BRANCH  29  30
ATOM     30  C   UNL     1      -2.314   2.910   5.576  1.00  0.00     0.338 C 
ATOM     31  O   UNL     1      -2.907   1.954   5.109  1.00  0.00    -0.246 OA
BRANCH  30  32
ATOM     32  C   UNL     1      -0.848   2.895   5.772  1.00  0.00     0.060 A 
ATOM     33  C   UNL     1      -0.057   2.482   4.693  1.00  0.00     0.016 A 
ATOM     34  C   UNL     1      -0.260   3.175   7.008  1.00  0.00     0.016 A 
ATOM     35  C   UNL     1       1.315   2.298   4.856  1.00  0.00     0.010 A 
ATOM     36  C   UNL     1       1.119   2.974   7.176  1.00  0.00     0.010 A 
ATOM     37  C   UNL     1       1.906   2.498   6.111  1.00  0.00    -0.014 A 
BRANCH  37  38
ATOM     38  C   UNL     1       3.306   2.046   6.322  1.00  0.00     0.031 A 
ATOM     39  C   UNL     1       3.557   0.679   6.901  1.00  0.00     0.074 A 
ATOM     40  C   UNL     1       4.348   2.804   5.935  1.00  0.00     0.049 A 
ATOM     41  N   UNL     1       4.692   0.050   7.083  1.00  0.00    -0.248 NA
ATOM     42  C   UNL     1       2.372  -0.082   7.326  1.00  0.00     0.031 C 
ATOM     43  C   UNL     1       4.253   4.132   5.332  1.00  0.00     0.029 A 
ATOM     44  N   UNL     1       5.697   2.551   5.986  1.00  0.00    -0.354 N 
ATOM     45  C   UNL     1       4.358  -1.180   7.636  1.00  0.00     0.074 A 
ATOM     46  C   UNL     1       2.919  -1.195   7.793  1.00  0.00     0.031 C 
ATOM     47  C   UNL     1       5.493   4.577   5.065  1.00  0.00     0.029 A 
ATOM     48  C   UNL     1       6.468   3.574   5.491  1.00  0.00     0.049 A 
ATOM     49  H   UNL     1       6.075   1.716   6.343  1.00  0.00     0.167 HD
ATOM     50  C   UNL     1       5.169  -2.211   7.976  1.00  0.00     0.031 A 
ATOM     51  C   UNL     1       7.806   3.691   5.394  1.00  0.00     0.031 A 
ATOM     52  C   UNL     1       6.602  -2.201   7.847  1.00  0.00     0.049 A 
ATOM     53  C   UNL     1       8.692   2.558   5.841  1.00  0.00     0.074 A 
ATOM     54  C   UNL     1       7.503  -3.209   8.148  1.00  0.00     0.029 A 
ATOM     55  N   UNL     1       7.346  -1.125   7.391  1.00  0.00    -0.354 N 
ATOM     56  N   UNL     1       8.358   1.383   6.317  1.00  0.00    -0.248 NA
ATOM     57  C   UNL     1      10.143   2.767   5.723  1.00  0.00     0.031 C 
ATOM     58  C   UNL     1       8.796  -2.723   7.925  1.00  0.00     0.029 A 
ATOM     59  C   UNL     1       8.697  -1.433   7.432  1.00  0.00     0.049 A 
ATOM     60  H   UNL     1       6.971  -0.268   7.084  1.00  0.00     0.167 HD
ATOM     61  C   UNL     1       9.553   0.707   6.533  1.00  0.00     0.074 A 
ATOM     62  C   UNL     1      10.619   1.595   6.116  1.00  0.00     0.031 C 
ATOM     63  C   UNL     1       9.751  -0.539   7.030  1.00  0.00     0.031 A 
BRANCH  50  64
ATOM     64  C   UNL     1       4.517  -3.434   8.556  1.00  0.00    -0.014 A 
ATOM     65  C   UNL     1       3.770  -4.310   7.752  1.00  0.00     0.009 A 
ATOM     66  C   UNL     1       4.677  -3.730   9.918  1.00  0.00     0.009 A 
ATOM     67  C   UNL     1       3.167  -5.439   8.310  1.00  0.00     0.001 A 
ATOM     68  C   UNL     1       4.094  -4.873  10.467  1.00  0.00     0.001 A 
ATOM     69  C   UNL     1       3.333  -5.722   9.665  1.00  0.00     0.000 A 
ENDBRANCH  50  64
BRANCH  51  70
ATOM     70  C   UNL     1       8.407   4.938   4.853  1.00  0.00    -0.014 A 
ATOM     71  C   UNL     1       9.040   4.945   3.602  1.00  0.00     0.009 A 
ATOM     72  C   UNL     1       8.374   6.122   5.606  1.00  0.00     0.009 A 
ATOM     73  C   UNL     1       9.650   6.108   3.125  1.00  0.00     0.001 A 
ATOM     74  C   UNL     1       8.961   7.290   5.115  1.00  0.00     0.001 A 
ATOM     75  C   UNL     1       9.606   7.280   3.880  1.00  0.00     0.000 A 
ENDBRANCH  51  70
BRANCH  63  76
ATOM     76  C   UNL     1      11.172  -1.020   7.133  1.00  0.00    -0.014 A 
ATOM     77  C   UNL     1      12.053  -0.494   8.092  1.00  0.00     0.009 A 
ATOM     78  C   UNL     1      11.633  -2.026   6.269  1.00  0.00     0.009 A 
ATOM     79  C   UNL     1      13.376  -0.936   8.156  1.00  0.00     0.001 A 
ATOM     80  C   UNL     1      12.948  -2.486   6.354  1.00  0.00     0.001 A 
ATOM     81  C   UNL     1      13.822  -1.933   7.288  1.00  0.00     0.000 A 
ENDBRANCH  63  76
ENDBRANCH  37  38
ENDBRANCH  30  32
ENDBRANCH  29  30
ENDBRANCH  28  29
ENDBRANCH  27  28
ENDBRANCH  26  27
ENDBRANCH  25  26
ENDBRANCH   1  25
TORSDOF 20
