REMARK SMILES C[C@H]1CCC[C@H](C)N1C(=O)[C@H]1[C@@H](C(=O)OCCOCCOCCOC(=O)c2ccc(-c3c4nc(c(-c5ccccc5)c5ccc([nH]5)c(-c5ccccc5)c5nc(c(-c6ccccc6)c6ccc3[nH]6)C=C5)C=C4)cc2)[C@H]2CC[C@@H]1O2
REMARK SMILES IDX 20 1 19 2 18 3 17 4 16 5 15 6 13 7 14 8 12 9 11 10 78 11
REMARK SMILES IDX 75 12 77 13 79 14 76 15 9 16 1 17 2 18 3 19 8 20 4 21 6 22
REMARK SMILES IDX 5 23 7 24 10 25 21 26 22 27 23 28 24 29 25 30 26 31 27 32
REMARK SMILES IDX 28 33 74 34 29 35 73 36 30 37 31 38 32 39 67 40 33 41 72 42
REMARK SMILES IDX 66 43 68 44 34 45 71 46 65 47 64 48 35 50 57 51 42 52 56 53
REMARK SMILES IDX 43 54 46 55 55 56 69 57 44 58 45 59 54 61 70 62 47 63 36 64
REMARK SMILES IDX 37 65 41 66 38 67 40 68 39 69 58 70 59 71 63 72 60 73 62 74
REMARK SMILES IDX 61 75 48 76 49 77 53 78 50 79 52 80 51 81
REMARK H PARENT 68 49 46 60
REMARK Flexibility Score: inf
ROOT
ATOM      1  C   UNL     1       4.235  -0.171   0.914  1.00  0.00     0.188 C 
ENDROOT
BRANCH   1   2
ATOM      2  C   UNL     1       4.564   0.157   2.374  1.00  0.00     0.188 C 
BRANCH   2   3
ATOM      3  O   UNL     1       5.794  -0.366   2.816  1.00  0.00    -0.376 OA
BRANCH   3   4
ATOM      4  C   UNL     1       5.905  -0.990   4.087  1.00  0.00     0.202 C 
BRANCH   4   5
ATOM      5  C   UNL     1       4.662  -1.552   4.779  1.00  0.00     0.261 C 
BRANCH   5   6
ATOM      6  O   UNL     1       3.567  -0.665   5.083  1.00  0.00    -0.463 OA
BRANCH   6   7
ATOM      7  C   UNL     1       3.700   0.677   5.299  1.00  0.00     0.312 C 
ATOM      8  O   UNL     1       4.731   1.254   5.582  1.00  0.00    -0.252 OA
BRANCH   7   9
ATOM      9  C   UNL     1       2.329   1.285   5.047  1.00  0.00     0.143 C 
ATOM     10  C   UNL     1       2.117   2.599   4.312  1.00  0.00     0.124 C 
ATOM     11  C   UNL     1       0.832   3.086   4.961  1.00  0.00     0.132 C 
ATOM     12  C   UNL     1       1.343   1.296   6.268  1.00  0.00     0.133 C 
ATOM     13  C   UNL     1       0.840   3.716   6.331  1.00  0.00     0.035 C 
ATOM     14  O   UNL     1       0.309   1.786   5.375  1.00  0.00    -0.373 OA
ATOM     15  C   UNL     1       0.951   2.491   7.222  1.00  0.00     0.036 C 
BRANCH  10  16
ATOM     16  C   UNL     1       3.227   3.565   3.951  1.00  0.00     0.229 C 
ATOM     17  C   UNL     1       1.077   2.878   1.318  1.00  0.00     0.031 C 
ATOM     18  C   UNL     1       2.603   3.131   1.247  1.00  0.00     0.082 C 
ATOM     19  C   UNL     1       2.806   3.922  -0.387  1.00  0.00     0.025 C 
ATOM     20  N   UNL     1       3.677   3.559   2.591  1.00  0.00    -0.337 N 
ATOM     21  C   UNL     1       4.343   4.626  -1.013  1.00  0.00     0.004 C 
ATOM     22  C   UNL     1       5.456   4.178   2.281  1.00  0.00     0.082 C 
ATOM     23  C   UNL     1       5.829   4.869   0.209  1.00  0.00     0.025 C 
ATOM     24  C   UNL     1       6.350   3.309   3.353  1.00  0.00     0.031 C 
ATOM     25  O   UNL     1       3.728   4.269   4.824  1.00  0.00    -0.274 OA
ENDBRANCH  10  16
ENDBRANCH   7   9
ENDBRANCH   6   7
ENDBRANCH   5   6
ENDBRANCH   4   5
ENDBRANCH   3   4
ENDBRANCH   2   3
ENDBRANCH   1   2
BRANCH   1  26
ATOM     26  O   UNL     1       4.631  -1.446   0.448  1.00  0.00    -0.376 OA
BRANCH  26  27
ATOM     27  C   UNL     1       6.040  -1.697   0.434  1.00  0.00     0.202 C 
BRANCH  27  28
ATOM     28  C   UNL     1       6.992  -0.604  -0.109  1.00  0.00     0.261 C 
BRANCH  28  29
ATOM     29  O   UNL     1       6.995   0.635   0.644  1.00  0.00    -0.460 OA
BRANCH  29  30
ATOM     30  C   UNL     1       6.891   1.771  -0.077  1.00  0.00     0.338 C 
ATOM     31  O   UNL     1       6.879   1.875  -1.293  1.00  0.00    -0.246 OA
BRANCH  30  32
ATOM     32  C   UNL     1       6.505   2.913   0.777  1.00  0.00     0.060 A 
ATOM     33  C   UNL     1       4.827   3.370   0.691  1.00  0.00     0.016 A 
ATOM     34  C   UNL     1       7.611   4.101   1.304  1.00  0.00     0.016 A 
ATOM     35  C   UNL     1       4.242   5.176   1.188  1.00  0.00     0.010 A 
ATOM     36  C   UNL     1       7.135   5.693   1.797  1.00  0.00     0.010 A 
ATOM     37  C   UNL     1       5.507   6.325   1.766  1.00  0.00    -0.014 A 
BRANCH  37  38
ATOM     38  C   UNL     1       5.480   7.760   2.244  1.00  0.00     0.031 A 
ATOM     39  C   UNL     1       5.882   8.893   1.306  1.00  0.00     0.074 A 
ATOM     40  C   UNL     1       5.542   8.044   3.572  1.00  0.00     0.049 A 
ATOM     41  N   UNL     1       5.951  10.188   1.533  1.00  0.00    -0.248 NA
ATOM     42  C   UNL     1       6.310   8.529  -0.051  1.00  0.00     0.031 C 
ATOM     43  C   UNL     1       5.451   7.081   4.666  1.00  0.00     0.029 A 
ATOM     44  N   UNL     1       5.758   9.240   4.240  1.00  0.00    -0.354 N 
ATOM     45  C   UNL     1       6.352  10.773   0.334  1.00  0.00     0.074 A 
ATOM     46  C   UNL     1       6.592   9.700  -0.595  1.00  0.00     0.031 C 
ATOM     47  C   UNL     1       5.569   7.705   5.847  1.00  0.00     0.029 A 
ATOM     48  C   UNL     1       5.762   9.126   5.617  1.00  0.00     0.049 A 
ATOM     49  H   UNL     1       5.895  10.096   3.774  1.00  0.00     0.167 HD
ATOM     50  C   UNL     1       6.518  12.079   0.006  1.00  0.00     0.031 A 
ATOM     51  C   UNL     1       5.883  10.041   6.602  1.00  0.00     0.031 A 
ATOM     52  C   UNL     1       6.476  13.158   0.952  1.00  0.00     0.049 A 
ATOM     53  C   UNL     1       6.070  11.489   6.242  1.00  0.00     0.074 A 
ATOM     54  C   UNL     1       6.570  14.519   0.721  1.00  0.00     0.029 A 
ATOM     55  N   UNL     1       6.403  12.988   2.325  1.00  0.00    -0.354 N 
ATOM     56  N   UNL     1       6.186  12.039   5.058  1.00  0.00    -0.248 NA
ATOM     57  C   UNL     1       6.115  12.447   7.357  1.00  0.00     0.031 C 
ATOM     58  C   UNL     1       6.629  15.168   1.959  1.00  0.00     0.029 A 
ATOM     59  C   UNL     1       6.481  14.217   2.957  1.00  0.00     0.049 A 
ATOM     60  H   UNL     1       6.309  12.122   2.783  1.00  0.00     0.167 HD
ATOM     61  C   UNL     1       6.272  13.407   5.284  1.00  0.00     0.074 A 
ATOM     62  C   UNL     1       6.176  13.603   6.715  1.00  0.00     0.031 C 
ATOM     63  C   UNL     1       6.407  14.410   4.382  1.00  0.00     0.031 A 
BRANCH  50  64
ATOM     64  C   UNL     1       6.766  12.393  -1.451  1.00  0.00    -0.014 A 
ATOM     65  C   UNL     1       5.786  12.103  -2.419  1.00  0.00     0.009 A 
ATOM     66  C   UNL     1       7.966  12.987  -1.871  1.00  0.00     0.009 A 
ATOM     67  C   UNL     1       6.021  12.349  -3.773  1.00  0.00     0.001 A 
ATOM     68  C   UNL     1       8.184  13.266  -3.224  1.00  0.00     0.001 A 
ATOM     69  C   UNL     1       7.219  12.934  -4.175  1.00  0.00     0.000 A 
ENDBRANCH  50  64
BRANCH  51  70
ATOM     70  C   UNL     1       5.734   9.645   8.037  1.00  0.00    -0.014 A 
ATOM     71  C   UNL     1       4.596  10.047   8.761  1.00  0.00     0.009 A 
ATOM     72  C   UNL     1       6.712   8.888   8.700  1.00  0.00     0.009 A 
ATOM     73  C   UNL     1       4.459   9.733  10.117  1.00  0.00     0.001 A 
ATOM     74  C   UNL     1       6.555   8.543  10.048  1.00  0.00     0.001 A 
ATOM     75  C   UNL     1       5.436   8.976  10.758  1.00  0.00     0.000 A 
ENDBRANCH  51  70
BRANCH  63  76
ATOM     76  C   UNL     1       6.415  15.817   4.912  1.00  0.00    -0.014 A 
ATOM     77  C   UNL     1       7.457  16.303   5.716  1.00  0.00     0.009 A 
ATOM     78  C   UNL     1       5.355  16.678   4.584  1.00  0.00     0.009 A 
ATOM     79  C   UNL     1       7.409  17.602   6.227  1.00  0.00     0.001 A 
ATOM     80  C   UNL     1       5.330  17.989   5.059  1.00  0.00     0.001 A 
ATOM     81  C   UNL     1       6.348  18.444   5.894  1.00  0.00     0.000 A 
ENDBRANCH  63  76
ENDBRANCH  37  38
ENDBRANCH  30  32
ENDBRANCH  29  30
ENDBRANCH  28  29
ENDBRANCH  27  28
ENDBRANCH  26  27
ENDBRANCH   1  26
TORSDOF 18
