REMARK SMILES Cc1ccn2c([C@H]3C[C@@H]3C(=O)OCCOCCOCCOC(=O)c3ccc(-c4c5nc(c(-c6ccccc6)c6ccc([nH]6)c(-c6ccccc6)c6nc(c(-c7ccccc7)c7ccc4[nH]7)C=C6)C=C5)cc3)nnc2c1
REMARK SMILES IDX 17 1 16 2 15 3 14 4 13 5 12 6 10 7 11 8 9 9 7 10 8 11 6 12
REMARK SMILES IDX 1 13 2 14 3 15 75 16 4 17 74 18 5 19 73 20 72 21 18 22 19 23
REMARK SMILES IDX 20 24 21 25 22 26 23 27 24 28 25 29 71 30 26 31 70 32 27 33
REMARK SMILES IDX 28 34 29 35 64 36 30 37 69 38 63 39 65 40 31 41 68 42 62 43
REMARK SMILES IDX 61 44 32 46 54 47 39 48 53 49 40 50 43 51 52 52 66 53 41 54
REMARK SMILES IDX 42 55 51 57 67 58 44 59 33 60 34 61 38 62 35 63 37 64 36 65
REMARK SMILES IDX 55 66 56 67 60 68 57 69 59 70 58 71 45 72 46 73 50 74 47 75
REMARK SMILES IDX 49 76 48 77
REMARK H PARENT 65 45 43 56
REMARK Flexibility Score: inf
ROOT
ATOM      1  C   UNL     1       2.486  -3.333  -2.112  1.00  0.00     0.188 C 
ENDROOT
BRANCH   1   2
ATOM      2  C   UNL     1       1.558  -3.968  -1.055  1.00  0.00     0.188 C 
BRANCH   2   3
ATOM      3  O   UNL     1       2.014  -4.131   0.268  1.00  0.00    -0.376 OA
BRANCH   3   4
ATOM      4  C   UNL     1       2.917  -5.192   0.513  1.00  0.00     0.202 C 
BRANCH   4   5
ATOM      5  C   UNL     1       2.962  -6.369  -0.484  1.00  0.00     0.261 C 
BRANCH   5   6
ATOM      6  O   UNL     1       3.140  -5.966  -1.877  1.00  0.00    -0.463 OA
BRANCH   6   7
ATOM      7  C   UNL     1       2.471  -6.704  -2.816  1.00  0.00     0.309 C 
ATOM      8  O   UNL     1       1.981  -7.805  -2.550  1.00  0.00    -0.252 OA
BRANCH   7   9
ATOM      9  C   UNL     1       2.329  -6.071  -4.217  1.00  0.00     0.110 C 
ATOM     10  C   UNL     1       0.976  -5.805  -4.921  1.00  0.00     0.073 C 
ATOM     11  C   UNL     1       1.804  -6.997  -5.291  1.00  0.00     0.028 C 
BRANCH  10  12
ATOM     12  C   UNL     1       0.557  -4.893  -6.108  1.00  0.00     0.141 A 
ATOM     13  C   UNL     1      -4.545  -3.170  -7.778  1.00  0.00     0.044 C 
ATOM     14  C   UNL     1      -3.167  -3.706  -7.469  1.00  0.00    -0.046 A 
ATOM     15  C   UNL     1      -3.081  -5.062  -6.927  1.00  0.00     0.022 A 
ATOM     16  C   UNL     1      -2.030  -2.993  -7.661  1.00  0.00     0.053 A 
ATOM     17  C   UNL     1      -1.888  -5.539  -6.526  1.00  0.00     0.095 A 
ATOM     18  C   UNL     1      -0.755  -3.529  -7.274  1.00  0.00     0.161 A 
ATOM     19  N   UNL     1      -0.740  -4.758  -6.631  1.00  0.00    -0.286 N 
ATOM     20  N   UNL     1       0.481  -3.083  -7.345  1.00  0.00    -0.130 NA
ATOM     21  N   UNL     1       1.311  -3.958  -6.646  1.00  0.00    -0.134 NA
ENDBRANCH  10  12
ENDBRANCH   7   9
ENDBRANCH   6   7
ENDBRANCH   5   6
ENDBRANCH   4   5
ENDBRANCH   3   4
ENDBRANCH   2   3
ENDBRANCH   1   2
BRANCH   1  22
ATOM     22  O   UNL     1       3.795  -2.978  -1.722  1.00  0.00    -0.376 OA
BRANCH  22  23
ATOM     23  C   UNL     1       3.880  -1.973  -0.715  1.00  0.00     0.202 C 
BRANCH  23  24
ATOM     24  C   UNL     1       2.978  -0.722  -0.864  1.00  0.00     0.261 C 
BRANCH  24  25
ATOM     25  O   UNL     1       1.554  -1.028  -0.797  1.00  0.00    -0.460 OA
BRANCH  25  26
ATOM     26  C   UNL     1       0.747  -0.497  -1.768  1.00  0.00     0.338 C 
ATOM     27  O   UNL     1       1.038   0.426  -2.511  1.00  0.00    -0.246 OA
BRANCH  26  28
ATOM     28  C   UNL     1      -0.368  -1.468  -2.057  1.00  0.00     0.060 A 
ATOM     29  C   UNL     1      -1.193  -2.056  -1.083  1.00  0.00     0.016 A 
ATOM     30  C   UNL     1      -0.367  -2.029  -3.331  1.00  0.00     0.016 A 
ATOM     31  C   UNL     1      -1.868  -3.292  -1.341  1.00  0.00     0.010 A 
ATOM     32  C   UNL     1      -1.024  -3.249  -3.551  1.00  0.00     0.010 A 
ATOM     33  C   UNL     1      -1.720  -3.964  -2.562  1.00  0.00    -0.014 A 
BRANCH  33  34
ATOM     34  C   UNL     1      -2.510  -5.177  -2.998  1.00  0.00     0.031 A 
ATOM     35  C   UNL     1      -3.886  -4.842  -3.475  1.00  0.00     0.074 A 
ATOM     36  C   UNL     1      -2.115  -6.480  -3.207  1.00  0.00     0.049 A 
ATOM     37  N   UNL     1      -4.899  -5.635  -3.358  1.00  0.00    -0.248 NA
ATOM     38  C   UNL     1      -4.229  -3.538  -4.070  1.00  0.00     0.031 C 
ATOM     39  C   UNL     1      -0.918  -7.184  -2.750  1.00  0.00     0.029 A 
ATOM     40  N   UNL     1      -2.677  -7.468  -4.028  1.00  0.00    -0.354 N 
ATOM     41  C   UNL     1      -5.976  -4.992  -3.932  1.00  0.00     0.074 A 
ATOM     42  C   UNL     1      -5.520  -3.707  -4.374  1.00  0.00     0.031 C 
ATOM     43  C   UNL     1      -0.694  -8.292  -3.511  1.00  0.00     0.029 A 
ATOM     44  C   UNL     1      -1.773  -8.467  -4.462  1.00  0.00     0.049 A 
ATOM     45  H   UNL     1      -3.628  -7.466  -4.284  1.00  0.00     0.167 HD
ATOM     46  C   UNL     1      -7.170  -5.613  -4.066  1.00  0.00     0.031 A 
ATOM     47  C   UNL     1      -1.932  -9.515  -5.333  1.00  0.00     0.031 A 
ATOM     48  C   UNL     1      -7.365  -6.620  -3.067  1.00  0.00     0.049 A 
ATOM     49  C   UNL     1      -3.326  -9.938  -5.184  1.00  0.00     0.074 A 
ATOM     50  C   UNL     1      -7.309  -6.558  -1.688  1.00  0.00     0.029 A 
ATOM     51  N   UNL     1      -7.223  -7.942  -3.400  1.00  0.00    -0.354 N 
ATOM     52  N   UNL     1      -3.783 -10.488  -4.102  1.00  0.00    -0.248 NA
ATOM     53  C   UNL     1      -4.308  -9.407  -6.104  1.00  0.00     0.031 C 
ATOM     54  C   UNL     1      -6.628  -7.739  -1.301  1.00  0.00     0.029 A 
ATOM     55  C   UNL     1      -6.417  -8.511  -2.442  1.00  0.00     0.049 A 
ATOM     56  H   UNL     1      -7.623  -8.398  -4.175  1.00  0.00     0.167 HD
ATOM     57  C   UNL     1      -5.006  -9.875  -3.941  1.00  0.00     0.074 A 
ATOM     58  C   UNL     1      -5.345  -9.351  -5.267  1.00  0.00     0.031 C 
ATOM     59  C   UNL     1      -5.463  -9.568  -2.694  1.00  0.00     0.031 A 
BRANCH  46  60
ATOM     60  C   UNL     1      -7.995  -5.473  -5.290  1.00  0.00    -0.014 A 
ATOM     61  C   UNL     1      -7.376  -5.445  -6.555  1.00  0.00     0.009 A 
ATOM     62  C   UNL     1      -9.379  -5.654  -5.236  1.00  0.00     0.009 A 
ATOM     63  C   UNL     1      -8.113  -5.594  -7.729  1.00  0.00     0.001 A 
ATOM     64  C   UNL     1     -10.120  -5.812  -6.411  1.00  0.00     0.001 A 
ATOM     65  C   UNL     1      -9.487  -5.789  -7.654  1.00  0.00     0.000 A 
ENDBRANCH  46  60
BRANCH  47  66
ATOM     66  C   UNL     1      -1.150 -10.094  -6.483  1.00  0.00    -0.014 A 
ATOM     67  C   UNL     1      -0.399  -9.279  -7.348  1.00  0.00     0.009 A 
ATOM     68  C   UNL     1      -1.437 -11.399  -6.956  1.00  0.00     0.009 A 
ATOM     69  C   UNL     1       0.009  -9.727  -8.624  1.00  0.00     0.001 A 
ATOM     70  C   UNL     1      -1.034 -11.846  -8.231  1.00  0.00     0.001 A 
ATOM     71  C   UNL     1      -0.320 -11.003  -9.073  1.00  0.00     0.000 A 
ENDBRANCH  47  66
BRANCH  59  72
ATOM     72  C   UNL     1      -4.707 -10.091  -1.477  1.00  0.00    -0.014 A 
ATOM     73  C   UNL     1      -5.442 -10.614  -0.403  1.00  0.00     0.009 A 
ATOM     74  C   UNL     1      -3.335  -9.863  -1.267  1.00  0.00     0.009 A 
ATOM     75  C   UNL     1      -4.840 -10.848   0.839  1.00  0.00     0.001 A 
ATOM     76  C   UNL     1      -2.721 -10.124  -0.036  1.00  0.00     0.001 A 
ATOM     77  C   UNL     1      -3.483 -10.598   1.025  1.00  0.00     0.000 A 
ENDBRANCH  59  72
ENDBRANCH  33  34
ENDBRANCH  26  28
ENDBRANCH  25  26
ENDBRANCH  24  25
ENDBRANCH  23  24
ENDBRANCH  22  23
ENDBRANCH   1  22
TORSDOF 18
