REMARK SMILES COc1cc([C@@H]2[NH2+][C@H](C(=O)OCCOCCOCCOC(=O)c3ccc(-c4c5nc(c(-c6ccccc6)c6ccc([nH]6)c(-c6ccccc6)c6nc(c(-c7ccccc7)c7ccc4[nH]7)C=C6)C=C5)cc3)CS2)ccc1OCc1ccc(Cl)cc1
REMARK SMILES IDX 15 1 14 2 13 3 12 4 11 5 9 6 10 7 8 8 6 9 7 10 72 11 71 14
REMARK SMILES IDX 5 15 3 16 4 17 75 18 74 19 73 20 2 21 1 22 76 23 77 24 78 25
REMARK SMILES IDX 79 26 84 27 80 28 83 29 81 30 82 31 16 32 17 33 18 34 19 35
REMARK SMILES IDX 20 36 21 37 22 38 23 39 24 40 70 41 25 42 69 43 26 44 27 45
REMARK SMILES IDX 28 46 63 47 29 48 68 49 62 50 64 51 30 52 67 53 61 54 60 55
REMARK SMILES IDX 31 57 53 58 38 59 52 60 39 61 42 62 51 63 65 64 40 65 41 66
REMARK SMILES IDX 50 68 66 69 43 70 32 71 33 72 37 73 34 74 36 75 35 76 54 77
REMARK SMILES IDX 55 78 59 79 56 80 58 81 57 82 44 83 45 84 49 85 46 86 48 87
REMARK SMILES IDX 47 88
REMARK H PARENT 7 12 7 13 64 56 42 67
REMARK Flexibility Score: inf
ROOT
ATOM      1  C   UNL     1       3.296   8.529  -2.422  1.00  0.00     0.188 C 
ENDROOT
BRANCH   1   2
ATOM      2  O   UNL     1       4.549   8.882  -1.844  1.00  0.00    -0.376 OA
BRANCH   2   3
ATOM      3  C   UNL     1       4.897   8.323  -0.580  1.00  0.00     0.202 C 
BRANCH   3   4
ATOM      4  C   UNL     1       3.890   8.451   0.576  1.00  0.00     0.261 C 
BRANCH   4   5
ATOM      5  O   UNL     1       2.560   7.955   0.299  1.00  0.00    -0.459 OA
BRANCH   5   6
ATOM      6  C   UNL     1       1.527   8.805   0.526  1.00  0.00     0.365 C 
ATOM      7  O   UNL     1       1.670   9.944   0.968  1.00  0.00    -0.245 OA
BRANCH   6   8
ATOM      8  C   UNL     1       0.119   8.274   0.193  1.00  0.00     0.304 C 
ATOM      9  C   UNL     1      -0.530   5.909   0.084  1.00  0.00     0.274 C 
ATOM     10  N   UNL     1       0.024   7.053  -0.641  1.00  0.00    -0.319 N 
ATOM     11  S   UNL     1      -1.125   6.441   1.702  1.00  0.00    -0.087 SA
ATOM     12  H   UNL     1      -0.575   7.252  -1.442  1.00  0.00     0.348 HD
ATOM     13  H   UNL     1       0.971   6.805  -0.927  1.00  0.00     0.348 HD
ATOM     14  C   UNL     1      -0.709   8.179   1.463  1.00  0.00     0.153 C 
BRANCH   9  15
ATOM     15  C   UNL     1       0.455   4.753   0.152  1.00  0.00     0.024 A 
ATOM     16  C   UNL     1       1.169   2.480  -0.457  1.00  0.00     0.161 A 
ATOM     17  C   UNL     1       0.228   3.530  -0.520  1.00  0.00     0.061 A 
ATOM     18  C   UNL     1       2.349   2.650   0.274  1.00  0.00     0.161 A 
ATOM     19  C   UNL     1       2.597   3.877   0.892  1.00  0.00     0.051 A 
ATOM     20  C   UNL     1       1.658   4.900   0.853  1.00  0.00     0.015 A 
BRANCH  16  21
ATOM     21  O   UNL     1       1.002   1.359  -1.228  1.00  0.00    -0.493 OA
ATOM     22  C   UNL     1      -0.104   0.545  -0.839  1.00  0.00     0.278 C 
ENDBRANCH  16  21
BRANCH  18  23
ATOM     23  O   UNL     1       3.326   1.734   0.542  1.00  0.00    -0.485 OA
BRANCH  23  24
ATOM     24  C   UNL     1       2.991   0.353   0.684  1.00  0.00     0.265 C 
BRANCH  24  25
ATOM     25  C   UNL     1       1.953  -0.058   1.723  1.00  0.00    -0.011 A 
ATOM     26  C   UNL     1       1.291   0.841   2.572  1.00  0.00     0.009 A 
ATOM     27  C   UNL     1       1.600  -1.417   1.795  1.00  0.00     0.009 A 
ATOM     28  C   UNL     1       0.229   0.420   3.378  1.00  0.00     0.021 A 
ATOM     29  C   UNL     1       0.558  -1.846   2.623  1.00  0.00     0.021 A 
ATOM     30  C   UNL     1      -0.142  -0.919   3.389  1.00  0.00     0.041 A 
ATOM     31  Cl  UNL     1      -1.481  -1.429   4.340  1.00  0.00    -0.084 Cl
ENDBRANCH  24  25
ENDBRANCH  23  24
ENDBRANCH  18  23
ENDBRANCH   9  15
ENDBRANCH   6   8
ENDBRANCH   5   6
ENDBRANCH   4   5
ENDBRANCH   3   4
ENDBRANCH   2   3
ENDBRANCH   1   2
BRANCH   1  32
ATOM     32  C   UNL     1       2.856   7.053  -2.406  1.00  0.00     0.188 C 
BRANCH  32  33
ATOM     33  O   UNL     1       3.801   6.195  -1.818  1.00  0.00    -0.376 OA
BRANCH  33  34
ATOM     34  C   UNL     1       4.387   5.197  -2.626  1.00  0.00     0.202 C 
BRANCH  34  35
ATOM     35  C   UNL     1       5.032   5.595  -3.967  1.00  0.00     0.261 C 
BRANCH  35  36
ATOM     36  O   UNL     1       4.414   6.664  -4.709  1.00  0.00    -0.460 OA
BRANCH  36  37
ATOM     37  C   UNL     1       3.395   6.351  -5.543  1.00  0.00     0.338 C 
ATOM     38  O   UNL     1       2.915   5.246  -5.742  1.00  0.00    -0.246 OA
BRANCH  37  39
ATOM     39  C   UNL     1       2.814   7.618  -6.043  1.00  0.00     0.060 A 
ATOM     40  C   UNL     1       1.537   8.013  -5.613  1.00  0.00     0.016 A 
ATOM     41  C   UNL     1       3.543   8.433  -6.910  1.00  0.00     0.016 A 
ATOM     42  C   UNL     1       0.998   9.235  -6.032  1.00  0.00     0.010 A 
ATOM     43  C   UNL     1       2.988   9.639  -7.353  1.00  0.00     0.010 A 
ATOM     44  C   UNL     1       1.713  10.049  -6.920  1.00  0.00    -0.014 A 
BRANCH  44  45
ATOM     45  C   UNL     1       1.116  11.286  -7.483  1.00  0.00     0.031 A 
ATOM     46  C   UNL     1       0.527  11.249  -8.866  1.00  0.00     0.074 A 
ATOM     47  C   UNL     1       1.146  12.445  -6.798  1.00  0.00     0.049 A 
ATOM     48  N   UNL     1       0.103  12.235  -9.613  1.00  0.00    -0.248 NA
ATOM     49  C   UNL     1       0.404   9.921  -9.491  1.00  0.00     0.031 C 
ATOM     50  C   UNL     1       1.641  12.612  -5.432  1.00  0.00     0.029 A 
ATOM     51  N   UNL     1       0.774  13.714  -7.177  1.00  0.00    -0.354 N 
ATOM     52  C   UNL     1      -0.313  11.654 -10.804  1.00  0.00     0.074 A 
ATOM     53  C   UNL     1      -0.089  10.229 -10.683  1.00  0.00     0.031 C 
ATOM     54  C   UNL     1       1.571  13.913  -5.098  1.00  0.00     0.029 A 
ATOM     55  C   UNL     1       1.074  14.677  -6.242  1.00  0.00     0.049 A 
ATOM     56  H   UNL     1       0.335  13.914  -8.035  1.00  0.00     0.167 HD
ATOM     57  C   UNL     1      -0.827  12.255 -11.903  1.00  0.00     0.031 A 
ATOM     58  C   UNL     1       1.004  16.021  -6.318  1.00  0.00     0.031 A 
ATOM     59  C   UNL     1      -1.043  13.672 -12.028  1.00  0.00     0.049 A 
ATOM     60  C   UNL     1       0.522  16.668  -7.593  1.00  0.00     0.074 A 
ATOM     61  C   UNL     1      -1.597  14.365 -13.091  1.00  0.00     0.029 A 
ATOM     62  N   UNL     1      -0.702  14.612 -11.070  1.00  0.00    -0.354 N 
ATOM     63  N   UNL     1       0.082  16.106  -8.693  1.00  0.00    -0.248 NA
ATOM     64  C   UNL     1       0.533  18.139  -7.639  1.00  0.00     0.031 C 
ATOM     65  C   UNL     1      -1.521  15.731 -12.807  1.00  0.00     0.029 A 
ATOM     66  C   UNL     1      -0.986  15.883 -11.539  1.00  0.00     0.049 A 
ATOM     67  H   UNL     1      -0.315  14.407 -10.189  1.00  0.00     0.167 HD
ATOM     68  C   UNL     1      -0.256  17.151  -9.546  1.00  0.00     0.074 A 
ATOM     69  C   UNL     1       0.002  18.381  -8.828  1.00  0.00     0.031 C 
ATOM     70  C   UNL     1      -0.731  17.099 -10.814  1.00  0.00     0.031 A 
BRANCH  57  71
ATOM     71  C   UNL     1      -1.156  11.395 -13.090  1.00  0.00    -0.014 A 
ATOM     72  C   UNL     1      -2.277  10.552 -13.096  1.00  0.00     0.009 A 
ATOM     73  C   UNL     1      -0.381  11.507 -14.257  1.00  0.00     0.009 A 
ATOM     74  C   UNL     1      -2.607   9.828 -14.244  1.00  0.00     0.001 A 
ATOM     75  C   UNL     1      -0.729  10.803 -15.410  1.00  0.00     0.001 A 
ATOM     76  C   UNL     1      -1.840   9.961 -15.402  1.00  0.00     0.000 A 
ENDBRANCH  57  71
BRANCH  58  77
ATOM     77  C   UNL     1       1.465  16.874  -5.186  1.00  0.00    -0.014 A 
ATOM     78  C   UNL     1       0.567  17.710  -4.503  1.00  0.00     0.009 A 
ATOM     79  C   UNL     1       2.823  16.913  -4.832  1.00  0.00     0.009 A 
ATOM     80  C   UNL     1       1.025  18.596  -3.524  1.00  0.00     0.001 A 
ATOM     81  C   UNL     1       3.273  17.773  -3.827  1.00  0.00     0.001 A 
ATOM     82  C   UNL     1       2.377  18.625  -3.185  1.00  0.00     0.000 A 
ENDBRANCH  58  77
BRANCH  70  83
ATOM     83  C   UNL     1      -1.032  18.403 -11.500  1.00  0.00    -0.014 A 
ATOM     84  C   UNL     1      -0.002  19.257 -11.926  1.00  0.00     0.009 A 
ATOM     85  C   UNL     1      -2.363  18.756 -11.776  1.00  0.00     0.009 A 
ATOM     86  C   UNL     1      -0.302  20.451 -12.586  1.00  0.00     0.001 A 
ATOM     87  C   UNL     1      -2.658  19.933 -12.466  1.00  0.00     0.001 A 
ATOM     88  C   UNL     1      -1.627  20.784 -12.862  1.00  0.00     0.000 A 
ENDBRANCH  70  83
ENDBRANCH  44  45
ENDBRANCH  37  39
ENDBRANCH  36  37
ENDBRANCH  35  36
ENDBRANCH  34  35
ENDBRANCH  33  34
ENDBRANCH  32  33
ENDBRANCH   1  32
TORSDOF 22
