REMARK SMILES C[C@H]([NH3+])C(=O)N1CCC[C@H]1C(=O)OCCOCCOCCOC(=O)c1ccc(-c2c3nc(c(-c4ccccc4)c4ccc([nH]4)c(-c4ccccc4)c4nc(c(-c5ccccc5)c5ccc2[nH]5)C=C4)C=C3)cc1
REMARK SMILES IDX 17 1 16 2 15 3 14 4 13 5 11 6 12 7 10 8 6 9 7 10 8 11 9 12
REMARK SMILES IDX 4 13 5 14 2 15 1 16 3 17 18 21 19 22 20 23 21 24 22 25 23 26
REMARK SMILES IDX 24 27 25 28 26 29 72 30 27 31 71 32 28 33 29 34 30 35 65 36
REMARK SMILES IDX 31 37 70 38 64 39 66 40 32 41 69 42 63 43 62 44 33 46 55 47
REMARK SMILES IDX 40 48 54 49 41 50 44 51 53 52 67 53 42 54 43 55 52 57 68 58
REMARK SMILES IDX 45 59 34 60 35 61 39 62 36 63 38 64 37 65 56 66 57 67 61 68
REMARK SMILES IDX 58 69 60 70 59 71 46 72 47 73 51 74 48 75 50 76 49 77
REMARK H PARENT 3 18 3 19 3 20 66 45 44 56
REMARK Flexibility Score: inf
ROOT
ATOM      1  C   UNL     1      -4.756   0.486  -1.240  1.00  0.00     0.188 C 
ENDROOT
BRANCH   1   2
ATOM      2  O   UNL     1      -6.169   0.412  -1.414  1.00  0.00    -0.376 OA
BRANCH   2   3
ATOM      3  C   UNL     1      -6.879  -0.611  -0.725  1.00  0.00     0.202 C 
BRANCH   3   4
ATOM      4  C   UNL     1      -6.342  -2.050  -0.771  1.00  0.00     0.261 C 
BRANCH   4   5
ATOM      5  O   UNL     1      -4.963  -2.207  -0.374  1.00  0.00    -0.462 OA
BRANCH   5   6
ATOM      6  C   UNL     1      -4.139  -2.839  -1.260  1.00  0.00     0.328 C 
ATOM      7  O   UNL     1      -4.506  -3.272  -2.349  1.00  0.00    -0.250 OA
BRANCH   6   8
ATOM      8  C   UNL     1      -2.725  -3.111  -0.699  1.00  0.00     0.195 C 
ATOM      9  N   UNL     1      -1.777  -2.031  -0.354  1.00  0.00    -0.324 N 
ATOM     10  C   UNL     1      -1.352  -2.134   1.030  1.00  0.00     0.121 C 
ATOM     11  C   UNL     1      -1.579  -3.591   1.376  1.00  0.00     0.024 C 
ATOM     12  C   UNL     1      -2.836  -3.938   0.595  1.00  0.00     0.039 C 
BRANCH   9  13
ATOM     13  C   UNL     1      -1.238  -1.256  -1.361  1.00  0.00     0.281 C 
ATOM     14  O   UNL     1      -1.874  -1.093  -2.409  1.00  0.00    -0.268 OA
BRANCH  13  15
ATOM     15  C   UNL     1       0.220  -0.733  -1.293  1.00  0.00     0.268 C 
ATOM     16  C   UNL     1       1.196  -1.896  -1.451  1.00  0.00     0.086 C 
BRANCH  15  17
ATOM     17  N   UNL     1       0.530   0.101  -0.116  1.00  0.00    -0.348 N 
ATOM     18  H   UNL     1       0.446  -0.462   0.731  1.00  0.00     0.345 HD
ATOM     19  H   UNL     1      -0.125   0.882  -0.071  1.00  0.00     0.345 HD
ATOM     20  H   UNL     1       1.482   0.459  -0.194  1.00  0.00     0.345 HD
ENDBRANCH  15  17
ENDBRANCH  13  15
ENDBRANCH   9  13
ENDBRANCH   6   8
ENDBRANCH   5   6
ENDBRANCH   4   5
ENDBRANCH   3   4
ENDBRANCH   2   3
ENDBRANCH   1   2
BRANCH   1  21
ATOM     21  C   UNL     1      -4.188   0.465   0.196  1.00  0.00     0.188 C 
BRANCH  21  22
ATOM     22  O   UNL     1      -5.167   0.296   1.199  1.00  0.00    -0.376 OA
BRANCH  22  23
ATOM     23  C   UNL     1      -5.498   1.408   2.009  1.00  0.00     0.202 C 
BRANCH  23  24
ATOM     24  C   UNL     1      -5.736   2.807   1.407  1.00  0.00     0.261 C 
BRANCH  24  25
ATOM     25  O   UNL     1      -5.022   3.146   0.209  1.00  0.00    -0.460 OA
BRANCH  25  26
ATOM     26  C   UNL     1      -3.793   3.689   0.346  1.00  0.00     0.338 C 
ATOM     27  O   UNL     1      -3.197   3.913   1.392  1.00  0.00    -0.246 OA
BRANCH  26  28
ATOM     28  C   UNL     1      -3.195   3.824  -0.998  1.00  0.00     0.060 A 
ATOM     29  C   UNL     1      -2.106   3.014  -1.349  1.00  0.00     0.016 A 
ATOM     30  C   UNL     1      -3.709   4.748  -1.909  1.00  0.00     0.016 A 
ATOM     31  C   UNL     1      -1.515   3.140  -2.608  1.00  0.00     0.010 A 
ATOM     32  C   UNL     1      -3.100   4.891  -3.160  1.00  0.00     0.010 A 
ATOM     33  C   UNL     1      -1.982   4.108  -3.506  1.00  0.00    -0.014 A 
BRANCH  33  34
ATOM     34  C   UNL     1      -1.207   4.429  -4.731  1.00  0.00     0.031 A 
ATOM     35  C   UNL     1      -0.312   5.638  -4.721  1.00  0.00     0.074 A 
ATOM     36  C   UNL     1      -1.296   3.675  -5.841  1.00  0.00     0.049 A 
ATOM     37  N   UNL     1       0.394   6.161  -5.691  1.00  0.00    -0.248 NA
ATOM     38  C   UNL     1      -0.207   6.356  -3.441  1.00  0.00     0.031 C 
ATOM     39  C   UNL     1      -2.087   2.454  -5.975  1.00  0.00     0.029 A 
ATOM     40  N   UNL     1      -0.722   3.846  -7.077  1.00  0.00    -0.354 N 
ATOM     41  C   UNL     1       1.006   7.283  -5.146  1.00  0.00     0.074 A 
ATOM     42  C   UNL     1       0.573   7.375  -3.769  1.00  0.00     0.031 C 
ATOM     43  C   UNL     1      -1.969   1.999  -7.235  1.00  0.00     0.029 A 
ATOM     44  C   UNL     1      -1.125   2.915  -8.002  1.00  0.00     0.049 A 
ATOM     45  H   UNL     1      -0.083   4.567  -7.280  1.00  0.00     0.167 HD
ATOM     46  C   UNL     1       1.852   8.160  -5.738  1.00  0.00     0.031 A 
ATOM     47  C   UNL     1      -0.872   2.829  -9.323  1.00  0.00     0.031 A 
ATOM     48  C   UNL     1       2.270   8.080  -7.112  1.00  0.00     0.049 A 
ATOM     49  C   UNL     1       0.014   3.854  -9.981  1.00  0.00     0.074 A 
ATOM     50  C   UNL     1       3.152   8.902  -7.793  1.00  0.00     0.029 A 
ATOM     51  N   UNL     1       1.821   7.134  -8.021  1.00  0.00    -0.354 N 
ATOM     52  N   UNL     1       0.623   4.887  -9.449  1.00  0.00    -0.248 NA
ATOM     53  C   UNL     1       0.256   3.695 -11.423  1.00  0.00     0.031 C 
ATOM     54  C   UNL     1       3.179   8.498  -9.132  1.00  0.00     0.029 A 
ATOM     55  C   UNL     1       2.376   7.377  -9.268  1.00  0.00     0.049 A 
ATOM     56  H   UNL     1       1.201   6.399  -7.812  1.00  0.00     0.167 HD
ATOM     57  C   UNL     1       1.338   5.483 -10.482  1.00  0.00     0.074 A 
ATOM     58  C   UNL     1       1.099   4.688 -11.669  1.00  0.00     0.031 C 
ATOM     59  C   UNL     1       2.126   6.587 -10.448  1.00  0.00     0.031 A 
BRANCH  46  60
ATOM     60  C   UNL     1       2.327   9.322  -4.909  1.00  0.00    -0.014 A 
ATOM     61  C   UNL     1       3.200   9.148  -3.822  1.00  0.00     0.009 A 
ATOM     62  C   UNL     1       1.892  10.619  -5.227  1.00  0.00     0.009 A 
ATOM     63  C   UNL     1       3.586  10.242  -3.043  1.00  0.00     0.001 A 
ATOM     64  C   UNL     1       2.308  11.714  -4.469  1.00  0.00     0.001 A 
ATOM     65  C   UNL     1       3.142  11.523  -3.369  1.00  0.00     0.000 A 
ENDBRANCH  46  60
BRANCH  47  66
ATOM     66  C   UNL     1      -1.499   1.743 -10.123  1.00  0.00    -0.014 A 
ATOM     67  C   UNL     1      -0.726   0.700 -10.654  1.00  0.00     0.009 A 
ATOM     68  C   UNL     1      -2.884   1.747 -10.356  1.00  0.00     0.009 A 
ATOM     69  C   UNL     1      -1.325  -0.308 -11.415  1.00  0.00     0.001 A 
ATOM     70  C   UNL     1      -3.484   0.722 -11.091  1.00  0.00     0.001 A 
ATOM     71  C   UNL     1      -2.704  -0.300 -11.626  1.00  0.00     0.000 A 
ENDBRANCH  47  66
BRANCH  59  72
ATOM     72  C   UNL     1       2.822   6.987 -11.722  1.00  0.00    -0.014 A 
ATOM     73  C   UNL     1       2.114   7.520 -12.811  1.00  0.00     0.009 A 
ATOM     74  C   UNL     1       4.219   6.874 -11.813  1.00  0.00     0.009 A 
ATOM     75  C   UNL     1       2.788   7.899 -13.975  1.00  0.00     0.001 A 
ATOM     76  C   UNL     1       4.893   7.285 -12.964  1.00  0.00     0.001 A 
ATOM     77  C   UNL     1       4.176   7.787 -14.048  1.00  0.00     0.000 A 
ENDBRANCH  59  72
ENDBRANCH  33  34
ENDBRANCH  26  28
ENDBRANCH  25  26
ENDBRANCH  24  25
ENDBRANCH  23  24
ENDBRANCH  22  23
ENDBRANCH  21  22
ENDBRANCH   1  21
TORSDOF 20
