REMARK SMILES CO[C@@H]1C[C@H](C(=O)OCCOCCOCCOC(=O)c2ccc(-c3c4nc(c(-c5ccccc5)c5ccc([nH]5)c(-c5ccccc5)c5nc(c(-c6ccccc6)c6ccc3[nH]6)C=C5)C=C4)cc2)N(C(=O)c2ncc(Cl)c(Cl)c2Cl)C1
REMARK SMILES IDX 12 1 11 2 10 3 9 4 8 5 6 6 7 7 5 8 3 9 4 10 80 11 68 12 2 13
REMARK SMILES IDX 1 14 69 15 70 16 71 17 72 18 78 19 73 20 76 21 79 22 74 23
REMARK SMILES IDX 77 24 75 25 13 26 14 27 15 28 16 29 17 30 18 31 19 32 20 33
REMARK SMILES IDX 21 34 67 35 22 36 66 37 23 38 24 39 25 40 60 41 26 42 65 43
REMARK SMILES IDX 59 44 61 45 27 46 64 47 58 48 57 49 28 51 50 52 35 53 49 54
REMARK SMILES IDX 36 55 39 56 48 57 62 58 37 59 38 60 47 62 63 63 40 64 29 65
REMARK SMILES IDX 30 66 34 67 31 68 33 69 32 70 51 71 52 72 56 73 53 74 55 75
REMARK SMILES IDX 54 76 41 77 42 78 46 79 43 80 45 81 44 82
REMARK H PARENT 61 50 39 61
REMARK Flexibility Score: inf
ROOT
ATOM      1  C   UNL     1       0.076   1.433   3.363  1.00  0.00     0.188 C 
ENDROOT
BRANCH   1   2
ATOM      2  O   UNL     1      -1.298   1.542   3.701  1.00  0.00    -0.376 OA
BRANCH   2   3
ATOM      3  C   UNL     1      -2.247   1.003   2.783  1.00  0.00     0.202 C 
BRANCH   3   4
ATOM      4  C   UNL     1      -2.279   1.572   1.353  1.00  0.00     0.261 C 
BRANCH   4   5
ATOM      5  O   UNL     1      -0.987   1.772   0.747  1.00  0.00    -0.462 OA
BRANCH   5   6
ATOM      6  C   UNL     1      -0.641   3.074   0.570  1.00  0.00     0.329 C 
ATOM      7  O   UNL     1      -1.350   4.023   0.891  1.00  0.00    -0.250 OA
BRANCH   6   8
ATOM      8  C   UNL     1       0.786   3.278   0.032  1.00  0.00     0.198 C 
ATOM      9  C   UNL     1       1.072   2.010  -2.006  1.00  0.00     0.140 C 
ATOM     10  C   UNL     1       1.561   2.112  -0.554  1.00  0.00     0.071 C 
ATOM     11  C   UNL     1       0.494   3.411  -2.320  1.00  0.00     0.153 C 
ATOM     12  N   UNL     1       0.705   4.184  -1.104  1.00  0.00    -0.321 N 
BRANCH   9  13
ATOM     13  O   UNL     1       0.085   0.989  -2.153  1.00  0.00    -0.380 OA
ATOM     14  C   UNL     1       0.608  -0.318  -1.920  1.00  0.00     0.195 C 
ENDBRANCH   9  13
BRANCH  12  15
ATOM     15  C   UNL     1       0.759   5.569  -1.077  1.00  0.00     0.274 C 
ATOM     16  O   UNL     1       0.584   6.273  -2.066  1.00  0.00    -0.267 OA
BRANCH  15  17
ATOM     17  C   UNL     1       1.128   6.208   0.222  1.00  0.00     0.148 A 
ATOM     18  N   UNL     1       0.086   6.689   0.950  1.00  0.00    -0.248 NA
ATOM     19  C   UNL     1       2.439   6.147   0.692  1.00  0.00     0.092 A 
ATOM     20  C   UNL     1       0.349   7.083   2.215  1.00  0.00     0.134 A 
ATOM     21  C   UNL     1       2.670   6.550   2.016  1.00  0.00     0.082 A 
ATOM     22  Cl  UNL     1       3.717   5.521  -0.301  1.00  0.00    -0.080 Cl
ATOM     23  C   UNL     1       1.606   7.022   2.795  1.00  0.00     0.079 A 
ATOM     24  Cl  UNL     1       4.256   6.406   2.714  1.00  0.00    -0.081 Cl
ATOM     25  Cl  UNL     1       1.778   7.499   4.444  1.00  0.00    -0.081 Cl
ENDBRANCH  15  17
ENDBRANCH  12  15
ENDBRANCH   6   8
ENDBRANCH   5   6
ENDBRANCH   4   5
ENDBRANCH   3   4
ENDBRANCH   2   3
ENDBRANCH   1   2
BRANCH   1  26
ATOM     26  C   UNL     1       0.621   0.058   2.959  1.00  0.00     0.188 C 
BRANCH  26  27
ATOM     27  O   UNL     1      -0.220  -0.719   2.120  1.00  0.00    -0.376 OA
BRANCH  27  28
ATOM     28  C   UNL     1       0.292  -1.981   1.685  1.00  0.00     0.202 C 
BRANCH  28  29
ATOM     29  C   UNL     1       0.799  -2.925   2.789  1.00  0.00     0.261 C 
BRANCH  29  30
ATOM     30  O   UNL     1       1.943  -2.436   3.520  1.00  0.00    -0.460 OA
BRANCH  30  31
ATOM     31  C   UNL     1       3.010  -1.992   2.817  1.00  0.00     0.338 C 
ATOM     32  O   UNL     1       3.236  -2.175   1.633  1.00  0.00    -0.246 OA
BRANCH  31  33
ATOM     33  C   UNL     1       3.743  -1.011   3.661  1.00  0.00     0.060 A 
ATOM     34  C   UNL     1       4.352   0.085   3.032  1.00  0.00     0.016 A 
ATOM     35  C   UNL     1       3.779  -1.125   5.054  1.00  0.00     0.016 A 
ATOM     36  C   UNL     1       5.058   1.024   3.787  1.00  0.00     0.010 A 
ATOM     37  C   UNL     1       4.481  -0.184   5.809  1.00  0.00     0.010 A 
ATOM     38  C   UNL     1       5.169   0.864   5.174  1.00  0.00    -0.014 A 
BRANCH  38  39
ATOM     39  C   UNL     1       6.192   1.628   5.929  1.00  0.00     0.031 A 
ATOM     40  C   UNL     1       7.496   0.939   6.243  1.00  0.00     0.074 A 
ATOM     41  C   UNL     1       5.996   2.901   6.316  1.00  0.00     0.049 A 
ATOM     42  N   UNL     1       8.532   1.379   6.909  1.00  0.00    -0.248 NA
ATOM     43  C   UNL     1       7.645  -0.437   5.738  1.00  0.00     0.031 C 
ATOM     44  C   UNL     1       4.802   3.700   6.048  1.00  0.00     0.029 A 
ATOM     45  N   UNL     1       6.814   3.743   7.029  1.00  0.00    -0.354 N 
ATOM     46  C   UNL     1       9.447   0.334   6.911  1.00  0.00     0.074 A 
ATOM     47  C   UNL     1       8.832  -0.774   6.217  1.00  0.00     0.031 C 
ATOM     48  C   UNL     1       4.965   4.920   6.592  1.00  0.00     0.029 A 
ATOM     49  C   UNL     1       6.260   4.975   7.272  1.00  0.00     0.049 A 
ATOM     50  H   UNL     1       7.713   3.486   7.336  1.00  0.00     0.167 HD
ATOM     51  C   UNL     1      10.696   0.297   7.431  1.00  0.00     0.031 A 
ATOM     52  C   UNL     1       6.738   6.020   7.976  1.00  0.00     0.031 A 
ATOM     53  C   UNL     1      11.313   1.389   8.132  1.00  0.00     0.049 A 
ATOM     54  C   UNL     1       8.102   5.930   8.614  1.00  0.00     0.074 A 
ATOM     55  C   UNL     1      12.580   1.451   8.684  1.00  0.00     0.029 A 
ATOM     56  N   UNL     1      10.703   2.606   8.386  1.00  0.00    -0.354 N 
ATOM     57  N   UNL     1       8.971   4.948   8.580  1.00  0.00    -0.248 NA
ATOM     58  C   UNL     1       8.555   7.103   9.377  1.00  0.00     0.031 C 
ATOM     59  C   UNL     1      12.716   2.688   9.323  1.00  0.00     0.029 A 
ATOM     60  C   UNL     1      11.559   3.419   9.109  1.00  0.00     0.049 A 
ATOM     61  H   UNL     1       9.796   2.856   8.096  1.00  0.00     0.167 HD
ATOM     62  C   UNL     1      10.084   5.400   9.282  1.00  0.00     0.074 A 
ATOM     63  C   UNL     1       9.784   6.746   9.721  1.00  0.00     0.031 C 
ATOM     64  C   UNL     1      11.252   4.760   9.535  1.00  0.00     0.031 A 
BRANCH  51  65
ATOM     65  C   UNL     1      11.463  -0.987   7.285  1.00  0.00    -0.014 A 
ATOM     66  C   UNL     1      11.947  -1.412   6.037  1.00  0.00     0.009 A 
ATOM     67  C   UNL     1      11.721  -1.774   8.418  1.00  0.00     0.009 A 
ATOM     68  C   UNL     1      12.641  -2.618   5.922  1.00  0.00     0.001 A 
ATOM     69  C   UNL     1      12.442  -2.963   8.305  1.00  0.00     0.001 A 
ATOM     70  C   UNL     1      12.893  -3.389   7.056  1.00  0.00     0.000 A 
ENDBRANCH  51  65
BRANCH  52  71
ATOM     71  C   UNL     1       5.920   7.253   8.133  1.00  0.00    -0.014 A 
ATOM     72  C   UNL     1       6.312   8.457   7.527  1.00  0.00     0.009 A 
ATOM     73  C   UNL     1       4.761   7.241   8.926  1.00  0.00     0.009 A 
ATOM     74  C   UNL     1       5.579   9.628   7.737  1.00  0.00     0.001 A 
ATOM     75  C   UNL     1       4.014   8.406   9.109  1.00  0.00     0.001 A 
ATOM     76  C   UNL     1       4.429   9.600   8.524  1.00  0.00     0.000 A 
ENDBRANCH  52  71
BRANCH  64  77
ATOM     77  C   UNL     1      12.319   5.521  10.274  1.00  0.00    -0.014 A 
ATOM     78  C   UNL     1      12.197   5.826  11.638  1.00  0.00     0.009 A 
ATOM     79  C   UNL     1      13.492   5.898   9.598  1.00  0.00     0.009 A 
ATOM     80  C   UNL     1      13.210   6.524  12.300  1.00  0.00     0.001 A 
ATOM     81  C   UNL     1      14.517   6.566  10.269  1.00  0.00     0.001 A 
ATOM     82  C   UNL     1      14.370   6.889  11.617  1.00  0.00     0.000 A 
ENDBRANCH  64  77
ENDBRANCH  38  39
ENDBRANCH  31  33
ENDBRANCH  30  31
ENDBRANCH  29  30
ENDBRANCH  28  29
ENDBRANCH  27  28
ENDBRANCH  26  27
ENDBRANCH   1  26
TORSDOF 20
