REMARK SMILES CC(C)[C@H](NC(=O)c1cc2cc(Cl)ccc2n1C)C(=O)N[C@@H](C(=O)OCCOCCOCCOC(=O)c1ccc(-c2c3nc(c(-c4ccccc4)c4ccc([nH]4)c(-c4ccccc4)c4nc(c(-c5ccccc5)c5ccc2[nH]5)C=C4)C=C3)cc1)c1ccccc1
REMARK SMILES IDX 29 1 28 2 27 3 26 4 25 5 23 6 24 7 22 8 21 9 19 10 20 11
REMARK SMILES IDX 4 13 2 14 1 15 3 16 5 17 6 18 7 20 8 21 9 22 17 23 10 24
REMARK SMILES IDX 16 25 18 26 11 27 15 28 12 29 14 30 13 31 85 32 86 33 90 34
REMARK SMILES IDX 87 35 89 36 88 37 30 38 31 39 32 40 33 41 34 42 35 43 36 44
REMARK SMILES IDX 37 45 38 46 84 47 39 48 83 49 40 50 41 51 42 52 77 53 43 54
REMARK SMILES IDX 82 55 76 56 78 57 44 58 81 59 75 60 74 61 45 63 67 64 52 65
REMARK SMILES IDX 66 66 53 67 56 68 65 69 79 70 54 71 55 72 64 74 80 75 57 76
REMARK SMILES IDX 46 77 47 78 51 79 48 80 50 81 49 82 68 83 69 84 73 85 70 86
REMARK SMILES IDX 72 87 71 88 58 89 59 90 63 91 60 92 62 93 61 94
REMARK H PARENT 21 12 5 19 78 62 56 73
REMARK Flexibility Score: inf
ROOT
ATOM      1  C   UNL     1       0.922   1.693   7.160  1.00  0.00     0.188 C 
ENDROOT
BRANCH   1   2
ATOM      2  O   UNL     1       2.289   1.963   7.463  1.00  0.00    -0.376 OA
BRANCH   2   3
ATOM      3  C   UNL     1       3.472   2.225   6.674  1.00  0.00     0.202 C 
BRANCH   3   4
ATOM      4  C   UNL     1       3.731   2.247   5.102  1.00  0.00     0.261 C 
BRANCH   4   5
ATOM      5  O   UNL     1       2.620   2.642   4.273  1.00  0.00    -0.461 OA
BRANCH   5   6
ATOM      6  C   UNL     1       1.751   1.643   4.456  1.00  0.00     0.333 C 
ATOM      7  O   UNL     1       2.088   0.794   5.271  1.00  0.00    -0.249 OA
BRANCH   6   8
ATOM      8  C   UNL     1       0.604   1.379   3.516  1.00  0.00     0.223 C 
BRANCH   8   9
ATOM      9  N   UNL     1      -0.462   2.264   3.000  1.00  0.00    -0.337 N 
ATOM     10  C   UNL     1      -1.184   1.955   1.856  1.00  0.00     0.243 C 
ATOM     11  O   UNL     1      -2.359   2.334   1.779  1.00  0.00    -0.273 OA
ATOM     12  H   UNL     1      -0.666   3.098   3.483  1.00  0.00     0.164 HD
BRANCH  10  13
ATOM     13  C   UNL     1      -0.505   1.145   0.666  1.00  0.00     0.174 C 
BRANCH  13  14
ATOM     14  C   UNL     1      -1.283  -0.106   0.181  1.00  0.00     0.015 C 
ATOM     15  C   UNL     1      -2.645  -0.173  -0.498  1.00  0.00     0.010 C 
ATOM     16  C   UNL     1      -0.313  -0.960  -0.686  1.00  0.00     0.010 C 
ENDBRANCH  13  14
BRANCH  13  17
ATOM     17  N   UNL     1       1.016   0.870   0.722  1.00  0.00    -0.339 N 
ATOM     18  C   UNL     1       1.892  -0.039   1.365  1.00  0.00     0.268 C 
ATOM     19  H   UNL     1       1.513   1.502   0.154  1.00  0.00     0.164 HD
ATOM     20  O   UNL     1       3.098   0.175   1.278  1.00  0.00    -0.268 OA
BRANCH  18  21
ATOM     21  C   UNL     1       1.358  -0.970   2.368  1.00  0.00     0.107 A 
ATOM     22  C   UNL     1       1.922  -0.997   3.899  1.00  0.00     0.042 A 
ATOM     23  N   UNL     1      -0.243  -1.385   2.256  1.00  0.00    -0.340 N 
ATOM     24  C   UNL     1       0.482  -1.018   5.198  1.00  0.00     0.002 A 
ATOM     25  C   UNL     1      -1.055  -1.293   3.888  1.00  0.00     0.048 A 
ATOM     26  C   UNL     1      -0.672  -2.639   1.603  1.00  0.00     0.150 C 
ATOM     27  C   UNL     1       0.686  -1.192   6.561  1.00  0.00     0.030 A 
ATOM     28  C   UNL     1      -2.199  -1.331   3.924  1.00  0.00     0.028 A 
ATOM     29  C   UNL     1      -0.442  -1.743   6.781  1.00  0.00     0.041 A 
ATOM     30  C   UNL     1      -1.458  -1.217   5.712  1.00  0.00     0.023 A 
ATOM     31  Cl  UNL     1      -0.032  -3.413   7.356  1.00  0.00    -0.084 Cl
ENDBRANCH  18  21
ENDBRANCH  13  17
ENDBRANCH  10  13
ENDBRANCH   8   9
BRANCH   8  32
ATOM     32  C   UNL     1      -0.035  -0.021   3.827  1.00  0.00    -0.014 A 
ATOM     33  C   UNL     1       0.294  -2.192   3.953  1.00  0.00     0.006 A 
ATOM     34  C   UNL     1      -1.778   0.602   4.508  1.00  0.00     0.006 A 
ATOM     35  C   UNL     1      -1.249  -3.068   4.784  1.00  0.00     0.000 A 
ATOM     36  C   UNL     1      -3.289  -0.375   5.156  1.00  0.00     0.000 A 
ATOM     37  C   UNL     1      -3.007  -2.262   5.293  1.00  0.00     0.000 A 
ENDBRANCH   8  32
ENDBRANCH   6   8
ENDBRANCH   5   6
ENDBRANCH   4   5
ENDBRANCH   3   4
ENDBRANCH   2   3
ENDBRANCH   1   2
BRANCH   1  38
ATOM     38  C   UNL     1      -0.108   2.587   6.391  1.00  0.00     0.188 C 
BRANCH  38  39
ATOM     39  O   UNL     1       0.394   3.668   5.680  1.00  0.00    -0.376 OA
BRANCH  39  40
ATOM     40  C   UNL     1       1.105   4.409   6.646  1.00  0.00     0.202 C 
BRANCH  40  41
ATOM     41  C   UNL     1       0.602   4.299   8.221  1.00  0.00     0.261 C 
BRANCH  41  42
ATOM     42  O   UNL     1      -0.098   2.952   8.935  1.00  0.00    -0.460 OA
BRANCH  42  43
ATOM     43  C   UNL     1      -1.443   2.440   8.945  1.00  0.00     0.338 C 
ATOM     44  O   UNL     1      -2.346   3.236   8.676  1.00  0.00    -0.246 OA
BRANCH  43  45
ATOM     45  C   UNL     1      -1.889   0.765   8.917  1.00  0.00     0.060 A 
ATOM     46  C   UNL     1      -1.509  -0.444   9.534  1.00  0.00     0.016 A 
ATOM     47  C   UNL     1      -2.956   0.394   8.069  1.00  0.00     0.016 A 
ATOM     48  C   UNL     1      -1.982  -1.927   9.046  1.00  0.00     0.010 A 
ATOM     49  C   UNL     1      -3.597  -1.056   7.813  1.00  0.00     0.010 A 
ATOM     50  C   UNL     1      -2.870  -2.287   7.891  1.00  0.00    -0.014 A 
BRANCH  50  51
ATOM     51  C   UNL     1      -3.027  -3.889   6.841  1.00  0.00     0.031 A 
ATOM     52  C   UNL     1      -3.590  -4.463   8.050  1.00  0.00     0.074 A 
ATOM     53  C   UNL     1      -3.275  -4.621   5.326  1.00  0.00     0.049 A 
ATOM     54  N   UNL     1      -2.890  -4.905   9.053  1.00  0.00    -0.248 NA
ATOM     55  C   UNL     1      -4.929  -3.999   8.546  1.00  0.00     0.031 C 
ATOM     56  C   UNL     1      -3.481  -3.913   3.789  1.00  0.00     0.029 A 
ATOM     57  N   UNL     1      -2.743  -5.775   4.421  1.00  0.00    -0.354 N 
ATOM     58  C   UNL     1      -3.887  -5.631   9.627  1.00  0.00     0.074 A 
ATOM     59  C   UNL     1      -4.991  -4.700   9.685  1.00  0.00     0.031 C 
ATOM     60  C   UNL     1      -3.516  -4.495   2.598  1.00  0.00     0.029 A 
ATOM     61  C   UNL     1      -3.064  -5.780   2.832  1.00  0.00     0.049 A 
ATOM     62  H   UNL     1      -2.211  -6.503   4.816  1.00  0.00     0.167 HD
ATOM     63  C   UNL     1      -3.937  -6.878   9.070  1.00  0.00     0.031 A 
ATOM     64  C   UNL     1      -3.233  -6.630   1.717  1.00  0.00     0.031 A 
ATOM     65  C   UNL     1      -2.672  -7.282   8.422  1.00  0.00     0.049 A 
ATOM     66  C   UNL     1      -3.183  -7.942   2.387  1.00  0.00     0.074 A 
ATOM     67  C   UNL     1      -1.332  -7.056   8.704  1.00  0.00     0.029 A 
ATOM     68  N   UNL     1      -2.712  -7.544   7.075  1.00  0.00    -0.354 N 
ATOM     69  N   UNL     1      -2.065  -8.429   2.856  1.00  0.00    -0.248 NA
ATOM     70  C   UNL     1      -4.396  -8.068   3.214  1.00  0.00     0.031 C 
ATOM     71  C   UNL     1      -0.612  -7.134   7.484  1.00  0.00     0.029 A 
ATOM     72  C   UNL     1      -1.466  -7.597   6.490  1.00  0.00     0.049 A 
ATOM     73  H   UNL     1      -3.549  -7.681   6.576  1.00  0.00     0.167 HD
ATOM     74  C   UNL     1      -2.249  -8.347   4.231  1.00  0.00     0.074 A 
ATOM     75  C   UNL     1      -3.758  -8.215   4.391  1.00  0.00     0.031 C 
ATOM     76  C   UNL     1      -1.226  -7.932   5.078  1.00  0.00     0.031 A 
BRANCH  63  77
ATOM     77  C   UNL     1      -5.262  -7.465   8.735  1.00  0.00    -0.014 A 
ATOM     78  C   UNL     1      -6.418  -6.808   8.242  1.00  0.00     0.009 A 
ATOM     79  C   UNL     1      -5.319  -8.826   8.968  1.00  0.00     0.009 A 
ATOM     80  C   UNL     1      -7.643  -7.464   8.198  1.00  0.00     0.001 A 
ATOM     81  C   UNL     1      -6.527  -9.492   8.879  1.00  0.00     0.001 A 
ATOM     82  C   UNL     1      -7.694  -8.805   8.545  1.00  0.00     0.000 A 
ENDBRANCH  63  77
BRANCH  64  83
ATOM     83  C   UNL     1      -4.122  -6.347   0.384  1.00  0.00    -0.014 A 
ATOM     84  C   UNL     1      -4.855  -5.137   0.234  1.00  0.00     0.009 A 
ATOM     85  C   UNL     1      -4.444  -7.272  -0.642  1.00  0.00     0.009 A 
ATOM     86  C   UNL     1      -5.965  -4.938  -0.602  1.00  0.00     0.001 A 
ATOM     87  C   UNL     1      -5.551  -7.063  -1.541  1.00  0.00     0.001 A 
ATOM     88  C   UNL     1      -6.360  -5.933  -1.457  1.00  0.00     0.000 A 
ENDBRANCH  64  83
BRANCH  76  89
ATOM     89  C   UNL     1       0.258  -7.633   4.588  1.00  0.00    -0.014 A 
ATOM     90  C   UNL     1       1.242  -8.448   5.170  1.00  0.00     0.009 A 
ATOM     91  C   UNL     1       0.768  -6.487   3.899  1.00  0.00     0.009 A 
ATOM     92  C   UNL     1       2.622  -8.180   5.077  1.00  0.00     0.001 A 
ATOM     93  C   UNL     1       2.169  -6.231   3.778  1.00  0.00     0.001 A 
ATOM     94  C   UNL     1       3.095  -7.085   4.366  1.00  0.00     0.000 A 
ENDBRANCH  76  89
ENDBRANCH  50  51
ENDBRANCH  43  45
ENDBRANCH  42  43
ENDBRANCH  41  42
ENDBRANCH  40  41
ENDBRANCH  39  40
ENDBRANCH  38  39
ENDBRANCH   1  38
TORSDOF 23
