REMARK SMILES CCCCCCCNC(=O)Oc1cccc(-c2ccc([C@@H](C)C(=O)OCCOCCOCCOC(=O)c3ccc(-c4c5nc(c(-c6ccccc6)c6ccc([nH]6)c(-c6ccccc6)c6nc(c(-c7ccccc7)c7ccc4[nH]7)C=C6)C=C5)cc3)cc2F)c1
REMARK SMILES IDX 26 1 25 2 23 3 24 4 21 5 22 6 20 7 17 8 18 9 86 10 19 11
REMARK SMILES IDX 85 12 87 13 16 14 12 15 13 16 88 17 14 18 15 19 11 20 9 21
REMARK SMILES IDX 8 22 10 24 7 25 6 26 5 27 4 28 3 29 2 30 1 31 27 32 28 33
REMARK SMILES IDX 29 34 30 35 31 36 32 37 33 38 34 39 35 40 36 41 37 42 38 43
REMARK SMILES IDX 84 44 39 45 83 46 40 47 41 48 42 49 77 50 43 51 82 52 76 53
REMARK SMILES IDX 78 54 44 55 81 56 75 57 74 58 45 60 67 61 52 62 66 63 53 64
REMARK SMILES IDX 56 65 65 66 79 67 54 68 55 69 64 71 80 72 57 73 46 74 47 75
REMARK SMILES IDX 51 76 48 77 50 78 49 79 68 80 69 81 73 82 70 83 72 84 71 85
REMARK SMILES IDX 58 86 59 87 63 88 60 89 62 90 61 91
REMARK H PARENT 8 23 78 59 56 70
REMARK Flexibility Score: inf
ROOT
ATOM      1  C   UNL     1     -10.157  -0.733  12.592  1.00  0.00     0.261 C 
ENDROOT
BRANCH   1   2
ATOM      2  O   UNL     1     -10.043  -1.841  11.668  1.00  0.00    -0.463 OA
BRANCH   2   3
ATOM      3  C   UNL     1     -11.173  -2.199  11.008  1.00  0.00     0.313 C 
ATOM      4  O   UNL     1     -12.263  -1.662  11.201  1.00  0.00    -0.252 OA
BRANCH   3   5
ATOM      5  C   UNL     1     -11.033  -3.315   9.967  1.00  0.00     0.126 C 
ATOM      6  C   UNL     1     -11.959  -4.466  10.354  1.00  0.00     0.025 C 
BRANCH   5   7
ATOM      7  C   UNL     1      -9.666  -3.853   9.547  1.00  0.00    -0.031 A 
ATOM      8  C   UNL     1      -7.132  -4.851   8.630  1.00  0.00     0.018 A 
ATOM      9  C   UNL     1      -7.474  -4.838   9.995  1.00  0.00     0.012 A 
ATOM     10  C   UNL     1      -8.089  -4.353   7.739  1.00  0.00     0.131 A 
ATOM     11  C   UNL     1      -8.720  -4.358  10.448  1.00  0.00     0.005 A 
ATOM     12  C   UNL     1      -9.330  -3.875   8.179  1.00  0.00     0.044 A 
ATOM     13  F   UNL     1      -7.847  -4.340   6.418  1.00  0.00    -0.206 F 
BRANCH   8  14
ATOM     14  C   UNL     1      -5.849  -5.417   8.163  1.00  0.00    -0.012 A 
ATOM     15  C   UNL     1      -3.780  -5.291   6.887  1.00  0.00     0.133 A 
ATOM     16  C   UNL     1      -3.447  -6.598   7.236  1.00  0.00     0.047 A 
ATOM     17  C   UNL     1      -4.967  -4.697   7.335  1.00  0.00     0.056 A 
ATOM     18  C   UNL     1      -4.304  -7.320   8.057  1.00  0.00     0.004 A 
ATOM     19  C   UNL     1      -5.492  -6.736   8.512  1.00  0.00     0.009 A 
BRANCH  15  20
ATOM     20  O   UNL     1      -2.945  -4.662   5.946  1.00  0.00    -0.410 OA
BRANCH  20  21
ATOM     21  C   UNL     1      -2.372  -3.446   6.276  1.00  0.00     0.412 C 
ATOM     22  N   UNL     1      -1.587  -2.932   5.279  1.00  0.00    -0.321 N 
ATOM     23  H   UNL     1      -1.216  -2.033   5.431  1.00  0.00     0.167 HD
ATOM     24  O   UNL     1      -2.497  -2.856   7.347  1.00  0.00    -0.224 OA
BRANCH  22  25
ATOM     25  C   UNL     1      -1.244  -3.571   4.022  1.00  0.00     0.119 C 
BRANCH  25  26
ATOM     26  C   UNL     1      -1.709  -2.768   2.807  1.00  0.00     0.021 C 
BRANCH  26  27
ATOM     27  C   UNL     1      -1.093  -1.369   2.679  1.00  0.00     0.002 C 
BRANCH  27  28
ATOM     28  C   UNL     1       0.435  -1.329   2.569  1.00  0.00     0.000 C 
BRANCH  28  29
ATOM     29  C   UNL     1       1.024  -2.031   1.340  1.00  0.00    -0.000 C 
BRANCH  29  30
ATOM     30  C   UNL     1       0.576  -1.471  -0.013  1.00  0.00    -0.003 C 
ATOM     31  C   UNL     1       0.963  -0.015  -0.224  1.00  0.00     0.004 C 
ENDBRANCH  29  30
ENDBRANCH  28  29
ENDBRANCH  27  28
ENDBRANCH  26  27
ENDBRANCH  25  26
ENDBRANCH  22  25
ENDBRANCH  20  21
ENDBRANCH  15  20
ENDBRANCH   8  14
ENDBRANCH   5   7
ENDBRANCH   3   5
ENDBRANCH   2   3
ENDBRANCH   1   2
BRANCH   1  32
ATOM     32  C   UNL     1      -9.264   0.482  12.291  1.00  0.00     0.202 C 
BRANCH  32  33
ATOM     33  O   UNL     1      -9.380   1.104  11.017  1.00  0.00    -0.376 OA
BRANCH  33  34
ATOM     34  C   UNL     1      -9.177   0.329   9.840  1.00  0.00     0.188 C 
BRANCH  34  35
ATOM     35  C   UNL     1      -8.119  -0.784   9.843  1.00  0.00     0.188 C 
BRANCH  35  36
ATOM     36  O   UNL     1      -7.256  -0.758  10.957  1.00  0.00    -0.376 OA
BRANCH  36  37
ATOM     37  C   UNL     1      -5.869  -0.704  10.692  1.00  0.00     0.202 C 
BRANCH  37  38
ATOM     38  C   UNL     1      -5.376   0.584  10.019  1.00  0.00     0.261 C 
BRANCH  38  39
ATOM     39  O   UNL     1      -6.123   1.027   8.869  1.00  0.00    -0.460 OA
BRANCH  39  40
ATOM     40  C   UNL     1      -5.958   0.344   7.715  1.00  0.00     0.338 C 
ATOM     41  O   UNL     1      -5.233  -0.624   7.525  1.00  0.00    -0.246 OA
BRANCH  40  42
ATOM     42  C   UNL     1      -6.977   0.819   6.756  1.00  0.00     0.060 A 
ATOM     43  C   UNL     1      -7.937  -0.080   6.268  1.00  0.00     0.016 A 
ATOM     44  C   UNL     1      -6.998   2.156   6.357  1.00  0.00     0.016 A 
ATOM     45  C   UNL     1      -8.922   0.358   5.378  1.00  0.00     0.010 A 
ATOM     46  C   UNL     1      -7.966   2.586   5.447  1.00  0.00     0.010 A 
ATOM     47  C   UNL     1      -8.924   1.689   4.939  1.00  0.00    -0.014 A 
BRANCH  47  48
ATOM     48  C   UNL     1      -9.824   2.133   3.846  1.00  0.00     0.031 A 
ATOM     49  C   UNL     1      -9.269   2.237   2.453  1.00  0.00     0.074 A 
ATOM     50  C   UNL     1     -11.102   2.479   4.086  1.00  0.00     0.049 A 
ATOM     51  N   UNL     1      -9.817   2.735   1.375  1.00  0.00    -0.248 NA
ATOM     52  C   UNL     1      -7.907   1.715   2.254  1.00  0.00     0.031 C 
ATOM     53  C   UNL     1     -11.782   2.375   5.375  1.00  0.00     0.029 A 
ATOM     54  N   UNL     1     -12.049   3.013   3.246  1.00  0.00    -0.354 N 
ATOM     55  C   UNL     1      -8.863   2.603   0.374  1.00  0.00     0.074 A 
ATOM     56  C   UNL     1      -7.695   1.997   0.977  1.00  0.00     0.031 C 
ATOM     57  C   UNL     1     -13.033   2.850   5.245  1.00  0.00     0.029 A 
ATOM     58  C   UNL     1     -13.225   3.336   3.880  1.00  0.00     0.049 A 
ATOM     59  H   UNL     1     -11.900   3.150   2.283  1.00  0.00     0.167 HD
ATOM     60  C   UNL     1      -8.950   2.956  -0.931  1.00  0.00     0.031 A 
ATOM     61  C   UNL     1     -14.314   3.985   3.421  1.00  0.00     0.031 A 
ATOM     62  C   UNL     1     -10.102   3.576  -1.527  1.00  0.00     0.049 A 
ATOM     63  C   UNL     1     -14.345   4.466   1.992  1.00  0.00     0.074 A 
ATOM     64  C   UNL     1     -10.291   3.955  -2.845  1.00  0.00     0.029 A 
ATOM     65  N   UNL     1     -11.256   3.922  -0.842  1.00  0.00    -0.354 N 
ATOM     66  N   UNL     1     -13.450   4.314   1.046  1.00  0.00    -0.248 NA
ATOM     67  C   UNL     1     -15.540   5.214   1.569  1.00  0.00     0.031 C 
ATOM     68  C   UNL     1     -11.531   4.592  -2.943  1.00  0.00     0.029 A 
ATOM     69  C   UNL     1     -12.145   4.546  -1.701  1.00  0.00     0.049 A 
ATOM     70  H   UNL     1     -11.420   3.749   0.113  1.00  0.00     0.167 HD
ATOM     71  C   UNL     1     -13.983   4.921  -0.086  1.00  0.00     0.074 A 
ATOM     72  C   UNL     1     -15.287   5.429   0.285  1.00  0.00     0.031 C 
ATOM     73  C   UNL     1     -13.441   5.047  -1.322  1.00  0.00     0.031 A 
BRANCH  60  74
ATOM     74  C   UNL     1      -7.742   2.720  -1.795  1.00  0.00    -0.014 A 
ATOM     75  C   UNL     1      -7.346   1.424  -2.161  1.00  0.00     0.009 A 
ATOM     76  C   UNL     1      -7.013   3.816  -2.281  1.00  0.00     0.009 A 
ATOM     77  C   UNL     1      -6.224   1.231  -2.970  1.00  0.00     0.001 A 
ATOM     78  C   UNL     1      -5.911   3.621  -3.115  1.00  0.00     0.001 A 
ATOM     79  C   UNL     1      -5.512   2.329  -3.451  1.00  0.00     0.000 A 
ENDBRANCH  60  74
BRANCH  61  80
ATOM     80  C   UNL     1     -15.459   4.264   4.330  1.00  0.00    -0.014 A 
ATOM     81  C   UNL     1     -16.704   3.652   4.122  1.00  0.00     0.009 A 
ATOM     82  C   UNL     1     -15.322   5.174   5.391  1.00  0.00     0.009 A 
ATOM     83  C   UNL     1     -17.793   3.963   4.940  1.00  0.00     0.001 A 
ATOM     84  C   UNL     1     -16.403   5.458   6.228  1.00  0.00     0.001 A 
ATOM     85  C   UNL     1     -17.641   4.862   5.995  1.00  0.00     0.000 A 
ENDBRANCH  61  80
BRANCH  73  86
ATOM     86  C   UNL     1     -14.264   5.732  -2.379  1.00  0.00    -0.014 A 
ATOM     87  C   UNL     1     -14.482   7.118  -2.352  1.00  0.00     0.009 A 
ATOM     88  C   UNL     1     -14.774   4.986  -3.454  1.00  0.00     0.009 A 
ATOM     89  C   UNL     1     -15.217   7.737  -3.366  1.00  0.00     0.001 A 
ATOM     90  C   UNL     1     -15.481   5.612  -4.482  1.00  0.00     0.001 A 
ATOM     91  C   UNL     1     -15.708   6.986  -4.433  1.00  0.00     0.000 A 
ENDBRANCH  73  86
ENDBRANCH  47  48
ENDBRANCH  40  42
ENDBRANCH  39  40
ENDBRANCH  38  39
ENDBRANCH  37  38
ENDBRANCH  36  37
ENDBRANCH  35  36
ENDBRANCH  34  35
ENDBRANCH  33  34
ENDBRANCH  32  33
ENDBRANCH   1  32
TORSDOF 27
