REMARK SMILES O=C(/C=C/c1c(Cl)cccc1Cl)NCC(=O)OCCOCCOCCOC(=O)c1ccc(-c2c3nc(c(-c4ccccc4)c4ccc([nH]4)c(-c4ccccc4)c4nc(c(-c5ccccc5)c5ccc2[nH]5)C=C4)C=C3)cc1
REMARK SMILES IDX 21 1 20 2 19 3 18 4 17 5 15 6 16 7 14 8 13 9 1 10 2 11 3 13
REMARK SMILES IDX 4 14 5 15 6 16 11 17 7 18 8 19 10 20 12 21 9 22 22 23 23 24
REMARK SMILES IDX 24 25 25 26 26 27 27 28 28 29 29 30 30 31 76 32 31 33 75 34
REMARK SMILES IDX 32 35 33 36 34 37 69 38 35 39 74 40 68 41 70 42 36 43 73 44
REMARK SMILES IDX 67 45 66 46 37 48 59 49 44 50 58 51 45 52 48 53 57 54 71 55
REMARK SMILES IDX 46 56 47 57 56 59 72 60 49 61 38 62 39 63 43 64 40 65 42 66
REMARK SMILES IDX 41 67 60 68 61 69 65 70 62 71 64 72 63 73 50 74 51 75 55 76
REMARK SMILES IDX 52 77 54 78 53 79
REMARK H PARENT 13 12 70 47 48 58
REMARK Flexibility Score: inf
ROOT
ATOM      1  C   UNL     1       4.536   3.988  -2.372  1.00  0.00     0.188 C 
ENDROOT
BRANCH   1   2
ATOM      2  O   UNL     1       4.382   5.372  -2.103  1.00  0.00    -0.376 OA
BRANCH   2   3
ATOM      3  C   UNL     1       3.483   5.761  -1.064  1.00  0.00     0.202 C 
BRANCH   3   4
ATOM      4  C   UNL     1       2.089   5.108  -0.988  1.00  0.00     0.261 C 
BRANCH   4   5
ATOM      5  O   UNL     1       2.107   3.667  -0.859  1.00  0.00    -0.462 OA
BRANCH   5   6
ATOM      6  C   UNL     1       1.242   2.979  -1.652  1.00  0.00     0.325 C 
ATOM      7  O   UNL     1       0.430   3.514  -2.403  1.00  0.00    -0.250 OA
BRANCH   6   8
ATOM      8  C   UNL     1       1.481   1.458  -1.693  1.00  0.00     0.239 C 
BRANCH   8   9
ATOM      9  N   UNL     1       2.341   0.759  -0.743  1.00  0.00    -0.342 N 
ATOM     10  O   UNL     1       0.738   0.546   0.862  1.00  0.00    -0.270 OA
ATOM     11  C   UNL     1       1.877   0.329   0.466  1.00  0.00     0.244 C 
ATOM     12  H   UNL     1       3.282   0.593  -0.980  1.00  0.00     0.164 HD
BRANCH  11  13
ATOM     13  C   UNL     1       2.796  -0.515   1.286  1.00  0.00     0.072 C 
ATOM     14  C   UNL     1       4.124  -0.686   1.156  1.00  0.00     0.017 C 
BRANCH  14  15
ATOM     15  C   UNL     1       4.902  -1.522   2.109  1.00  0.00     0.012 A 
ATOM     16  C   UNL     1       4.645  -2.895   2.307  1.00  0.00     0.049 A 
ATOM     17  C   UNL     1       5.947  -0.953   2.867  1.00  0.00     0.049 A 
ATOM     18  Cl  UNL     1       3.480  -3.765   1.363  1.00  0.00    -0.084 Cl
ATOM     19  C   UNL     1       5.350  -3.638   3.267  1.00  0.00     0.021 A 
ATOM     20  C   UNL     1       6.657  -1.701   3.817  1.00  0.00     0.021 A 
ATOM     21  Cl  UNL     1       6.417   0.701   2.689  1.00  0.00    -0.084 Cl
ATOM     22  C   UNL     1       6.348  -3.039   4.030  1.00  0.00     0.003 A 
ENDBRANCH  14  15
ENDBRANCH  11  13
ENDBRANCH   8   9
ENDBRANCH   6   8
ENDBRANCH   5   6
ENDBRANCH   4   5
ENDBRANCH   3   4
ENDBRANCH   2   3
ENDBRANCH   1   2
BRANCH   1  23
ATOM     23  C   UNL     1       4.854   3.038  -1.209  1.00  0.00     0.188 C 
BRANCH  23  24
ATOM     24  O   UNL     1       4.767   3.561   0.087  1.00  0.00    -0.376 OA
BRANCH  24  25
ATOM     25  C   UNL     1       5.921   3.964   0.799  1.00  0.00     0.202 C 
BRANCH  25  26
ATOM     26  C   UNL     1       7.320   4.204   0.196  1.00  0.00     0.261 C 
BRANCH  26  27
ATOM     27  O   UNL     1       7.573   3.781  -1.147  1.00  0.00    -0.460 OA
BRANCH  27  28
ATOM     28  C   UNL     1       8.044   2.522  -1.312  1.00  0.00     0.338 C 
ATOM     29  O   UNL     1       8.252   1.685  -0.447  1.00  0.00    -0.246 OA
BRANCH  28  30
ATOM     30  C   UNL     1       8.023   2.232  -2.760  1.00  0.00     0.060 A 
ATOM     31  C   UNL     1       7.142   1.254  -3.247  1.00  0.00     0.016 A 
ATOM     32  C   UNL     1       8.841   2.947  -3.634  1.00  0.00     0.016 A 
ATOM     33  C   UNL     1       7.067   0.996  -4.615  1.00  0.00     0.010 A 
ATOM     34  C   UNL     1       8.791   2.663  -5.000  1.00  0.00     0.010 A 
ATOM     35  C   UNL     1       7.915   1.679  -5.495  1.00  0.00    -0.014 A 
BRANCH  35  36
ATOM     36  C   UNL     1       8.017   1.265  -6.914  1.00  0.00     0.031 A 
ATOM     37  C   UNL     1       9.149   0.362  -7.314  1.00  0.00     0.074 A 
ATOM     38  C   UNL     1       7.142   1.701  -7.836  1.00  0.00     0.049 A 
ATOM     39  N   UNL     1       9.523  -0.022  -8.506  1.00  0.00    -0.248 NA
ATOM     40  C   UNL     1       9.971  -0.175  -6.217  1.00  0.00     0.031 C 
ATOM     41  C   UNL     1       5.965   2.525  -7.570  1.00  0.00     0.029 A 
ATOM     42  N   UNL     1       7.127   1.518  -9.197  1.00  0.00    -0.354 N 
ATOM     43  C   UNL     1      10.634  -0.831  -8.307  1.00  0.00     0.074 A 
ATOM     44  C   UNL     1      10.885  -0.866  -6.882  1.00  0.00     0.031 C 
ATOM     45  C   UNL     1       5.352   2.794  -8.736  1.00  0.00     0.029 A 
ATOM     46  C   UNL     1       6.120   2.203  -9.831  1.00  0.00     0.049 A 
ATOM     47  H   UNL     1       7.777   0.951  -9.673  1.00  0.00     0.167 HD
ATOM     48  C   UNL     1      11.380  -1.484  -9.228  1.00  0.00     0.031 A 
ATOM     49  C   UNL     1       5.871   2.366 -11.146  1.00  0.00     0.031 A 
ATOM     50  C   UNL     1      11.146  -1.427 -10.645  1.00  0.00     0.049 A 
ATOM     51  C   UNL     1       6.786   1.724 -12.158  1.00  0.00     0.074 A 
ATOM     52  C   UNL     1      11.845  -2.058 -11.659  1.00  0.00     0.029 A 
ATOM     53  N   UNL     1      10.144  -0.686 -11.250  1.00  0.00    -0.354 N 
ATOM     54  N   UNL     1       7.826   0.949 -11.962  1.00  0.00    -0.248 NA
ATOM     55  C   UNL     1       6.490   1.982 -13.576  1.00  0.00     0.031 C 
ATOM     56  C   UNL     1      11.307  -1.645 -12.882  1.00  0.00     0.029 A 
ATOM     57  C   UNL     1      10.227  -0.815 -12.626  1.00  0.00     0.049 A 
ATOM     58  H   UNL     1       9.472  -0.147 -10.773  1.00  0.00     0.167 HD
ATOM     59  C   UNL     1       8.286   0.602 -13.228  1.00  0.00     0.074 A 
ATOM     60  C   UNL     1       7.405   1.240 -14.184  1.00  0.00     0.031 C 
ATOM     61  C   UNL     1       9.342  -0.178 -13.568  1.00  0.00     0.031 A 
BRANCH  48  62
ATOM     62  C   UNL     1      12.555  -2.278  -8.726  1.00  0.00    -0.014 A 
ATOM     63  C   UNL     1      12.380  -3.462  -7.993  1.00  0.00     0.009 A 
ATOM     64  C   UNL     1      13.858  -1.844  -9.015  1.00  0.00     0.009 A 
ATOM     65  C   UNL     1      13.487  -4.175  -7.528  1.00  0.00     0.001 A 
ATOM     66  C   UNL     1      14.963  -2.576  -8.577  1.00  0.00     0.001 A 
ATOM     67  C   UNL     1      14.776  -3.734  -7.824  1.00  0.00     0.000 A 
ENDBRANCH  48  62
BRANCH  49  68
ATOM     68  C   UNL     1       4.726   3.203 -11.594  1.00  0.00    -0.014 A 
ATOM     69  C   UNL     1       3.633   2.622 -12.255  1.00  0.00     0.009 A 
ATOM     70  C   UNL     1       4.733   4.592 -11.391  1.00  0.00     0.009 A 
ATOM     71  C   UNL     1       2.586   3.418 -12.727  1.00  0.00     0.001 A 
ATOM     72  C   UNL     1       3.670   5.381 -11.835  1.00  0.00     0.001 A 
ATOM     73  C   UNL     1       2.602   4.795 -12.511  1.00  0.00     0.000 A 
ENDBRANCH  49  68
BRANCH  61  74
ATOM     74  C   UNL     1       9.584  -0.426 -15.032  1.00  0.00    -0.014 A 
ATOM     75  C   UNL     1      10.071   0.582 -15.878  1.00  0.00     0.009 A 
ATOM     76  C   UNL     1       9.375  -1.712 -15.559  1.00  0.00     0.009 A 
ATOM     77  C   UNL     1      10.318   0.314 -17.227  1.00  0.00     0.001 A 
ATOM     78  C   UNL     1       9.653  -1.984 -16.899  1.00  0.00     0.001 A 
ATOM     79  C   UNL     1      10.116  -0.969 -17.734  1.00  0.00     0.000 A 
ENDBRANCH  61  74
ENDBRANCH  35  36
ENDBRANCH  28  30
ENDBRANCH  27  28
ENDBRANCH  26  27
ENDBRANCH  25  26
ENDBRANCH  24  25
ENDBRANCH  23  24
ENDBRANCH   1  23
TORSDOF 20
