REMARK SMILES COc1ccc([C@H]2CC(c3ccc(S(C)(=O)=O)cc3)=NN2c2ccc(C(=O)OCCOCCOCCOC(=O)c3ccc(-c4c5nc(c(-c6ccccc6)c6ccc([nH]6)c(-c6ccccc6)c6nc(c(-c7ccccc7)c7ccc4[nH]7)C=C6)C=C5)cc3)cc2)cc1
REMARK SMILES IDX 32 1 31 2 30 3 29 4 28 5 26 6 27 7 25 8 22 9 23 10 89 11
REMARK SMILES IDX 24 12 88 13 21 14 7 15 8 16 9 17 20 18 6 19 3 20 4 21 91 22
REMARK SMILES IDX 5 23 90 24 2 25 1 26 10 27 11 28 19 29 12 30 18 31 13 32
REMARK SMILES IDX 14 33 15 34 16 35 17 36 33 37 34 38 35 39 36 40 37 41 38 42
REMARK SMILES IDX 39 43 40 44 41 45 87 46 42 47 86 48 43 49 44 50 45 51 80 52
REMARK SMILES IDX 46 53 85 54 79 55 81 56 47 57 84 58 78 59 77 60 48 62 70 63
REMARK SMILES IDX 55 64 69 65 56 66 59 67 68 68 82 69 57 70 58 71 67 73 83 74
REMARK SMILES IDX 60 75 49 76 50 77 54 78 51 79 53 80 52 81 71 82 72 83 76 84
REMARK SMILES IDX 73 85 75 86 74 87 61 88 62 89 66 90 63 91 65 92 64 93
REMARK H PARENT 81 61 59 72
REMARK Flexibility Score: inf
ROOT
ATOM      1  C   UNL     1       4.754   5.321   9.149  1.00  0.00     0.188 C 
ENDROOT
BRANCH   1   2
ATOM      2  O   UNL     1       4.386   6.681   9.253  1.00  0.00    -0.376 OA
BRANCH   2   3
ATOM      3  C   UNL     1       3.022   7.058   9.324  1.00  0.00     0.202 C 
BRANCH   3   4
ATOM      4  C   UNL     1       1.897   6.338   8.560  1.00  0.00     0.261 C 
BRANCH   4   5
ATOM      5  O   UNL     1       1.994   4.912   8.471  1.00  0.00    -0.460 OA
BRANCH   5   6
ATOM      6  C   UNL     1       2.276   4.432   7.234  1.00  0.00     0.338 C 
ATOM      7  O   UNL     1       2.433   5.085   6.215  1.00  0.00    -0.246 OA
BRANCH   6   8
ATOM      8  C   UNL     1       2.560   2.982   7.302  1.00  0.00     0.060 A 
ATOM      9  C   UNL     1       3.088   0.222   7.208  1.00  0.00     0.060 A 
ATOM     10  C   UNL     1       3.972   1.134   6.620  1.00  0.00     0.029 A 
ATOM     11  C   UNL     1       1.988   0.726   7.924  1.00  0.00     0.029 A 
ATOM     12  C   UNL     1       3.694   2.502   6.636  1.00  0.00     0.018 A 
ATOM     13  C   UNL     1       1.730   2.099   7.992  1.00  0.00     0.018 A 
BRANCH   9  14
ATOM     14  N   UNL     1       3.233  -1.146   6.997  1.00  0.00    -0.257 N 
ATOM     15  C   UNL     1       2.193  -1.938   6.334  1.00  0.00     0.144 C 
ATOM     16  C   UNL     1       2.851  -3.312   6.199  1.00  0.00     0.091 C 
ATOM     17  C   UNL     1       4.218  -3.011   6.750  1.00  0.00     0.071 C 
ATOM     18  N   UNL     1       4.418  -1.796   7.162  1.00  0.00    -0.176 NA
BRANCH  15  19
ATOM     19  C   UNL     1       1.767  -1.352   4.993  1.00  0.00    -0.023 A 
ATOM     20  C   UNL     1       0.919  -0.268   2.524  1.00  0.00     0.118 A 
ATOM     21  C   UNL     1       0.036  -0.358   3.600  1.00  0.00     0.047 A 
ATOM     22  C   UNL     1       2.238  -0.686   2.689  1.00  0.00     0.047 A 
ATOM     23  C   UNL     1       0.451  -0.900   4.820  1.00  0.00     0.010 A 
ATOM     24  C   UNL     1       2.660  -1.215   3.916  1.00  0.00     0.010 A 
BRANCH  20  25
ATOM     25  O   UNL     1       0.393   0.285   1.389  1.00  0.00    -0.497 OA
ATOM     26  C   UNL     1       1.025  -0.072   0.166  1.00  0.00     0.278 C 
ENDBRANCH  20  25
ENDBRANCH  15  19
BRANCH  17  27
ATOM     27  C   UNL     1       5.210  -4.089   6.854  1.00  0.00    -0.002 A 
ATOM     28  C   UNL     1       5.683  -4.452   8.120  1.00  0.00     0.011 A 
ATOM     29  C   UNL     1       5.612  -4.788   5.713  1.00  0.00     0.011 A 
ATOM     30  C   UNL     1       6.554  -5.537   8.248  1.00  0.00     0.021 A 
ATOM     31  C   UNL     1       6.503  -5.858   5.836  1.00  0.00     0.021 A 
ATOM     32  C   UNL     1       6.968  -6.227   7.103  1.00  0.00     0.067 A 
BRANCH  32  33
ATOM     33  S   UNL     1       8.059  -7.623   7.274  1.00  0.00     0.175 S 
ATOM     34  C   UNL     1       9.541  -6.943   7.969  1.00  0.00     0.163 C 
ATOM     35  O   UNL     1       7.455  -8.506   8.253  1.00  0.00    -0.224 OA
ATOM     36  O   UNL     1       8.378  -8.095   5.939  1.00  0.00    -0.224 OA
ENDBRANCH  32  33
ENDBRANCH  17  27
ENDBRANCH   9  14
ENDBRANCH   6   8
ENDBRANCH   5   6
ENDBRANCH   4   5
ENDBRANCH   3   4
ENDBRANCH   2   3
ENDBRANCH   1   2
BRANCH   1  37
ATOM     37  C   UNL     1       4.301   4.305  10.218  1.00  0.00     0.188 C 
BRANCH  37  38
ATOM     38  O   UNL     1       3.410   4.736  11.218  1.00  0.00    -0.376 OA
BRANCH  38  39
ATOM     39  C   UNL     1       3.853   5.549  12.290  1.00  0.00     0.202 C 
BRANCH  39  40
ATOM     40  C   UNL     1       5.317   5.867  12.648  1.00  0.00     0.261 C 
BRANCH  40  41
ATOM     41  O   UNL     1       6.320   5.651  11.655  1.00  0.00    -0.460 OA
BRANCH  41  42
ATOM     42  C   UNL     1       7.122   4.580  11.857  1.00  0.00     0.338 C 
ATOM     43  O   UNL     1       7.064   3.764  12.768  1.00  0.00    -0.246 OA
BRANCH  42  44
ATOM     44  C   UNL     1       8.021   4.437  10.702  1.00  0.00     0.060 A 
ATOM     45  C   UNL     1       7.845   3.349   9.836  1.00  0.00     0.016 A 
ATOM     46  C   UNL     1       9.050   5.355  10.495  1.00  0.00     0.016 A 
ATOM     47  C   UNL     1       8.714   3.168   8.762  1.00  0.00     0.010 A 
ATOM     48  C   UNL     1       9.933   5.159   9.431  1.00  0.00     0.010 A 
ATOM     49  C   UNL     1       9.785   4.051   8.575  1.00  0.00    -0.014 A 
BRANCH  49  50
ATOM     50  C   UNL     1      10.847   3.735   7.592  1.00  0.00     0.031 A 
ATOM     51  C   UNL     1      12.119   3.103   8.082  1.00  0.00     0.074 A 
ATOM     52  C   UNL     1      10.687   4.002   6.285  1.00  0.00     0.049 A 
ATOM     53  N   UNL     1      13.203   2.793   7.418  1.00  0.00    -0.248 NA
ATOM     54  C   UNL     1      12.175   2.781   9.517  1.00  0.00     0.031 C 
ATOM     55  C   UNL     1       9.484   4.564   5.674  1.00  0.00     0.029 A 
ATOM     56  N   UNL     1      11.557   3.839   5.235  1.00  0.00    -0.354 N 
ATOM     57  C   UNL     1      14.074   2.251   8.355  1.00  0.00     0.074 A 
ATOM     58  C   UNL     1      13.404   2.304   9.637  1.00  0.00     0.031 C 
ATOM     59  C   UNL     1       9.694   4.705   4.354  1.00  0.00     0.029 A 
ATOM     60  C   UNL     1      11.057   4.282   4.036  1.00  0.00     0.049 A 
ATOM     61  H   UNL     1      12.453   3.443   5.333  1.00  0.00     0.167 HD
ATOM     62  C   UNL     1      15.318   1.750   8.167  1.00  0.00     0.031 A 
ATOM     63  C   UNL     1      11.642   4.358   2.825  1.00  0.00     0.031 A 
ATOM     64  C   UNL     1      15.996   1.726   6.898  1.00  0.00     0.049 A 
ATOM     65  C   UNL     1      13.066   3.893   2.659  1.00  0.00     0.074 A 
ATOM     66  C   UNL     1      17.254   1.232   6.601  1.00  0.00     0.029 A 
ATOM     67  N   UNL     1      15.477   2.234   5.717  1.00  0.00    -0.354 N 
ATOM     68  N   UNL     1      13.871   3.356   3.543  1.00  0.00    -0.248 NA
ATOM     69  C   UNL     1      13.657   4.040   1.320  1.00  0.00     0.031 C 
ATOM     70  C   UNL     1      17.522   1.501   5.255  1.00  0.00     0.029 A 
ATOM     71  C   UNL     1      16.403   2.096   4.696  1.00  0.00     0.049 A 
ATOM     72  H   UNL     1      14.582   2.633   5.619  1.00  0.00     0.167 HD
ATOM     73  C   UNL     1      15.050   3.073   2.863  1.00  0.00     0.074 A 
ATOM     74  C   UNL     1      14.850   3.486   1.489  1.00  0.00     0.031 C 
ATOM     75  C   UNL     1      16.194   2.515   3.333  1.00  0.00     0.031 A 
BRANCH  62  76
ATOM     76  C   UNL     1      16.040   1.234   9.382  1.00  0.00    -0.014 A 
ATOM     77  C   UNL     1      15.618   0.071  10.046  1.00  0.00     0.009 A 
ATOM     78  C   UNL     1      17.161   1.924   9.869  1.00  0.00     0.009 A 
ATOM     79  C   UNL     1      16.276  -0.363  11.200  1.00  0.00     0.001 A 
ATOM     80  C   UNL     1      17.837   1.469  11.003  1.00  0.00     0.001 A 
ATOM     81  C   UNL     1      17.385   0.334  11.675  1.00  0.00     0.000 A 
ENDBRANCH  62  76
BRANCH  63  82
ATOM     82  C   UNL     1      10.887   4.907   1.668  1.00  0.00    -0.014 A 
ATOM     83  C   UNL     1      10.501   4.073   0.608  1.00  0.00     0.009 A 
ATOM     84  C   UNL     1      10.557   6.271   1.613  1.00  0.00     0.009 A 
ATOM     85  C   UNL     1       9.816   4.597  -0.492  1.00  0.00     0.001 A 
ATOM     86  C   UNL     1       9.847   6.785   0.526  1.00  0.00     0.001 A 
ATOM     87  C   UNL     1       9.485   5.950  -0.529  1.00  0.00     0.000 A 
ENDBRANCH  63  82
BRANCH  75  88
ATOM     88  C   UNL     1      17.306   2.278   2.346  1.00  0.00    -0.014 A 
ATOM     89  C   UNL     1      18.046   3.339   1.803  1.00  0.00     0.009 A 
ATOM     90  C   UNL     1      17.648   0.962   1.992  1.00  0.00     0.009 A 
ATOM     91  C   UNL     1      19.082   3.089   0.899  1.00  0.00     0.001 A 
ATOM     92  C   UNL     1      18.704   0.714   1.114  1.00  0.00     0.001 A 
ATOM     93  C   UNL     1      19.414   1.777   0.560  1.00  0.00     0.000 A 
ENDBRANCH  75  88
ENDBRANCH  49  50
ENDBRANCH  42  44
ENDBRANCH  41  42
ENDBRANCH  40  41
ENDBRANCH  39  40
ENDBRANCH  38  39
ENDBRANCH  37  38
ENDBRANCH   1  37
TORSDOF 22
