REMARK SMILES C[C@H](C(=O)OCCOCCOCCOC(=O)c1ccc(-c2c3nc(c(-c4ccccc4)c4ccc([nH]4)c(-c4ccccc4)c4nc(c(-c5ccccc5)c5ccc2[nH]5)C=C4)C=C3)cc1)N1C(=O)C[C@](C)(c2ccccc2)C1=O
REMARK SMILES IDX 9 1 8 2 7 3 6 4 5 5 3 6 4 7 2 8 1 9 65 10 66 11 77 12 67 13
REMARK SMILES IDX 68 14 69 15 78 16 70 17 71 18 72 19 76 20 73 21 75 22 74 23
REMARK SMILES IDX 10 24 11 25 12 26 13 27 14 28 15 29 16 30 17 31 18 32 64 33
REMARK SMILES IDX 19 34 63 35 20 36 21 37 22 38 57 39 23 40 62 41 56 42 58 43
REMARK SMILES IDX 24 44 61 45 55 46 54 47 25 49 47 50 32 51 46 52 33 53 36 54
REMARK SMILES IDX 45 55 59 56 34 57 35 58 44 60 60 61 37 62 26 63 27 64 31 65
REMARK SMILES IDX 28 66 30 67 29 68 48 69 49 70 53 71 50 72 52 73 51 74 38 75
REMARK SMILES IDX 39 76 43 77 40 78 42 79 41 80
REMARK H PARENT 58 48 36 59
REMARK Flexibility Score: inf
ROOT
ATOM      1  C   UNL     1       1.959   1.881  -1.342  1.00  0.00     0.188 C 
ENDROOT
BRANCH   1   2
ATOM      2  O   UNL     1       2.180   1.330  -2.630  1.00  0.00    -0.376 OA
BRANCH   2   3
ATOM      3  C   UNL     1       1.506   0.118  -2.966  1.00  0.00     0.202 C 
BRANCH   3   4
ATOM      4  C   UNL     1       1.634  -1.041  -1.974  1.00  0.00     0.261 C 
BRANCH   4   5
ATOM      5  O   UNL     1       0.716  -0.913  -0.863  1.00  0.00    -0.462 OA
BRANCH   5   6
ATOM      6  C   UNL     1       1.246  -1.125   0.374  1.00  0.00     0.329 C 
ATOM      7  O   UNL     1       2.438  -1.336   0.583  1.00  0.00    -0.250 OA
BRANCH   6   8
ATOM      8  C   UNL     1       0.228  -1.022   1.521  1.00  0.00     0.200 C 
ATOM      9  C   UNL     1       0.708   0.056   2.499  1.00  0.00     0.044 C 
BRANCH   8  10
ATOM     10  N   UNL     1      -1.180  -0.905   1.115  1.00  0.00    -0.268 N 
ATOM     11  C   UNL     1      -1.906  -2.019   0.813  1.00  0.00     0.231 C 
ATOM     12  C   UNL     1      -1.933   0.234   1.046  1.00  0.00     0.240 C 
ATOM     13  O   UNL     1      -1.491  -3.170   0.823  1.00  0.00    -0.274 OA
ATOM     14  C   UNL     1      -3.320  -1.648   0.490  1.00  0.00     0.122 C 
ATOM     15  C   UNL     1      -3.364  -0.115   0.634  1.00  0.00     0.081 C 
ATOM     16  O   UNL     1      -1.563   1.351   1.380  1.00  0.00    -0.273 OA
ATOM     17  C   UNL     1      -4.264   0.228   1.843  1.00  0.00     0.027 C 
BRANCH  15  18
ATOM     18  C   UNL     1      -3.788   0.574  -0.672  1.00  0.00    -0.032 A 
ATOM     19  C   UNL     1      -4.742   1.606  -0.700  1.00  0.00     0.005 A 
ATOM     20  C   UNL     1      -3.239   0.177  -1.907  1.00  0.00     0.005 A 
ATOM     21  C   UNL     1      -5.170   2.174  -1.906  1.00  0.00     0.000 A 
ATOM     22  C   UNL     1      -3.673   0.738  -3.114  1.00  0.00     0.000 A 
ATOM     23  C   UNL     1      -4.647   1.730  -3.114  1.00  0.00     0.000 A 
ENDBRANCH  15  18
ENDBRANCH   8  10
ENDBRANCH   6   8
ENDBRANCH   5   6
ENDBRANCH   4   5
ENDBRANCH   3   4
ENDBRANCH   2   3
ENDBRANCH   1   2
BRANCH   1  24
ATOM     24  C   UNL     1       0.517   2.181  -0.925  1.00  0.00     0.188 C 
BRANCH  24  25
ATOM     25  O   UNL     1      -0.500   1.950  -1.886  1.00  0.00    -0.376 OA
BRANCH  25  26
ATOM     26  C   UNL     1      -0.634   2.965  -2.880  1.00  0.00     0.202 C 
BRANCH  26  27
ATOM     27  C   UNL     1      -1.632   4.047  -2.463  1.00  0.00     0.261 C 
BRANCH  27  28
ATOM     28  O   UNL     1      -1.038   4.872  -1.451  1.00  0.00    -0.460 OA
BRANCH  28  29
ATOM     29  C   UNL     1      -1.607   4.812  -0.223  1.00  0.00     0.338 C 
ATOM     30  O   UNL     1      -2.693   4.354   0.083  1.00  0.00    -0.246 OA
BRANCH  29  31
ATOM     31  C   UNL     1      -0.598   5.276   0.752  1.00  0.00     0.060 A 
ATOM     32  C   UNL     1      -0.415   4.534   1.925  1.00  0.00     0.016 A 
ATOM     33  C   UNL     1       0.189   6.402   0.494  1.00  0.00     0.016 A 
ATOM     34  C   UNL     1       0.530   4.939   2.865  1.00  0.00     0.010 A 
ATOM     35  C   UNL     1       1.129   6.812   1.437  1.00  0.00     0.010 A 
ATOM     36  C   UNL     1       1.276   6.103   2.641  1.00  0.00    -0.014 A 
BRANCH  36  37
ATOM     37  C   UNL     1       2.054   6.709   3.743  1.00  0.00     0.031 A 
ATOM     38  C   UNL     1       1.422   7.836   4.511  1.00  0.00     0.074 A 
ATOM     39  C   UNL     1       3.289   6.278   4.050  1.00  0.00     0.049 A 
ATOM     40  N   UNL     1       1.929   8.588   5.452  1.00  0.00    -0.248 NA
ATOM     41  C   UNL     1       0.029   8.164   4.160  1.00  0.00     0.031 C 
ATOM     42  C   UNL     1       3.986   5.166   3.406  1.00  0.00     0.029 A 
ATOM     43  N   UNL     1       4.181   6.745   4.981  1.00  0.00    -0.354 N 
ATOM     44  C   UNL     1       0.924   9.482   5.796  1.00  0.00     0.074 A 
ATOM     45  C   UNL     1      -0.210   9.203   4.943  1.00  0.00     0.031 C 
ATOM     46  C   UNL     1       5.207   5.044   3.955  1.00  0.00     0.029 A 
ATOM     47  C   UNL     1       5.388   6.091   4.958  1.00  0.00     0.049 A 
ATOM     48  H   UNL     1       3.976   7.477   5.606  1.00  0.00     0.167 HD
ATOM     49  C   UNL     1       0.940  10.448   6.744  1.00  0.00     0.031 A 
ATOM     50  C   UNL     1       6.517   6.334   5.653  1.00  0.00     0.031 A 
ATOM     51  C   UNL     1       2.076  10.734   7.576  1.00  0.00     0.049 A 
ATOM     52  C   UNL     1       6.539   7.466   6.646  1.00  0.00     0.074 A 
ATOM     53  C   UNL     1       2.199  11.690   8.569  1.00  0.00     0.029 A 
ATOM     54  N   UNL     1       3.289  10.067   7.505  1.00  0.00    -0.354 N 
ATOM     55  N   UNL     1       5.579   8.297   6.977  1.00  0.00    -0.248 NA
ATOM     56  C   UNL     1       7.801   7.690   7.366  1.00  0.00     0.031 C 
ATOM     57  C   UNL     1       3.506  11.636   9.062  1.00  0.00     0.029 A 
ATOM     58  C   UNL     1       4.176  10.605   8.421  1.00  0.00     0.049 A 
ATOM     59  H   UNL     1       3.490   9.321   6.895  1.00  0.00     0.167 HD
ATOM     60  C   UNL     1       6.111   9.121   7.962  1.00  0.00     0.074 A 
ATOM     61  C   UNL     1       7.473   8.680   8.185  1.00  0.00     0.031 C 
ATOM     62  C   UNL     1       5.526  10.148   8.626  1.00  0.00     0.031 A 
BRANCH  49  63
ATOM     63  C   UNL     1      -0.299  11.283   6.895  1.00  0.00    -0.014 A 
ATOM     64  C   UNL     1      -1.480  10.747   7.435  1.00  0.00     0.009 A 
ATOM     65  C   UNL     1      -0.283  12.630   6.502  1.00  0.00     0.009 A 
ATOM     66  C   UNL     1      -2.628  11.534   7.543  1.00  0.00     0.001 A 
ATOM     67  C   UNL     1      -1.424  13.422   6.639  1.00  0.00     0.001 A 
ATOM     68  C   UNL     1      -2.598  12.871   7.150  1.00  0.00     0.000 A 
ENDBRANCH  49  63
BRANCH  50  69
ATOM     69  C   UNL     1       7.731   5.508   5.418  1.00  0.00    -0.014 A 
ATOM     70  C   UNL     1       8.208   4.635   6.408  1.00  0.00     0.009 A 
ATOM     71  C   UNL     1       8.434   5.606   4.207  1.00  0.00     0.009 A 
ATOM     72  C   UNL     1       9.377   3.898   6.200  1.00  0.00     0.001 A 
ATOM     73  C   UNL     1       9.586   4.846   3.990  1.00  0.00     0.001 A 
ATOM     74  C   UNL     1      10.062   4.001   4.990  1.00  0.00     0.000 A 
ENDBRANCH  50  69
BRANCH  62  75
ATOM     75  C   UNL     1       6.341  10.838   9.685  1.00  0.00    -0.014 A 
ATOM     76  C   UNL     1       7.408  11.686   9.350  1.00  0.00     0.009 A 
ATOM     77  C   UNL     1       5.999  10.675  11.037  1.00  0.00     0.009 A 
ATOM     78  C   UNL     1       8.138  12.329  10.353  1.00  0.00     0.001 A 
ATOM     79  C   UNL     1       6.710  11.343  12.034  1.00  0.00     0.001 A 
ATOM     80  C   UNL     1       7.785  12.162  11.692  1.00  0.00     0.000 A 
ENDBRANCH  62  75
ENDBRANCH  36  37
ENDBRANCH  29  31
ENDBRANCH  28  29
ENDBRANCH  27  28
ENDBRANCH  26  27
ENDBRANCH  25  26
ENDBRANCH  24  25
ENDBRANCH   1  24
TORSDOF 19
