REMARK SMILES COC(=O)c1cscc1NS(=O)(=O)c1cc(C)c(C(=O)OCCOCCOCCOC(=O)c2ccc(-c3c4nc(c(-c5ccccc5)c5ccc([nH]5)c(-c5ccccc5)c5nc(c(-c6ccccc6)c6ccc3[nH]6)C=C5)C=C4)cc2)s1
REMARK SMILES IDX 24 1 23 2 22 3 21 4 19 5 20 6 18 7 14 8 15 9 81 10 16 11
REMARK SMILES IDX 17 12 11 13 12 14 13 15 10 16 9 18 5 19 6 20 7 21 8 22 3 23
REMARK SMILES IDX 4 24 2 25 1 26 25 27 26 28 27 29 28 30 29 31 30 32 31 33
REMARK SMILES IDX 32 34 33 35 34 36 80 37 35 38 79 39 36 40 37 41 38 42 73 43
REMARK SMILES IDX 39 44 78 45 72 46 74 47 40 48 77 49 71 50 70 51 41 53 63 54
REMARK SMILES IDX 48 55 62 56 49 57 52 58 61 59 75 60 50 61 51 62 60 64 76 65
REMARK SMILES IDX 53 66 42 67 43 68 47 69 44 70 46 71 45 72 64 73 65 74 69 75
REMARK SMILES IDX 66 76 68 77 67 78 54 79 55 80 59 81 56 82 58 83 57 84
REMARK H PARENT 10 17 74 52 52 63
REMARK Flexibility Score: inf
ROOT
ATOM      1  O   UNL     1      -2.982  -9.907  -2.599  1.00  0.00    -0.376 OA
ENDROOT
BRANCH   1   2
ATOM      2  C   UNL     1      -2.737 -11.166  -3.218  1.00  0.00     0.202 C 
BRANCH   2   3
ATOM      3  C   UNL     1      -1.681 -11.261  -4.332  1.00  0.00     0.261 C 
BRANCH   3   4
ATOM      4  O   UNL     1      -0.390 -10.725  -3.986  1.00  0.00    -0.459 OA
BRANCH   4   5
ATOM      5  C   UNL     1       0.098  -9.736  -4.795  1.00  0.00     0.348 C 
ATOM      6  O   UNL     1      -0.478  -9.331  -5.803  1.00  0.00    -0.245 OA
BRANCH   5   7
ATOM      7  C   UNL     1       1.310  -9.157  -4.224  1.00  0.00     0.116 A 
ATOM      8  C   UNL     1       2.912  -7.412  -3.455  1.00  0.00     0.141 A 
ATOM      9  C   UNL     1       3.150  -8.649  -2.884  1.00  0.00     0.038 A 
ATOM     10  S   UNL     1       1.718  -7.543  -4.674  1.00  0.00    -0.115 S 
ATOM     11  C   UNL     1       2.260  -9.681  -3.352  1.00  0.00    -0.024 A 
ATOM     12  C   UNL     1       2.360 -11.108  -2.913  1.00  0.00     0.046 C 
BRANCH   8  13
ATOM     13  S   UNL     1       3.676  -5.809  -3.201  1.00  0.00     0.271 S 
ATOM     14  O   UNL     1       3.611  -5.111  -4.466  1.00  0.00    -0.200 OA
ATOM     15  O   UNL     1       4.954  -6.135  -2.600  1.00  0.00    -0.200 OA
BRANCH  13  16
ATOM     16  N   UNL     1       2.845  -4.870  -2.039  1.00  0.00    -0.277 N 
ATOM     17  H   UNL     1       3.353  -4.482  -1.291  1.00  0.00     0.180 HD
BRANCH  16  18
ATOM     18  C   UNL     1       1.455  -4.629  -2.114  1.00  0.00     0.074 A 
ATOM     19  C   UNL     1       0.832  -3.343  -1.888  1.00  0.00     0.094 A 
ATOM     20  C   UNL     1      -0.526  -3.401  -2.164  1.00  0.00     0.082 A 
ATOM     21  S   UNL     1      -1.041  -4.967  -2.594  1.00  0.00    -0.149 S 
ATOM     22  C   UNL     1       0.491  -5.604  -2.240  1.00  0.00     0.092 A 
BRANCH  19  23
ATOM     23  C   UNL     1       1.483  -2.122  -1.428  1.00  0.00     0.340 C 
ATOM     24  O   UNL     1       2.701  -1.960  -1.486  1.00  0.00    -0.246 OA
BRANCH  23  25
ATOM     25  O   UNL     1       0.601  -1.254  -0.860  1.00  0.00    -0.465 OA
ATOM     26  C   UNL     1       1.127  -0.094  -0.209  1.00  0.00     0.282 C 
ENDBRANCH  23  25
ENDBRANCH  19  23
ENDBRANCH  16  18
ENDBRANCH  13  16
ENDBRANCH   8  13
ENDBRANCH   5   7
ENDBRANCH   4   5
ENDBRANCH   3   4
ENDBRANCH   2   3
ENDBRANCH   1   2
BRANCH   1  27
ATOM     27  C   UNL     1      -1.893  -9.177  -2.045  1.00  0.00     0.188 C 
BRANCH  27  28
ATOM     28  C   UNL     1      -0.893  -9.888  -1.111  1.00  0.00     0.188 C 
BRANCH  28  29
ATOM     29  O   UNL     1      -1.077 -11.287  -1.043  1.00  0.00    -0.376 OA
BRANCH  29  30
ATOM     30  C   UNL     1      -1.493 -11.833   0.200  1.00  0.00     0.202 C 
BRANCH  30  31
ATOM     31  C   UNL     1      -2.787 -11.326   0.868  1.00  0.00     0.261 C 
BRANCH  31  32
ATOM     32  O   UNL     1      -3.066  -9.921   0.773  1.00  0.00    -0.460 OA
BRANCH  32  33
ATOM     33  C   UNL     1      -2.502  -9.116   1.700  1.00  0.00     0.338 C 
ATOM     34  O   UNL     1      -1.719  -9.440   2.575  1.00  0.00    -0.246 OA
BRANCH  33  35
ATOM     35  C   UNL     1      -2.853  -7.718   1.369  1.00  0.00     0.060 A 
ATOM     36  C   UNL     1      -1.821  -6.819   1.083  1.00  0.00     0.016 A 
ATOM     37  C   UNL     1      -4.184  -7.290   1.353  1.00  0.00     0.016 A 
ATOM     38  C   UNL     1      -2.122  -5.488   0.785  1.00  0.00     0.010 A 
ATOM     39  C   UNL     1      -4.482  -5.951   1.066  1.00  0.00     0.010 A 
ATOM     40  C   UNL     1      -3.452  -5.040   0.786  1.00  0.00    -0.014 A 
BRANCH  40  41
ATOM     41  C   UNL     1      -3.732  -3.589   0.639  1.00  0.00     0.031 A 
ATOM     42  C   UNL     1      -3.631  -2.711   1.852  1.00  0.00     0.074 A 
ATOM     43  C   UNL     1      -4.027  -3.043  -0.556  1.00  0.00     0.049 A 
ATOM     44  N   UNL     1      -3.793  -1.416   1.956  1.00  0.00    -0.248 NA
ATOM     45  C   UNL     1      -3.317  -3.386   3.121  1.00  0.00     0.031 C 
ATOM     46  C   UNL     1      -4.138  -3.776  -1.813  1.00  0.00     0.029 A 
ATOM     47  N   UNL     1      -4.247  -1.734  -0.912  1.00  0.00    -0.354 N 
ATOM     48  C   UNL     1      -3.626  -1.126   3.303  1.00  0.00     0.074 A 
ATOM     49  C   UNL     1      -3.340  -2.375   3.975  1.00  0.00     0.031 C 
ATOM     50  C   UNL     1      -4.323  -2.900  -2.816  1.00  0.00     0.029 A 
ATOM     51  C   UNL     1      -4.430  -1.551  -2.263  1.00  0.00     0.049 A 
ATOM     52  H   UNL     1      -4.271  -0.996  -0.261  1.00  0.00     0.167 HD
ATOM     53  C   UNL     1      -3.731   0.069   3.931  1.00  0.00     0.031 A 
ATOM     54  C   UNL     1      -4.671  -0.427  -2.969  1.00  0.00     0.031 A 
ATOM     55  C   UNL     1      -4.066   1.305   3.278  1.00  0.00     0.049 A 
ATOM     56  C   UNL     1      -4.831   0.881  -2.237  1.00  0.00     0.074 A 
ATOM     57  C   UNL     1      -4.226   2.559   3.840  1.00  0.00     0.029 A 
ATOM     58  N   UNL     1      -4.310   1.439   1.921  1.00  0.00    -0.354 N 
ATOM     59  N   UNL     1      -4.663   1.145  -0.963  1.00  0.00    -0.248 NA
ATOM     60  C   UNL     1      -5.242   2.044  -3.040  1.00  0.00     0.031 C 
ATOM     61  C   UNL     1      -4.623   3.442   2.831  1.00  0.00     0.029 A 
ATOM     62  C   UNL     1      -4.642   2.751   1.630  1.00  0.00     0.049 A 
ATOM     63  H   UNL     1      -4.255   0.710   1.261  1.00  0.00     0.167 HD
ATOM     64  C   UNL     1      -4.941   2.499  -0.816  1.00  0.00     0.074 A 
ATOM     65  C   UNL     1      -5.253   3.011  -2.133  1.00  0.00     0.031 C 
ATOM     66  C   UNL     1      -4.948   3.250   0.314  1.00  0.00     0.031 A 
BRANCH  53  67
ATOM     67  C   UNL     1      -3.556   0.070   5.423  1.00  0.00    -0.014 A 
ATOM     68  C   UNL     1      -2.297  -0.116   6.014  1.00  0.00     0.009 A 
ATOM     69  C   UNL     1      -4.676   0.262   6.248  1.00  0.00     0.009 A 
ATOM     70  C   UNL     1      -2.170  -0.145   7.405  1.00  0.00     0.001 A 
ATOM     71  C   UNL     1      -4.541   0.260   7.636  1.00  0.00     0.001 A 
ATOM     72  C   UNL     1      -3.290   0.046   8.213  1.00  0.00     0.000 A 
ENDBRANCH  53  67
BRANCH  54  73
ATOM     73  C   UNL     1      -4.826  -0.476  -4.450  1.00  0.00    -0.014 A 
ATOM     74  C   UNL     1      -3.919   0.195  -5.287  1.00  0.00     0.009 A 
ATOM     75  C   UNL     1      -5.907  -1.152  -5.036  1.00  0.00     0.009 A 
ATOM     76  C   UNL     1      -4.107   0.211  -6.672  1.00  0.00     0.001 A 
ATOM     77  C   UNL     1      -6.073  -1.165  -6.423  1.00  0.00     0.001 A 
ATOM     78  C   UNL     1      -5.180  -0.474  -7.239  1.00  0.00     0.000 A 
ENDBRANCH  54  73
BRANCH  66  79
ATOM     79  C   UNL     1      -5.271   4.713   0.176  1.00  0.00    -0.014 A 
ATOM     80  C   UNL     1      -6.574   5.152  -0.106  1.00  0.00     0.009 A 
ATOM     81  C   UNL     1      -4.265   5.668   0.394  1.00  0.00     0.009 A 
ATOM     82  C   UNL     1      -6.855   6.518  -0.197  1.00  0.00     0.001 A 
ATOM     83  C   UNL     1      -4.556   7.032   0.332  1.00  0.00     0.001 A 
ATOM     84  C   UNL     1      -5.848   7.455   0.028  1.00  0.00     0.000 A 
ENDBRANCH  66  79
ENDBRANCH  40  41
ENDBRANCH  33  35
ENDBRANCH  32  33
ENDBRANCH  31  32
ENDBRANCH  30  31
ENDBRANCH  29  30
ENDBRANCH  28  29
ENDBRANCH  27  28
ENDBRANCH   1  27
TORSDOF 22
