REMARK SMILES CCC(=O)N1CCC[C@](C[C@H]2CC(c3ccc(C)cc3)=NO2)(C(=O)OCCOCCOCCOC(=O)c2ccc(-c3c4nc(c(-c5ccccc5)c5ccc([nH]5)c(-c5ccccc5)c5nc(c(-c6ccccc6)c6ccc3[nH]6)C=C5)C=C4)cc2)C1
REMARK SMILES IDX 29 1 28 2 27 3 26 4 25 5 23 6 24 7 9 8 5 9 6 10 85 11 7 12
REMARK SMILES IDX 8 13 3 14 4 15 2 16 1 17 10 18 11 19 12 20 22 21 13 22 21 23
REMARK SMILES IDX 14 24 15 25 20 26 16 27 19 28 17 29 18 30 30 31 31 32 32 33
REMARK SMILES IDX 33 34 34 35 35 36 36 37 37 38 38 39 84 40 39 41 83 42 40 43
REMARK SMILES IDX 41 44 42 45 77 46 43 47 82 48 76 49 78 50 44 51 81 52 75 53
REMARK SMILES IDX 74 54 45 56 67 57 52 58 66 59 53 60 56 61 65 62 79 63 54 64
REMARK SMILES IDX 55 65 64 67 80 68 57 69 46 70 47 71 51 72 48 73 50 74 49 75
REMARK SMILES IDX 68 76 69 77 73 78 70 79 72 80 71 81 58 82 59 83 63 84 60 85
REMARK SMILES IDX 62 86 61 87
REMARK H PARENT 78 55 56 66
REMARK Flexibility Score: inf
ROOT
ATOM      1  C   UNL     1      -0.088  -6.548  -1.026  1.00  0.00     0.188 C 
ENDROOT
BRANCH   1   2
ATOM      2  O   UNL     1      -0.186  -5.239  -0.337  1.00  0.00    -0.376 OA
BRANCH   2   3
ATOM      3  C   UNL     1      -0.526  -3.938  -0.934  1.00  0.00     0.202 C 
BRANCH   3   4
ATOM      4  C   UNL     1       0.203  -2.351  -0.707  1.00  0.00     0.261 C 
BRANCH   4   5
ATOM      5  O   UNL     1       1.722  -1.458  -1.020  1.00  0.00    -0.463 OA
BRANCH   5   6
ATOM      6  C   UNL     1       3.307  -1.324  -0.492  1.00  0.00     0.314 C 
ATOM      7  O   UNL     1       3.749  -0.413   0.228  1.00  0.00    -0.252 OA
BRANCH   6   8
ATOM      8  C   UNL     1       4.405  -2.180  -1.190  1.00  0.00     0.089 C 
ATOM      9  N   UNL     1       2.513  -0.773  -3.247  1.00  0.00    -0.342 N 
ATOM     10  C   UNL     1       2.514  -1.884  -4.290  1.00  0.00     0.119 C 
ATOM     11  C   UNL     1       3.928  -0.598  -2.257  1.00  0.00     0.138 C 
ATOM     12  C   UNL     1       2.611  -3.652  -3.588  1.00  0.00     0.023 C 
ATOM     13  C   UNL     1       4.171  -4.067  -2.045  1.00  0.00     0.022 C 
BRANCH   9  14
ATOM     14  C   UNL     1       1.188  -0.276  -3.092  1.00  0.00     0.222 C 
ATOM     15  O   UNL     1       0.245  -0.855  -3.663  1.00  0.00    -0.275 OA
BRANCH  14  16
ATOM     16  C   UNL     1       0.789   0.951  -2.268  1.00  0.00     0.097 C 
ATOM     17  C   UNL     1      -0.524   0.762  -1.454  1.00  0.00     0.014 C 
ENDBRANCH  14  16
ENDBRANCH   9  14
BRANCH   8  18
ATOM     18  C   UNL     1       5.608  -2.344  -0.215  1.00  0.00     0.069 C 
BRANCH  18  19
ATOM     19  C   UNL     1       6.793  -1.397  -0.286  1.00  0.00     0.212 C 
ATOM     20  C   UNL     1       7.737  -1.733  -1.415  1.00  0.00     0.108 C 
ATOM     21  O   UNL     1       6.372  -0.048  -0.461  1.00  0.00    -0.392 OA
ATOM     22  C   UNL     1       7.795  -0.406  -2.063  1.00  0.00     0.091 C 
ATOM     23  N   UNL     1       7.066   0.522  -1.544  1.00  0.00    -0.090 NA
BRANCH  22  24
ATOM     24  C   UNL     1       8.691  -0.188  -3.193  1.00  0.00    -0.001 A 
ATOM     25  C   UNL     1       8.687  -1.072  -4.272  1.00  0.00     0.010 A 
ATOM     26  C   UNL     1       9.591   0.874  -3.127  1.00  0.00     0.010 A 
ATOM     27  C   UNL     1       9.629  -0.911  -5.284  1.00  0.00     0.004 A 
ATOM     28  C   UNL     1      10.541   1.019  -4.133  1.00  0.00     0.004 A 
ATOM     29  C   UNL     1      10.574   0.121  -5.210  1.00  0.00    -0.051 A 
ATOM     30  C   UNL     1      11.649   0.249  -6.247  1.00  0.00     0.044 C 
ENDBRANCH  22  24
ENDBRANCH  18  19
ENDBRANCH   8  18
ENDBRANCH   6   8
ENDBRANCH   5   6
ENDBRANCH   4   5
ENDBRANCH   3   4
ENDBRANCH   2   3
ENDBRANCH   1   2
BRANCH   1  31
ATOM     31  C   UNL     1      -0.494  -6.841  -2.504  1.00  0.00     0.188 C 
BRANCH  31  32
ATOM     32  O   UNL     1      -0.114  -5.756  -3.339  1.00  0.00    -0.376 OA
BRANCH  32  33
ATOM     33  C   UNL     1      -0.135  -5.875  -4.753  1.00  0.00     0.202 C 
BRANCH  33  34
ATOM     34  C   UNL     1       0.924  -6.794  -5.426  1.00  0.00     0.261 C 
BRANCH  34  35
ATOM     35  O   UNL     1       2.315  -6.349  -5.805  1.00  0.00    -0.460 OA
BRANCH  35  36
ATOM     36  C   UNL     1       3.604  -6.164  -5.372  1.00  0.00     0.338 C 
ATOM     37  O   UNL     1       4.550  -6.295  -6.142  1.00  0.00    -0.246 OA
BRANCH  36  38
ATOM     38  C   UNL     1       3.893  -5.488  -4.066  1.00  0.00     0.060 A 
ATOM     39  C   UNL     1       4.604  -3.954  -4.184  1.00  0.00     0.016 A 
ATOM     40  C   UNL     1       2.812  -5.875  -2.969  1.00  0.00     0.016 A 
ATOM     41  C   UNL     1       4.042  -2.671  -3.069  1.00  0.00     0.010 A 
ATOM     42  C   UNL     1       2.179  -4.827  -1.900  1.00  0.00     0.010 A 
ATOM     43  C   UNL     1       2.650  -3.173  -1.718  1.00  0.00    -0.014 A 
BRANCH  43  44
ATOM     44  C   UNL     1       2.332  -3.164   0.198  1.00  0.00     0.031 A 
ATOM     45  C   UNL     1       1.923  -1.746   1.343  1.00  0.00     0.074 A 
ATOM     46  C   UNL     1       2.102  -4.249   0.971  1.00  0.00     0.049 A 
ATOM     47  N   UNL     1       2.069  -1.697   2.657  1.00  0.00    -0.248 NA
ATOM     48  C   UNL     1       1.542  -0.268   0.944  1.00  0.00     0.031 C 
ATOM     49  C   UNL     1       1.157  -4.286   2.101  1.00  0.00     0.029 A 
ATOM     50  N   UNL     1       2.492  -5.559   0.848  1.00  0.00    -0.354 N 
ATOM     51  C   UNL     1       1.668  -0.389   3.020  1.00  0.00     0.074 A 
ATOM     52  C   UNL     1       2.003   0.435   1.963  1.00  0.00     0.031 C 
ATOM     53  C   UNL     1       1.138  -5.513   2.634  1.00  0.00     0.029 A 
ATOM     54  C   UNL     1       2.214  -6.252   2.028  1.00  0.00     0.049 A 
ATOM     55  H   UNL     1       2.907  -5.952   0.046  1.00  0.00     0.167 HD
ATOM     56  C   UNL     1       0.682  -0.052   3.901  1.00  0.00     0.031 A 
ATOM     57  C   UNL     1       3.228  -6.875   2.683  1.00  0.00     0.031 A 
ATOM     58  C   UNL     1       0.569  -1.133   4.835  1.00  0.00     0.049 A 
ATOM     59  C   UNL     1       3.524  -6.175   4.001  1.00  0.00     0.074 A 
ATOM     60  C   UNL     1      -0.302  -2.186   5.006  1.00  0.00     0.029 A 
ATOM     61  N   UNL     1       1.770  -1.517   5.411  1.00  0.00    -0.354 N 
ATOM     62  N   UNL     1       2.866  -5.129   4.442  1.00  0.00    -0.248 NA
ATOM     63  C   UNL     1       4.556  -6.589   4.943  1.00  0.00     0.031 C 
ATOM     64  C   UNL     1       0.480  -3.281   5.516  1.00  0.00     0.029 A 
ATOM     65  C   UNL     1       1.788  -2.857   5.728  1.00  0.00     0.049 A 
ATOM     66  H   UNL     1       2.522  -0.903   5.574  1.00  0.00     0.167 HD
ATOM     67  C   UNL     1       3.430  -4.647   5.588  1.00  0.00     0.074 A 
ATOM     68  C   UNL     1       4.446  -5.641   5.893  1.00  0.00     0.031 C 
ATOM     69  C   UNL     1       3.071  -3.448   6.148  1.00  0.00     0.031 A 
BRANCH  56  70
ATOM     70  C   UNL     1      -0.199   1.227   3.737  1.00  0.00    -0.014 A 
ATOM     71  C   UNL     1      -1.130   1.587   4.716  1.00  0.00     0.009 A 
ATOM     72  C   UNL     1      -0.221   2.093   2.596  1.00  0.00     0.009 A 
ATOM     73  C   UNL     1      -1.981   2.715   4.570  1.00  0.00     0.001 A 
ATOM     74  C   UNL     1      -1.029   3.232   2.454  1.00  0.00     0.001 A 
ATOM     75  C   UNL     1      -1.925   3.542   3.449  1.00  0.00     0.000 A 
ENDBRANCH  56  70
BRANCH  57  76
ATOM     76  C   UNL     1       4.114  -7.572   1.687  1.00  0.00    -0.014 A 
ATOM     77  C   UNL     1       3.524  -8.679   1.021  1.00  0.00     0.009 A 
ATOM     78  C   UNL     1       5.149  -6.896   1.015  1.00  0.00     0.009 A 
ATOM     79  C   UNL     1       3.844  -8.998  -0.307  1.00  0.00     0.001 A 
ATOM     80  C   UNL     1       5.473  -7.229  -0.316  1.00  0.00     0.001 A 
ATOM     81  C   UNL     1       4.798  -8.250  -0.986  1.00  0.00     0.000 A 
ENDBRANCH  57  76
BRANCH  69  82
ATOM     82  C   UNL     1       3.986  -2.657   7.091  1.00  0.00    -0.014 A 
ATOM     83  C   UNL     1       5.348  -2.936   7.273  1.00  0.00     0.009 A 
ATOM     84  C   UNL     1       3.526  -1.468   7.710  1.00  0.00     0.009 A 
ATOM     85  C   UNL     1       6.179  -2.122   8.057  1.00  0.00     0.001 A 
ATOM     86  C   UNL     1       4.373  -0.594   8.399  1.00  0.00     0.001 A 
ATOM     87  C   UNL     1       5.698  -0.938   8.599  1.00  0.00     0.000 A 
ENDBRANCH  69  82
ENDBRANCH  43  44
ENDBRANCH  36  38
ENDBRANCH  35  36
ENDBRANCH  34  35
ENDBRANCH  33  34
ENDBRANCH  32  33
ENDBRANCH  31  32
ENDBRANCH   1  31
TORSDOF 22
