REMARK SMILES O=C(Nc1ccccc1C(=O)OCCOCCOCCOC(=O)c1ccc(-c2c3nc(c(-c4ccccc4)c4ccc([nH]4)c(-c4ccccc4)c4nc(c(-c5ccccc5)c5ccc2[nH]5)C=C4)C=C3)cc1)c1ccc2c(c1)C(=O)N(Cc1ccccc1)C2=O
REMARK SMILES IDX 16 1 15 2 14 3 13 4 12 5 10 6 11 7 9 8 4 9 5 10 6 11 8 12
REMARK SMILES IDX 7 13 3 14 1 15 2 16 72 18 73 19 77 20 74 21 76 22 75 23
REMARK SMILES IDX 78 24 88 25 79 26 80 27 89 28 81 29 82 30 83 31 87 32 84 33
REMARK SMILES IDX 86 34 85 35 17 36 18 37 19 38 20 39 21 40 22 41 23 42 24 43
REMARK SMILES IDX 25 44 71 45 26 46 70 47 27 48 28 49 29 50 64 51 30 52 69 53
REMARK SMILES IDX 63 54 65 55 31 56 68 57 62 58 61 59 32 61 54 62 39 63 53 64
REMARK SMILES IDX 40 65 43 66 52 67 66 68 41 69 42 70 51 72 67 73 44 74 33 75
REMARK SMILES IDX 34 76 38 77 35 78 37 79 36 80 55 81 56 82 60 83 57 84 59 85
REMARK SMILES IDX 58 86 45 87 46 88 50 89 47 90 49 91 48 92
REMARK H PARENT 3 17 65 60 43 71
REMARK Flexibility Score: inf
ROOT
ATOM      1  C   UNL     1       4.347   4.008  -1.758  1.00  0.00     0.188 C 
ENDROOT
BRANCH   1   2
ATOM      2  O   UNL     1       3.311   4.097  -2.716  1.00  0.00    -0.376 OA
BRANCH   2   3
ATOM      3  C   UNL     1       2.822   2.853  -3.201  1.00  0.00     0.202 C 
BRANCH   3   4
ATOM      4  C   UNL     1       2.151   1.995  -2.131  1.00  0.00     0.261 C 
BRANCH   4   5
ATOM      5  O   UNL     1       3.007   1.343  -1.166  1.00  0.00    -0.460 OA
BRANCH   5   6
ATOM      6  C   UNL     1       4.117   0.675  -1.548  1.00  0.00     0.340 C 
ATOM      7  O   UNL     1       4.553   0.543  -2.677  1.00  0.00    -0.246 OA
BRANCH   6   8
ATOM      8  C   UNL     1       4.848   0.262  -0.333  1.00  0.00     0.083 A 
ATOM      9  C   UNL     1       4.258  -0.363   0.776  1.00  0.00     0.056 A 
ATOM     10  C   UNL     1       4.970  -0.329   1.991  1.00  0.00     0.027 A 
ATOM     11  C   UNL     1       6.264   0.195   2.072  1.00  0.00     0.002 A 
ATOM     12  C   UNL     1       6.174   0.741  -0.263  1.00  0.00     0.018 A 
ATOM     13  C   UNL     1       6.882   0.697   0.935  1.00  0.00     0.001 A 
BRANCH   9  14
ATOM     14  N   UNL     1       3.012  -1.028   0.848  1.00  0.00    -0.321 N 
ATOM     15  O   UNL     1       1.057  -1.996   0.291  1.00  0.00    -0.269 OA
ATOM     16  C   UNL     1       2.172  -1.620  -0.068  1.00  0.00     0.255 C 
ATOM     17  H   UNL     1       2.665  -1.081   1.767  1.00  0.00     0.170 HD
BRANCH  16  18
ATOM     18  C   UNL     1       2.554  -1.863  -1.471  1.00  0.00     0.041 A 
ATOM     19  C   UNL     1       3.728  -2.565  -1.825  1.00  0.00     0.015 A 
ATOM     20  C   UNL     1       1.723  -1.308  -2.451  1.00  0.00     0.028 A 
ATOM     21  C   UNL     1       4.136  -2.626  -3.169  1.00  0.00     0.015 A 
ATOM     22  C   UNL     1       2.201  -1.302  -3.746  1.00  0.00     0.054 A 
ATOM     23  C   UNL     1       3.372  -1.943  -4.102  1.00  0.00     0.053 A 
ATOM     24  C   UNL     1       1.742  -0.535  -4.903  1.00  0.00     0.261 C 
ATOM     25  C   UNL     1       3.617  -1.643  -5.517  1.00  0.00     0.261 C 
ATOM     26  O   UNL     1       0.768   0.195  -4.891  1.00  0.00    -0.269 OA
ATOM     27  N   UNL     1       2.632  -0.776  -5.909  1.00  0.00    -0.270 N 
ATOM     28  O   UNL     1       4.523  -2.125  -6.171  1.00  0.00    -0.269 OA
BRANCH  27  29
ATOM     29  C   UNL     1       2.513  -0.208  -7.234  1.00  0.00     0.164 C 
BRANCH  29  30
ATOM     30  C   UNL     1       3.296   1.075  -7.415  1.00  0.00    -0.028 A 
ATOM     31  C   UNL     1       4.614   1.039  -7.894  1.00  0.00     0.005 A 
ATOM     32  C   UNL     1       2.712   2.322  -7.141  1.00  0.00     0.005 A 
ATOM     33  C   UNL     1       5.317   2.222  -8.131  1.00  0.00     0.000 A 
ATOM     34  C   UNL     1       3.420   3.505  -7.376  1.00  0.00     0.000 A 
ATOM     35  C   UNL     1       4.718   3.455  -7.880  1.00  0.00     0.000 A 
ENDBRANCH  29  30
ENDBRANCH  27  29
ENDBRANCH  16  18
ENDBRANCH   9  14
ENDBRANCH   6   8
ENDBRANCH   5   6
ENDBRANCH   4   5
ENDBRANCH   3   4
ENDBRANCH   2   3
ENDBRANCH   1   2
BRANCH   1  36
ATOM     36  C   UNL     1       3.914   4.070  -0.275  1.00  0.00     0.188 C 
BRANCH  36  37
ATOM     37  O   UNL     1       2.601   4.445   0.120  1.00  0.00    -0.376 OA
BRANCH  37  38
ATOM     38  C   UNL     1       1.849   5.384  -0.633  1.00  0.00     0.202 C 
BRANCH  38  39
ATOM     39  C   UNL     1       2.362   6.823  -0.728  1.00  0.00     0.261 C 
BRANCH  39  40
ATOM     40  O   UNL     1       3.713   6.918  -1.196  1.00  0.00    -0.460 OA
BRANCH  40  41
ATOM     41  C   UNL     1       4.631   7.236  -0.253  1.00  0.00     0.338 C 
ATOM     42  O   UNL     1       4.429   7.533   0.912  1.00  0.00    -0.246 OA
BRANCH  41  43
ATOM     43  C   UNL     1       5.981   6.960  -0.787  1.00  0.00     0.060 A 
ATOM     44  C   UNL     1       6.855   6.213   0.015  1.00  0.00     0.016 A 
ATOM     45  C   UNL     1       6.374   7.389  -2.059  1.00  0.00     0.016 A 
ATOM     46  C   UNL     1       8.140   5.926  -0.433  1.00  0.00     0.010 A 
ATOM     47  C   UNL     1       7.676   7.132  -2.494  1.00  0.00     0.010 A 
ATOM     48  C   UNL     1       8.573   6.439  -1.662  1.00  0.00    -0.014 A 
BRANCH  48  49
ATOM     49  C   UNL     1      10.028   6.521  -1.917  1.00  0.00     0.031 A 
ATOM     50  C   UNL     1      10.752   7.722  -1.370  1.00  0.00     0.074 A 
ATOM     51  C   UNL     1      10.697   5.559  -2.573  1.00  0.00     0.049 A 
ATOM     52  N   UNL     1      12.021   8.027  -1.432  1.00  0.00    -0.248 NA
ATOM     53  C   UNL     1       9.928   8.708  -0.648  1.00  0.00     0.031 C 
ATOM     54  C   UNL     1      10.120   4.326  -3.104  1.00  0.00     0.029 A 
ATOM     55  N   UNL     1      12.027   5.480  -2.901  1.00  0.00    -0.354 N 
ATOM     56  C   UNL     1      12.145   9.234  -0.755  1.00  0.00     0.074 A 
ATOM     57  C   UNL     1      10.826   9.617  -0.309  1.00  0.00     0.031 C 
ATOM     58  C   UNL     1      11.094   3.613  -3.699  1.00  0.00     0.029 A 
ATOM     59  C   UNL     1      12.353   4.351  -3.610  1.00  0.00     0.049 A 
ATOM     60  H   UNL     1      12.685   6.168  -2.650  1.00  0.00     0.167 HD
ATOM     61  C   UNL     1      13.259   9.964  -0.525  1.00  0.00     0.031 A 
ATOM     62  C   UNL     1      13.533   3.974  -4.139  1.00  0.00     0.031 A 
ATOM     63  C   UNL     1      14.565   9.610  -0.999  1.00  0.00     0.049 A 
ATOM     64  C   UNL     1      14.741   4.859  -3.959  1.00  0.00     0.074 A 
ATOM     65  C   UNL     1      15.760  10.282  -0.819  1.00  0.00     0.029 A 
ATOM     66  N   UNL     1      14.841   8.491  -1.768  1.00  0.00    -0.354 N 
ATOM     67  N   UNL     1      14.855   5.979  -3.285  1.00  0.00    -0.248 NA
ATOM     68  C   UNL     1      15.983   4.423  -4.614  1.00  0.00     0.031 C 
ATOM     69  C   UNL     1      16.753   9.594  -1.525  1.00  0.00     0.029 A 
ATOM     70  C   UNL     1      16.183   8.468  -2.099  1.00  0.00     0.049 A 
ATOM     71  H   UNL     1      14.179   7.813  -2.038  1.00  0.00     0.167 HD
ATOM     72  C   UNL     1      16.185   6.364  -3.410  1.00  0.00     0.074 A 
ATOM     73  C   UNL     1      16.840   5.355  -4.218  1.00  0.00     0.031 C 
ATOM     74  C   UNL     1      16.812   7.452  -2.900  1.00  0.00     0.031 A 
BRANCH  61  75
ATOM     75  C   UNL     1      13.086  11.246   0.235  1.00  0.00    -0.014 A 
ATOM     76  C   UNL     1      12.836  11.245   1.616  1.00  0.00     0.009 A 
ATOM     77  C   UNL     1      13.164  12.470  -0.445  1.00  0.00     0.009 A 
ATOM     78  C   UNL     1      12.636  12.447   2.296  1.00  0.00     0.001 A 
ATOM     79  C   UNL     1      12.987  13.671   0.242  1.00  0.00     0.001 A 
ATOM     80  C   UNL     1      12.715  13.659   1.610  1.00  0.00     0.000 A 
ENDBRANCH  61  75
BRANCH  62  81
ATOM     81  C   UNL     1      13.642   2.708  -4.909  1.00  0.00    -0.014 A 
ATOM     82  C   UNL     1      14.363   1.619  -4.395  1.00  0.00     0.009 A 
ATOM     83  C   UNL     1      13.060   2.597  -6.181  1.00  0.00     0.009 A 
ATOM     84  C   UNL     1      14.519   0.454  -5.150  1.00  0.00     0.001 A 
ATOM     85  C   UNL     1      13.198   1.422  -6.924  1.00  0.00     0.001 A 
ATOM     86  C   UNL     1      13.935   0.355  -6.412  1.00  0.00     0.000 A 
ENDBRANCH  62  81
BRANCH  74  87
ATOM     87  C   UNL     1      18.284   7.590  -3.164  1.00  0.00    -0.014 A 
ATOM     88  C   UNL     1      18.765   7.974  -4.425  1.00  0.00     0.009 A 
ATOM     89  C   UNL     1      19.197   7.391  -2.117  1.00  0.00     0.009 A 
ATOM     90  C   UNL     1      20.136   8.130  -4.638  1.00  0.00     0.001 A 
ATOM     91  C   UNL     1      20.564   7.573  -2.326  1.00  0.00     0.001 A 
ATOM     92  C   UNL     1      21.033   7.934  -3.587  1.00  0.00     0.000 A 
ENDBRANCH  74  87
ENDBRANCH  48  49
ENDBRANCH  41  43
ENDBRANCH  40  41
ENDBRANCH  39  40
ENDBRANCH  38  39
ENDBRANCH  37  38
ENDBRANCH  36  37
ENDBRANCH   1  36
TORSDOF 21
