REMARK SMILES Cn1c(COc2ccc(C(=O)OCCOCCOCCOC(=O)c3ccc(-c4c5nc(c(-c6ccccc6)c6ccc([nH]6)c(-c6ccccc6)c6nc(c(-c7ccccc7)c7ccc4[nH]7)C=C6)C=C5)cc3)cc2)nc2ccccc21
REMARK SMILES IDX 16 1 15 2 14 3 13 4 12 5 10 6 11 7 9 8 6 9 7 10 73 11 8 12
REMARK SMILES IDX 72 13 5 14 4 15 3 16 1 17 2 18 80 19 74 20 75 21 79 22 76 23
REMARK SMILES IDX 78 24 77 25 17 26 18 27 19 28 20 29 21 30 22 31 23 32 24 33
REMARK SMILES IDX 25 34 71 35 26 36 70 37 27 38 28 39 29 40 64 41 30 42 69 43
REMARK SMILES IDX 63 44 65 45 31 46 68 47 62 48 61 49 32 51 54 52 39 53 53 54
REMARK SMILES IDX 40 55 43 56 52 57 66 58 41 59 42 60 51 62 67 63 44 64 33 65
REMARK SMILES IDX 34 66 38 67 35 68 37 69 36 70 55 71 56 72 60 73 57 74 59 75
REMARK SMILES IDX 58 76 45 77 46 78 50 79 47 80 49 81 48 82
REMARK H PARENT 65 50 43 61
REMARK Flexibility Score: inf
ROOT
ATOM      1  C   UNL     1      -2.747  -0.727  -7.942  1.00  0.00     0.188 C 
ENDROOT
BRANCH   1   2
ATOM      2  O   UNL     1      -2.706   0.255  -8.968  1.00  0.00    -0.376 OA
BRANCH   2   3
ATOM      3  C   UNL     1      -2.046   1.495  -8.752  1.00  0.00     0.202 C 
BRANCH   3   4
ATOM      4  C   UNL     1      -2.285   2.317  -7.476  1.00  0.00     0.261 C 
BRANCH   4   5
ATOM      5  O   UNL     1      -2.251   1.567  -6.257  1.00  0.00    -0.460 OA
BRANCH   5   6
ATOM      6  C   UNL     1      -3.432   1.448  -5.602  1.00  0.00     0.338 C 
ATOM      7  O   UNL     1      -4.495   1.962  -5.905  1.00  0.00    -0.246 OA
BRANCH   6   8
ATOM      8  C   UNL     1      -3.303   0.449  -4.515  1.00  0.00     0.060 A 
ATOM      9  C   UNL     1      -3.164  -1.424  -2.466  1.00  0.00     0.120 A 
ATOM     10  C   UNL     1      -4.350  -1.284  -3.178  1.00  0.00     0.047 A 
ATOM     11  C   UNL     1      -2.018  -0.729  -2.852  1.00  0.00     0.047 A 
ATOM     12  C   UNL     1      -4.420  -0.343  -4.205  1.00  0.00     0.019 A 
ATOM     13  C   UNL     1      -2.092   0.241  -3.847  1.00  0.00     0.019 A 
BRANCH   9  14
ATOM     14  O   UNL     1      -3.130  -2.274  -1.393  1.00  0.00    -0.486 OA
BRANCH  14  15
ATOM     15  C   UNL     1      -3.216  -1.548  -0.141  1.00  0.00     0.304 C 
BRANCH  15  16
ATOM     16  C   UNL     1      -1.864  -1.000   0.208  1.00  0.00     0.147 A 
ATOM     17  C   UNL     1      -2.414   1.479   0.116  1.00  0.00     0.151 C 
ATOM     18  N   UNL     1      -1.533   0.342   0.237  1.00  0.00    -0.328 N 
ATOM     19  C   UNL     1      -0.157   0.439   0.235  1.00  0.00     0.068 A 
ATOM     20  N   UNL     1      -0.780  -1.742   0.364  1.00  0.00    -0.229 NA
ATOM     21  C   UNL     1       0.279  -0.878   0.313  1.00  0.00     0.089 A 
ATOM     22  C   UNL     1       0.727   1.521   0.131  1.00  0.00     0.028 A 
ATOM     23  C   UNL     1       1.652  -1.159   0.274  1.00  0.00     0.030 A 
ATOM     24  C   UNL     1       2.094   1.222   0.079  1.00  0.00     0.002 A 
ATOM     25  C   UNL     1       2.552  -0.096   0.145  1.00  0.00     0.002 A 
ENDBRANCH  15  16
ENDBRANCH  14  15
ENDBRANCH   9  14
ENDBRANCH   6   8
ENDBRANCH   5   6
ENDBRANCH   4   5
ENDBRANCH   3   4
ENDBRANCH   2   3
ENDBRANCH   1   2
BRANCH   1  26
ATOM     26  C   UNL     1      -1.456  -1.147  -7.208  1.00  0.00     0.188 C 
BRANCH  26  27
ATOM     27  O   UNL     1      -0.322  -0.373  -7.510  1.00  0.00    -0.376 OA
BRANCH  27  28
ATOM     28  C   UNL     1       0.577  -0.808  -8.515  1.00  0.00     0.202 C 
BRANCH  28  29
ATOM     29  C   UNL     1       0.248  -1.813  -9.642  1.00  0.00     0.261 C 
BRANCH  29  30
ATOM     30  O   UNL     1      -1.016  -2.484  -9.619  1.00  0.00    -0.460 OA
BRANCH  30  31
ATOM     31  C   UNL     1      -1.016  -3.752  -9.138  1.00  0.00     0.338 C 
ATOM     32  O   UNL     1      -0.074  -4.370  -8.682  1.00  0.00    -0.246 OA
BRANCH  31  33
ATOM     33  C   UNL     1      -2.411  -4.233  -9.097  1.00  0.00     0.060 A 
ATOM     34  C   UNL     1      -3.025  -4.428  -7.853  1.00  0.00     0.016 A 
ATOM     35  C   UNL     1      -3.096  -4.519 -10.279  1.00  0.00     0.016 A 
ATOM     36  C   UNL     1      -4.327  -4.927  -7.787  1.00  0.00     0.010 A 
ATOM     37  C   UNL     1      -4.392  -5.039 -10.210  1.00  0.00     0.010 A 
ATOM     38  C   UNL     1      -5.004  -5.271  -8.964  1.00  0.00    -0.014 A 
BRANCH  38  39
ATOM     39  C   UNL     1      -6.281  -6.024  -8.896  1.00  0.00     0.031 A 
ATOM     40  C   UNL     1      -6.249  -7.516  -9.090  1.00  0.00     0.074 A 
ATOM     41  C   UNL     1      -7.450  -5.402  -8.661  1.00  0.00     0.049 A 
ATOM     42  N   UNL     1      -7.240  -8.369  -9.136  1.00  0.00    -0.248 NA
ATOM     43  C   UNL     1      -4.920  -8.124  -9.259  1.00  0.00     0.031 C 
ATOM     44  C   UNL     1      -7.614  -3.972  -8.408  1.00  0.00     0.029 A 
ATOM     45  N   UNL     1      -8.727  -5.904  -8.608  1.00  0.00    -0.354 N 
ATOM     46  C   UNL     1      -6.656  -9.612  -9.348  1.00  0.00     0.074 A 
ATOM     47  C   UNL     1      -5.229  -9.397  -9.453  1.00  0.00     0.031 C 
ATOM     48  C   UNL     1      -8.922  -3.710  -8.235  1.00  0.00     0.029 A 
ATOM     49  C   UNL     1      -9.687  -4.944  -8.404  1.00  0.00     0.049 A 
ATOM     50  H   UNL     1      -8.934  -6.862  -8.707  1.00  0.00     0.167 HD
ATOM     51  C   UNL     1      -7.251 -10.824  -9.444  1.00  0.00     0.031 A 
ATOM     52  C   UNL     1     -11.031  -5.046  -8.383  1.00  0.00     0.031 A 
ATOM     53  C   UNL     1      -8.671 -11.038  -9.361  1.00  0.00     0.049 A 
ATOM     54  C   UNL     1     -11.676  -6.393  -8.588  1.00  0.00     0.074 A 
ATOM     55  C   UNL     1      -9.369 -12.231  -9.435  1.00  0.00     0.029 A 
ATOM     56  N   UNL     1      -9.612 -10.034  -9.197  1.00  0.00    -0.354 N 
ATOM     57  N   UNL     1     -11.114  -7.565  -8.762  1.00  0.00    -0.248 NA
ATOM     58  C   UNL     1     -13.147  -6.430  -8.587  1.00  0.00     0.031 C 
ATOM     59  C   UNL     1     -10.736 -11.942  -9.381  1.00  0.00     0.029 A 
ATOM     60  C   UNL     1     -10.886 -10.577  -9.199  1.00  0.00     0.049 A 
ATOM     61  H   UNL     1      -9.406  -9.077  -9.093  1.00  0.00     0.167 HD
ATOM     62  C   UNL     1     -12.157  -8.479  -8.856  1.00  0.00     0.074 A 
ATOM     63  C   UNL     1     -13.386  -7.728  -8.705  1.00  0.00     0.031 C 
ATOM     64  C   UNL     1     -12.103  -9.820  -9.046  1.00  0.00     0.031 A 
BRANCH  51  65
ATOM     65  C   UNL     1      -6.363 -12.013  -9.692  1.00  0.00    -0.014 A 
ATOM     66  C   UNL     1      -5.490 -12.495  -8.704  1.00  0.00     0.009 A 
ATOM     67  C   UNL     1      -6.424 -12.679 -10.927  1.00  0.00     0.009 A 
ATOM     68  C   UNL     1      -4.671 -13.596  -8.960  1.00  0.00     0.001 A 
ATOM     69  C   UNL     1      -5.627 -13.799 -11.169  1.00  0.00     0.001 A 
ATOM     70  C   UNL     1      -4.744 -14.250 -10.190  1.00  0.00     0.000 A 
ENDBRANCH  51  65
BRANCH  52  71
ATOM     71  C   UNL     1     -11.872  -3.835  -8.184  1.00  0.00    -0.014 A 
ATOM     72  C   UNL     1     -12.643  -3.680  -7.022  1.00  0.00     0.009 A 
ATOM     73  C   UNL     1     -11.935  -2.841  -9.174  1.00  0.00     0.009 A 
ATOM     74  C   UNL     1     -13.481  -2.573  -6.869  1.00  0.00     0.001 A 
ATOM     75  C   UNL     1     -12.749  -1.719  -9.004  1.00  0.00     0.001 A 
ATOM     76  C   UNL     1     -13.530  -1.591  -7.857  1.00  0.00     0.000 A 
ENDBRANCH  52  71
BRANCH  64  77
ATOM     77  C   UNL     1     -13.406 -10.574  -9.055  1.00  0.00    -0.014 A 
ATOM     78  C   UNL     1     -14.318 -10.456 -10.115  1.00  0.00     0.009 A 
ATOM     79  C   UNL     1     -13.703 -11.454  -8.001  1.00  0.00     0.009 A 
ATOM     80  C   UNL     1     -15.516 -11.175 -10.101  1.00  0.00     0.001 A 
ATOM     81  C   UNL     1     -14.884 -12.197  -8.006  1.00  0.00     0.001 A 
ATOM     82  C   UNL     1     -15.795 -12.048  -9.050  1.00  0.00     0.000 A 
ENDBRANCH  64  77
ENDBRANCH  38  39
ENDBRANCH  31  33
ENDBRANCH  30  31
ENDBRANCH  29  30
ENDBRANCH  28  29
ENDBRANCH  27  28
ENDBRANCH  26  27
ENDBRANCH   1  26
TORSDOF 20
