REMARK SMILES Cc1c(Cl)cccc1NC(=O)C[C@](C)(C(=O)OCCOCCOCCOC(=O)c1ccc(-c2c3nc(c(-c4ccccc4)c4ccc([nH]4)c(-c4ccccc4)c4nc(c(-c5ccccc5)c5ccc2[nH]5)C=C4)C=C3)cc1)c1ccccc1
REMARK SMILES IDX 21 1 20 2 19 3 18 4 17 5 15 6 16 7 13 8 14 9 12 10 10 11
REMARK SMILES IDX 9 12 11 14 8 15 1 16 2 17 3 18 4 19 5 20 7 21 6 22 77 23
REMARK SMILES IDX 78 24 82 25 79 26 81 27 80 28 22 29 23 30 24 31 25 32 26 33
REMARK SMILES IDX 27 34 28 35 29 36 30 37 76 38 31 39 75 40 32 41 33 42 34 43
REMARK SMILES IDX 69 44 35 45 74 46 68 47 70 48 36 49 73 50 67 51 66 52 37 54
REMARK SMILES IDX 59 55 44 56 58 57 45 58 48 59 57 60 71 61 46 62 47 63 56 65
REMARK SMILES IDX 72 66 49 67 38 68 39 69 43 70 40 71 42 72 41 73 60 74 61 75
REMARK SMILES IDX 65 76 62 77 64 78 63 79 50 80 51 81 55 82 52 83 54 84 53 85
REMARK H PARENT 9 13 70 53 48 64
REMARK Flexibility Score: inf
ROOT
ATOM      1  C   UNL     1      -7.970  -0.883  -1.767  1.00  0.00     0.188 C 
ENDROOT
BRANCH   1   2
ATOM      2  O   UNL     1      -8.293  -2.268  -1.834  1.00  0.00    -0.376 OA
BRANCH   2   3
ATOM      3  C   UNL     1      -7.433  -3.189  -1.168  1.00  0.00     0.202 C 
BRANCH   3   4
ATOM      4  C   UNL     1      -5.936  -3.097  -1.479  1.00  0.00     0.261 C 
BRANCH   4   5
ATOM      5  O   UNL     1      -5.329  -1.828  -1.151  1.00  0.00    -0.463 OA
BRANCH   5   6
ATOM      6  C   UNL     1      -4.344  -1.416  -1.991  1.00  0.00     0.316 C 
ATOM      7  O   UNL     1      -3.956  -2.098  -2.937  1.00  0.00    -0.251 OA
BRANCH   6   8
ATOM      8  C   UNL     1      -3.737  -0.015  -1.675  1.00  0.00     0.099 C 
ATOM      9  C   UNL     1      -4.301   0.713  -0.422  1.00  0.00     0.029 C 
BRANCH   8  10
ATOM     10  C   UNL     1      -2.204  -0.230  -1.438  1.00  0.00     0.123 C 
BRANCH  10  11
ATOM     11  C   UNL     1      -1.663  -1.653  -1.296  1.00  0.00     0.225 C 
ATOM     12  N   UNL     1      -2.064  -2.561  -0.360  1.00  0.00    -0.326 N 
ATOM     13  H   UNL     1      -1.726  -3.466  -0.545  1.00  0.00     0.169 HD
ATOM     14  O   UNL     1      -0.806  -2.046  -2.099  1.00  0.00    -0.275 OA
BRANCH  12  15
ATOM     15  C   UNL     1      -2.848  -2.507   0.808  1.00  0.00     0.045 A 
ATOM     16  C   UNL     1      -3.395  -5.014   0.586  1.00  0.00     0.048 C 
ATOM     17  C   UNL     1      -3.535  -3.666   1.254  1.00  0.00    -0.009 A 
ATOM     18  C   UNL     1      -4.394  -3.553   2.374  1.00  0.00     0.046 A 
ATOM     19  Cl  UNL     1      -5.324  -4.894   2.957  1.00  0.00    -0.084 Cl
ATOM     20  C   UNL     1      -4.540  -2.346   3.054  1.00  0.00     0.021 A 
ATOM     21  C   UNL     1      -2.937  -1.335   1.563  1.00  0.00     0.026 A 
ATOM     22  C   UNL     1      -3.790  -1.245   2.666  1.00  0.00     0.004 A 
ENDBRANCH  12  15
ENDBRANCH  10  11
ENDBRANCH   8  10
BRANCH   8  23
ATOM     23  C   UNL     1      -4.016   0.988  -2.849  1.00  0.00    -0.030 A 
ATOM     24  C   UNL     1      -3.600   2.335  -2.761  1.00  0.00     0.005 A 
ATOM     25  C   UNL     1      -4.778   0.633  -3.979  1.00  0.00     0.005 A 
ATOM     26  C   UNL     1      -3.963   3.278  -3.731  1.00  0.00     0.000 A 
ATOM     27  C   UNL     1      -5.116   1.571  -4.960  1.00  0.00     0.000 A 
ATOM     28  C   UNL     1      -4.724   2.897  -4.830  1.00  0.00     0.000 A 
ENDBRANCH   8  23
ENDBRANCH   6   8
ENDBRANCH   5   6
ENDBRANCH   4   5
ENDBRANCH   3   4
ENDBRANCH   2   3
ENDBRANCH   1   2
BRANCH   1  29
ATOM     29  C   UNL     1      -7.589  -0.295  -0.399  1.00  0.00     0.188 C 
BRANCH  29  30
ATOM     30  O   UNL     1      -7.719  -1.189   0.681  1.00  0.00    -0.376 OA
BRANCH  30  31
ATOM     31  C   UNL     1      -8.682  -0.894   1.672  1.00  0.00     0.202 C 
BRANCH  31  32
ATOM     32  C   UNL     1     -10.138  -0.654   1.240  1.00  0.00     0.261 C 
BRANCH  32  33
ATOM     33  O   UNL     1     -10.339   0.122   0.047  1.00  0.00    -0.460 OA
BRANCH  33  34
ATOM     34  C   UNL     1     -10.200   1.466   0.122  1.00  0.00     0.338 C 
ATOM     35  O   UNL     1      -9.942   2.125   1.115  1.00  0.00    -0.246 OA
BRANCH  34  36
ATOM     36  C   UNL     1     -10.149   1.965  -1.276  1.00  0.00     0.060 A 
ATOM     37  C   UNL     1      -9.025   2.689  -1.707  1.00  0.00     0.016 A 
ATOM     38  C   UNL     1     -11.151   1.618  -2.187  1.00  0.00     0.016 A 
ATOM     39  C   UNL     1      -8.900   3.060  -3.049  1.00  0.00     0.010 A 
ATOM     40  C   UNL     1     -11.041   2.018  -3.520  1.00  0.00     0.010 A 
ATOM     41  C   UNL     1      -9.925   2.753  -3.955  1.00  0.00    -0.014 A 
BRANCH  41  42
ATOM     42  C   UNL     1      -9.953   3.362  -5.306  1.00  0.00     0.031 A 
ATOM     43  C   UNL     1     -10.679   4.666  -5.472  1.00  0.00     0.074 A 
ATOM     44  C   UNL     1      -9.397   2.759  -6.371  1.00  0.00     0.049 A 
ATOM     45  N   UNL     1     -10.961   5.328  -6.564  1.00  0.00    -0.248 NA
ATOM     46  C   UNL     1     -11.160   5.301  -4.235  1.00  0.00     0.031 C 
ATOM     47  C   UNL     1      -8.624   1.521  -6.339  1.00  0.00     0.029 A 
ATOM     48  N   UNL     1      -9.413   3.114  -7.698  1.00  0.00    -0.354 N 
ATOM     49  C   UNL     1     -11.666   6.449  -6.146  1.00  0.00     0.074 A 
ATOM     50  C   UNL     1     -11.781   6.370  -4.707  1.00  0.00     0.031 C 
ATOM     51  C   UNL     1      -8.232   1.221  -7.591  1.00  0.00     0.029 A 
ATOM     52  C   UNL     1      -8.774   2.215  -8.516  1.00  0.00     0.049 A 
ATOM     53  H   UNL     1      -9.842   3.935  -8.031  1.00  0.00     0.167 HD
ATOM     54  C   UNL     1     -12.182   7.452  -6.894  1.00  0.00     0.031 A 
ATOM     55  C   UNL     1      -8.669   2.184  -9.860  1.00  0.00     0.031 A 
ATOM     56  C   UNL     1     -12.110   7.509  -8.328  1.00  0.00     0.049 A 
ATOM     57  C   UNL     1      -9.356   3.247 -10.681  1.00  0.00     0.074 A 
ATOM     58  C   UNL     1     -12.613   8.477  -9.179  1.00  0.00     0.029 A 
ATOM     59  N   UNL     1     -11.509   6.546  -9.123  1.00  0.00    -0.354 N 
ATOM     60  N   UNL     1     -10.015   4.307 -10.279  1.00  0.00    -0.248 NA
ATOM     61  C   UNL     1      -9.301   3.094 -12.143  1.00  0.00     0.031 C 
ATOM     62  C   UNL     1     -12.366   8.069 -10.494  1.00  0.00     0.029 A 
ATOM     63  C   UNL     1     -11.658   6.878 -10.458  1.00  0.00     0.049 A 
ATOM     64  H   UNL     1     -11.045   5.745  -8.787  1.00  0.00     0.167 HD
ATOM     65  C   UNL     1     -10.435   4.956 -11.435  1.00  0.00     0.074 A 
ATOM     66  C   UNL     1      -9.944   4.179 -12.554  1.00  0.00     0.031 C 
ATOM     67  C   UNL     1     -11.165   6.092 -11.559  1.00  0.00     0.031 A 
BRANCH  54  68
ATOM     68  C   UNL     1     -12.924   8.531  -6.160  1.00  0.00    -0.014 A 
ATOM     69  C   UNL     1     -12.249   9.459  -5.351  1.00  0.00     0.009 A 
ATOM     70  C   UNL     1     -14.321   8.611  -6.268  1.00  0.00     0.009 A 
ATOM     71  C   UNL     1     -12.963  10.418  -4.630  1.00  0.00     0.001 A 
ATOM     72  C   UNL     1     -15.029   9.589  -5.569  1.00  0.00     0.001 A 
ATOM     73  C   UNL     1     -14.352  10.483  -4.741  1.00  0.00     0.000 A 
ENDBRANCH  54  68
BRANCH  55  74
ATOM     74  C   UNL     1      -7.913   1.094 -10.533  1.00  0.00    -0.014 A 
ATOM     75  C   UNL     1      -6.716   1.376 -11.210  1.00  0.00     0.009 A 
ATOM     76  C   UNL     1      -8.395  -0.225 -10.532  1.00  0.00     0.009 A 
ATOM     77  C   UNL     1      -6.027   0.364 -11.885  1.00  0.00     0.001 A 
ATOM     78  C   UNL     1      -7.689  -1.239 -11.184  1.00  0.00     0.001 A 
ATOM     79  C   UNL     1      -6.511  -0.943 -11.866  1.00  0.00     0.000 A 
ENDBRANCH  55  74
BRANCH  67  80
ATOM     80  C   UNL     1     -11.457   6.582 -12.950  1.00  0.00    -0.014 A 
ATOM     81  C   UNL     1     -12.405   5.943 -13.763  1.00  0.00     0.009 A 
ATOM     82  C   UNL     1     -10.824   7.742 -13.425  1.00  0.00     0.009 A 
ATOM     83  C   UNL     1     -12.697   6.444 -15.034  1.00  0.00     0.001 A 
ATOM     84  C   UNL     1     -11.138   8.256 -14.684  1.00  0.00     0.001 A 
ATOM     85  C   UNL     1     -12.069   7.603 -15.490  1.00  0.00     0.000 A 
ENDBRANCH  67  80
ENDBRANCH  41  42
ENDBRANCH  34  36
ENDBRANCH  33  34
ENDBRANCH  32  33
ENDBRANCH  31  32
ENDBRANCH  30  31
ENDBRANCH  29  30
ENDBRANCH   1  29
TORSDOF 21
