REMARK SMILES CC(C)c1cc2c(cc1Cl)C=C(C(=O)OCCOCCOCCOC(=O)c1ccc(-c3c4nc(c(-c5ccccc5)c5ccc([nH]5)c(-c5ccccc5)c5nc(c(-c6ccccc6)c6ccc3[nH]6)C=C5)C=C4)cc1)[C@@H](C(F)(F)F)O2
REMARK SMILES IDX 20 1 19 2 18 3 17 4 16 5 15 6 13 7 14 8 12 9 4 10 5 11 9 12
REMARK SMILES IDX 6 13 8 14 10 15 7 16 80 17 11 18 75 19 2 20 1 21 3 22 76 23
REMARK SMILES IDX 77 24 78 25 79 26 21 27 22 28 23 29 24 30 25 31 26 32 27 33
REMARK SMILES IDX 28 34 74 35 29 36 73 37 30 38 31 39 32 40 67 41 33 42 72 43
REMARK SMILES IDX 66 44 68 45 34 46 71 47 65 48 64 49 35 51 57 52 42 53 56 54
REMARK SMILES IDX 43 55 46 56 55 57 69 58 44 59 45 60 54 62 70 63 47 64 36 65
REMARK SMILES IDX 37 66 41 67 38 68 40 69 39 70 58 71 59 72 63 73 60 74 62 75
REMARK SMILES IDX 61 76 48 77 49 78 53 79 50 80 52 81 51 82
REMARK H PARENT 68 50 46 61
REMARK Flexibility Score: inf
ROOT
ATOM      1  C   UNL     1      -7.717  -1.870   3.542  1.00  0.00     0.188 C 
ENDROOT
BRANCH   1   2
ATOM      2  C   UNL     1      -8.557  -0.812   2.796  1.00  0.00     0.188 C 
BRANCH   2   3
ATOM      3  O   UNL     1      -9.924  -1.047   2.549  1.00  0.00    -0.376 OA
BRANCH   3   4
ATOM      4  C   UNL     1     -10.351  -2.053   1.647  1.00  0.00     0.202 C 
BRANCH   4   5
ATOM      5  C   UNL     1      -9.495  -2.637   0.511  1.00  0.00     0.261 C 
BRANCH   5   6
ATOM      6  O   UNL     1      -8.085  -2.699   0.742  1.00  0.00    -0.460 OA
BRANCH   6   7
ATOM      7  C   UNL     1      -7.341  -1.886  -0.048  1.00  0.00     0.338 C 
ATOM      8  O   UNL     1      -7.750  -1.144  -0.925  1.00  0.00    -0.246 OA
BRANCH   7   9
ATOM      9  C   UNL     1      -5.943  -1.890   0.419  1.00  0.00     0.087 C 
ATOM     10  C   UNL     1      -1.182  -0.564   1.362  1.00  0.00    -0.023 A 
ATOM     11  C   UNL     1      -1.889  -1.787   1.323  1.00  0.00     0.052 A 
ATOM     12  C   UNL     1      -1.933   0.623   1.283  1.00  0.00     0.045 A 
ATOM     13  C   UNL     1      -3.272  -1.829   1.124  1.00  0.00     0.128 A 
ATOM     14  C   UNL     1      -3.321   0.578   1.093  1.00  0.00     0.032 A 
ATOM     15  Cl  UNL     1      -1.237   2.201   1.357  1.00  0.00    -0.084 Cl
ATOM     16  C   UNL     1      -3.983  -0.645   0.970  1.00  0.00     0.019 A 
ATOM     17  O   UNL     1      -3.838  -3.070   1.062  1.00  0.00    -0.475 OA
ATOM     18  C   UNL     1      -5.383  -0.687   0.597  1.00  0.00     0.027 C 
ATOM     19  C   UNL     1      -5.234  -3.194   0.667  1.00  0.00     0.316 C 
BRANCH  10  20
ATOM     20  C   UNL     1       0.340  -0.642   1.393  1.00  0.00     0.014 C 
ATOM     21  C   UNL     1       0.959  -0.151   0.080  1.00  0.00     0.012 C 
ATOM     22  C   UNL     1       0.990   0.015   2.611  1.00  0.00     0.012 C 
ENDBRANCH  10  20
BRANCH  19  23
ATOM     23  C   UNL     1      -5.312  -4.137  -0.541  1.00  0.00     0.430 C 
ATOM     24  F   UNL     1      -4.638  -5.290  -0.311  1.00  0.00    -0.167 F 
ATOM     25  F   UNL     1      -6.590  -4.485  -0.824  1.00  0.00    -0.167 F 
ATOM     26  F   UNL     1      -4.790  -3.575  -1.655  1.00  0.00    -0.167 F 
ENDBRANCH  19  23
ENDBRANCH   7   9
ENDBRANCH   6   7
ENDBRANCH   5   6
ENDBRANCH   4   5
ENDBRANCH   3   4
ENDBRANCH   2   3
ENDBRANCH   1   2
BRANCH   1  27
ATOM     27  O   UNL     1      -8.272  -3.123   3.876  1.00  0.00    -0.376 OA
BRANCH  27  28
ATOM     28  C   UNL     1      -9.398  -3.190   4.737  1.00  0.00     0.202 C 
BRANCH  28  29
ATOM     29  C   UNL     1      -9.611  -2.243   5.931  1.00  0.00     0.261 C 
BRANCH  29  30
ATOM     30  O   UNL     1      -9.270  -0.867   5.722  1.00  0.00    -0.460 OA
BRANCH  30  31
ATOM     31  C   UNL     1      -8.191  -0.421   6.421  1.00  0.00     0.338 C 
ATOM     32  O   UNL     1      -7.491  -1.051   7.182  1.00  0.00    -0.246 OA
BRANCH  31  33
ATOM     33  C   UNL     1      -7.859   0.939   5.943  1.00  0.00     0.060 A 
ATOM     34  C   UNL     1      -8.767   1.986   6.091  1.00  0.00     0.016 A 
ATOM     35  C   UNL     1      -6.618   1.152   5.326  1.00  0.00     0.016 A 
ATOM     36  C   UNL     1      -8.424   3.259   5.627  1.00  0.00     0.010 A 
ATOM     37  C   UNL     1      -6.286   2.420   4.845  1.00  0.00     0.010 A 
ATOM     38  C   UNL     1      -7.181   3.487   5.006  1.00  0.00    -0.014 A 
BRANCH  38  39
ATOM     39  C   UNL     1      -6.764   4.869   4.667  1.00  0.00     0.031 A 
ATOM     40  C   UNL     1      -6.809   5.389   3.262  1.00  0.00     0.074 A 
ATOM     41  C   UNL     1      -6.332   5.664   5.666  1.00  0.00     0.049 A 
ATOM     42  N   UNL     1      -6.556   6.601   2.833  1.00  0.00    -0.248 NA
ATOM     43  C   UNL     1      -7.179   4.439   2.204  1.00  0.00     0.031 C 
ATOM     44  C   UNL     1      -6.227   5.258   7.068  1.00  0.00     0.029 A 
ATOM     45  N   UNL     1      -5.915   6.971   5.661  1.00  0.00    -0.354 N 
ATOM     46  C   UNL     1      -6.758   6.568   1.460  1.00  0.00     0.074 A 
ATOM     47  C   UNL     1      -7.107   5.204   1.120  1.00  0.00     0.031 C 
ATOM     48  C   UNL     1      -5.804   6.304   7.793  1.00  0.00     0.029 A 
ATOM     49  C   UNL     1      -5.576   7.442   6.906  1.00  0.00     0.049 A 
ATOM     50  H   UNL     1      -5.864   7.518   4.844  1.00  0.00     0.167 HD
ATOM     51  C   UNL     1      -6.676   7.590   0.575  1.00  0.00     0.031 A 
ATOM     52  C   UNL     1      -5.135   8.653   7.299  1.00  0.00     0.031 A 
ATOM     53  C   UNL     1      -6.309   8.941   0.921  1.00  0.00     0.049 A 
ATOM     54  C   UNL     1      -5.000   9.755   6.284  1.00  0.00     0.074 A 
ATOM     55  C   UNL     1      -6.247  10.048   0.091  1.00  0.00     0.029 A 
ATOM     56  N   UNL     1      -5.930   9.368   2.184  1.00  0.00    -0.354 N 
ATOM     57  N   UNL     1      -5.284   9.732   5.005  1.00  0.00    -0.248 NA
ATOM     58  C   UNL     1      -4.503  11.052   6.766  1.00  0.00     0.031 C 
ATOM     59  C   UNL     1      -5.753  11.123   0.831  1.00  0.00     0.029 A 
ATOM     60  C   UNL     1      -5.593  10.712   2.144  1.00  0.00     0.049 A 
ATOM     61  H   UNL     1      -5.904   8.802   2.989  1.00  0.00     0.167 HD
ATOM     62  C   UNL     1      -5.027  11.014   4.535  1.00  0.00     0.074 A 
ATOM     63  C   UNL     1      -4.580  11.795   5.668  1.00  0.00     0.031 C 
ATOM     64  C   UNL     1      -5.153  11.493   3.274  1.00  0.00     0.031 A 
BRANCH  51  65
ATOM     65  C   UNL     1      -7.002   7.318  -0.870  1.00  0.00    -0.014 A 
ATOM     66  C   UNL     1      -6.006   7.455  -1.851  1.00  0.00     0.009 A 
ATOM     67  C   UNL     1      -8.325   7.083  -1.277  1.00  0.00     0.009 A 
ATOM     68  C   UNL     1      -6.331   7.389  -3.208  1.00  0.00     0.001 A 
ATOM     69  C   UNL     1      -8.641   6.987  -2.634  1.00  0.00     0.001 A 
ATOM     70  C   UNL     1      -7.648   7.154  -3.598  1.00  0.00     0.000 A 
ENDBRANCH  51  65
BRANCH  52  71
ATOM     71  C   UNL     1      -4.828   8.884   8.736  1.00  0.00    -0.014 A 
ATOM     72  C   UNL     1      -3.760   8.212   9.354  1.00  0.00     0.009 A 
ATOM     73  C   UNL     1      -5.632   9.732   9.512  1.00  0.00     0.009 A 
ATOM     74  C   UNL     1      -3.522   8.362  10.722  1.00  0.00     0.001 A 
ATOM     75  C   UNL     1      -5.369   9.908  10.872  1.00  0.00     0.001 A 
ATOM     76  C   UNL     1      -4.322   9.214  11.478  1.00  0.00     0.000 A 
ENDBRANCH  52  71
BRANCH  64  77
ATOM     77  C   UNL     1      -4.822  12.940   3.020  1.00  0.00    -0.014 A 
ATOM     78  C   UNL     1      -5.838  13.826   2.622  1.00  0.00     0.009 A 
ATOM     79  C   UNL     1      -3.496  13.397   3.040  1.00  0.00     0.009 A 
ATOM     80  C   UNL     1      -5.531  15.127   2.219  1.00  0.00     0.001 A 
ATOM     81  C   UNL     1      -3.195  14.710   2.669  1.00  0.00     0.001 A 
ATOM     82  C   UNL     1      -4.209  15.568   2.244  1.00  0.00     0.000 A 
ENDBRANCH  64  77
ENDBRANCH  38  39
ENDBRANCH  31  33
ENDBRANCH  30  31
ENDBRANCH  29  30
ENDBRANCH  28  29
ENDBRANCH  27  28
ENDBRANCH   1  27
TORSDOF 19
