REMARK SMILES O=C(OCCOCCOCCOC(=O)c1ccc(-c2c3nc(c(-c4ccccc4)c4ccc([nH]4)c(-c4ccccc4)c4nc(c(-c5ccccc5)c5ccc2[nH]5)C=C4)C=C3)cc1)c1ccc(C#CC#C[C@H]2C[C@@H](O)C2)cc1
REMARK SMILES IDX 7 1 6 2 5 3 4 4 3 5 2 6 1 7 63 8 64 9 77 10 65 11 76 12
REMARK SMILES IDX 66 13 67 14 68 15 69 16 70 17 71 18 75 19 72 20 73 21 74 22
REMARK SMILES IDX 8 24 9 25 10 26 11 27 12 28 13 29 14 30 15 31 16 32 62 33
REMARK SMILES IDX 17 34 61 35 18 36 19 37 20 38 55 39 21 40 60 41 54 42 56 43
REMARK SMILES IDX 22 44 59 45 53 46 52 47 23 49 45 50 30 51 44 52 31 53 34 54
REMARK SMILES IDX 43 55 57 56 32 57 33 58 42 60 58 61 35 62 24 63 25 64 29 65
REMARK SMILES IDX 26 66 28 67 27 68 46 69 47 70 51 71 48 72 50 73 49 74 36 75
REMARK SMILES IDX 37 76 41 77 38 78 40 79 39 80
REMARK H PARENT 74 23 56 48 34 59
REMARK Flexibility Score: inf
ROOT
ATOM      1  C   UNL     1       2.623  -0.305  -1.621  1.00  0.00     0.188 C 
ENDROOT
BRANCH   1   2
ATOM      2  O   UNL     1       3.986   0.105  -1.567  1.00  0.00    -0.376 OA
BRANCH   2   3
ATOM      3  C   UNL     1       4.898  -0.670  -0.787  1.00  0.00     0.202 C 
BRANCH   3   4
ATOM      4  C   UNL     1       4.473  -1.207   0.587  1.00  0.00     0.261 C 
BRANCH   4   5
ATOM      5  O   UNL     1       3.131  -0.934   1.027  1.00  0.00    -0.460 OA
BRANCH   5   6
ATOM      6  C   UNL     1       2.507   0.204   1.388  1.00  0.00     0.338 C 
ATOM      7  O   UNL     1       1.286   0.192   1.534  1.00  0.00    -0.246 OA
BRANCH   6   8
ATOM      8  C   UNL     1       3.217   1.475   1.659  1.00  0.00     0.060 A 
ATOM      9  C   UNL     1       4.216   2.023   0.858  1.00  0.00     0.017 A 
ATOM     10  C   UNL     1       2.720   2.244   2.722  1.00  0.00     0.017 A 
ATOM     11  C   UNL     1       4.793   3.249   1.164  1.00  0.00     0.018 A 
ATOM     12  C   UNL     1       3.270   3.492   3.019  1.00  0.00     0.018 A 
ATOM     13  C   UNL     1       4.325   3.974   2.252  1.00  0.00     0.026 A 
BRANCH  13  14
ATOM     14  C   UNL     1       4.962   5.205   2.554  1.00  0.00    -0.053 C 
ATOM     15  C   UNL     1       5.613   6.188   2.743  1.00  0.00    -0.010 C 
BRANCH  15  16
ATOM     16  C   UNL     1       6.524   7.381   2.955  1.00  0.00    -0.015 C 
ATOM     17  C   UNL     1       7.250   8.305   3.165  1.00  0.00    -0.085 C 
BRANCH  17  18
ATOM     18  C   UNL     1       8.088   9.425   3.495  1.00  0.00     0.070 C 
ATOM     19  C   UNL     1       7.625  10.794   2.944  1.00  0.00     0.048 C 
ATOM     20  C   UNL     1       7.841  10.007   4.909  1.00  0.00     0.048 C 
ATOM     21  C   UNL     1       8.083  11.403   4.291  1.00  0.00     0.116 C 
BRANCH  21  22
ATOM     22  O   UNL     1       7.293  12.482   4.814  1.00  0.00    -0.393 OA
ATOM     23  H   UNL     1       6.357  12.226   4.817  1.00  0.00     0.210 HD
ENDBRANCH  21  22
ENDBRANCH  17  18
ENDBRANCH  15  16
ENDBRANCH  13  14
ENDBRANCH   6   8
ENDBRANCH   5   6
ENDBRANCH   4   5
ENDBRANCH   3   4
ENDBRANCH   2   3
ENDBRANCH   1   2
BRANCH   1  24
ATOM     24  C   UNL     1       1.962  -0.216  -2.996  1.00  0.00     0.188 C 
BRANCH  24  25
ATOM     25  O   UNL     1       2.581  -0.914  -4.064  1.00  0.00    -0.376 OA
BRANCH  25  26
ATOM     26  C   UNL     1       3.970  -0.686  -4.254  1.00  0.00     0.202 C 
BRANCH  26  27
ATOM     27  C   UNL     1       4.465   0.742  -4.569  1.00  0.00     0.261 C 
BRANCH  27  28
ATOM     28  O   UNL     1       3.965   1.818  -3.745  1.00  0.00    -0.460 OA
BRANCH  28  29
ATOM     29  C   UNL     1       3.048   2.620  -4.340  1.00  0.00     0.338 C 
ATOM     30  O   UNL     1       2.577   2.493  -5.459  1.00  0.00    -0.246 OA
BRANCH  29  31
ATOM     31  C   UNL     1       2.627   3.729  -3.459  1.00  0.00     0.060 A 
ATOM     32  C   UNL     1       1.444   3.627  -2.716  1.00  0.00     0.016 A 
ATOM     33  C   UNL     1       3.269   4.962  -3.579  1.00  0.00     0.016 A 
ATOM     34  C   UNL     1       0.875   4.772  -2.145  1.00  0.00     0.010 A 
ATOM     35  C   UNL     1       2.708   6.102  -2.988  1.00  0.00     0.010 A 
ATOM     36  C   UNL     1       1.483   6.027  -2.302  1.00  0.00    -0.014 A 
BRANCH  36  37
ATOM     37  C   UNL     1       0.814   7.265  -1.812  1.00  0.00     0.031 A 
ATOM     38  C   UNL     1       0.253   8.271  -2.789  1.00  0.00     0.074 A 
ATOM     39  C   UNL     1       0.705   7.497  -0.489  1.00  0.00     0.049 A 
ATOM     40  N   UNL     1      -0.311   9.432  -2.554  1.00  0.00    -0.248 NA
ATOM     41  C   UNL     1       0.342   7.931  -4.218  1.00  0.00     0.031 C 
ATOM     42  C   UNL     1       1.176   6.602   0.567  1.00  0.00     0.029 A 
ATOM     43  N   UNL     1       0.169   8.565   0.190  1.00  0.00    -0.354 N 
ATOM     44  C   UNL     1      -0.635   9.961  -3.799  1.00  0.00     0.074 A 
ATOM     45  C   UNL     1      -0.172   9.012  -4.789  1.00  0.00     0.031 C 
ATOM     46  C   UNL     1       0.905   7.154   1.760  1.00  0.00     0.029 A 
ATOM     47  C   UNL     1       0.289   8.463   1.556  1.00  0.00     0.049 A 
ATOM     48  H   UNL     1      -0.260   9.329  -0.258  1.00  0.00     0.167 HD
ATOM     49  C   UNL     1      -1.268  11.125  -4.094  1.00  0.00     0.031 A 
ATOM     50  C   UNL     1      -0.034   9.333   2.532  1.00  0.00     0.031 A 
ATOM     51  C   UNL     1      -1.718  12.081  -3.113  1.00  0.00     0.049 A 
ATOM     52  C   UNL     1      -0.657  10.657   2.169  1.00  0.00     0.074 A 
ATOM     53  C   UNL     1      -2.384  13.278  -3.319  1.00  0.00     0.029 A 
ATOM     54  N   UNL     1      -1.544  11.955  -1.744  1.00  0.00    -0.354 N 
ATOM     55  N   UNL     1      -0.989  11.124   0.990  1.00  0.00    -0.248 NA
ATOM     56  C   UNL     1      -0.960  11.570   3.281  1.00  0.00     0.031 C 
ATOM     57  C   UNL     1      -2.543  13.912  -2.083  1.00  0.00     0.029 A 
ATOM     58  C   UNL     1      -2.056  13.069  -1.098  1.00  0.00     0.049 A 
ATOM     59  H   UNL     1      -1.119  11.187  -1.297  1.00  0.00     0.167 HD
ATOM     60  C   UNL     1      -1.569  12.366   1.222  1.00  0.00     0.074 A 
ATOM     61  C   UNL     1      -1.573  12.564   2.656  1.00  0.00     0.031 C 
ATOM     62  C   UNL     1      -2.054  13.264   0.329  1.00  0.00     0.031 A 
BRANCH  49  63
ATOM     63  C   UNL     1      -1.498  11.455  -5.547  1.00  0.00    -0.014 A 
ATOM     64  C   UNL     1      -2.418  10.734  -6.325  1.00  0.00     0.009 A 
ATOM     65  C   UNL     1      -0.845  12.557  -6.125  1.00  0.00     0.009 A 
ATOM     66  C   UNL     1      -2.657  11.092  -7.655  1.00  0.00     0.001 A 
ATOM     67  C   UNL     1      -1.110  12.933  -7.444  1.00  0.00     0.001 A 
ATOM     68  C   UNL     1      -2.010  12.195  -8.210  1.00  0.00     0.000 A 
ENDBRANCH  49  63
BRANCH  50  69
ATOM     69  C   UNL     1       0.255   9.008   3.957  1.00  0.00    -0.014 A 
ATOM     70  C   UNL     1      -0.785   8.879   4.892  1.00  0.00     0.009 A 
ATOM     71  C   UNL     1       1.581   8.883   4.402  1.00  0.00     0.009 A 
ATOM     72  C   UNL     1      -0.501   8.683   6.246  1.00  0.00     0.001 A 
ATOM     73  C   UNL     1       1.860   8.643   5.749  1.00  0.00     0.001 A 
ATOM     74  C   UNL     1       0.820   8.562   6.672  1.00  0.00     0.000 A 
ENDBRANCH  50  69
BRANCH  62  75
ATOM     75  C   UNL     1      -2.670  14.524   0.882  1.00  0.00    -0.014 A 
ATOM     76  C   UNL     1      -1.901  15.492   1.549  1.00  0.00     0.009 A 
ATOM     77  C   UNL     1      -4.048  14.749   0.724  1.00  0.00     0.009 A 
ATOM     78  C   UNL     1      -2.507  16.626   2.095  1.00  0.00     0.001 A 
ATOM     79  C   UNL     1      -4.644  15.905   1.233  1.00  0.00     0.001 A 
ATOM     80  C   UNL     1      -3.876  16.833   1.933  1.00  0.00     0.000 A 
ENDBRANCH  62  75
ENDBRANCH  36  37
ENDBRANCH  29  31
ENDBRANCH  28  29
ENDBRANCH  27  28
ENDBRANCH  26  27
ENDBRANCH  25  26
ENDBRANCH  24  25
ENDBRANCH   1  24
TORSDOF 21
