REMARK SMILES CC[C@H]1CC[C@](C[C@H](O)COC)(C(=O)OCCOCCOCCOC(=O)c2ccc(-c3c4nc(c(-c5ccccc5)c5ccc([nH]5)c(-c5ccccc5)c5nc(c(-c6ccccc6)c6ccc3[nH]6)C=C5)C=C4)cc2)CC1
REMARK SMILES IDX 19 1 18 2 17 3 16 4 15 5 13 6 14 7 6 8 3 9 76 10 4 11 75 12
REMARK SMILES IDX 5 13 2 14 1 15 7 16 8 17 10 18 11 19 12 20 9 21 20 23 21 24
REMARK SMILES IDX 22 25 23 26 24 27 25 28 26 29 27 30 28 31 74 32 29 33 73 34
REMARK SMILES IDX 30 35 31 36 32 37 67 38 33 39 72 40 66 41 68 42 34 43 71 44
REMARK SMILES IDX 65 45 64 46 35 48 57 49 42 50 56 51 43 52 46 53 55 54 69 55
REMARK SMILES IDX 44 56 45 57 54 59 70 60 47 61 36 62 37 63 41 64 38 65 40 66
REMARK SMILES IDX 39 67 58 68 59 69 63 70 60 71 62 72 61 73 48 74 49 75 53 76
REMARK SMILES IDX 50 77 52 78 51 79
REMARK H PARENT 9 22 68 47 46 58
REMARK Flexibility Score: inf
ROOT
ATOM      1  C   UNL     1       0.307   6.281  -3.419  1.00  0.00     0.188 C 
ENDROOT
BRANCH   1   2
ATOM      2  O   UNL     1      -0.008   4.964  -3.861  1.00  0.00    -0.376 OA
BRANCH   2   3
ATOM      3  C   UNL     1       0.364   3.866  -3.039  1.00  0.00     0.202 C 
BRANCH   3   4
ATOM      4  C   UNL     1       1.863   3.671  -2.818  1.00  0.00     0.261 C 
BRANCH   4   5
ATOM      5  O   UNL     1       2.520   4.790  -2.178  1.00  0.00    -0.463 OA
BRANCH   5   6
ATOM      6  C   UNL     1       3.579   5.327  -2.828  1.00  0.00     0.312 C 
ATOM      7  O   UNL     1       3.952   4.916  -3.925  1.00  0.00    -0.252 OA
BRANCH   6   8
ATOM      8  C   UNL     1       4.383   6.417  -2.056  1.00  0.00     0.071 C 
ATOM      9  C   UNL     1       4.923   9.420  -1.609  1.00  0.00    -0.011 C 
ATOM     10  C   UNL     1       5.542   8.656  -2.786  1.00  0.00     0.005 C 
ATOM     11  C   UNL     1       4.592   8.446  -0.472  1.00  0.00     0.005 C 
ATOM     12  C   UNL     1       4.752   7.421  -3.197  1.00  0.00     0.019 C 
ATOM     13  C   UNL     1       3.698   7.283  -0.970  1.00  0.00     0.019 C 
BRANCH   9  14
ATOM     14  C   UNL     1       5.886  10.559  -1.211  1.00  0.00    -0.000 C 
ATOM     15  C   UNL     1       5.447  11.390  -0.017  1.00  0.00     0.004 C 
ENDBRANCH   9  14
BRANCH   8  16
ATOM     16  C   UNL     1       5.625   5.663  -1.474  1.00  0.00     0.053 C 
BRANCH  16  17
ATOM     17  C   UNL     1       5.394   4.729  -0.246  1.00  0.00     0.141 C 
BRANCH  17  18
ATOM     18  C   UNL     1       5.803   5.377   1.093  1.00  0.00     0.191 C 
BRANCH  18  19
ATOM     19  O   UNL     1       5.599   4.524   2.228  1.00  0.00    -0.382 OA
ATOM     20  C   UNL     1       4.246   4.503   2.681  1.00  0.00     0.195 C 
ENDBRANCH  18  19
ENDBRANCH  17  18
BRANCH  17  21
ATOM     21  O   UNL     1       4.042   4.301  -0.164  1.00  0.00    -0.391 OA
ATOM     22  H   UNL     1       3.468   5.069  -0.015  1.00  0.00     0.211 HD
ENDBRANCH  17  21
ENDBRANCH  16  17
ENDBRANCH   8  16
ENDBRANCH   6   8
ENDBRANCH   5   6
ENDBRANCH   4   5
ENDBRANCH   3   4
ENDBRANCH   2   3
ENDBRANCH   1   2
BRANCH   1  23
ATOM     23  C   UNL     1       0.303   6.584  -1.915  1.00  0.00     0.188 C 
BRANCH  23  24
ATOM     24  O   UNL     1      -0.639   5.806  -1.198  1.00  0.00    -0.376 OA
BRANCH  24  25
ATOM     25  C   UNL     1      -1.335   6.514  -0.187  1.00  0.00     0.202 C 
BRANCH  25  26
ATOM     26  C   UNL     1      -2.615   7.086  -0.797  1.00  0.00     0.261 C 
BRANCH  26  27
ATOM     27  O   UNL     1      -2.372   7.983  -1.902  1.00  0.00    -0.460 OA
BRANCH  27  28
ATOM     28  C   UNL     1      -1.754   9.149  -1.607  1.00  0.00     0.338 C 
ATOM     29  O   UNL     1      -1.468   9.561  -0.495  1.00  0.00    -0.246 OA
BRANCH  28  30
ATOM     30  C   UNL     1      -1.261   9.752  -2.869  1.00  0.00     0.060 A 
ATOM     31  C   UNL     1       0.060  10.223  -2.921  1.00  0.00     0.016 A 
ATOM     32  C   UNL     1      -2.080   9.840  -3.997  1.00  0.00     0.016 A 
ATOM     33  C   UNL     1       0.550  10.818  -4.087  1.00  0.00     0.010 A 
ATOM     34  C   UNL     1      -1.594  10.451  -5.157  1.00  0.00     0.010 A 
ATOM     35  C   UNL     1      -0.288  10.974  -5.199  1.00  0.00    -0.014 A 
BRANCH  35  36
ATOM     36  C   UNL     1       0.107  11.859  -6.324  1.00  0.00     0.031 A 
ATOM     37  C   UNL     1      -0.386  13.283  -6.314  1.00  0.00     0.074 A 
ATOM     38  C   UNL     1       0.871  11.427  -7.344  1.00  0.00     0.049 A 
ATOM     39  N   UNL     1      -0.243  14.220  -7.217  1.00  0.00    -0.248 NA
ATOM     40  C   UNL     1      -1.146  13.703  -5.125  1.00  0.00     0.031 C 
ATOM     41  C   UNL     1       1.461  10.096  -7.464  1.00  0.00     0.029 A 
ATOM     42  N   UNL     1       1.271  12.077  -8.488  1.00  0.00    -0.354 N 
ATOM     43  C   UNL     1      -0.910  15.330  -6.714  1.00  0.00     0.074 A 
ATOM     44  C   UNL     1      -1.470  14.948  -5.436  1.00  0.00     0.031 C 
ATOM     45  C   UNL     1       2.141  10.025  -8.624  1.00  0.00     0.029 A 
ATOM     46  C   UNL     1       2.002  11.290  -9.345  1.00  0.00     0.049 A 
ATOM     47  H   UNL     1       1.053  13.019  -8.675  1.00  0.00     0.167 HD
ATOM     48  C   UNL     1      -1.047  16.559  -7.263  1.00  0.00     0.031 A 
ATOM     49  C   UNL     1       2.479  11.553 -10.578  1.00  0.00     0.031 A 
ATOM     50  C   UNL     1      -0.502  16.950  -8.534  1.00  0.00     0.049 A 
ATOM     51  C   UNL     1       2.232  12.904 -11.206  1.00  0.00     0.074 A 
ATOM     52  C   UNL     1      -0.567  18.187  -9.153  1.00  0.00     0.029 A 
ATOM     53  N   UNL     1       0.195  16.110  -9.386  1.00  0.00    -0.354 N 
ATOM     54  N   UNL     1       1.637  13.958 -10.702  1.00  0.00    -0.248 NA
ATOM     55  C   UNL     1       2.728  13.097 -12.579  1.00  0.00     0.031 C 
ATOM     56  C   UNL     1       0.037  18.078 -10.409  1.00  0.00     0.029 A 
ATOM     57  C   UNL     1       0.534  16.792 -10.542  1.00  0.00     0.049 A 
ATOM     58  H   UNL     1       0.416  15.170  -9.197  1.00  0.00     0.167 HD
ATOM     59  C   UNL     1       1.723  14.946 -11.678  1.00  0.00     0.074 A 
ATOM     60  C   UNL     1       2.435  14.371 -12.799  1.00  0.00     0.031 C 
ATOM     61  C   UNL     1       1.256  16.218 -11.647  1.00  0.00     0.031 A 
BRANCH  48  62
ATOM     62  C   UNL     1      -1.861  17.569  -6.505  1.00  0.00    -0.014 A 
ATOM     63  C   UNL     1      -1.374  18.175  -5.338  1.00  0.00     0.009 A 
ATOM     64  C   UNL     1      -3.119  17.951  -6.998  1.00  0.00     0.009 A 
ATOM     65  C   UNL     1      -2.143  19.125  -4.664  1.00  0.00     0.001 A 
ATOM     66  C   UNL     1      -3.874  18.921  -6.338  1.00  0.00     0.001 A 
ATOM     67  C   UNL     1      -3.389  19.502  -5.167  1.00  0.00     0.000 A 
ENDBRANCH  48  62
BRANCH  49  68
ATOM     68  C   UNL     1       3.225  10.514 -11.340  1.00  0.00    -0.014 A 
ATOM     69  C   UNL     1       4.586  10.686 -11.637  1.00  0.00     0.009 A 
ATOM     70  C   UNL     1       2.562   9.382 -11.838  1.00  0.00     0.009 A 
ATOM     71  C   UNL     1       5.258   9.765 -12.445  1.00  0.00     0.001 A 
ATOM     72  C   UNL     1       3.244   8.446 -12.619  1.00  0.00     0.001 A 
ATOM     73  C   UNL     1       4.587   8.645 -12.933  1.00  0.00     0.000 A 
ENDBRANCH  49  68
BRANCH  61  74
ATOM     74  C   UNL     1       1.545  17.099 -12.832  1.00  0.00    -0.014 A 
ATOM     75  C   UNL     1       0.898  16.912 -14.062  1.00  0.00     0.009 A 
ATOM     76  C   UNL     1       2.446  18.168 -12.694  1.00  0.00     0.009 A 
ATOM     77  C   UNL     1       1.172  17.758 -15.140  1.00  0.00     0.001 A 
ATOM     78  C   UNL     1       2.694  19.030 -13.763  1.00  0.00     0.001 A 
ATOM     79  C   UNL     1       2.064  18.819 -14.988  1.00  0.00     0.000 A 
ENDBRANCH  61  74
ENDBRANCH  35  36
ENDBRANCH  28  30
ENDBRANCH  27  28
ENDBRANCH  26  27
ENDBRANCH  25  26
ENDBRANCH  24  25
ENDBRANCH  23  24
ENDBRANCH   1  23
TORSDOF 23
