REMARK SMILES C[C@@H](C(=O)OCCOCCOCCOC(=O)c1ccc(-c2c3nc(c(-c4ccccc4)c4ccc([nH]4)c(-c4ccccc4)c4nc(c(-c5ccccc5)c5ccc2[nH]5)C=C4)C=C3)cc1)c1ccc(-c2cccc(OC(=O)Nc3ccccc3)c2)c(F)c1
REMARK SMILES IDX 8 1 7 2 6 3 5 4 3 5 4 6 2 7 1 8 65 9 66 10 87 11 67 12 85 13
REMARK SMILES IDX 68 14 86 15 69 16 70 17 84 18 71 19 73 20 72 21 74 22 75 23
REMARK SMILES IDX 76 24 77 25 78 27 79 28 83 29 80 30 82 31 81 32 9 33 10 34
REMARK SMILES IDX 11 35 12 36 13 37 14 38 15 39 16 40 17 41 18 42 64 43 19 44
REMARK SMILES IDX 63 45 20 46 21 47 22 48 57 49 23 50 62 51 56 52 58 53 24 54
REMARK SMILES IDX 61 55 55 56 54 57 25 59 47 60 32 61 46 62 33 63 36 64 45 65
REMARK SMILES IDX 59 66 34 67 35 68 44 70 60 71 37 72 26 73 27 74 31 75 28 76
REMARK SMILES IDX 30 77 29 78 48 79 49 80 53 81 50 82 52 83 51 84 38 85 39 86
REMARK SMILES IDX 43 87 40 88 42 89 41 90
REMARK H PARENT 77 26 58 58 36 69
REMARK Flexibility Score: inf
ROOT
ATOM      1  O   UNL     1       1.150   4.619  -1.730  1.00  0.00    -0.376 OA
ENDROOT
BRANCH   1   2
ATOM      2  C   UNL     1       2.417   4.674  -1.076  1.00  0.00     0.202 C 
BRANCH   2   3
ATOM      3  C   UNL     1       2.487   4.212   0.387  1.00  0.00     0.261 C 
BRANCH   3   4
ATOM      4  O   UNL     1       2.053   2.850   0.582  1.00  0.00    -0.463 OA
BRANCH   4   5
ATOM      5  C   UNL     1       1.359   2.596   1.723  1.00  0.00     0.313 C 
ATOM      6  O   UNL     1       1.168   3.430   2.603  1.00  0.00    -0.252 OA
BRANCH   5   7
ATOM      7  C   UNL     1       0.756   1.185   1.781  1.00  0.00     0.126 C 
ATOM      8  C   UNL     1       1.612   0.108   1.092  1.00  0.00     0.025 C 
BRANCH   7   9
ATOM      9  C   UNL     1      -0.743   1.102   1.452  1.00  0.00    -0.031 A 
ATOM     10  C   UNL     1      -1.575   2.236   1.423  1.00  0.00     0.005 A 
ATOM     11  C   UNL     1      -1.368  -0.149   1.307  1.00  0.00     0.044 A 
ATOM     12  C   UNL     1      -2.970   2.123   1.298  1.00  0.00     0.012 A 
ATOM     13  C   UNL     1      -2.757  -0.255   1.193  1.00  0.00     0.131 A 
ATOM     14  C   UNL     1      -3.587   0.869   1.223  1.00  0.00     0.018 A 
ATOM     15  F   UNL     1      -3.292  -1.483   1.098  1.00  0.00    -0.206 F 
BRANCH  14  16
ATOM     16  C   UNL     1      -5.046   0.735   1.299  1.00  0.00    -0.012 A 
ATOM     17  C   UNL     1      -5.878   1.056   0.221  1.00  0.00     0.009 A 
ATOM     18  C   UNL     1      -5.641   0.277   2.487  1.00  0.00     0.056 A 
ATOM     19  C   UNL     1      -7.268   0.941   0.322  1.00  0.00     0.004 A 
ATOM     20  C   UNL     1      -7.024   0.141   2.575  1.00  0.00     0.133 A 
ATOM     21  C   UNL     1      -7.844   0.493   1.505  1.00  0.00     0.047 A 
BRANCH  20  22
ATOM     22  O   UNL     1      -7.708  -0.338   3.715  1.00  0.00    -0.410 OA
BRANCH  22  23
ATOM     23  C   UNL     1      -7.148  -0.974   4.821  1.00  0.00     0.417 C 
ATOM     24  O   UNL     1      -5.952  -1.195   4.990  1.00  0.00    -0.224 OA
ATOM     25  N   UNL     1      -8.049  -1.272   5.810  1.00  0.00    -0.291 N 
ATOM     26  H   UNL     1      -7.652  -1.529   6.674  1.00  0.00     0.173 HD
BRANCH  25  27
ATOM     27  C   UNL     1      -9.452  -1.266   5.776  1.00  0.00     0.044 A 
ATOM     28  C   UNL     1     -10.122  -1.177   7.000  1.00  0.00     0.026 A 
ATOM     29  C   UNL     1     -10.198  -1.390   4.601  1.00  0.00     0.026 A 
ATOM     30  C   UNL     1     -11.518  -1.157   7.044  1.00  0.00     0.002 A 
ATOM     31  C   UNL     1     -11.595  -1.389   4.646  1.00  0.00     0.002 A 
ATOM     32  C   UNL     1     -12.254  -1.261   5.866  1.00  0.00     0.000 A 
ENDBRANCH  25  27
ENDBRANCH  22  23
ENDBRANCH  20  22
ENDBRANCH  14  16
ENDBRANCH   7   9
ENDBRANCH   5   7
ENDBRANCH   4   5
ENDBRANCH   3   4
ENDBRANCH   2   3
ENDBRANCH   1   2
BRANCH   1  33
ATOM     33  C   UNL     1       0.419   3.396  -1.704  1.00  0.00     0.188 C 
BRANCH  33  34
ATOM     34  C   UNL     1       1.161   2.081  -1.998  1.00  0.00     0.188 C 
BRANCH  34  35
ATOM     35  O   UNL     1       2.504   2.256  -2.399  1.00  0.00    -0.376 OA
BRANCH  35  36
ATOM     36  C   UNL     1       2.865   1.793  -3.688  1.00  0.00     0.202 C 
BRANCH  36  37
ATOM     37  C   UNL     1       2.170   2.470  -4.878  1.00  0.00     0.261 C 
BRANCH  37  38
ATOM     38  O   UNL     1       0.733   2.477  -4.845  1.00  0.00    -0.460 OA
BRANCH  38  39
ATOM     39  C   UNL     1       0.102   1.290  -4.991  1.00  0.00     0.338 C 
ATOM     40  O   UNL     1       0.612   0.198  -5.160  1.00  0.00    -0.246 OA
BRANCH  39  41
ATOM     41  C   UNL     1      -1.329   1.522  -4.693  1.00  0.00     0.060 A 
ATOM     42  C   UNL     1      -1.939   0.813  -3.649  1.00  0.00     0.016 A 
ATOM     43  C   UNL     1      -2.056   2.460  -5.431  1.00  0.00     0.016 A 
ATOM     44  C   UNL     1      -3.287   1.031  -3.353  1.00  0.00     0.010 A 
ATOM     45  C   UNL     1      -3.409   2.660  -5.149  1.00  0.00     0.010 A 
ATOM     46  C   UNL     1      -4.036   1.930  -4.126  1.00  0.00    -0.014 A 
BRANCH  46  47
ATOM     47  C   UNL     1      -5.513   1.971  -4.002  1.00  0.00     0.031 A 
ATOM     48  C   UNL     1      -6.323   1.040  -4.862  1.00  0.00     0.074 A 
ATOM     49  C   UNL     1      -6.124   2.808  -3.145  1.00  0.00     0.049 A 
ATOM     50  N   UNL     1      -7.619   0.873  -4.915  1.00  0.00    -0.248 NA
ATOM     51  C   UNL     1      -5.565   0.195  -5.800  1.00  0.00     0.031 C 
ATOM     52  C   UNL     1      -5.445   3.721  -2.227  1.00  0.00     0.029 A 
ATOM     53  N   UNL     1      -7.458   2.980  -2.868  1.00  0.00    -0.354 N 
ATOM     54  C   UNL     1      -7.834  -0.056  -5.926  1.00  0.00     0.074 A 
ATOM     55  C   UNL     1      -6.537  -0.430  -6.445  1.00  0.00     0.031 C 
ATOM     56  C   UNL     1      -6.364   4.293  -1.427  1.00  0.00     0.029 A 
ATOM     57  C   UNL     1      -7.696   3.823  -1.808  1.00  0.00     0.049 A 
ATOM     58  H   UNL     1      -8.176   2.542  -3.380  1.00  0.00     0.167 HD
ATOM     59  C   UNL     1      -9.008  -0.534  -6.400  1.00  0.00     0.031 A 
ATOM     60  C   UNL     1      -8.854   4.135  -1.192  1.00  0.00     0.031 A 
ATOM     61  C   UNL     1     -10.298  -0.159  -5.889  1.00  0.00     0.049 A 
ATOM     62  C   UNL     1     -10.147   3.560  -1.716  1.00  0.00     0.074 A 
ATOM     63  C   UNL     1     -11.548  -0.574  -6.315  1.00  0.00     0.029 A 
ATOM     64  N   UNL     1     -10.502   0.720  -4.838  1.00  0.00    -0.354 N 
ATOM     65  N   UNL     1     -10.338   2.666  -2.656  1.00  0.00    -0.248 NA
ATOM     66  C   UNL     1     -11.387   4.048  -1.092  1.00  0.00     0.031 C 
ATOM     67  C   UNL     1     -12.511   0.099  -5.557  1.00  0.00     0.029 A 
ATOM     68  C   UNL     1     -11.859   0.882  -4.618  1.00  0.00     0.049 A 
ATOM     69  H   UNL     1      -9.789   1.163  -4.325  1.00  0.00     0.167 HD
ATOM     70  C   UNL     1     -11.715   2.487  -2.736  1.00  0.00     0.074 A 
ATOM     71  C   UNL     1     -12.307   3.323  -1.713  1.00  0.00     0.031 C 
ATOM     72  C   UNL     1     -12.430   1.717  -3.594  1.00  0.00     0.031 A 
BRANCH  59  73
ATOM     73  C   UNL     1      -8.950  -1.450  -7.589  1.00  0.00    -0.014 A 
ATOM     74  C   UNL     1      -8.494  -2.773  -7.484  1.00  0.00     0.009 A 
ATOM     75  C   UNL     1      -9.379  -0.976  -8.839  1.00  0.00     0.009 A 
ATOM     76  C   UNL     1      -8.440  -3.591  -8.615  1.00  0.00     0.001 A 
ATOM     77  C   UNL     1      -9.351  -1.805  -9.961  1.00  0.00     0.001 A 
ATOM     78  C   UNL     1      -8.873  -3.109  -9.850  1.00  0.00     0.000 A 
ENDBRANCH  59  73
BRANCH  60  79
ATOM     79  C   UNL     1      -8.861   4.987   0.030  1.00  0.00    -0.014 A 
ATOM     80  C   UNL     1      -9.277   4.444   1.258  1.00  0.00     0.009 A 
ATOM     81  C   UNL     1      -8.488   6.338  -0.016  1.00  0.00     0.009 A 
ATOM     82  C   UNL     1      -9.347   5.241   2.404  1.00  0.00     0.001 A 
ATOM     83  C   UNL     1      -8.523   7.124   1.139  1.00  0.00     0.001 A 
ATOM     84  C   UNL     1      -8.963   6.579   2.345  1.00  0.00     0.000 A 
ENDBRANCH  60  79
BRANCH  72  85
ATOM     85  C   UNL     1     -13.930   1.741  -3.468  1.00  0.00    -0.014 A 
ATOM     86  C   UNL     1     -14.670   2.875  -3.839  1.00  0.00     0.009 A 
ATOM     87  C   UNL     1     -14.616   0.595  -3.036  1.00  0.00     0.009 A 
ATOM     88  C   UNL     1     -16.064   2.873  -3.747  1.00  0.00     0.001 A 
ATOM     89  C   UNL     1     -16.011   0.585  -2.975  1.00  0.00     0.001 A 
ATOM     90  C   UNL     1     -16.733   1.726  -3.321  1.00  0.00     0.000 A 
ENDBRANCH  72  85
ENDBRANCH  46  47
ENDBRANCH  39  41
ENDBRANCH  38  39
ENDBRANCH  37  38
ENDBRANCH  36  37
ENDBRANCH  35  36
ENDBRANCH  34  35
ENDBRANCH  33  34
ENDBRANCH   1  33
TORSDOF 22
