REMARK SMILES O=C(OCCOCCOCCOC(=O)c1ccc(-c2c3nc(c(-c4ccccc4)c4ccc([nH]4)c(-c4ccccc4)c4nc(c(-c5ccccc5)c5ccc2[nH]5)C=C4)C=C3)cc1)C1=Cc2cc(Cl)cc(C#Cc3ccccc3)c2O[C@@H]1C(F)(F)F
REMARK SMILES IDX 7 1 6 2 5 3 4 4 3 5 2 6 1 7 63 8 64 9 81 10 65 11 80 12
REMARK SMILES IDX 66 13 79 14 67 15 70 16 68 17 69 18 82 19 83 20 84 21 85 22
REMARK SMILES IDX 71 23 72 24 73 25 74 26 78 27 75 28 77 29 76 30 8 31 9 32
REMARK SMILES IDX 10 33 11 34 12 35 13 36 14 37 15 38 16 39 62 40 17 41 61 42
REMARK SMILES IDX 18 43 19 44 20 45 55 46 21 47 60 48 54 49 56 50 22 51 59 52
REMARK SMILES IDX 53 53 52 54 23 56 45 57 30 58 44 59 31 60 34 61 43 62 57 63
REMARK SMILES IDX 32 64 33 65 42 67 58 68 35 69 24 70 25 71 29 72 26 73 28 74
REMARK SMILES IDX 27 75 46 76 47 77 51 78 48 79 50 80 49 81 36 82 37 83 41 84
REMARK SMILES IDX 38 85 40 86 39 87
REMARK H PARENT 56 55 34 66
REMARK Flexibility Score: inf
ROOT
ATOM      1  C   UNL     1       2.584   1.229   2.162  1.00  0.00     0.188 C 
ENDROOT
BRANCH   1   2
ATOM      2  O   UNL     1       3.843   0.561   1.944  1.00  0.00    -0.376 OA
BRANCH   2   3
ATOM      3  C   UNL     1       4.408  -0.329   0.728  1.00  0.00     0.202 C 
BRANCH   3   4
ATOM      4  C   UNL     1       3.601  -0.630  -1.270  1.00  0.00     0.261 C 
BRANCH   4   5
ATOM      5  O   UNL     1       2.782  -1.864  -1.740  1.00  0.00    -0.460 OA
BRANCH   5   6
ATOM      6  C   UNL     1       3.067  -2.980  -1.058  1.00  0.00     0.338 C 
ATOM      7  O   UNL     1       2.568  -4.074  -1.099  1.00  0.00    -0.246 OA
BRANCH   6   8
ATOM      8  C   UNL     1       3.870  -2.321  -0.062  1.00  0.00     0.087 C 
ATOM      9  C   UNL     1       5.226  -2.015  -0.578  1.00  0.00     0.027 C 
ATOM     10  C   UNL     1       2.554  -0.994   0.446  1.00  0.00     0.316 C 
ATOM     11  C   UNL     1       5.785  -0.339  -0.993  1.00  0.00     0.020 A 
ATOM     12  O   UNL     1       3.106   0.789  -0.077  1.00  0.00    -0.474 OA
ATOM     13  C   UNL     1       7.032  -0.179  -1.534  1.00  0.00     0.032 A 
ATOM     14  C   UNL     1       4.752   1.055  -0.812  1.00  0.00     0.143 A 
ATOM     15  C   UNL     1       7.360   1.141  -1.876  1.00  0.00     0.043 A 
ATOM     16  C   UNL     1       5.178   2.309  -1.177  1.00  0.00     0.069 A 
ATOM     17  Cl  UNL     1       8.929   1.403  -2.569  1.00  0.00    -0.084 Cl
ATOM     18  C   UNL     1       6.500   2.300  -1.705  1.00  0.00     0.041 A 
BRANCH  10  19
ATOM     19  C   UNL     1       2.173  -1.606   1.894  1.00  0.00     0.430 C 
ATOM     20  F   UNL     1       1.362  -0.893   2.691  1.00  0.00    -0.167 F 
ATOM     21  F   UNL     1       1.481  -2.763   1.658  1.00  0.00    -0.167 F 
ATOM     22  F   UNL     1       3.243  -1.993   2.629  1.00  0.00    -0.167 F 
ENDBRANCH  10  19
BRANCH  16  23
ATOM     23  C   UNL     1       4.529   3.571  -1.048  1.00  0.00    -0.058 C 
ATOM     24  C   UNL     1       4.192   4.715  -0.900  1.00  0.00    -0.062 C 
BRANCH  24  25
ATOM     25  C   UNL     1       3.873   6.080  -0.585  1.00  0.00     0.025 A 
ATOM     26  C   UNL     1       4.684   7.134  -1.015  1.00  0.00     0.017 A 
ATOM     27  C   UNL     1       2.768   6.352   0.225  1.00  0.00     0.017 A 
ATOM     28  C   UNL     1       4.384   8.449  -0.637  1.00  0.00     0.001 A 
ATOM     29  C   UNL     1       2.476   7.660   0.612  1.00  0.00     0.001 A 
ATOM     30  C   UNL     1       3.283   8.710   0.179  1.00  0.00     0.000 A 
ENDBRANCH  24  25
ENDBRANCH  16  23
ENDBRANCH   6   8
ENDBRANCH   5   6
ENDBRANCH   4   5
ENDBRANCH   3   4
ENDBRANCH   2   3
ENDBRANCH   1   2
BRANCH   1  31
ATOM     31  C   UNL     1       2.325   2.728   1.964  1.00  0.00     0.188 C 
BRANCH  31  32
ATOM     32  O   UNL     1       3.354   3.666   1.809  1.00  0.00    -0.376 OA
BRANCH  32  33
ATOM     33  C   UNL     1       4.615   3.442   2.398  1.00  0.00     0.202 C 
BRANCH  33  34
ATOM     34  C   UNL     1       4.657   3.578   3.914  1.00  0.00     0.261 C 
BRANCH  34  35
ATOM     35  O   UNL     1       4.107   2.430   4.579  1.00  0.00    -0.460 OA
BRANCH  35  36
ATOM     36  C   UNL     1       2.929   2.611   5.219  1.00  0.00     0.338 C 
ATOM     37  O   UNL     1       2.274   3.635   5.300  1.00  0.00    -0.246 OA
BRANCH  36  38
ATOM     38  C   UNL     1       2.443   1.302   5.698  1.00  0.00     0.060 A 
ATOM     39  C   UNL     1       1.104   0.964   5.450  1.00  0.00     0.016 A 
ATOM     40  C   UNL     1       3.287   0.421   6.380  1.00  0.00     0.016 A 
ATOM     41  C   UNL     1       0.590  -0.233   5.934  1.00  0.00     0.010 A 
ATOM     42  C   UNL     1       2.763  -0.763   6.899  1.00  0.00     0.010 A 
ATOM     43  C   UNL     1       1.400  -1.058   6.725  1.00  0.00    -0.014 A 
BRANCH  43  44
ATOM     44  C   UNL     1       0.731  -2.002   7.645  1.00  0.00     0.031 A 
ATOM     45  C   UNL     1       0.319  -1.460   8.989  1.00  0.00     0.074 A 
ATOM     46  C   UNL     1       0.446  -3.265   7.291  1.00  0.00     0.049 A 
ATOM     47  N   UNL     1      -0.346  -2.038   9.953  1.00  0.00    -0.248 NA
ATOM     48  C   UNL     1       0.708  -0.067   9.277  1.00  0.00     0.031 C 
ATOM     49  C   UNL     1       0.757  -3.879   6.002  1.00  0.00     0.029 A 
ATOM     50  N   UNL     1      -0.187  -4.255   7.997  1.00  0.00    -0.354 N 
ATOM     51  C   UNL     1      -0.459  -1.079  10.953  1.00  0.00     0.074 A 
ATOM     52  C   UNL     1       0.238   0.102  10.501  1.00  0.00     0.031 C 
ATOM     53  C   UNL     1       0.310  -5.149   6.009  1.00  0.00     0.029 A 
ATOM     54  C   UNL     1      -0.299  -5.436   7.307  1.00  0.00     0.049 A 
ATOM     55  H   UNL     1      -0.528  -4.131   8.912  1.00  0.00     0.167 HD
ATOM     56  C   UNL     1      -1.094  -1.168  12.144  1.00  0.00     0.031 A 
ATOM     57  C   UNL     1      -0.835  -6.610   7.693  1.00  0.00     0.031 A 
ATOM     58  C   UNL     1      -1.749  -2.359  12.606  1.00  0.00     0.049 A 
ATOM     59  C   UNL     1      -1.461  -6.712   9.062  1.00  0.00     0.074 A 
ATOM     60  C   UNL     1      -2.422  -2.568  13.795  1.00  0.00     0.029 A 
ATOM     61  N   UNL     1      -1.792  -3.552  11.900  1.00  0.00    -0.354 N 
ATOM     62  N   UNL     1      -1.602  -5.788   9.984  1.00  0.00    -0.248 NA
ATOM     63  C   UNL     1      -2.023  -8.018   9.432  1.00  0.00     0.031 C 
ATOM     64  C   UNL     1      -2.813  -3.910  13.838  1.00  0.00     0.029 A 
ATOM     65  C   UNL     1      -2.458  -4.512  12.641  1.00  0.00     0.049 A 
ATOM     66  H   UNL     1      -1.407  -3.694  11.005  1.00  0.00     0.167 HD
ATOM     67  C   UNL     1      -2.308  -6.388  11.021  1.00  0.00     0.074 A 
ATOM     68  C   UNL     1      -2.575  -7.751  10.607  1.00  0.00     0.031 C 
ATOM     69  C   UNL     1      -2.712  -5.861  12.204  1.00  0.00     0.031 A 
BRANCH  56  70
ATOM     70  C   UNL     1      -1.052   0.040  13.038  1.00  0.00    -0.014 A 
ATOM     71  C   UNL     1      -1.733   1.224  12.708  1.00  0.00     0.009 A 
ATOM     72  C   UNL     1      -0.311  -0.005  14.228  1.00  0.00     0.009 A 
ATOM     73  C   UNL     1      -1.639   2.348  13.532  1.00  0.00     0.001 A 
ATOM     74  C   UNL     1      -0.246   1.108  15.067  1.00  0.00     0.001 A 
ATOM     75  C   UNL     1      -0.901   2.287  14.713  1.00  0.00     0.000 A 
ENDBRANCH  56  70
BRANCH  57  76
ATOM     76  C   UNL     1      -0.816  -7.784   6.779  1.00  0.00    -0.014 A 
ATOM     77  C   UNL     1      -2.009  -8.309   6.256  1.00  0.00     0.009 A 
ATOM     78  C   UNL     1       0.397  -8.412   6.453  1.00  0.00     0.009 A 
ATOM     79  C   UNL     1      -1.991  -9.456   5.459  1.00  0.00     0.001 A 
ATOM     80  C   UNL     1       0.415  -9.540   5.629  1.00  0.00     0.001 A 
ATOM     81  C   UNL     1      -0.779 -10.069   5.143  1.00  0.00     0.000 A 
ENDBRANCH  57  76
BRANCH  69  82
ATOM     82  C   UNL     1      -3.538  -6.739  13.105  1.00  0.00    -0.014 A 
ATOM     83  C   UNL     1      -2.996  -7.862  13.749  1.00  0.00     0.009 A 
ATOM     84  C   UNL     1      -4.884  -6.409  13.336  1.00  0.00     0.009 A 
ATOM     85  C   UNL     1      -3.798  -8.664  14.563  1.00  0.00     0.001 A 
ATOM     86  C   UNL     1      -5.673  -7.189  14.181  1.00  0.00     0.001 A 
ATOM     87  C   UNL     1      -5.133  -8.325  14.782  1.00  0.00     0.000 A 
ENDBRANCH  69  82
ENDBRANCH  43  44
ENDBRANCH  36  38
ENDBRANCH  35  36
ENDBRANCH  34  35
ENDBRANCH  33  34
ENDBRANCH  32  33
ENDBRANCH  31  32
ENDBRANCH   1  31
TORSDOF 20
