REMARK SMILES O=C(/C=C/c1cc(C(=O)NCCn2cccn2)cs1)OCCOCCOCCOC(=O)c1ccc(-c2c3nc(c(-c4ccccc4)c4ccc([nH]4)c(-c4ccccc4)c4nc(c(-c5ccccc5)c5ccc2[nH]5)C=C4)C=C3)cc1
REMARK SMILES IDX 23 1 22 2 21 3 20 4 2 5 1 6 3 7 4 8 5 9 6 10 19 11 7 12
REMARK SMILES IDX 18 13 8 14 9 15 10 16 11 18 12 19 13 20 14 21 17 22 15 23
REMARK SMILES IDX 16 24 24 25 25 26 26 27 27 28 28 29 29 30 30 31 31 32 32 33
REMARK SMILES IDX 33 34 79 35 34 36 78 37 35 38 36 39 37 40 72 41 38 42 77 43
REMARK SMILES IDX 71 44 73 45 39 46 76 47 70 48 69 49 40 51 62 52 47 53 61 54
REMARK SMILES IDX 48 55 51 56 60 57 74 58 49 59 50 60 59 62 75 63 52 64 41 65
REMARK SMILES IDX 42 66 46 67 43 68 45 69 44 70 63 71 64 72 68 73 65 74 67 75
REMARK SMILES IDX 66 76 53 77 54 78 58 79 55 80 57 81 56 82
REMARK H PARENT 10 17 73 50 51 61
REMARK Flexibility Score: inf
ROOT
ATOM      1  O   UNL     1       4.410   1.837  -0.314  1.00  0.00    -0.376 OA
ENDROOT
BRANCH   1   2
ATOM      2  C   UNL     1       5.197   0.711  -0.637  1.00  0.00     0.202 C 
BRANCH   2   3
ATOM      3  C   UNL     1       4.626  -0.408  -1.518  1.00  0.00     0.261 C 
BRANCH   3   4
ATOM      4  O   UNL     1       3.394  -1.086  -1.169  1.00  0.00    -0.460 OA
BRANCH   4   5
ATOM      5  C   UNL     1       3.082  -1.842  -0.097  1.00  0.00     0.330 C 
ATOM      6  O   UNL     1       2.161  -2.650  -0.126  1.00  0.00    -0.247 OA
BRANCH   5   7
ATOM      7  C   UNL     1       3.646  -1.473   1.202  1.00  0.00     0.095 C 
ATOM      8  C   UNL     1       4.949  -1.502   1.498  1.00  0.00     0.026 C 
BRANCH   8   9
ATOM      9  C   UNL     1       5.426  -1.060   2.761  1.00  0.00     0.028 A 
ATOM     10  C   UNL     1       4.751  -0.840   3.947  1.00  0.00     0.033 A 
ATOM     11  S   UNL     1       7.081  -0.641   2.976  1.00  0.00    -0.144 S 
ATOM     12  C   UNL     1       5.623  -0.966   5.067  1.00  0.00     0.051 A 
ATOM     13  C   UNL     1       6.901  -0.603   4.676  1.00  0.00     0.079 A 
BRANCH  12  14
ATOM     14  C   UNL     1       5.315  -1.351   6.439  1.00  0.00     0.252 C 
ATOM     15  O   UNL     1       6.008  -0.964   7.381  1.00  0.00    -0.269 OA
ATOM     16  N   UNL     1       4.312  -2.255   6.688  1.00  0.00    -0.350 N 
ATOM     17  H   UNL     1       4.223  -2.479   7.643  1.00  0.00     0.163 HD
BRANCH  16  18
ATOM     18  C   UNL     1       3.347  -2.959   5.841  1.00  0.00     0.140 C 
BRANCH  18  19
ATOM     19  C   UNL     1       3.800  -4.338   5.357  1.00  0.00     0.165 C 
BRANCH  19  20
ATOM     20  N   UNL     1       3.659  -5.397   6.340  1.00  0.00    -0.271 N 
ATOM     21  C   UNL     1       3.761  -6.738   6.092  1.00  0.00     0.108 A 
ATOM     22  N   UNL     1       3.339  -5.119   7.618  1.00  0.00    -0.181 NA
ATOM     23  C   UNL     1       3.480  -7.366   7.283  1.00  0.00     0.042 A 
ATOM     24  C   UNL     1       3.221  -6.321   8.186  1.00  0.00     0.135 A 
ENDBRANCH  19  20
ENDBRANCH  18  19
ENDBRANCH  16  18
ENDBRANCH  12  14
ENDBRANCH   8   9
ENDBRANCH   5   7
ENDBRANCH   4   5
ENDBRANCH   3   4
ENDBRANCH   2   3
ENDBRANCH   1   2
BRANCH   1  25
ATOM     25  C   UNL     1       3.058   1.685   0.040  1.00  0.00     0.188 C 
BRANCH  25  26
ATOM     26  C   UNL     1       2.078   2.442  -0.872  1.00  0.00     0.188 C 
BRANCH  26  27
ATOM     27  O   UNL     1       2.454   2.965  -2.142  1.00  0.00    -0.376 OA
BRANCH  27  28
ATOM     28  C   UNL     1       3.780   3.376  -2.444  1.00  0.00     0.202 C 
BRANCH  28  29
ATOM     29  C   UNL     1       4.410   4.561  -1.707  1.00  0.00     0.261 C 
BRANCH  29  30
ATOM     30  O   UNL     1       4.302   4.484  -0.295  1.00  0.00    -0.460 OA
BRANCH  30  31
ATOM     31  C   UNL     1       3.172   5.027   0.196  1.00  0.00     0.338 C 
ATOM     32  O   UNL     1       2.279   5.568  -0.434  1.00  0.00    -0.246 OA
BRANCH  31  33
ATOM     33  C   UNL     1       3.206   4.979   1.666  1.00  0.00     0.060 A 
ATOM     34  C   UNL     1       2.117   5.584   2.296  1.00  0.00     0.016 A 
ATOM     35  C   UNL     1       4.433   4.779   2.313  1.00  0.00     0.016 A 
ATOM     36  C   UNL     1       2.369   6.333   3.418  1.00  0.00     0.010 A 
ATOM     37  C   UNL     1       4.689   5.539   3.426  1.00  0.00     0.010 A 
ATOM     38  C   UNL     1       3.688   6.408   3.864  1.00  0.00    -0.014 A 
BRANCH  38  39
ATOM     39  C   UNL     1       4.046   7.551   4.674  1.00  0.00     0.031 A 
ATOM     40  C   UNL     1       3.813   7.396   6.117  1.00  0.00     0.074 A 
ATOM     41  C   UNL     1       4.662   8.614   4.120  1.00  0.00     0.049 A 
ATOM     42  N   UNL     1       3.065   8.113   6.887  1.00  0.00    -0.248 NA
ATOM     43  C   UNL     1       4.424   6.225   6.763  1.00  0.00     0.031 C 
ATOM     44  C   UNL     1       5.205   8.727   2.760  1.00  0.00     0.029 A 
ATOM     45  N   UNL     1       5.069   9.767   4.713  1.00  0.00    -0.354 N 
ATOM     46  C   UNL     1       3.241   7.583   8.157  1.00  0.00     0.074 A 
ATOM     47  C   UNL     1       3.947   6.336   7.999  1.00  0.00     0.031 C 
ATOM     48  C   UNL     1       6.078   9.758   2.721  1.00  0.00     0.029 A 
ATOM     49  C   UNL     1       6.059  10.434   4.007  1.00  0.00     0.049 A 
ATOM     50  H   UNL     1       4.696  10.098   5.562  1.00  0.00     0.167 HD
ATOM     51  C   UNL     1       3.038   8.316   9.282  1.00  0.00     0.031 A 
ATOM     52  C   UNL     1       6.882  11.394   4.495  1.00  0.00     0.031 A 
ATOM     53  C   UNL     1       2.249   9.492   9.050  1.00  0.00     0.049 A 
ATOM     54  C   UNL     1       6.284  11.915   5.746  1.00  0.00     0.074 A 
ATOM     55  C   UNL     1       0.972   9.730   8.582  1.00  0.00     0.029 A 
ATOM     56  N   UNL     1       2.906  10.696   8.980  1.00  0.00    -0.354 N 
ATOM     57  N   UNL     1       5.189  12.617   5.788  1.00  0.00    -0.248 NA
ATOM     58  C   UNL     1       6.674  11.301   7.007  1.00  0.00     0.031 C 
ATOM     59  C   UNL     1       1.069  10.939   7.833  1.00  0.00     0.029 A 
ATOM     60  C   UNL     1       2.392  11.379   7.908  1.00  0.00     0.049 A 
ATOM     61  H   UNL     1       3.615  11.010   9.587  1.00  0.00     0.167 HD
ATOM     62  C   UNL     1       4.536  12.194   6.938  1.00  0.00     0.074 A 
ATOM     63  C   UNL     1       5.549  11.476   7.705  1.00  0.00     0.031 C 
ATOM     64  C   UNL     1       3.173  12.217   7.024  1.00  0.00     0.031 A 
BRANCH  51  65
ATOM     65  C   UNL     1       3.901   8.140  10.497  1.00  0.00    -0.014 A 
ATOM     66  C   UNL     1       3.512   8.724  11.710  1.00  0.00     0.009 A 
ATOM     67  C   UNL     1       5.214   7.628  10.422  1.00  0.00     0.009 A 
ATOM     68  C   UNL     1       4.404   8.805  12.786  1.00  0.00     0.001 A 
ATOM     69  C   UNL     1       6.088   7.662  11.507  1.00  0.00     0.001 A 
ATOM     70  C   UNL     1       5.687   8.272  12.685  1.00  0.00     0.000 A 
ENDBRANCH  51  65
BRANCH  52  71
ATOM     71  C   UNL     1       8.291  11.637   4.119  1.00  0.00    -0.014 A 
ATOM     72  C   UNL     1       8.926  12.846   4.439  1.00  0.00     0.009 A 
ATOM     73  C   UNL     1       9.096  10.580   3.651  1.00  0.00     0.009 A 
ATOM     74  C   UNL     1      10.316  12.981   4.316  1.00  0.00     0.001 A 
ATOM     75  C   UNL     1      10.480  10.716   3.520  1.00  0.00     0.001 A 
ATOM     76  C   UNL     1      11.093  11.914   3.866  1.00  0.00     0.000 A 
ENDBRANCH  52  71
BRANCH  64  77
ATOM     77  C   UNL     1       2.416  12.921   5.924  1.00  0.00    -0.014 A 
ATOM     78  C   UNL     1       2.462  12.492   4.585  1.00  0.00     0.009 A 
ATOM     79  C   UNL     1       1.516  13.941   6.264  1.00  0.00     0.009 A 
ATOM     80  C   UNL     1       1.656  13.087   3.611  1.00  0.00     0.001 A 
ATOM     81  C   UNL     1       0.696  14.523   5.293  1.00  0.00     0.001 A 
ATOM     82  C   UNL     1       0.770  14.101   3.967  1.00  0.00     0.000 A 
ENDBRANCH  64  77
ENDBRANCH  38  39
ENDBRANCH  31  33
ENDBRANCH  30  31
ENDBRANCH  29  30
ENDBRANCH  28  29
ENDBRANCH  27  28
ENDBRANCH  26  27
ENDBRANCH  25  26
ENDBRANCH   1  25
TORSDOF 22
