REMARK SMILES N#Cc1cc([N+](=O)[O-])cnc1Oc1csc(C(=O)OCCOCCOCCOC(=O)c2ccc(-c3c4nc(c(-c5ccccc5)c5ccc([nH]5)c(-c5ccccc5)c5nc(c(-c6ccccc6)c6ccc3[nH]6)C=C5)C=C4)cc2)c1
REMARK SMILES IDX 23 1 22 2 21 3 20 4 19 5 17 6 18 7 16 8 13 9 14 10 79 11
REMARK SMILES IDX 15 12 12 13 11 14 3 15 4 16 5 17 10 18 9 19 2 20 1 21 6 22
REMARK SMILES IDX 7 23 8 24 24 25 25 26 26 27 27 28 28 29 29 30 30 31 31 32
REMARK SMILES IDX 32 33 78 34 33 35 77 36 34 37 35 38 36 39 71 40 37 41 76 42
REMARK SMILES IDX 70 43 72 44 38 45 75 46 69 47 68 48 39 50 61 51 46 52 60 53
REMARK SMILES IDX 47 54 50 55 59 56 73 57 48 58 49 59 58 61 74 62 51 63 40 64
REMARK SMILES IDX 41 65 45 66 42 67 44 68 43 69 62 70 63 71 67 72 64 73 66 74
REMARK SMILES IDX 65 75 52 76 53 77 57 78 54 79 56 80 55 81
REMARK H PARENT 72 49 50 60
REMARK Flexibility Score: inf
ROOT
ATOM      1  C   UNL     1       6.386  -2.584  -1.910  1.00  0.00     0.188 C 
ENDROOT
BRANCH   1   2
ATOM      2  O   UNL     1       7.321  -3.426  -2.559  1.00  0.00    -0.376 OA
BRANCH   2   3
ATOM      3  C   UNL     1       6.907  -4.636  -3.172  1.00  0.00     0.202 C 
BRANCH   3   4
ATOM      4  C   UNL     1       5.789  -5.543  -2.614  1.00  0.00     0.261 C 
BRANCH   4   5
ATOM      5  O   UNL     1       4.677  -4.901  -1.976  1.00  0.00    -0.459 OA
BRANCH   5   6
ATOM      6  C   UNL     1       4.636  -4.973  -0.611  1.00  0.00     0.348 C 
ATOM      7  O   UNL     1       5.441  -5.593   0.071  1.00  0.00    -0.245 OA
BRANCH   6   8
ATOM      8  C   UNL     1       3.582  -4.104  -0.110  1.00  0.00     0.116 A 
ATOM      9  C   UNL     1       1.683  -2.743   0.059  1.00  0.00     0.141 A 
ATOM     10  C   UNL     1       2.289  -2.495   1.270  1.00  0.00     0.112 A 
ATOM     11  C   UNL     1       2.412  -3.691  -0.719  1.00  0.00     0.074 A 
ATOM     12  S   UNL     1       3.757  -3.371   1.433  1.00  0.00    -0.133 S 
BRANCH   9  13
ATOM     13  O   UNL     1       0.501  -2.251  -0.373  1.00  0.00    -0.437 OA
BRANCH  13  14
ATOM     14  C   UNL     1      -0.046  -1.030  -0.068  1.00  0.00     0.237 A 
ATOM     15  C   UNL     1       0.632   0.188  -0.102  1.00  0.00     0.121 A 
ATOM     16  C   UNL     1      -0.114   1.376  -0.016  1.00  0.00     0.112 A 
ATOM     17  C   UNL     1      -1.507   1.307   0.070  1.00  0.00     0.289 A 
ATOM     18  N   UNL     1      -1.402  -1.093   0.037  1.00  0.00    -0.213 NA
ATOM     19  C   UNL     1      -2.108   0.064   0.102  1.00  0.00     0.200 A 
BRANCH  15  20
ATOM     20  C   UNL     1       2.047   0.293  -0.276  1.00  0.00     0.105 C 
ATOM     21  N   UNL     1       3.192   0.413  -0.389  1.00  0.00    -0.192 NA
ENDBRANCH  15  20
BRANCH  17  22
ATOM     22  N   UNL     1      -2.324   2.513   0.086  1.00  0.00     0.064 N 
ATOM     23  O   UNL     1      -3.554   2.375   0.074  1.00  0.00    -0.258 OA
ATOM     24  O   UNL     1      -1.733   3.600   0.103  1.00  0.00    -0.258 OA
ENDBRANCH  17  22
ENDBRANCH  13  14
ENDBRANCH   9  13
ENDBRANCH   6   8
ENDBRANCH   5   6
ENDBRANCH   4   5
ENDBRANCH   3   4
ENDBRANCH   2   3
ENDBRANCH   1   2
BRANCH   1  25
ATOM     25  C   UNL     1       5.152  -2.067  -2.678  1.00  0.00     0.188 C 
BRANCH  25  26
ATOM     26  O   UNL     1       4.865  -2.757  -3.871  1.00  0.00    -0.376 OA
BRANCH  26  27
ATOM     27  C   UNL     1       5.390  -2.276  -5.098  1.00  0.00     0.202 C 
BRANCH  27  28
ATOM     28  C   UNL     1       6.571  -1.289  -5.256  1.00  0.00     0.261 C 
BRANCH  28  29
ATOM     29  O   UNL     1       7.168  -0.728  -4.082  1.00  0.00    -0.460 OA
BRANCH  29  30
ATOM     30  C   UNL     1       6.768   0.524  -3.756  1.00  0.00     0.338 C 
ATOM     31  O   UNL     1       5.936   1.204  -4.330  1.00  0.00    -0.246 OA
BRANCH  30  32
ATOM     32  C   UNL     1       7.373   0.908  -2.466  1.00  0.00     0.060 A 
ATOM     33  C   UNL     1       6.543   1.002  -1.343  1.00  0.00     0.016 A 
ATOM     34  C   UNL     1       8.718   1.262  -2.380  1.00  0.00     0.016 A 
ATOM     35  C   UNL     1       7.037   1.497  -0.141  1.00  0.00     0.010 A 
ATOM     36  C   UNL     1       9.212   1.779  -1.176  1.00  0.00     0.010 A 
ATOM     37  C   UNL     1       8.360   1.946  -0.066  1.00  0.00    -0.014 A 
BRANCH  37  38
ATOM     38  C   UNL     1       8.771   2.780   1.090  1.00  0.00     0.031 A 
ATOM     39  C   UNL     1       8.860   4.273   0.905  1.00  0.00     0.074 A 
ATOM     40  C   UNL     1       8.992   2.240   2.302  1.00  0.00     0.049 A 
ATOM     41  N   UNL     1       9.200   5.200   1.765  1.00  0.00    -0.248 NA
ATOM     42  C   UNL     1       8.522   4.790  -0.432  1.00  0.00     0.031 C 
ATOM     43  C   UNL     1       8.888   0.819   2.629  1.00  0.00     0.029 A 
ATOM     44  N   UNL     1       9.351   2.834   3.486  1.00  0.00    -0.354 N 
ATOM     45  C   UNL     1       9.120   6.403   1.073  1.00  0.00     0.074 A 
ATOM     46  C   UNL     1       8.751   6.086  -0.289  1.00  0.00     0.031 C 
ATOM     47  C   UNL     1       9.184   0.650   3.930  1.00  0.00     0.029 A 
ATOM     48  C   UNL     1       9.530   1.944   4.516  1.00  0.00     0.049 A 
ATOM     49  H   UNL     1       9.467   3.807   3.588  1.00  0.00     0.167 HD
ATOM     50  C   UNL     1       9.318   7.663   1.530  1.00  0.00     0.031 A 
ATOM     51  C   UNL     1       9.949   2.147   5.780  1.00  0.00     0.031 A 
ATOM     52  C   UNL     1       9.706   7.981   2.879  1.00  0.00     0.049 A 
ATOM     53  C   UNL     1      10.251   3.550   6.241  1.00  0.00     0.074 A 
ATOM     54  C   UNL     1       9.940   9.225   3.438  1.00  0.00     0.029 A 
ATOM     55  N   UNL     1       9.919   7.046   3.880  1.00  0.00    -0.354 N 
ATOM     56  N   UNL     1      10.161   4.681   5.581  1.00  0.00    -0.248 NA
ATOM     57  C   UNL     1      10.692   3.705   7.634  1.00  0.00     0.031 C 
ATOM     58  C   UNL     1      10.359   9.039   4.759  1.00  0.00     0.029 A 
ATOM     59  C   UNL     1      10.301   7.685   5.049  1.00  0.00     0.049 A 
ATOM     60  H   UNL     1       9.816   6.073   3.776  1.00  0.00     0.167 HD
ATOM     61  C   UNL     1      10.494   5.680   6.489  1.00  0.00     0.074 A 
ATOM     62  C   UNL     1      10.763   5.022   7.750  1.00  0.00     0.031 C 
ATOM     63  C   UNL     1      10.569   7.021   6.299  1.00  0.00     0.031 A 
BRANCH  50  64
ATOM     64  C   UNL     1       9.143   8.790   0.548  1.00  0.00    -0.014 A 
ATOM     65  C   UNL     1       7.879   9.119   0.030  1.00  0.00     0.009 A 
ATOM     66  C   UNL     1      10.252   9.557   0.159  1.00  0.00     0.009 A 
ATOM     67  C   UNL     1       7.737  10.166  -0.883  1.00  0.00     0.001 A 
ATOM     68  C   UNL     1      10.102  10.626  -0.726  1.00  0.00     0.001 A 
ATOM     69  C   UNL     1       8.847  10.923  -1.255  1.00  0.00     0.000 A 
ENDBRANCH  50  64
BRANCH  51  70
ATOM     70  C   UNL     1      10.141   0.994   6.704  1.00  0.00    -0.014 A 
ATOM     71  C   UNL     1       9.359   0.852   7.861  1.00  0.00     0.009 A 
ATOM     72  C   UNL     1      11.152   0.052   6.454  1.00  0.00     0.009 A 
ATOM     73  C   UNL     1       9.616  -0.179   8.769  1.00  0.00     0.001 A 
ATOM     74  C   UNL     1      11.380  -1.001   7.341  1.00  0.00     0.001 A 
ATOM     75  C   UNL     1      10.623  -1.106   8.506  1.00  0.00     0.000 A 
ENDBRANCH  51  70
BRANCH  63  76
ATOM     76  C   UNL     1      10.891   7.870   7.503  1.00  0.00    -0.014 A 
ATOM     77  C   UNL     1      12.140   7.813   8.141  1.00  0.00     0.009 A 
ATOM     78  C   UNL     1       9.916   8.747   8.007  1.00  0.00     0.009 A 
ATOM     79  C   UNL     1      12.380   8.562   9.296  1.00  0.00     0.001 A 
ATOM     80  C   UNL     1      10.174   9.527   9.135  1.00  0.00     0.001 A 
ATOM     81  C   UNL     1      11.398   9.419   9.790  1.00  0.00     0.000 A 
ENDBRANCH  63  76
ENDBRANCH  37  38
ENDBRANCH  30  32
ENDBRANCH  29  30
ENDBRANCH  28  29
ENDBRANCH  27  28
ENDBRANCH  26  27
ENDBRANCH  25  26
ENDBRANCH   1  25
TORSDOF 21
