REMARK SMILES Cc1c(C)c2c(c(C)c1O)CC[C@@](C)(C(=O)OCCOCCOCCOC(=O)c1ccc(-c3c4nc(c(-c5ccccc5)c5ccc([nH]5)c(-c5ccccc5)c5nc(c(-c6ccccc6)c6ccc3[nH]6)C=C5)C=C4)cc1)O2
REMARK SMILES IDX 22 1 21 2 20 3 19 4 18 5 17 6 15 7 16 8 13 9 1 10 2 11 3 12
REMARK SMILES IDX 9 13 4 14 5 15 7 16 6 17 77 18 8 19 11 20 12 21 14 22 10 23
REMARK SMILES IDX 23 25 24 26 25 27 26 28 27 29 28 30 29 31 30 32 76 33 31 34
REMARK SMILES IDX 75 35 32 36 33 37 34 38 69 39 35 40 74 41 68 42 70 43 36 44
REMARK SMILES IDX 73 45 67 46 66 47 37 49 59 50 44 51 58 52 45 53 48 54 57 55
REMARK SMILES IDX 71 56 46 57 47 58 56 60 72 61 49 62 38 63 39 64 43 65 40 66
REMARK SMILES IDX 42 67 41 68 60 69 61 70 65 71 62 72 64 73 63 74 50 75 51 76
REMARK SMILES IDX 55 77 52 78 54 79 53 80
REMARK H PARENT 10 24 70 48 48 59
REMARK Flexibility Score: inf
ROOT
ATOM      1  C   UNL     1      -4.965   5.256   2.796  1.00  0.00     0.188 C 
ENDROOT
BRANCH   1   2
ATOM      2  C   UNL     1      -5.516   3.965   3.413  1.00  0.00     0.188 C 
BRANCH   2   3
ATOM      3  O   UNL     1      -6.173   4.026   4.674  1.00  0.00    -0.376 OA
BRANCH   3   4
ATOM      4  C   UNL     1      -5.771   4.997   5.631  1.00  0.00     0.202 C 
BRANCH   4   5
ATOM      5  C   UNL     1      -4.317   4.991   6.137  1.00  0.00     0.261 C 
BRANCH   5   6
ATOM      6  O   UNL     1      -3.258   5.104   5.156  1.00  0.00    -0.460 OA
BRANCH   6   7
ATOM      7  C   UNL     1      -2.553   3.961   4.912  1.00  0.00     0.350 C 
ATOM      8  O   UNL     1      -2.828   2.884   5.438  1.00  0.00    -0.247 OA
BRANCH   7   9
ATOM      9  C   UNL     1      -1.332   4.140   3.970  1.00  0.00     0.203 C 
ATOM     10  C   UNL     1       0.945  -0.022   0.036  1.00  0.00     0.049 C 
ATOM     11  C   UNL     1       0.648   1.361   0.561  1.00  0.00    -0.002 A 
ATOM     12  C   UNL     1      -0.351   1.571   1.539  1.00  0.00    -0.002 A 
ATOM     13  C   UNL     1       1.363   2.475   0.081  1.00  0.00     0.122 A 
ATOM     14  C   UNL     1      -1.223   0.431   2.011  1.00  0.00     0.049 C 
ATOM     15  C   UNL     1      -0.509   2.856   2.098  1.00  0.00     0.127 A 
ATOM     16  C   UNL     1       1.144   3.774   0.575  1.00  0.00    -0.002 A 
ATOM     17  C   UNL     1       0.189   3.967   1.595  1.00  0.00     0.001 A 
ATOM     18  O   UNL     1      -1.377   2.948   3.155  1.00  0.00    -0.475 OA
ATOM     19  C   UNL     1       1.901   4.950   0.008  1.00  0.00     0.049 C 
ATOM     20  C   UNL     1      -0.066   5.343   2.164  1.00  0.00     0.044 C 
ATOM     21  C   UNL     1      -1.313   5.356   3.042  1.00  0.00     0.065 C 
ATOM     22  C   UNL     1      -0.111   4.109   4.905  1.00  0.00     0.069 C 
BRANCH  13  23
ATOM     23  O   UNL     1       2.313   2.341  -0.900  1.00  0.00    -0.507 OA
ATOM     24  H   UNL     1       2.496   1.497  -1.262  1.00  0.00     0.293 HD
ENDBRANCH  13  23
ENDBRANCH   7   9
ENDBRANCH   6   7
ENDBRANCH   5   6
ENDBRANCH   4   5
ENDBRANCH   3   4
ENDBRANCH   2   3
ENDBRANCH   1   2
BRANCH   1  25
ATOM     25  O   UNL     1      -5.479   6.437   3.368  1.00  0.00    -0.376 OA
BRANCH  25  26
ATOM     26  C   UNL     1      -6.082   7.385   2.514  1.00  0.00     0.202 C 
BRANCH  26  27
ATOM     27  C   UNL     1      -7.363   6.931   1.801  1.00  0.00     0.261 C 
BRANCH  27  28
ATOM     28  O   UNL     1      -7.304   5.644   1.160  1.00  0.00    -0.460 OA
BRANCH  28  29
ATOM     29  C   UNL     1      -6.609   5.557   0.003  1.00  0.00     0.338 C 
ATOM     30  O   UNL     1      -6.043   6.465  -0.583  1.00  0.00    -0.246 OA
BRANCH  29  31
ATOM     31  C   UNL     1      -6.444   4.117  -0.306  1.00  0.00     0.060 A 
ATOM     32  C   UNL     1      -5.150   3.579  -0.381  1.00  0.00     0.016 A 
ATOM     33  C   UNL     1      -7.558   3.293  -0.480  1.00  0.00     0.016 A 
ATOM     34  C   UNL     1      -4.966   2.218  -0.639  1.00  0.00     0.010 A 
ATOM     35  C   UNL     1      -7.373   1.938  -0.770  1.00  0.00     0.010 A 
ATOM     36  C   UNL     1      -6.077   1.399  -0.876  1.00  0.00    -0.014 A 
BRANCH  36  37
ATOM     37  C   UNL     1      -5.896   0.039  -1.441  1.00  0.00     0.031 A 
ATOM     38  C   UNL     1      -6.003  -0.130  -2.931  1.00  0.00     0.074 A 
ATOM     39  C   UNL     1      -5.642  -1.029  -0.665  1.00  0.00     0.049 A 
ATOM     40  N   UNL     1      -5.964  -1.222  -3.650  1.00  0.00    -0.248 NA
ATOM     41  C   UNL     1      -6.179   1.104  -3.714  1.00  0.00     0.031 C 
ATOM     42  C   UNL     1      -5.447  -1.002   0.782  1.00  0.00     0.029 A 
ATOM     43  N   UNL     1      -5.515  -2.356  -1.000  1.00  0.00    -0.354 N 
ATOM     44  C   UNL     1      -6.118  -0.808  -4.967  1.00  0.00     0.074 A 
ATOM     45  C   UNL     1      -6.283   0.629  -4.945  1.00  0.00     0.031 C 
ATOM     46  C   UNL     1      -5.232  -2.258   1.213  1.00  0.00     0.029 A 
ATOM     47  C   UNL     1      -5.315  -3.180   0.079  1.00  0.00     0.049 A 
ATOM     48  H   UNL     1      -5.563  -2.684  -1.927  1.00  0.00     0.167 HD
ATOM     49  C   UNL     1      -6.117  -1.554  -6.096  1.00  0.00     0.031 A 
ATOM     50  C   UNL     1      -5.231  -4.524   0.149  1.00  0.00     0.031 A 
ATOM     51  C   UNL     1      -5.980  -2.985  -6.123  1.00  0.00     0.049 A 
ATOM     52  C   UNL     1      -5.348  -5.348  -1.107  1.00  0.00     0.074 A 
ATOM     53  C   UNL     1      -5.966  -3.827  -7.221  1.00  0.00     0.029 A 
ATOM     54  N   UNL     1      -5.845  -3.787  -5.000  1.00  0.00    -0.354 N 
ATOM     55  N   UNL     1      -5.486  -4.949  -2.349  1.00  0.00    -0.248 NA
ATOM     56  C   UNL     1      -5.293  -6.810  -0.951  1.00  0.00     0.031 C 
ATOM     57  C   UNL     1      -5.891  -5.144  -6.759  1.00  0.00     0.029 A 
ATOM     58  C   UNL     1      -5.783  -5.118  -5.377  1.00  0.00     0.049 A 
ATOM     59  H   UNL     1      -5.801  -3.459  -4.073  1.00  0.00     0.167 HD
ATOM     60  C   UNL     1      -5.511  -6.105  -3.122  1.00  0.00     0.074 A 
ATOM     61  C   UNL     1      -5.360  -7.221  -2.212  1.00  0.00     0.031 C 
ATOM     62  C   UNL     1      -5.642  -6.226  -4.466  1.00  0.00     0.031 A 
BRANCH  49  63
ATOM     63  C   UNL     1      -6.310  -0.829  -7.399  1.00  0.00    -0.014 A 
ATOM     64  C   UNL     1      -5.315   0.014  -7.920  1.00  0.00     0.009 A 
ATOM     65  C   UNL     1      -7.495  -1.013  -8.129  1.00  0.00     0.009 A 
ATOM     66  C   UNL     1      -5.518   0.685  -9.128  1.00  0.00     0.001 A 
ATOM     67  C   UNL     1      -7.681  -0.367  -9.352  1.00  0.00     0.001 A 
ATOM     68  C   UNL     1      -6.698   0.489  -9.845  1.00  0.00     0.000 A 
ENDBRANCH  49  63
BRANCH  50  69
ATOM     69  C   UNL     1      -5.027  -5.177   1.469  1.00  0.00    -0.014 A 
ATOM     70  C   UNL     1      -3.801  -5.784   1.780  1.00  0.00     0.009 A 
ATOM     71  C   UNL     1      -6.046  -5.174   2.436  1.00  0.00     0.009 A 
ATOM     72  C   UNL     1      -3.600  -6.373   3.030  1.00  0.00     0.001 A 
ATOM     73  C   UNL     1      -5.832  -5.740   3.694  1.00  0.00     0.001 A 
ATOM     74  C   UNL     1      -4.611  -6.342   3.990  1.00  0.00     0.000 A 
ENDBRANCH  50  69
BRANCH  62  75
ATOM     75  C   UNL     1      -5.612  -7.611  -5.056  1.00  0.00    -0.014 A 
ATOM     76  C   UNL     1      -6.685  -8.499  -4.890  1.00  0.00     0.009 A 
ATOM     77  C   UNL     1      -4.529  -8.000  -5.863  1.00  0.00     0.009 A 
ATOM     78  C   UNL     1      -6.665  -9.755  -5.502  1.00  0.00     0.001 A 
ATOM     79  C   UNL     1      -4.526  -9.243  -6.499  1.00  0.00     0.001 A 
ATOM     80  C   UNL     1      -5.591 -10.123  -6.312  1.00  0.00     0.000 A 
ENDBRANCH  62  75
ENDBRANCH  36  37
ENDBRANCH  29  31
ENDBRANCH  28  29
ENDBRANCH  27  28
ENDBRANCH  26  27
ENDBRANCH  25  26
ENDBRANCH   1  25
TORSDOF 18
