REMARK SMILES COc1ccc(Cn2c(SCCC(=O)OCCOCCOCCOC(=O)c3ccc(-c4c5nc(c(-c6ccccc6)c6ccc([nH]6)c(-c6ccccc6)c6nc(c(-c7ccccc7)c7ccc4[nH]7)C=C6)C=C5)cc3)nc3ccc(Cl)cc3c2=O)cc1
REMARK SMILES IDX 17 1 16 2 15 3 13 4 14 5 12 6 11 7 10 8 9 9 8 10 83 11 75 12
REMARK SMILES IDX 82 13 84 14 76 15 81 16 77 17 79 18 78 19 80 20 7 21 6 22
REMARK SMILES IDX 3 23 4 24 86 25 5 26 85 27 2 28 1 29 18 30 19 31 20 32 21 33
REMARK SMILES IDX 22 34 23 35 24 36 25 37 26 38 27 39 28 40 74 41 29 42 73 43
REMARK SMILES IDX 30 44 31 45 32 46 67 47 33 48 72 49 66 50 68 51 34 52 71 53
REMARK SMILES IDX 65 54 64 55 35 57 57 58 42 59 56 60 43 61 46 62 55 63 69 64
REMARK SMILES IDX 44 65 45 66 54 68 70 69 47 70 36 71 37 72 41 73 38 74 40 75
REMARK SMILES IDX 39 76 58 77 59 78 63 79 60 80 62 81 61 82 48 83 49 84 53 85
REMARK SMILES IDX 50 86 52 87 51 88
REMARK H PARENT 68 56 46 67
REMARK Flexibility Score: inf
ROOT
ATOM      1  C   UNL     1       1.691   3.857   8.456  1.00  0.00     0.202 C 
ENDROOT
BRANCH   1   2
ATOM      2  C   UNL     1       3.187   3.607   8.673  1.00  0.00     0.261 C 
BRANCH   2   3
ATOM      3  O   UNL     1       3.790   3.050   7.481  1.00  0.00    -0.463 OA
BRANCH   3   4
ATOM      4  C   UNL     1       4.590   1.967   7.628  1.00  0.00     0.306 C 
ATOM      5  O   UNL     1       4.666   1.296   8.650  1.00  0.00    -0.252 OA
BRANCH   4   6
ATOM      6  C   UNL     1       5.375   1.601   6.379  1.00  0.00     0.134 C 
BRANCH   6   7
ATOM      7  C   UNL     1       5.522   2.578   5.217  1.00  0.00     0.090 C 
BRANCH   7   8
ATOM      8  S   UNL     1       5.756   4.258   5.706  1.00  0.00    -0.087 SA
BRANCH   8   9
ATOM      9  C   UNL     1       4.398   5.272   5.269  1.00  0.00     0.171 A 
ATOM     10  N   UNL     1       3.269   4.965   4.502  1.00  0.00    -0.283 N 
ATOM     11  C   UNL     1       2.506   6.051   4.040  1.00  0.00     0.262 A 
ATOM     12  N   UNL     1       4.680   6.469   5.680  1.00  0.00    -0.224 NA
ATOM     13  C   UNL     1       3.093   7.386   4.132  1.00  0.00     0.067 A 
ATOM     14  O   UNL     1       1.340   6.015   3.658  1.00  0.00    -0.269 OA
ATOM     15  C   UNL     1       4.049   7.559   5.112  1.00  0.00     0.079 A 
ATOM     16  C   UNL     1       2.715   8.435   3.295  1.00  0.00     0.036 A 
ATOM     17  C   UNL     1       4.566   8.829   5.356  1.00  0.00     0.031 A 
ATOM     18  C   UNL     1       3.324   9.675   3.468  1.00  0.00     0.042 A 
ATOM     19  C   UNL     1       4.216   9.889   4.521  1.00  0.00     0.023 A 
ATOM     20  Cl  UNL     1       3.022  10.938   2.342  1.00  0.00    -0.084 Cl
BRANCH  10  21
ATOM     21  C   UNL     1       2.513   3.695   4.565  1.00  0.00     0.163 C 
BRANCH  21  22
ATOM     22  C   UNL     1       2.067   2.998   3.276  1.00  0.00    -0.028 A 
ATOM     23  C   UNL     1       1.039   1.567   1.026  1.00  0.00     0.118 A 
ATOM     24  C   UNL     1       0.362   2.664   1.545  1.00  0.00     0.047 A 
ATOM     25  C   UNL     1       2.234   1.182   1.625  1.00  0.00     0.047 A 
ATOM     26  C   UNL     1       0.854   3.349   2.663  1.00  0.00     0.009 A 
ATOM     27  C   UNL     1       2.739   1.890   2.734  1.00  0.00     0.009 A 
BRANCH  23  28
ATOM     28  O   UNL     1       0.425   0.958  -0.030  1.00  0.00    -0.497 OA
ATOM     29  C   UNL     1       0.949  -0.291  -0.456  1.00  0.00     0.278 C 
ENDBRANCH  23  28
ENDBRANCH  21  22
ENDBRANCH  10  21
ENDBRANCH   8   9
ENDBRANCH   7   8
ENDBRANCH   6   7
ENDBRANCH   4   6
ENDBRANCH   3   4
ENDBRANCH   2   3
ENDBRANCH   1   2
BRANCH   1  30
ATOM     30  O   UNL     1       0.896   2.695   8.724  1.00  0.00    -0.376 OA
BRANCH  30  31
ATOM     31  C   UNL     1       0.977   1.691   7.721  1.00  0.00     0.188 C 
BRANCH  31  32
ATOM     32  C   UNL     1      -0.078   1.814   6.626  1.00  0.00     0.188 C 
BRANCH  32  33
ATOM     33  O   UNL     1      -0.407   3.157   6.279  1.00  0.00    -0.376 OA
BRANCH  33  34
ATOM     34  C   UNL     1      -1.741   3.523   6.656  1.00  0.00     0.202 C 
BRANCH  34  35
ATOM     35  C   UNL     1      -2.777   3.115   5.598  1.00  0.00     0.261 C 
BRANCH  35  36
ATOM     36  O   UNL     1      -2.789   1.683   5.450  1.00  0.00    -0.460 OA
BRANCH  36  37
ATOM     37  C   UNL     1      -2.376   1.226   4.239  1.00  0.00     0.338 C 
ATOM     38  O   UNL     1      -2.264   1.851   3.213  1.00  0.00    -0.246 OA
BRANCH  37  39
ATOM     39  C   UNL     1      -1.897  -0.165   4.407  1.00  0.00     0.060 A 
ATOM     40  C   UNL     1      -0.620  -0.484   3.925  1.00  0.00     0.016 A 
ATOM     41  C   UNL     1      -2.686  -1.141   5.015  1.00  0.00     0.016 A 
ATOM     42  C   UNL     1      -0.135  -1.788   4.015  1.00  0.00     0.010 A 
ATOM     43  C   UNL     1      -2.211  -2.452   5.087  1.00  0.00     0.010 A 
ATOM     44  C   UNL     1      -0.950  -2.787   4.558  1.00  0.00    -0.014 A 
BRANCH  44  45
ATOM     45  C   UNL     1      -0.611  -4.218   4.386  1.00  0.00     0.031 A 
ATOM     46  C   UNL     1      -1.261  -4.958   3.252  1.00  0.00     0.074 A 
ATOM     47  C   UNL     1       0.205  -4.860   5.239  1.00  0.00     0.049 A 
ATOM     48  N   UNL     1      -1.321  -6.243   3.023  1.00  0.00    -0.248 NA
ATOM     49  C   UNL     1      -1.949  -4.129   2.247  1.00  0.00     0.031 C 
ATOM     50  C   UNL     1       0.953  -4.241   6.331  1.00  0.00     0.029 A 
ATOM     51  N   UNL     1       0.512  -6.195   5.330  1.00  0.00    -0.354 N 
ATOM     52  C   UNL     1      -2.089  -6.380   1.872  1.00  0.00     0.074 A 
ATOM     53  C   UNL     1      -2.468  -5.050   1.449  1.00  0.00     0.031 C 
ATOM     54  C   UNL     1       1.611  -5.202   7.005  1.00  0.00     0.029 A 
ATOM     55  C   UNL     1       1.284  -6.503   6.423  1.00  0.00     0.049 A 
ATOM     56  H   UNL     1       0.209  -6.865   4.675  1.00  0.00     0.167 HD
ATOM     57  C   UNL     1      -2.457  -7.515   1.235  1.00  0.00     0.031 A 
ATOM     58  C   UNL     1       1.639  -7.703   6.924  1.00  0.00     0.031 A 
ATOM     59  C   UNL     1      -2.088  -8.834   1.669  1.00  0.00     0.049 A 
ATOM     60  C   UNL     1       1.157  -8.957   6.243  1.00  0.00     0.074 A 
ATOM     61  C   UNL     1      -2.409 -10.053   1.099  1.00  0.00     0.029 A 
ATOM     62  N   UNL     1      -1.313  -9.103   2.786  1.00  0.00    -0.354 N 
ATOM     63  N   UNL     1       0.413  -9.083   5.170  1.00  0.00    -0.248 NA
ATOM     64  C   UNL     1       1.557 -10.236   6.849  1.00  0.00     0.031 C 
ATOM     65  C   UNL     1      -1.863 -11.063   1.899  1.00  0.00     0.029 A 
ATOM     66  C   UNL     1      -1.158 -10.469   2.934  1.00  0.00     0.049 A 
ATOM     67  H   UNL     1      -0.930  -8.422   3.386  1.00  0.00     0.167 HD
ATOM     68  C   UNL     1       0.277 -10.450   4.959  1.00  0.00     0.074 A 
ATOM     69  C   UNL     1       1.025 -11.112   6.008  1.00  0.00     0.031 C 
ATOM     70  C   UNL     1      -0.405 -11.102   3.985  1.00  0.00     0.031 A 
BRANCH  57  71
ATOM     71  C   UNL     1      -3.351  -7.371   0.036  1.00  0.00    -0.014 A 
ATOM     72  C   UNL     1      -2.872  -6.856  -1.179  1.00  0.00     0.009 A 
ATOM     73  C   UNL     1      -4.696  -7.761   0.126  1.00  0.00     0.009 A 
ATOM     74  C   UNL     1      -3.731  -6.703  -2.269  1.00  0.00     0.001 A 
ATOM     75  C   UNL     1      -5.546  -7.633  -0.974  1.00  0.00     0.001 A 
ATOM     76  C   UNL     1      -5.066  -7.095  -2.166  1.00  0.00     0.000 A 
ENDBRANCH  57  71
BRANCH  58  77
ATOM     77  C   UNL     1       2.454  -7.783   8.164  1.00  0.00    -0.014 A 
ATOM     78  C   UNL     1       3.783  -8.231   8.118  1.00  0.00     0.009 A 
ATOM     79  C   UNL     1       1.902  -7.428   9.405  1.00  0.00     0.009 A 
ATOM     80  C   UNL     1       4.535  -8.338   9.291  1.00  0.00     0.001 A 
ATOM     81  C   UNL     1       2.665  -7.510  10.572  1.00  0.00     0.001 A 
ATOM     82  C   UNL     1       3.978  -7.972  10.515  1.00  0.00     0.000 A 
ENDBRANCH  58  77
BRANCH  70  83
ATOM     83  C   UNL     1      -0.332 -12.603   3.982  1.00  0.00    -0.014 A 
ATOM     84  C   UNL     1      -1.044 -13.370   4.917  1.00  0.00     0.009 A 
ATOM     85  C   UNL     1       0.424 -13.256   2.997  1.00  0.00     0.009 A 
ATOM     86  C   UNL     1      -0.973 -14.764   4.882  1.00  0.00     0.001 A 
ATOM     87  C   UNL     1       0.472 -14.650   2.949  1.00  0.00     0.001 A 
ATOM     88  C   UNL     1      -0.220 -15.402   3.896  1.00  0.00     0.000 A 
ENDBRANCH  70  83
ENDBRANCH  44  45
ENDBRANCH  37  39
ENDBRANCH  36  37
ENDBRANCH  35  36
ENDBRANCH  34  35
ENDBRANCH  33  34
ENDBRANCH  32  33
ENDBRANCH  31  32
ENDBRANCH  30  31
ENDBRANCH   1  30
TORSDOF 23
