REMARK SMILES COc1ccc(CCN2/C(=[NH+]/C(=O)CCC(=O)OCCOCCOCCOC(=O)c3ccc(-c4c5nc(c(-c6ccccc6)c6ccc([nH]6)c(-c6ccccc6)c6nc(c(-c7ccccc7)c7ccc4[nH]7)C=C6)C=C5)cc3)S[C@@H]3CS(=O)(=O)C[C@@H]32)cc1
REMARK SMILES IDX 20 1 19 2 18 3 16 4 17 5 15 6 14 7 12 8 9 9 10 10 85 11
REMARK SMILES IDX 11 12 78 13 79 14 84 15 80 17 81 18 13 19 82 20 83 21 8 22
REMARK SMILES IDX 7 23 6 24 3 25 4 26 87 27 5 28 86 29 2 30 1 31 21 32 22 33
REMARK SMILES IDX 23 34 24 35 25 36 26 37 27 38 28 39 29 40 30 41 31 42 77 43
REMARK SMILES IDX 32 44 76 45 33 46 34 47 35 48 70 49 36 50 75 51 69 52 71 53
REMARK SMILES IDX 37 54 74 55 68 56 67 57 38 59 60 60 45 61 59 62 46 63 49 64
REMARK SMILES IDX 58 65 72 66 47 67 48 68 57 70 73 71 50 72 39 73 40 74 44 75
REMARK SMILES IDX 41 76 43 77 42 78 61 79 62 80 66 81 63 82 65 83 64 84 51 85
REMARK SMILES IDX 52 86 56 87 53 88 55 89 54 90
REMARK H PARENT 11 16 71 58 49 69
REMARK Flexibility Score: inf
ROOT
ATOM      1  C   UNL     1       3.047   8.697  -0.399  1.00  0.00     0.202 C 
ENDROOT
BRANCH   1   2
ATOM      2  C   UNL     1       1.900   7.770  -0.760  1.00  0.00     0.261 C 
BRANCH   2   3
ATOM      3  O   UNL     1       0.587   8.340  -0.692  1.00  0.00    -0.463 OA
BRANCH   3   4
ATOM      4  C   UNL     1      -0.238   7.999   0.313  1.00  0.00     0.306 C 
ATOM      5  O   UNL     1       0.119   7.452   1.347  1.00  0.00    -0.252 OA
BRANCH   4   6
ATOM      6  C   UNL     1      -1.652   8.475   0.048  1.00  0.00     0.135 C 
BRANCH   6   7
ATOM      7  C   UNL     1      -2.048   8.633  -1.421  1.00  0.00     0.139 C 
BRANCH   7   8
ATOM      8  C   UNL     1      -2.128   7.311  -2.149  1.00  0.00     0.308 C 
ATOM      9  N   UNL     1       0.029   5.429  -4.381  1.00  0.00    -0.251 N 
ATOM     10  C   UNL     1      -0.972   6.229  -3.829  1.00  0.00     0.314 C 
ATOM     11  C   UNL     1      -0.375   4.607  -5.539  1.00  0.00     0.206 C 
ATOM     12  N   UNL     1      -0.950   6.832  -2.687  1.00  0.00    -0.205 N 
ATOM     13  S   UNL     1      -2.365   6.220  -4.930  1.00  0.00    -0.030 SA
ATOM     14  C   UNL     1      -1.912   4.587  -5.540  1.00  0.00     0.120 C 
ATOM     15  C   UNL     1       0.121   3.157  -5.483  1.00  0.00     0.187 C 
ATOM     16  H   UNL     1      -0.100   6.949  -2.204  1.00  0.00     0.316 HD
ATOM     17  C   UNL     1      -2.341   3.494  -4.573  1.00  0.00     0.156 C 
ATOM     18  S   UNL     1      -1.288   2.156  -5.061  1.00  0.00     0.155 S 
ATOM     19  O   UNL     1      -3.178   6.671  -2.101  1.00  0.00    -0.247 OA
ATOM     20  O   UNL     1      -0.984   1.321  -3.920  1.00  0.00    -0.229 OA
ATOM     21  O   UNL     1      -1.818   1.603  -6.289  1.00  0.00    -0.229 OA
BRANCH   9  22
ATOM     22  C   UNL     1       1.461   5.563  -4.114  1.00  0.00     0.242 C 
BRANCH  22  23
ATOM     23  C   UNL     1       1.905   5.155  -2.710  1.00  0.00     0.081 C 
BRANCH  23  24
ATOM     24  C   UNL     1       1.561   3.810  -2.147  1.00  0.00    -0.044 A 
ATOM     25  C   UNL     1       0.839   1.393  -0.930  1.00  0.00     0.118 A 
ATOM     26  C   UNL     1      -0.101   2.405  -1.081  1.00  0.00     0.046 A 
ATOM     27  C   UNL     1       2.152   1.596  -1.358  1.00  0.00     0.046 A 
ATOM     28  C   UNL     1       0.262   3.607  -1.668  1.00  0.00     0.007 A 
ATOM     29  C   UNL     1       2.515   2.804  -1.967  1.00  0.00     0.007 A 
BRANCH  25  30
ATOM     30  O   UNL     1       0.345   0.212  -0.456  1.00  0.00    -0.497 OA
ATOM     31  C   UNL     1       1.142  -0.438   0.520  1.00  0.00     0.278 C 
ENDBRANCH  25  30
ENDBRANCH  23  24
ENDBRANCH  22  23
ENDBRANCH   9  22
ENDBRANCH   7   8
ENDBRANCH   6   7
ENDBRANCH   4   6
ENDBRANCH   3   4
ENDBRANCH   2   3
ENDBRANCH   1   2
BRANCH   1  32
ATOM     32  O   UNL     1       3.096   9.863  -1.226  1.00  0.00    -0.376 OA
BRANCH  32  33
ATOM     33  C   UNL     1       1.964  10.701  -1.058  1.00  0.00     0.188 C 
BRANCH  33  34
ATOM     34  C   UNL     1       0.935  10.661  -2.206  1.00  0.00     0.188 C 
BRANCH  34  35
ATOM     35  O   UNL     1       0.978   9.663  -3.213  1.00  0.00    -0.376 OA
BRANCH  35  36
ATOM     36  C   UNL     1       2.163   9.543  -3.993  1.00  0.00     0.202 C 
BRANCH  36  37
ATOM     37  C   UNL     1       2.765  10.778  -4.686  1.00  0.00     0.261 C 
BRANCH  37  38
ATOM     38  O   UNL     1       2.988  11.893  -3.809  1.00  0.00    -0.460 OA
BRANCH  38  39
ATOM     39  C   UNL     1       2.206  12.983  -4.032  1.00  0.00     0.338 C 
ATOM     40  O   UNL     1       1.442  13.171  -4.961  1.00  0.00    -0.246 OA
BRANCH  39  41
ATOM     41  C   UNL     1       2.187  13.785  -2.788  1.00  0.00     0.060 A 
ATOM     42  C   UNL     1       0.948  13.986  -2.151  1.00  0.00     0.016 A 
ATOM     43  C   UNL     1       3.367  14.237  -2.201  1.00  0.00     0.016 A 
ATOM     44  C   UNL     1       0.889  14.614  -0.912  1.00  0.00     0.010 A 
ATOM     45  C   UNL     1       3.301  14.931  -0.992  1.00  0.00     0.010 A 
ATOM     46  C   UNL     1       2.061  15.137  -0.357  1.00  0.00    -0.014 A 
BRANCH  46  47
ATOM     47  C   UNL     1       1.944  16.154   0.709  1.00  0.00     0.031 A 
ATOM     48  C   UNL     1       1.817  17.585   0.269  1.00  0.00     0.074 A 
ATOM     49  C   UNL     1       1.918  15.828   2.011  1.00  0.00     0.049 A 
ATOM     50  N   UNL     1       1.761  18.674   0.989  1.00  0.00    -0.248 NA
ATOM     51  C   UNL     1       1.744  17.816  -1.185  1.00  0.00     0.031 C 
ATOM     52  C   UNL     1       1.963  14.472   2.554  1.00  0.00     0.029 A 
ATOM     53  N   UNL     1       1.854  16.635   3.119  1.00  0.00    -0.354 N 
ATOM     54  C   UNL     1       1.648  19.714   0.076  1.00  0.00     0.074 A 
ATOM     55  C   UNL     1       1.675  19.135  -1.247  1.00  0.00     0.031 C 
ATOM     56  C   UNL     1       1.949  14.543   3.898  1.00  0.00     0.029 A 
ATOM     57  C   UNL     1       1.929  15.947   4.305  1.00  0.00     0.049 A 
ATOM     58  H   UNL     1       1.764  17.614   3.068  1.00  0.00     0.167 HD
ATOM     59  C   UNL     1       1.528  21.039   0.317  1.00  0.00     0.031 A 
ATOM     60  C   UNL     1       2.003  16.409   5.569  1.00  0.00     0.031 A 
ATOM     61  C   UNL     1       1.540  21.615   1.631  1.00  0.00     0.049 A 
ATOM     62  C   UNL     1       1.976  17.898   5.809  1.00  0.00     0.074 A 
ATOM     63  C   UNL     1       1.450  22.948   1.988  1.00  0.00     0.029 A 
ATOM     64  N   UNL     1       1.659  20.889   2.805  1.00  0.00    -0.354 N 
ATOM     65  N   UNL     1       1.864  18.877   4.942  1.00  0.00    -0.248 NA
ATOM     66  C   UNL     1       2.076  18.346   7.206  1.00  0.00     0.031 C 
ATOM     67  C   UNL     1       1.571  23.032   3.378  1.00  0.00     0.029 A 
ATOM     68  C   UNL     1       1.665  21.747   3.889  1.00  0.00     0.049 A 
ATOM     69  H   UNL     1       1.729  19.908   2.860  1.00  0.00     0.167 HD
ATOM     70  C   UNL     1       1.848  20.049   5.689  1.00  0.00     0.074 A 
ATOM     71  C   UNL     1       1.945  19.659   7.080  1.00  0.00     0.031 C 
ATOM     72  C   UNL     1       1.758  21.335   5.266  1.00  0.00     0.031 A 
BRANCH  59  73
ATOM     73  C   UNL     1       1.418  21.945  -0.875  1.00  0.00    -0.014 A 
ATOM     74  C   UNL     1       0.262  21.962  -1.672  1.00  0.00     0.009 A 
ATOM     75  C   UNL     1       2.481  22.801  -1.199  1.00  0.00     0.009 A 
ATOM     76  C   UNL     1       0.186  22.798  -2.787  1.00  0.00     0.001 A 
ATOM     77  C   UNL     1       2.390  23.658  -2.296  1.00  0.00     0.001 A 
ATOM     78  C   UNL     1       1.247  23.650  -3.094  1.00  0.00     0.000 A 
ENDBRANCH  59  73
BRANCH  60  79
ATOM     79  C   UNL     1       2.153  15.463   6.708  1.00  0.00    -0.014 A 
ATOM     80  C   UNL     1       1.138  15.320   7.667  1.00  0.00     0.009 A 
ATOM     81  C   UNL     1       3.337  14.725   6.864  1.00  0.00     0.009 A 
ATOM     82  C   UNL     1       1.320  14.485   8.772  1.00  0.00     0.001 A 
ATOM     83  C   UNL     1       3.503  13.866   7.952  1.00  0.00     0.001 A 
ATOM     84  C   UNL     1       2.500  13.755   8.912  1.00  0.00     0.000 A 
ENDBRANCH  60  79
BRANCH  72  85
ATOM     85  C   UNL     1       1.710  22.410   6.317  1.00  0.00    -0.014 A 
ATOM     86  C   UNL     1       2.840  22.745   7.077  1.00  0.00     0.009 A 
ATOM     87  C   UNL     1       0.523  23.137   6.505  1.00  0.00     0.009 A 
ATOM     88  C   UNL     1       2.772  23.763   8.031  1.00  0.00     0.001 A 
ATOM     89  C   UNL     1       0.467  24.176   7.435  1.00  0.00     0.001 A 
ATOM     90  C   UNL     1       1.588  24.481   8.204  1.00  0.00     0.000 A 
ENDBRANCH  72  85
ENDBRANCH  46  47
ENDBRANCH  39  41
ENDBRANCH  38  39
ENDBRANCH  37  38
ENDBRANCH  36  37
ENDBRANCH  35  36
ENDBRANCH  34  35
ENDBRANCH  33  34
ENDBRANCH  32  33
ENDBRANCH   1  32
TORSDOF 23
