REMARK SMILES O=C(OCCOCCOCCOC(=O)[C@@H]1CCc2[nH]ncc2C1)c1ccc(-c2c3nc(c(-c4ccccc4)c4ccc([nH]4)c(-c4ccccc4)c4nc(c(-c5ccccc5)c5ccc2[nH]5)C=C4)C=C3)cc1
REMARK SMILES IDX 7 1 6 2 5 3 4 4 3 5 2 6 1 7 24 8 25 9 71 10 26 11 70 12
REMARK SMILES IDX 27 13 28 14 29 15 64 16 30 17 69 18 63 19 65 20 31 21 68 22
REMARK SMILES IDX 62 23 61 24 32 26 54 27 39 28 53 29 40 30 43 31 52 32 66 33
REMARK SMILES IDX 41 34 42 35 51 37 67 38 44 39 33 40 34 41 38 42 35 43 37 44
REMARK SMILES IDX 36 45 55 46 56 47 60 48 57 49 59 50 58 51 45 52 46 53 50 54
REMARK SMILES IDX 47 55 49 56 48 57 8 58 9 59 10 60 11 61 12 62 13 63 14 64
REMARK SMILES IDX 15 65 16 66 23 67 17 68 22 69 18 70 21 71 19 72 20 73
REMARK H PARENT 65 25 43 36 19 74
REMARK Flexibility Score: inf
ROOT
ATOM      1  C   UNL     1       2.451   1.431   1.227  1.00  0.00     0.188 C 
ENDROOT
BRANCH   1   2
ATOM      2  O   UNL     1       3.806   0.962   1.244  1.00  0.00    -0.376 OA
BRANCH   2   3
ATOM      3  C   UNL     1       4.636   1.619   0.277  1.00  0.00     0.202 C 
BRANCH   3   4
ATOM      4  C   UNL     1       4.449   1.161  -1.181  1.00  0.00     0.261 C 
BRANCH   4   5
ATOM      5  O   UNL     1       3.132   0.670  -1.477  1.00  0.00    -0.460 OA
BRANCH   5   6
ATOM      6  C   UNL     1       2.621  -0.575  -1.318  1.00  0.00     0.338 C 
ATOM      7  O   UNL     1       1.472  -0.778  -1.711  1.00  0.00    -0.246 OA
BRANCH   6   8
ATOM      8  C   UNL     1       3.340  -1.719  -0.662  1.00  0.00     0.060 A 
ATOM      9  C   UNL     1       4.594  -1.654  -0.054  1.00  0.00     0.016 A 
ATOM     10  C   UNL     1       2.679  -2.963  -0.642  1.00  0.00     0.016 A 
ATOM     11  C   UNL     1       5.205  -2.771   0.499  1.00  0.00     0.010 A 
ATOM     12  C   UNL     1       3.273  -4.092  -0.066  1.00  0.00     0.010 A 
ATOM     13  C   UNL     1       4.556  -3.996   0.484  1.00  0.00    -0.014 A 
BRANCH  13  14
ATOM     14  C   UNL     1       5.327  -5.181   0.895  1.00  0.00     0.031 A 
ATOM     15  C   UNL     1       5.899  -6.047  -0.181  1.00  0.00     0.074 A 
ATOM     16  C   UNL     1       5.639  -5.386   2.187  1.00  0.00     0.049 A 
ATOM     17  N   UNL     1       6.638  -7.115  -0.063  1.00  0.00    -0.248 NA
ATOM     18  C   UNL     1       5.676  -5.609  -1.571  1.00  0.00     0.031 C 
ATOM     19  C   UNL     1       5.349  -4.467   3.283  1.00  0.00     0.029 A 
ATOM     20  N   UNL     1       6.250  -6.442   2.804  1.00  0.00    -0.354 N 
ATOM     21  C   UNL     1       7.013  -7.444  -1.356  1.00  0.00     0.074 A 
ATOM     22  C   UNL     1       6.371  -6.508  -2.249  1.00  0.00     0.031 C 
ATOM     23  C   UNL     1       5.637  -5.058   4.453  1.00  0.00     0.029 A 
ATOM     24  C   UNL     1       6.178  -6.377   4.176  1.00  0.00     0.049 A 
ATOM     25  H   UNL     1       6.695  -7.173   2.318  1.00  0.00     0.167 HD
ATOM     26  C   UNL     1       7.853  -8.427  -1.750  1.00  0.00     0.031 A 
ATOM     27  C   UNL     1       6.495  -7.299   5.100  1.00  0.00     0.031 A 
ATOM     28  C   UNL     1       8.434  -9.373  -0.840  1.00  0.00     0.049 A 
ATOM     29  C   UNL     1       7.195  -8.535   4.621  1.00  0.00     0.074 A 
ATOM     30  C   UNL     1       9.249 -10.453  -1.117  1.00  0.00     0.029 A 
ATOM     31  N   UNL     1       8.235  -9.357   0.535  1.00  0.00    -0.354 N 
ATOM     32  N   UNL     1       7.538  -8.855   3.395  1.00  0.00    -0.248 NA
ATOM     33  C   UNL     1       7.607  -9.501   5.642  1.00  0.00     0.031 C 
ATOM     34  C   UNL     1       9.484 -11.132   0.083  1.00  0.00     0.029 A 
ATOM     35  C   UNL     1       8.874 -10.436   1.117  1.00  0.00     0.049 A 
ATOM     36  H   UNL     1       7.715  -8.678   1.023  1.00  0.00     0.167 HD
ATOM     37  C   UNL     1       8.268 -10.026   3.502  1.00  0.00     0.074 A 
ATOM     38  C   UNL     1       8.304 -10.363   4.914  1.00  0.00     0.031 C 
ATOM     39  C   UNL     1       8.877 -10.744   2.526  1.00  0.00     0.031 A 
BRANCH  26  40
ATOM     40  C   UNL     1       8.120  -8.538  -3.222  1.00  0.00    -0.014 A 
ATOM     41  C   UNL     1       8.905  -7.587  -3.897  1.00  0.00     0.009 A 
ATOM     42  C   UNL     1       7.549  -9.589  -3.952  1.00  0.00     0.009 A 
ATOM     43  C   UNL     1       9.081  -7.670  -5.280  1.00  0.00     0.001 A 
ATOM     44  C   UNL     1       7.747  -9.684  -5.330  1.00  0.00     0.001 A 
ATOM     45  C   UNL     1       8.504  -8.719  -5.995  1.00  0.00     0.000 A 
ENDBRANCH  26  40
BRANCH  27  46
ATOM     46  C   UNL     1       6.155  -7.088   6.530  1.00  0.00    -0.014 A 
ATOM     47  C   UNL     1       7.149  -6.873   7.495  1.00  0.00     0.009 A 
ATOM     48  C   UNL     1       4.811  -7.120   6.941  1.00  0.00     0.009 A 
ATOM     49  C   UNL     1       6.808  -6.738   8.844  1.00  0.00     0.001 A 
ATOM     50  C   UNL     1       4.471  -6.961   8.287  1.00  0.00     0.001 A 
ATOM     51  C   UNL     1       5.472  -6.783   9.239  1.00  0.00     0.000 A 
ENDBRANCH  27  46
BRANCH  39  52
ATOM     52  C   UNL     1       9.665 -11.940   2.971  1.00  0.00    -0.014 A 
ATOM     53  C   UNL     1       9.030 -13.093   3.454  1.00  0.00     0.009 A 
ATOM     54  C   UNL     1      11.065 -11.914   2.877  1.00  0.00     0.009 A 
ATOM     55  C   UNL     1       9.788 -14.187   3.870  1.00  0.00     0.001 A 
ATOM     56  C   UNL     1      11.817 -13.023   3.257  1.00  0.00     0.001 A 
ATOM     57  C   UNL     1      11.178 -14.153   3.764  1.00  0.00     0.000 A 
ENDBRANCH  39  52
ENDBRANCH  13  14
ENDBRANCH   6   8
ENDBRANCH   5   6
ENDBRANCH   4   5
ENDBRANCH   3   4
ENDBRANCH   2   3
ENDBRANCH   1   2
BRANCH   1  58
ATOM     58  C   UNL     1       1.867   1.679   2.618  1.00  0.00     0.188 C 
BRANCH  58  59
ATOM     59  O   UNL     1       2.467   2.696   3.413  1.00  0.00    -0.376 OA
BRANCH  59  60
ATOM     60  C   UNL     1       3.869   2.631   3.628  1.00  0.00     0.202 C 
BRANCH  60  61
ATOM     61  C   UNL     1       4.433   1.487   4.484  1.00  0.00     0.261 C 
BRANCH  61  62
ATOM     62  O   UNL     1       3.850   0.191   4.273  1.00  0.00    -0.463 OA
BRANCH  62  63
ATOM     63  C   UNL     1       2.893  -0.152   5.178  1.00  0.00     0.309 C 
ATOM     64  O   UNL     1       2.514   0.580   6.090  1.00  0.00    -0.252 OA
BRANCH  63  65
ATOM     65  C   UNL     1       2.406  -1.579   5.020  1.00  0.00     0.104 C 
ATOM     66  C   UNL     1       2.410  -2.181   3.589  1.00  0.00     0.022 C 
ATOM     67  C   UNL     1       0.968  -1.679   5.597  1.00  0.00     0.054 C 
ATOM     68  C   UNL     1       2.055  -3.695   3.599  1.00  0.00     0.057 C 
ATOM     69  C   UNL     1       0.543  -3.097   5.561  1.00  0.00    -0.006 A 
ATOM     70  C   UNL     1       1.043  -3.985   4.640  1.00  0.00     0.038 A 
ATOM     71  C   UNL     1      -0.291  -3.868   6.383  1.00  0.00     0.138 A 
ATOM     72  N   UNL     1       0.551  -5.210   4.978  1.00  0.00    -0.282 N 
ATOM     73  N   UNL     1      -0.285  -5.160   6.034  1.00  0.00    -0.184 NA
ATOM     74  H   UNL     1       0.782  -6.040   4.503  1.00  0.00     0.190 HD
ENDBRANCH  63  65
ENDBRANCH  62  63
ENDBRANCH  61  62
ENDBRANCH  60  61
ENDBRANCH  59  60
ENDBRANCH  58  59
ENDBRANCH   1  58
TORSDOF 17
