REMARK SMILES Cc1c(-c2nn(-c3ccccc3)cc2/C=N/O)nnn1-c1ccc(C(=O)OCCOCCOCCOC(=O)c2ccc(-c3c4nc(c(-c5ccccc5)c5ccc([nH]5)c(-c5ccccc5)c5nc(c(-c6ccccc6)c6ccc3[nH]6)C=C5)C=C4)cc2)cc1
REMARK SMILES IDX 31 1 30 2 29 3 28 4 27 5 25 6 26 7 24 8 21 9 22 10 88 11
REMARK SMILES IDX 23 12 87 13 20 14 1 15 2 16 3 17 18 18 19 19 4 20 5 21 14 22
REMARK SMILES IDX 6 23 13 24 15 25 16 26 17 27 7 29 8 30 12 31 9 32 11 33
REMARK SMILES IDX 10 34 32 35 33 36 34 37 35 38 36 39 37 40 38 41 39 42 40 43
REMARK SMILES IDX 86 44 41 45 85 46 42 47 43 48 44 49 79 50 45 51 84 52 78 53
REMARK SMILES IDX 80 54 46 55 83 56 77 57 76 58 47 60 69 61 54 62 68 63 55 64
REMARK SMILES IDX 58 65 67 66 81 67 56 68 57 69 66 71 82 72 59 73 48 74 49 75
REMARK SMILES IDX 53 76 50 77 52 78 51 79 70 80 71 81 75 82 72 83 74 84 73 85
REMARK SMILES IDX 60 86 61 87 65 88 62 89 64 90 63 91
REMARK H PARENT 17 28 80 59 58 70
REMARK Flexibility Score: inf
ROOT
ATOM      1  C   UNL     1       2.764   7.346  -2.675  1.00  0.00     0.188 C 
ENDROOT
BRANCH   1   2
ATOM      2  O   UNL     1       2.932   7.684  -4.041  1.00  0.00    -0.376 OA
BRANCH   2   3
ATOM      3  C   UNL     1       3.682   6.750  -4.812  1.00  0.00     0.202 C 
BRANCH   3   4
ATOM      4  C   UNL     1       3.030   5.380  -5.072  1.00  0.00     0.261 C 
BRANCH   4   5
ATOM      5  O   UNL     1       2.451   4.734  -3.927  1.00  0.00    -0.460 OA
BRANCH   5   6
ATOM      6  C   UNL     1       3.298   4.117  -3.072  1.00  0.00     0.338 C 
ATOM      7  O   UNL     1       4.510   4.069  -3.164  1.00  0.00    -0.246 OA
BRANCH   6   8
ATOM      8  C   UNL     1       2.527   3.618  -1.903  1.00  0.00     0.060 A 
ATOM      9  C   UNL     1       1.211   2.558   0.317  1.00  0.00     0.067 A 
ATOM     10  C   UNL     1       2.417   3.242   0.496  1.00  0.00     0.029 A 
ATOM     11  C   UNL     1       0.610   2.495  -0.948  1.00  0.00     0.029 A 
ATOM     12  C   UNL     1       3.091   3.739  -0.624  1.00  0.00     0.018 A 
ATOM     13  C   UNL     1       1.260   3.042  -2.057  1.00  0.00     0.018 A 
BRANCH   9  14
ATOM     14  N   UNL     1       0.675   1.815   1.394  1.00  0.00    -0.217 N 
ATOM     15  C   UNL     1       0.516  -0.441   0.237  1.00  0.00     0.069 C 
ATOM     16  C   UNL     1       0.314   0.480   1.380  1.00  0.00     0.071 A 
ATOM     17  C   UNL     1      -0.074   0.239   2.682  1.00  0.00     0.137 A 
ATOM     18  N   UNL     1       0.114   1.355   3.443  1.00  0.00    -0.128 NA
ATOM     19  N   UNL     1       0.640   2.294   2.661  1.00  0.00    -0.061 NA
BRANCH  17  20
ATOM     20  C   UNL     1      -0.489  -1.043   3.246  1.00  0.00     0.124 A 
ATOM     21  N   UNL     1       0.383  -2.046   3.420  1.00  0.00    -0.165 NA
ATOM     22  C   UNL     1      -1.820  -1.432   3.514  1.00  0.00     0.044 A 
ATOM     23  N   UNL     1      -0.387  -3.123   3.690  1.00  0.00    -0.240 N 
ATOM     24  C   UNL     1      -1.721  -2.789   3.758  1.00  0.00     0.125 A 
BRANCH  22  25
ATOM     25  C   UNL     1      -3.055  -0.690   3.523  1.00  0.00     0.166 C 
ATOM     26  N   UNL     1      -3.065   0.558   3.195  1.00  0.00    -0.097 NA
BRANCH  26  27
ATOM     27  O   UNL     1      -4.368   1.056   3.316  1.00  0.00    -0.411 OA
ATOM     28  H   UNL     1      -4.548   1.953   3.113  1.00  0.00     0.330 HD
ENDBRANCH  26  27
ENDBRANCH  22  25
BRANCH  23  29
ATOM     29  C   UNL     1       0.184  -4.412   3.829  1.00  0.00     0.065 A 
ATOM     30  C   UNL     1       1.508  -4.534   4.274  1.00  0.00     0.028 A 
ATOM     31  C   UNL     1      -0.559  -5.559   3.520  1.00  0.00     0.028 A 
ATOM     32  C   UNL     1       2.070  -5.800   4.444  1.00  0.00     0.002 A 
ATOM     33  C   UNL     1       0.027  -6.821   3.650  1.00  0.00     0.002 A 
ATOM     34  C   UNL     1       1.333  -6.941   4.126  1.00  0.00     0.000 A 
ENDBRANCH  23  29
ENDBRANCH  17  20
ENDBRANCH   9  14
ENDBRANCH   6   8
ENDBRANCH   5   6
ENDBRANCH   4   5
ENDBRANCH   3   4
ENDBRANCH   2   3
ENDBRANCH   1   2
BRANCH   1  35
ATOM     35  C   UNL     1       1.315   7.009  -2.262  1.00  0.00     0.188 C 
BRANCH  35  36
ATOM     36  O   UNL     1       0.277   6.853  -3.224  1.00  0.00    -0.376 OA
BRANCH  36  37
ATOM     37  C   UNL     1       0.181   7.716  -4.348  1.00  0.00     0.202 C 
BRANCH  37  38
ATOM     38  C   UNL     1       0.028   9.222  -4.142  1.00  0.00     0.261 C 
BRANCH  38  39
ATOM     39  O   UNL     1       0.968   9.789  -3.238  1.00  0.00    -0.460 OA
BRANCH  39  40
ATOM     40  C   UNL     1       0.485   9.977  -1.990  1.00  0.00     0.338 C 
ATOM     41  O   UNL     1      -0.600   9.631  -1.560  1.00  0.00    -0.246 OA
BRANCH  40  42
ATOM     42  C   UNL     1       1.463  10.728  -1.188  1.00  0.00     0.060 A 
ATOM     43  C   UNL     1       1.202  10.838   0.182  1.00  0.00     0.016 A 
ATOM     44  C   UNL     1       2.464  11.488  -1.808  1.00  0.00     0.016 A 
ATOM     45  C   UNL     1       1.790  11.864   0.892  1.00  0.00     0.010 A 
ATOM     46  C   UNL     1       3.050  12.517  -1.098  1.00  0.00     0.010 A 
ATOM     47  C   UNL     1       2.627  12.752   0.213  1.00  0.00    -0.014 A 
BRANCH  47  48
ATOM     48  C   UNL     1       2.893  14.035   0.841  1.00  0.00     0.031 A 
ATOM     49  C   UNL     1       3.996  14.112   1.818  1.00  0.00     0.074 A 
ATOM     50  C   UNL     1       2.225  15.134   0.438  1.00  0.00     0.049 A 
ATOM     51  N   UNL     1       3.951  14.584   3.021  1.00  0.00    -0.248 NA
ATOM     52  C   UNL     1       5.306  13.585   1.416  1.00  0.00     0.031 C 
ATOM     53  C   UNL     1       1.319  15.250  -0.710  1.00  0.00     0.029 A 
ATOM     54  N   UNL     1       2.332  16.417   0.887  1.00  0.00    -0.354 N 
ATOM     55  C   UNL     1       5.258  14.549   3.490  1.00  0.00     0.074 A 
ATOM     56  C   UNL     1       6.037  13.845   2.499  1.00  0.00     0.031 C 
ATOM     57  C   UNL     1       1.158  16.556  -1.010  1.00  0.00     0.029 A 
ATOM     58  C   UNL     1       1.860  17.356  -0.018  1.00  0.00     0.049 A 
ATOM     59  H   UNL     1       2.706  16.654   1.766  1.00  0.00     0.167 HD
ATOM     60  C   UNL     1       5.664  15.257   4.576  1.00  0.00     0.031 A 
ATOM     61  C   UNL     1       2.104  18.687  -0.011  1.00  0.00     0.031 A 
ATOM     62  C   UNL     1       4.575  15.700   5.399  1.00  0.00     0.049 A 
ATOM     63  C   UNL     1       2.569  19.066   1.342  1.00  0.00     0.074 A 
ATOM     64  C   UNL     1       3.567  15.066   6.098  1.00  0.00     0.029 A 
ATOM     65  N   UNL     1       4.222  17.026   5.348  1.00  0.00    -0.354 N 
ATOM     66  N   UNL     1       1.800  19.103   2.392  1.00  0.00    -0.248 NA
ATOM     67  C   UNL     1       3.998  19.056   1.622  1.00  0.00     0.031 C 
ATOM     68  C   UNL     1       2.453  15.951   6.033  1.00  0.00     0.029 A 
ATOM     69  C   UNL     1       2.852  17.074   5.306  1.00  0.00     0.049 A 
ATOM     70  H   UNL     1       4.836  17.796   5.341  1.00  0.00     0.167 HD
ATOM     71  C   UNL     1       2.610  18.691   3.440  1.00  0.00     0.074 A 
ATOM     72  C   UNL     1       3.972  18.815   2.935  1.00  0.00     0.031 C 
ATOM     73  C   UNL     1       2.093  18.012   4.508  1.00  0.00     0.031 A 
BRANCH  60  74
ATOM     74  C   UNL     1       7.051  15.811   4.712  1.00  0.00    -0.014 A 
ATOM     75  C   UNL     1       7.485  16.294   5.956  1.00  0.00     0.009 A 
ATOM     76  C   UNL     1       7.855  16.103   3.592  1.00  0.00     0.009 A 
ATOM     77  C   UNL     1       8.657  17.052   6.068  1.00  0.00     0.001 A 
ATOM     78  C   UNL     1       9.046  16.822   3.707  1.00  0.00     0.001 A 
ATOM     79  C   UNL     1       9.437  17.313   4.944  1.00  0.00     0.000 A 
ENDBRANCH  60  74
BRANCH  61  80
ATOM     80  C   UNL     1       2.148  19.612  -1.165  1.00  0.00    -0.014 A 
ATOM     81  C   UNL     1       2.111  21.001  -0.975  1.00  0.00     0.009 A 
ATOM     82  C   UNL     1       2.438  19.140  -2.459  1.00  0.00     0.009 A 
ATOM     83  C   UNL     1       2.368  21.879  -2.037  1.00  0.00     0.001 A 
ATOM     84  C   UNL     1       2.676  20.014  -3.523  1.00  0.00     0.001 A 
ATOM     85  C   UNL     1       2.654  21.386  -3.308  1.00  0.00     0.000 A 
ENDBRANCH  61  80
BRANCH  73  86
ATOM     86  C   UNL     1       0.591  17.959   4.655  1.00  0.00    -0.014 A 
ATOM     87  C   UNL     1      -0.243  17.416   3.661  1.00  0.00     0.009 A 
ATOM     88  C   UNL     1       0.014  18.313   5.883  1.00  0.00     0.009 A 
ATOM     89  C   UNL     1      -1.617  17.273   3.873  1.00  0.00     0.001 A 
ATOM     90  C   UNL     1      -1.356  18.148   6.105  1.00  0.00     0.001 A 
ATOM     91  C   UNL     1      -2.172  17.635   5.097  1.00  0.00     0.000 A 
ENDBRANCH  73  86
ENDBRANCH  47  48
ENDBRANCH  40  42
ENDBRANCH  39  40
ENDBRANCH  38  39
ENDBRANCH  37  38
ENDBRANCH  36  37
ENDBRANCH  35  36
ENDBRANCH   1  35
TORSDOF 22
