REMARK SMILES O=C(C[C@H](Cc1ccc(Cl)cc1)C(=O)Nc1cc(Cl)ccc1Cl)OCCOCCOCCOC(=O)c1ccc(-c2c3nc(c(-c4ccccc4)c4ccc([nH]4)c(-c4ccccc4)c4nc(c(-c5ccccc5)c5ccc2[nH]5)C=C4)C=C3)cc1
REMARK SMILES IDX 28 1 27 2 26 3 25 4 24 5 2 6 1 7 3 8 4 9 13 10 14 11 15 12
REMARK SMILES IDX 16 14 17 15 22 16 18 17 21 18 23 19 19 20 20 21 5 22 6 23
REMARK SMILES IDX 7 24 12 25 8 26 11 27 9 28 10 29 29 30 30 31 31 32 32 33
REMARK SMILES IDX 33 34 34 35 35 36 36 37 37 38 83 39 38 40 82 41 39 42 40 43
REMARK SMILES IDX 41 44 76 45 42 46 81 47 75 48 77 49 43 50 80 51 74 52 73 53
REMARK SMILES IDX 44 55 66 56 51 57 65 58 52 59 55 60 64 61 78 62 53 63 54 64
REMARK SMILES IDX 63 66 79 67 56 68 45 69 46 70 50 71 47 72 49 73 48 74 67 75
REMARK SMILES IDX 68 76 72 77 69 78 71 79 70 80 57 81 58 82 62 83 59 84 61 85
REMARK SMILES IDX 60 86
REMARK H PARENT 15 13 77 54 55 65
REMARK Flexibility Score: inf
ROOT
ATOM      1  C   UNL     1       4.786  -2.345  -1.248  1.00  0.00     0.188 C 
ENDROOT
BRANCH   1   2
ATOM      2  O   UNL     1       3.540  -2.233  -0.583  1.00  0.00    -0.376 OA
BRANCH   2   3
ATOM      3  C   UNL     1       2.528  -1.388  -1.076  1.00  0.00     0.202 C 
BRANCH   3   4
ATOM      4  C   UNL     1       2.799   0.109  -1.153  1.00  0.00     0.261 C 
BRANCH   4   5
ATOM      5  O   UNL     1       4.026   0.674  -0.655  1.00  0.00    -0.463 OA
BRANCH   5   6
ATOM      6  C   UNL     1       4.902   0.227   0.249  1.00  0.00     0.306 C 
ATOM      7  O   UNL     1       6.105   0.345   0.002  1.00  0.00    -0.252 OA
BRANCH   6   8
ATOM      8  C   UNL     1       4.469  -0.403   1.545  1.00  0.00     0.136 C 
BRANCH   8   9
ATOM      9  C   UNL     1       3.705   0.391   2.599  1.00  0.00     0.094 C 
BRANCH   9  10
ATOM     10  C   UNL     1       4.600   1.285   3.471  1.00  0.00     0.228 C 
ATOM     11  O   UNL     1       4.564   1.128   4.699  1.00  0.00    -0.274 OA
ATOM     12  N   UNL     1       5.528   2.160   2.998  1.00  0.00    -0.324 N 
ATOM     13  H   UNL     1       6.192   2.427   3.674  1.00  0.00     0.169 HD
BRANCH  12  14
ATOM     14  C   UNL     1       5.736   2.762   1.746  1.00  0.00     0.061 A 
ATOM     15  C   UNL     1       4.680   3.249   0.980  1.00  0.00     0.048 A 
ATOM     16  C   UNL     1       7.051   2.896   1.256  1.00  0.00     0.064 A 
ATOM     17  C   UNL     1       4.913   3.718  -0.317  1.00  0.00     0.043 A 
ATOM     18  C   UNL     1       7.280   3.364  -0.041  1.00  0.00     0.024 A 
ATOM     19  Cl  UNL     1       8.410   2.378   2.192  1.00  0.00    -0.082 Cl
ATOM     20  Cl  UNL     1       3.581   4.215  -1.287  1.00  0.00    -0.084 Cl
ATOM     21  C   UNL     1       6.203   3.750  -0.841  1.00  0.00     0.022 A 
ENDBRANCH  12  14
ENDBRANCH   9  10
BRANCH   9  22
ATOM     22  C   UNL     1       2.353   1.000   2.228  1.00  0.00     0.049 C 
BRANCH  22  23
ATOM     23  C   UNL     1       1.182   0.091   1.879  1.00  0.00    -0.047 A 
ATOM     24  C   UNL     1       0.076   0.692   1.244  1.00  0.00     0.005 A 
ATOM     25  C   UNL     1       1.136  -1.293   2.105  1.00  0.00     0.005 A 
ATOM     26  C   UNL     1      -0.991  -0.071   0.764  1.00  0.00     0.021 A 
ATOM     27  C   UNL     1       0.061  -2.061   1.626  1.00  0.00     0.021 A 
ATOM     28  C   UNL     1      -0.985  -1.450   0.939  1.00  0.00     0.041 A 
ATOM     29  Cl  UNL     1      -2.249  -2.402   0.265  1.00  0.00    -0.084 Cl
ENDBRANCH  22  23
ENDBRANCH   9  22
ENDBRANCH   8   9
ENDBRANCH   6   8
ENDBRANCH   5   6
ENDBRANCH   4   5
ENDBRANCH   3   4
ENDBRANCH   2   3
ENDBRANCH   1   2
BRANCH   1  30
ATOM     30  C   UNL     1       4.925  -1.911  -2.705  1.00  0.00     0.188 C 
BRANCH  30  31
ATOM     31  O   UNL     1       3.732  -2.078  -3.450  1.00  0.00    -0.376 OA
BRANCH  31  32
ATOM     32  C   UNL     1       3.573  -3.300  -4.157  1.00  0.00     0.202 C 
BRANCH  32  33
ATOM     33  C   UNL     1       3.376  -4.593  -3.342  1.00  0.00     0.261 C 
BRANCH  33  34
ATOM     34  O   UNL     1       4.408  -5.004  -2.423  1.00  0.00    -0.460 OA
BRANCH  34  35
ATOM     35  C   UNL     1       5.679  -5.138  -2.857  1.00  0.00     0.338 C 
ATOM     36  O   UNL     1       6.074  -4.995  -4.003  1.00  0.00    -0.246 OA
BRANCH  35  37
ATOM     37  C   UNL     1       6.580  -5.295  -1.679  1.00  0.00     0.060 A 
ATOM     38  C   UNL     1       7.646  -4.398  -1.519  1.00  0.00     0.016 A 
ATOM     39  C   UNL     1       6.375  -6.298  -0.726  1.00  0.00     0.016 A 
ATOM     40  C   UNL     1       8.549  -4.549  -0.459  1.00  0.00     0.010 A 
ATOM     41  C   UNL     1       7.291  -6.459   0.327  1.00  0.00     0.010 A 
ATOM     42  C   UNL     1       8.415  -5.618   0.437  1.00  0.00    -0.014 A 
BRANCH  42  43
ATOM     43  C   UNL     1       9.559  -5.981   1.323  1.00  0.00     0.031 A 
ATOM     44  C   UNL     1      10.478  -7.098   0.886  1.00  0.00     0.074 A 
ATOM     45  C   UNL     1       9.837  -5.310   2.457  1.00  0.00     0.049 A 
ATOM     46  N   UNL     1      11.557  -7.567   1.462  1.00  0.00    -0.248 NA
ATOM     47  C   UNL     1      10.130  -7.774  -0.375  1.00  0.00     0.031 C 
ATOM     48  C   UNL     1       9.068  -4.190   2.993  1.00  0.00     0.029 A 
ATOM     49  N   UNL     1      10.858  -5.481   3.365  1.00  0.00    -0.354 N 
ATOM     50  C   UNL     1      12.019  -8.583   0.631  1.00  0.00     0.074 A 
ATOM     51  C   UNL     1      11.076  -8.697  -0.460  1.00  0.00     0.031 C 
ATOM     52  C   UNL     1       9.641  -3.775   4.138  1.00  0.00     0.029 A 
ATOM     53  C   UNL     1      10.804  -4.613   4.430  1.00  0.00     0.049 A 
ATOM     54  H   UNL     1      11.562  -6.161   3.261  1.00  0.00     0.167 HD
ATOM     55  C   UNL     1      13.134  -9.344   0.746  1.00  0.00     0.031 A 
ATOM     56  C   UNL     1      11.594  -4.511   5.519  1.00  0.00     0.031 A 
ATOM     57  C   UNL     1      14.068  -9.262   1.837  1.00  0.00     0.049 A 
ATOM     58  C   UNL     1      12.785  -5.426   5.669  1.00  0.00     0.074 A 
ATOM     59  C   UNL     1      15.224  -9.996   2.040  1.00  0.00     0.029 A 
ATOM     60  N   UNL     1      13.950  -8.399   2.914  1.00  0.00    -0.354 N 
ATOM     61  N   UNL     1      13.225  -6.358   4.858  1.00  0.00    -0.248 NA
ATOM     62  C   UNL     1      13.602  -5.256   6.882  1.00  0.00     0.031 C 
ATOM     63  C   UNL     1      15.773  -9.619   3.270  1.00  0.00     0.029 A 
ATOM     64  C   UNL     1      14.999  -8.598   3.797  1.00  0.00     0.049 A 
ATOM     65  H   UNL     1      13.227  -7.741   3.034  1.00  0.00     0.167 HD
ATOM     66  C   UNL     1      14.380  -6.862   5.446  1.00  0.00     0.074 A 
ATOM     67  C   UNL     1      14.589  -6.114   6.668  1.00  0.00     0.031 C 
ATOM     68  C   UNL     1      15.196  -7.856   5.015  1.00  0.00     0.031 A 
BRANCH  55  69
ATOM     69  C   UNL     1      13.394 -10.355  -0.339  1.00  0.00    -0.014 A 
ATOM     70  C   UNL     1      13.762  -9.953  -1.634  1.00  0.00     0.009 A 
ATOM     71  C   UNL     1      13.307 -11.726  -0.055  1.00  0.00     0.009 A 
ATOM     72  C   UNL     1      14.003 -10.904  -2.629  1.00  0.00     0.001 A 
ATOM     73  C   UNL     1      13.580 -12.675  -1.043  1.00  0.00     0.001 A 
ATOM     74  C   UNL     1      13.918 -12.263  -2.331  1.00  0.00     0.000 A 
ENDBRANCH  55  69
BRANCH  56  75
ATOM     75  C   UNL     1      11.280  -3.518   6.585  1.00  0.00    -0.014 A 
ATOM     76  C   UNL     1      12.140  -2.441   6.851  1.00  0.00     0.009 A 
ATOM     77  C   UNL     1      10.134  -3.676   7.381  1.00  0.00     0.009 A 
ATOM     78  C   UNL     1      11.879  -1.568   7.912  1.00  0.00     0.001 A 
ATOM     79  C   UNL     1       9.856  -2.781   8.417  1.00  0.00     0.001 A 
ATOM     80  C   UNL     1      10.735  -1.736   8.690  1.00  0.00     0.000 A 
ENDBRANCH  56  75
BRANCH  68  81
ATOM     81  C   UNL     1      16.411  -8.166   5.851  1.00  0.00    -0.014 A 
ATOM     82  C   UNL     1      16.300  -8.746   7.125  1.00  0.00     0.009 A 
ATOM     83  C   UNL     1      17.691  -7.885   5.346  1.00  0.00     0.009 A 
ATOM     84  C   UNL     1      17.440  -8.986   7.896  1.00  0.00     0.001 A 
ATOM     85  C   UNL     1      18.831  -8.161   6.104  1.00  0.00     0.001 A 
ATOM     86  C   UNL     1      18.704  -8.696   7.384  1.00  0.00     0.000 A 
ENDBRANCH  68  81
ENDBRANCH  42  43
ENDBRANCH  35  37
ENDBRANCH  34  35
ENDBRANCH  33  34
ENDBRANCH  32  33
ENDBRANCH  31  32
ENDBRANCH  30  31
ENDBRANCH   1  30
TORSDOF 22
