REMARK SMILES CC[NH2+][C@@]1(C(=O)OCCOCCOCCOC(=O)c2ccc(-c3c4nc(c(-c5ccccc5)c5ccc([nH]5)c(-c5ccccc5)c5nc(c(-c6ccccc6)c6ccc3[nH]6)C=C5)C=C4)cc2)CC[C@@H](OCCOC)C1
REMARK SMILES IDX 11 1 10 2 9 3 8 4 7 5 5 6 6 7 4 8 67 9 75 10 68 11 69 12
REMARK SMILES IDX 3 13 2 16 1 17 70 18 71 19 72 20 73 21 74 22 12 23 13 24
REMARK SMILES IDX 14 25 15 26 16 27 17 28 18 29 19 30 20 31 66 32 21 33 65 34
REMARK SMILES IDX 22 35 23 36 24 37 59 38 25 39 64 40 58 41 60 42 26 43 63 44
REMARK SMILES IDX 57 45 56 46 27 48 49 49 34 50 48 51 35 52 38 53 47 54 61 55
REMARK SMILES IDX 36 56 37 57 46 59 62 60 39 61 28 62 29 63 33 64 30 65 32 66
REMARK SMILES IDX 31 67 50 68 51 69 55 70 52 71 54 72 53 73 40 74 41 75 45 76
REMARK SMILES IDX 42 77 44 78 43 79
REMARK H PARENT 3 14 3 15 60 47 38 58
REMARK Flexibility Score: inf
ROOT
ATOM      1  C   UNL     1       3.449   0.238   5.336  1.00  0.00     0.188 C 
ENDROOT
BRANCH   1   2
ATOM      2  O   UNL     1       3.004   0.945   6.489  1.00  0.00    -0.376 OA
BRANCH   2   3
ATOM      3  C   UNL     1       2.066   0.347   7.370  1.00  0.00     0.202 C 
BRANCH   3   4
ATOM      4  C   UNL     1       0.641   0.115   6.846  1.00  0.00     0.261 C 
BRANCH   4   5
ATOM      5  O   UNL     1       0.520  -0.614   5.606  1.00  0.00    -0.459 OA
BRANCH   5   6
ATOM      6  C   UNL     1       0.211   0.118   4.500  1.00  0.00     0.368 C 
ATOM      7  O   UNL     1       0.070   1.338   4.526  1.00  0.00    -0.245 OA
BRANCH   6   8
ATOM      8  C   UNL     1      -0.003  -0.742   3.183  1.00  0.00     0.196 C 
ATOM      9  C   UNL     1      -1.525  -0.942   3.090  1.00  0.00     0.084 C 
ATOM     10  C   UNL     1       0.458  -2.209   3.146  1.00  0.00     0.113 C 
ATOM     11  C   UNL     1      -1.802  -2.109   4.048  1.00  0.00     0.039 C 
ATOM     12  C   UNL     1      -0.522  -2.954   4.049  1.00  0.00     0.125 C 
BRANCH   8  13
ATOM     13  N   UNL     1       0.612   0.053   2.094  1.00  0.00    -0.332 N 
ATOM     14  H   UNL     1       0.227   0.996   2.158  1.00  0.00     0.347 HD
ATOM     15  H   UNL     1       1.614  -0.040   2.256  1.00  0.00     0.347 HD
BRANCH  13  16
ATOM     16  C   UNL     1       0.436  -0.388   0.721  1.00  0.00     0.257 C 
ATOM     17  C   UNL     1       1.119   0.603  -0.213  1.00  0.00     0.071 C 
ENDBRANCH  13  16
ENDBRANCH   8  13
BRANCH  12  18
ATOM     18  O   UNL     1      -0.624  -4.330   3.718  1.00  0.00    -0.376 OA
BRANCH  18  19
ATOM     19  C   UNL     1      -1.336  -4.715   2.552  1.00  0.00     0.189 C 
BRANCH  19  20
ATOM     20  C   UNL     1      -2.841  -4.990   2.736  1.00  0.00     0.188 C 
BRANCH  20  21
ATOM     21  O   UNL     1      -3.404  -4.912   4.043  1.00  0.00    -0.382 OA
ATOM     22  C   UNL     1      -2.693  -5.594   5.064  1.00  0.00     0.195 C 
ENDBRANCH  20  21
ENDBRANCH  19  20
ENDBRANCH  18  19
ENDBRANCH  12  18
ENDBRANCH   6   8
ENDBRANCH   5   6
ENDBRANCH   4   5
ENDBRANCH   3   4
ENDBRANCH   2   3
ENDBRANCH   1   2
BRANCH   1  23
ATOM     23  C   UNL     1       3.305  -1.287   5.262  1.00  0.00     0.188 C 
BRANCH  23  24
ATOM     24  O   UNL     1       3.355  -1.943   6.511  1.00  0.00    -0.376 OA
BRANCH  24  25
ATOM     25  C   UNL     1       4.337  -2.952   6.658  1.00  0.00     0.202 C 
BRANCH  25  26
ATOM     26  C   UNL     1       5.753  -2.384   6.787  1.00  0.00     0.261 C 
BRANCH  26  27
ATOM     27  O   UNL     1       6.181  -1.565   5.683  1.00  0.00    -0.460 OA
BRANCH  27  28
ATOM     28  C   UNL     1       6.333  -2.162   4.478  1.00  0.00     0.338 C 
ATOM     29  O   UNL     1       6.203  -3.346   4.221  1.00  0.00    -0.246 OA
BRANCH  28  30
ATOM     30  C   UNL     1       6.436  -1.081   3.470  1.00  0.00     0.060 A 
ATOM     31  C   UNL     1       5.543  -1.059   2.386  1.00  0.00     0.016 A 
ATOM     32  C   UNL     1       7.374  -0.061   3.629  1.00  0.00     0.016 A 
ATOM     33  C   UNL     1       5.595  -0.018   1.452  1.00  0.00     0.010 A 
ATOM     34  C   UNL     1       7.444   0.961   2.682  1.00  0.00     0.010 A 
ATOM     35  C   UNL     1       6.573   0.977   1.577  1.00  0.00    -0.014 A 
BRANCH  35  36
ATOM     36  C   UNL     1       6.878   1.906   0.462  1.00  0.00     0.031 A 
ATOM     37  C   UNL     1       7.983   1.517  -0.480  1.00  0.00     0.074 A 
ATOM     38  C   UNL     1       6.260   3.091   0.320  1.00  0.00     0.049 A 
ATOM     39  N   UNL     1       8.602   2.234  -1.380  1.00  0.00    -0.248 NA
ATOM     40  C   UNL     1       8.461   0.127  -0.378  1.00  0.00     0.031 C 
ATOM     41  C   UNL     1       5.124   3.563   1.108  1.00  0.00     0.029 A 
ATOM     42  N   UNL     1       6.534   4.132  -0.535  1.00  0.00    -0.354 N 
ATOM     43  C   UNL     1       9.557   1.391  -1.934  1.00  0.00     0.074 A 
ATOM     44  C   UNL     1       9.444   0.115  -1.263  1.00  0.00     0.031 C 
ATOM     45  C   UNL     1       4.815   4.814   0.716  1.00  0.00     0.029 A 
ATOM     46  C   UNL     1       5.766   5.248  -0.307  1.00  0.00     0.049 A 
ATOM     47  H   UNL     1       7.216   4.082  -1.244  1.00  0.00     0.167 HD
ATOM     48  C   UNL     1      10.457   1.657  -2.909  1.00  0.00     0.031 A 
ATOM     49  C   UNL     1       5.855   6.488  -0.830  1.00  0.00     0.031 A 
ATOM     50  C   UNL     1      10.591   2.932  -3.556  1.00  0.00     0.049 A 
ATOM     51  C   UNL     1       6.944   6.798  -1.830  1.00  0.00     0.074 A 
ATOM     52  C   UNL     1      11.484   3.308  -4.543  1.00  0.00     0.029 A 
ATOM     53  N   UNL     1       9.811   4.042  -3.273  1.00  0.00    -0.354 N 
ATOM     54  N   UNL     1       7.853   6.003  -2.341  1.00  0.00    -0.248 NA
ATOM     55  C   UNL     1       7.022   8.184  -2.321  1.00  0.00     0.031 C 
ATOM     56  C   UNL     1      11.280   4.662  -4.821  1.00  0.00     0.029 A 
ATOM     57  C   UNL     1      10.214   5.109  -4.055  1.00  0.00     0.049 A 
ATOM     58  H   UNL     1       9.079   4.067  -2.615  1.00  0.00     0.167 HD
ATOM     59  C   UNL     1       8.575   6.777  -3.243  1.00  0.00     0.074 A 
ATOM     60  C   UNL     1       8.004   8.106  -3.209  1.00  0.00     0.031 C 
ATOM     61  C   UNL     1       9.615   6.417  -4.034  1.00  0.00     0.031 A 
BRANCH  48  62
ATOM     62  C   UNL     1      11.400   0.554  -3.294  1.00  0.00    -0.014 A 
ATOM     63  C   UNL     1      10.954  -0.571  -4.006  1.00  0.00     0.009 A 
ATOM     64  C   UNL     1      12.758   0.653  -2.956  1.00  0.00     0.009 A 
ATOM     65  C   UNL     1      11.846  -1.591  -4.342  1.00  0.00     0.001 A 
ATOM     66  C   UNL     1      13.653  -0.353  -3.321  1.00  0.00     0.001 A 
ATOM     67  C   UNL     1      13.195  -1.478  -4.004  1.00  0.00     0.000 A 
ENDBRANCH  48  62
BRANCH  49  68
ATOM     68  C   UNL     1       4.919   7.561  -0.396  1.00  0.00    -0.014 A 
ATOM     69  C   UNL     1       3.986   8.100  -1.296  1.00  0.00     0.009 A 
ATOM     70  C   UNL     1       4.985   8.088   0.903  1.00  0.00     0.009 A 
ATOM     71  C   UNL     1       3.161   9.162  -0.914  1.00  0.00     0.001 A 
ATOM     72  C   UNL     1       4.138   9.129   1.293  1.00  0.00     0.001 A 
ATOM     73  C   UNL     1       3.235   9.672   0.381  1.00  0.00     0.000 A 
ENDBRANCH  49  68
BRANCH  61  74
ATOM     74  C   UNL     1      10.161   7.438  -4.994  1.00  0.00    -0.014 A 
ATOM     75  C   UNL     1      10.960   8.505  -4.560  1.00  0.00     0.009 A 
ATOM     76  C   UNL     1       9.945   7.264  -6.371  1.00  0.00     0.009 A 
ATOM     77  C   UNL     1      11.519   9.387  -5.488  1.00  0.00     0.001 A 
ATOM     78  C   UNL     1      10.527   8.130  -7.297  1.00  0.00     0.001 A 
ATOM     79  C   UNL     1      11.310   9.194  -6.854  1.00  0.00     0.000 A 
ENDBRANCH  61  74
ENDBRANCH  35  36
ENDBRANCH  28  30
ENDBRANCH  27  28
ENDBRANCH  26  27
ENDBRANCH  25  26
ENDBRANCH  24  25
ENDBRANCH  23  24
ENDBRANCH   1  23
TORSDOF 23
