REMARK SMILES CC[C@@](C)(NC(=O)c1cccc(Br)c1C)C(=O)OCCOCCOCCOC(=O)c1ccc(-c2c3nc(c(-c4ccccc4)c4ccc([nH]4)c(-c4ccccc4)c4nc(c(-c5ccccc5)c5ccc2[nH]5)C=C4)C=C3)cc1
REMARK SMILES IDX 22 1 21 2 20 3 19 4 18 5 16 6 17 7 3 8 4 9 2 10 1 11 5 12
REMARK SMILES IDX 6 13 7 15 8 16 9 17 14 18 10 19 12 20 15 21 11 22 13 23
REMARK SMILES IDX 23 24 24 25 25 26 26 27 27 28 28 29 29 30 30 31 31 32 77 33
REMARK SMILES IDX 32 34 76 35 33 36 34 37 35 38 70 39 36 40 75 41 69 42 71 43
REMARK SMILES IDX 37 44 74 45 68 46 67 47 38 49 60 50 45 51 59 52 46 53 49 54
REMARK SMILES IDX 58 55 72 56 47 57 48 58 57 60 73 61 50 62 39 63 40 64 44 65
REMARK SMILES IDX 41 66 43 67 42 68 61 69 62 70 66 71 63 72 65 73 64 74 51 75
REMARK SMILES IDX 52 76 56 77 53 78 55 79 54 80
REMARK H PARENT 5 14 71 48 49 59
REMARK Flexibility Score: inf
ROOT
ATOM      1  C   UNL     1       3.280   3.109   0.278  1.00  0.00     0.188 C 
ENDROOT
BRANCH   1   2
ATOM      2  O   UNL     1       4.674   3.086  -0.026  1.00  0.00    -0.376 OA
BRANCH   2   3
ATOM      3  C   UNL     1       5.220   1.752  -0.093  1.00  0.00     0.202 C 
BRANCH   3   4
ATOM      4  C   UNL     1       4.935   0.905  -1.359  1.00  0.00     0.261 C 
BRANCH   4   5
ATOM      5  O   UNL     1       3.677   1.215  -1.956  1.00  0.00    -0.462 OA
BRANCH   5   6
ATOM      6  C   UNL     1       2.594   0.462  -1.685  1.00  0.00     0.331 C 
ATOM      7  O   UNL     1       2.646  -0.658  -1.197  1.00  0.00    -0.249 OA
BRANCH   6   8
ATOM      8  C   UNL     1       1.290   1.238  -2.045  1.00  0.00     0.135 C 
ATOM      9  C   UNL     1       0.542   0.481  -3.147  1.00  0.00     0.047 C 
BRANCH   8  10
ATOM     10  C   UNL     1       0.366   1.263  -0.752  1.00  0.00     0.037 C 
ATOM     11  C   UNL     1       0.075  -0.055  -0.033  1.00  0.00     0.007 C 
ENDBRANCH   8  10
BRANCH   8  12
ATOM     12  N   UNL     1       1.429   2.700  -2.472  1.00  0.00    -0.336 N 
ATOM     13  C   UNL     1       2.216   3.502  -3.283  1.00  0.00     0.252 C 
ATOM     14  H   UNL     1       0.738   3.245  -2.031  1.00  0.00     0.165 HD
ATOM     15  O   UNL     1       1.673   4.514  -3.738  1.00  0.00    -0.269 OA
BRANCH  13  16
ATOM     16  C   UNL     1       3.673   3.342  -3.595  1.00  0.00     0.043 A 
ATOM     17  C   UNL     1       4.620   3.999  -2.791  1.00  0.00     0.014 A 
ATOM     18  C   UNL     1       4.141   2.772  -4.784  1.00  0.00    -0.024 A 
ATOM     19  C   UNL     1       5.990   4.013  -3.033  1.00  0.00     0.002 A 
ATOM     20  C   UNL     1       5.541   2.766  -5.027  1.00  0.00     0.021 A 
ATOM     21  C   UNL     1       3.168   2.176  -5.753  1.00  0.00     0.046 C 
ATOM     22  C   UNL     1       6.457   3.377  -4.158  1.00  0.00     0.016 A 
ATOM     23  Br  UNL     1       6.301   1.936  -6.559  1.00  0.00    -0.051 Br
ENDBRANCH  13  16
ENDBRANCH   8  12
ENDBRANCH   6   8
ENDBRANCH   5   6
ENDBRANCH   4   5
ENDBRANCH   3   4
ENDBRANCH   2   3
ENDBRANCH   1   2
BRANCH   1  24
ATOM     24  C   UNL     1       2.571   4.470   0.224  1.00  0.00     0.188 C 
BRANCH  24  25
ATOM     25  O   UNL     1       2.864   5.316  -0.864  1.00  0.00    -0.376 OA
BRANCH  25  26
ATOM     26  C   UNL     1       3.276   6.662  -0.604  1.00  0.00     0.202 C 
BRANCH  26  27
ATOM     27  C   UNL     1       4.534   6.852   0.274  1.00  0.00     0.261 C 
BRANCH  27  28
ATOM     28  O   UNL     1       4.410   6.376   1.629  1.00  0.00    -0.460 OA
BRANCH  28  29
ATOM     29  C   UNL     1       3.388   6.901   2.352  1.00  0.00     0.338 C 
ATOM     30  O   UNL     1       2.737   7.893   2.097  1.00  0.00    -0.246 OA
BRANCH  29  31
ATOM     31  C   UNL     1       2.959   5.856   3.312  1.00  0.00     0.060 A 
ATOM     32  C   UNL     1       1.654   5.348   3.170  1.00  0.00     0.016 A 
ATOM     33  C   UNL     1       3.837   5.316   4.252  1.00  0.00     0.016 A 
ATOM     34  C   UNL     1       1.210   4.320   3.989  1.00  0.00     0.010 A 
ATOM     35  C   UNL     1       3.362   4.348   5.138  1.00  0.00     0.010 A 
ATOM     36  C   UNL     1       2.032   3.897   5.038  1.00  0.00    -0.014 A 
BRANCH  36  37
ATOM     37  C   UNL     1       1.348   3.351   6.227  1.00  0.00     0.031 A 
ATOM     38  C   UNL     1       0.818   4.363   7.210  1.00  0.00     0.074 A 
ATOM     39  C   UNL     1       1.109   2.040   6.377  1.00  0.00     0.049 A 
ATOM     40  N   UNL     1       0.168   4.180   8.327  1.00  0.00    -0.248 NA
ATOM     41  C   UNL     1       1.043   5.782   6.872  1.00  0.00     0.031 C 
ATOM     42  C   UNL     1       1.476   0.991   5.428  1.00  0.00     0.029 A 
ATOM     43  N   UNL     1       0.477   1.375   7.394  1.00  0.00    -0.354 N 
ATOM     44  C   UNL     1      -0.080   5.455   8.823  1.00  0.00     0.074 A 
ATOM     45  C   UNL     1       0.496   6.402   7.901  1.00  0.00     0.031 C 
ATOM     46  C   UNL     1       1.063  -0.194   5.913  1.00  0.00     0.029 A 
ATOM     47  C   UNL     1       0.442   0.015   7.220  1.00  0.00     0.049 A 
ATOM     48  H   UNL     1       0.086   1.829   8.174  1.00  0.00     0.167 HD
ATOM     49  C   UNL     1      -0.727   5.809   9.955  1.00  0.00     0.031 A 
ATOM     50  C   UNL     1      -0.021  -0.943   8.045  1.00  0.00     0.031 A 
ATOM     51  C   UNL     1      -1.268   4.858  10.882  1.00  0.00     0.049 A 
ATOM     52  C   UNL     1      -0.628  -0.531   9.362  1.00  0.00     0.074 A 
ATOM     53  C   UNL     1      -1.921   5.091  12.077  1.00  0.00     0.029 A 
ATOM     54  N   UNL     1      -1.202   3.482  10.715  1.00  0.00    -0.354 N 
ATOM     55  N   UNL     1      -0.845   0.674   9.836  1.00  0.00    -0.248 NA
ATOM     56  C   UNL     1      -1.057  -1.615  10.257  1.00  0.00     0.031 C 
ATOM     57  C   UNL     1      -2.194   3.852  12.665  1.00  0.00     0.029 A 
ATOM     58  C   UNL     1      -1.777   2.850  11.801  1.00  0.00     0.049 A 
ATOM     59  H   UNL     1      -0.806   3.025   9.939  1.00  0.00     0.167 HD
ATOM     60  C   UNL     1      -1.467   0.494  11.066  1.00  0.00     0.074 A 
ATOM     61  C   UNL     1      -1.602  -0.936  11.256  1.00  0.00     0.031 C 
ATOM     62  C   UNL     1      -1.894   1.423  11.959  1.00  0.00     0.031 A 
BRANCH  49  63
ATOM     63  C   UNL     1      -0.798   7.276  10.275  1.00  0.00    -0.014 A 
ATOM     64  C   UNL     1      -1.589   8.161   9.523  1.00  0.00     0.009 A 
ATOM     65  C   UNL     1      -0.035   7.784  11.337  1.00  0.00     0.009 A 
ATOM     66  C   UNL     1      -1.582   9.529   9.806  1.00  0.00     0.001 A 
ATOM     67  C   UNL     1      -0.055   9.147  11.638  1.00  0.00     0.001 A 
ATOM     68  C   UNL     1      -0.820  10.019  10.866  1.00  0.00     0.000 A 
ENDBRANCH  49  63
BRANCH  50  69
ATOM     69  C   UNL     1       0.096  -2.378   7.673  1.00  0.00    -0.014 A 
ATOM     70  C   UNL     1      -1.048  -3.152   7.424  1.00  0.00     0.009 A 
ATOM     71  C   UNL     1       1.357  -2.990   7.590  1.00  0.00     0.009 A 
ATOM     72  C   UNL     1      -0.931  -4.512   7.124  1.00  0.00     0.001 A 
ATOM     73  C   UNL     1       1.472  -4.342   7.259  1.00  0.00     0.001 A 
ATOM     74  C   UNL     1       0.328  -5.104   7.037  1.00  0.00     0.000 A 
ENDBRANCH  50  69
BRANCH  62  75
ATOM     75  C   UNL     1      -2.591   0.918  13.191  1.00  0.00    -0.014 A 
ATOM     76  C   UNL     1      -1.894   0.249  14.208  1.00  0.00     0.009 A 
ATOM     77  C   UNL     1      -3.966   1.155  13.348  1.00  0.00     0.009 A 
ATOM     78  C   UNL     1      -2.571  -0.213  15.338  1.00  0.00     0.001 A 
ATOM     79  C   UNL     1      -4.632   0.724  14.495  1.00  0.00     0.001 A 
ATOM     80  C   UNL     1      -3.937   0.029  15.482  1.00  0.00     0.000 A 
ENDBRANCH  62  75
ENDBRANCH  36  37
ENDBRANCH  29  31
ENDBRANCH  28  29
ENDBRANCH  27  28
ENDBRANCH  26  27
ENDBRANCH  25  26
ENDBRANCH  24  25
ENDBRANCH   1  24
TORSDOF 20
