REMARK SMILES O=C(CC1(CSC[C@H]2C[C@H]3CC[C@@H]2C3)CC1)OCCOCCOCCOC(=O)c1ccc(-c2c3nc(c(-c4ccccc4)c4ccc([nH]4)c(-c4ccccc4)c4nc(c(-c5ccccc5)c5ccc2[nH]5)C=C4)C=C3)cc1
REMARK SMILES IDX 20 1 19 2 18 3 17 4 2 5 1 6 3 7 4 8 15 9 16 10 5 11 6 12
REMARK SMILES IDX 7 13 8 14 9 15 13 16 10 17 12 18 14 19 11 20 21 21 22 22
REMARK SMILES IDX 23 23 24 24 25 25 26 26 27 27 28 28 29 29 30 30 76 31 31 32
REMARK SMILES IDX 75 33 32 34 33 35 34 36 69 37 35 38 74 39 68 40 70 41 36 42
REMARK SMILES IDX 73 43 67 44 66 45 37 47 59 48 44 49 58 50 45 51 48 52 57 53
REMARK SMILES IDX 71 54 46 55 47 56 56 58 72 59 49 60 38 61 39 62 43 63 40 64
REMARK SMILES IDX 42 65 41 66 60 67 61 68 65 69 62 70 64 71 63 72 50 73 51 74
REMARK SMILES IDX 55 75 52 76 54 77 53 78
REMARK H PARENT 70 46 48 57
REMARK Flexibility Score: inf
ROOT
ATOM      1  O   UNL     1      -4.146   0.334   0.763  1.00  0.00    -0.376 OA
ENDROOT
BRANCH   1   2
ATOM      2  C   UNL     1      -3.227   0.945  -0.102  1.00  0.00     0.202 C 
BRANCH   2   3
ATOM      3  C   UNL     1      -1.802   0.429  -0.271  1.00  0.00     0.261 C 
BRANCH   3   4
ATOM      4  O   UNL     1      -1.118  -0.087   0.878  1.00  0.00    -0.463 OA
BRANCH   4   5
ATOM      5  C   UNL     1      -0.855   0.537   2.041  1.00  0.00     0.306 C 
ATOM      6  O   UNL     1      -0.446  -0.126   2.995  1.00  0.00    -0.252 OA
BRANCH   5   7
ATOM      7  C   UNL     1      -1.234   1.996   2.216  1.00  0.00     0.130 C 
BRANCH   7   8
ATOM      8  C   UNL     1      -0.535   3.022   1.349  1.00  0.00    -0.010 C 
ATOM      9  C   UNL     1      -1.405   3.885   0.439  1.00  0.00     0.009 C 
ATOM     10  C   UNL     1      -0.825   4.487   1.669  1.00  0.00     0.009 C 
BRANCH   8  11
ATOM     11  C   UNL     1       0.872   2.672   0.912  1.00  0.00     0.077 C 
BRANCH  11  12
ATOM     12  S   UNL     1       1.899   2.051   2.278  1.00  0.00    -0.161 SA
BRANCH  12  13
ATOM     13  C   UNL     1       1.643   3.376   3.502  1.00  0.00     0.073 C 
BRANCH  13  14
ATOM     14  C   UNL     1       2.502   4.551   3.080  1.00  0.00     0.002 C 
ATOM     15  C   UNL     1       2.182   5.875   3.794  1.00  0.00     0.008 C 
ATOM     16  C   UNL     1       4.013   4.355   3.344  1.00  0.00    -0.007 C 
ATOM     17  C   UNL     1       3.566   6.317   4.293  1.00  0.00    -0.011 C 
ATOM     18  C   UNL     1       4.302   4.092   4.832  1.00  0.00     0.004 C 
ATOM     19  C   UNL     1       4.499   5.792   3.197  1.00  0.00     0.007 C 
ATOM     20  C   UNL     1       3.935   5.428   5.492  1.00  0.00     0.004 C 
ENDBRANCH  13  14
ENDBRANCH  12  13
ENDBRANCH  11  12
ENDBRANCH   8  11
ENDBRANCH   7   8
ENDBRANCH   5   7
ENDBRANCH   4   5
ENDBRANCH   3   4
ENDBRANCH   2   3
ENDBRANCH   1   2
BRANCH   1  21
ATOM     21  C   UNL     1      -3.820  -0.138   2.045  1.00  0.00     0.188 C 
BRANCH  21  22
ATOM     22  C   UNL     1      -3.687  -1.659   2.151  1.00  0.00     0.188 C 
BRANCH  22  23
ATOM     23  O   UNL     1      -4.391  -2.491   1.240  1.00  0.00    -0.376 OA
BRANCH  23  24
ATOM     24  C   UNL     1      -5.547  -1.996   0.586  1.00  0.00     0.202 C 
BRANCH  24  25
ATOM     25  C   UNL     1      -6.775  -1.632   1.444  1.00  0.00     0.261 C 
BRANCH  25  26
ATOM     26  O   UNL     1      -6.587  -0.667   2.506  1.00  0.00    -0.460 OA
BRANCH  26  27
ATOM     27  C   UNL     1      -6.516  -1.147   3.773  1.00  0.00     0.338 C 
ATOM     28  O   UNL     1      -6.633  -2.321   4.114  1.00  0.00    -0.246 OA
BRANCH  27  29
ATOM     29  C   UNL     1      -6.125  -0.087   4.744  1.00  0.00     0.060 A 
ATOM     30  C   UNL     1      -4.941  -0.242   5.484  1.00  0.00     0.016 A 
ATOM     31  C   UNL     1      -6.942   1.018   4.993  1.00  0.00     0.016 A 
ATOM     32  C   UNL     1      -4.591   0.675   6.488  1.00  0.00     0.010 A 
ATOM     33  C   UNL     1      -6.603   1.923   6.017  1.00  0.00     0.010 A 
ATOM     34  C   UNL     1      -5.441   1.745   6.795  1.00  0.00    -0.014 A 
BRANCH  34  35
ATOM     35  C   UNL     1      -5.208   2.588   8.007  1.00  0.00     0.031 A 
ATOM     36  C   UNL     1      -6.010   2.314   9.258  1.00  0.00     0.074 A 
ATOM     37  C   UNL     1      -4.309   3.592   8.020  1.00  0.00     0.049 A 
ATOM     38  N   UNL     1      -6.048   2.981  10.387  1.00  0.00    -0.248 NA
ATOM     39  C   UNL     1      -6.885   1.132   9.230  1.00  0.00     0.031 C 
ATOM     40  C   UNL     1      -3.416   3.947   6.919  1.00  0.00     0.029 A 
ATOM     41  N   UNL     1      -4.014   4.514   9.000  1.00  0.00    -0.354 N 
ATOM     42  C   UNL     1      -6.960   2.309  11.194  1.00  0.00     0.074 A 
ATOM     43  C   UNL     1      -7.465   1.195  10.420  1.00  0.00     0.031 C 
ATOM     44  C   UNL     1      -2.689   5.022   7.276  1.00  0.00     0.029 A 
ATOM     45  C   UNL     1      -3.092   5.458   8.614  1.00  0.00     0.049 A 
ATOM     46  H   UNL     1      -4.425   4.498   9.895  1.00  0.00     0.167 HD
ATOM     47  C   UNL     1      -7.347   2.591  12.463  1.00  0.00     0.031 A 
ATOM     48  C   UNL     1      -2.647   6.565   9.245  1.00  0.00     0.031 A 
ATOM     49  C   UNL     1      -6.860   3.697  13.245  1.00  0.00     0.049 A 
ATOM     50  C   UNL     1      -3.167   6.911  10.620  1.00  0.00     0.074 A 
ATOM     51  C   UNL     1      -7.182   4.037  14.549  1.00  0.00     0.029 A 
ATOM     52  N   UNL     1      -5.959   4.648  12.797  1.00  0.00    -0.354 N 
ATOM     53  N   UNL     1      -4.007   6.251  11.379  1.00  0.00    -0.248 NA
ATOM     54  C   UNL     1      -2.673   8.160  11.224  1.00  0.00     0.031 C 
ATOM     55  C   UNL     1      -6.531   5.232  14.865  1.00  0.00     0.029 A 
ATOM     56  C   UNL     1      -5.747   5.597  13.785  1.00  0.00     0.049 A 
ATOM     57  H   UNL     1      -5.532   4.650  11.910  1.00  0.00     0.167 HD
ATOM     58  C   UNL     1      -4.116   6.986  12.556  1.00  0.00     0.074 A 
ATOM     59  C   UNL     1      -3.241   8.130  12.421  1.00  0.00     0.031 C 
ATOM     60  C   UNL     1      -4.875   6.735  13.651  1.00  0.00     0.031 A 
BRANCH  47  61
ATOM     61  C   UNL     1      -8.389   1.705  13.091  1.00  0.00    -0.014 A 
ATOM     62  C   UNL     1      -8.086   0.399  13.507  1.00  0.00     0.009 A 
ATOM     63  C   UNL     1      -9.672   2.217  13.344  1.00  0.00     0.009 A 
ATOM     64  C   UNL     1      -9.055  -0.382  14.142  1.00  0.00     0.001 A 
ATOM     65  C   UNL     1     -10.629   1.445  14.004  1.00  0.00     0.001 A 
ATOM     66  C   UNL     1     -10.322   0.144  14.397  1.00  0.00     0.000 A 
ENDBRANCH  47  61
BRANCH  48  67
ATOM     67  C   UNL     1      -1.682   7.482   8.573  1.00  0.00    -0.014 A 
ATOM     68  C   UNL     1      -0.386   7.665   9.082  1.00  0.00     0.009 A 
ATOM     69  C   UNL     1      -2.079   8.234   7.455  1.00  0.00     0.009 A 
ATOM     70  C   UNL     1       0.475   8.607   8.511  1.00  0.00     0.001 A 
ATOM     71  C   UNL     1      -1.204   9.148   6.864  1.00  0.00     0.001 A 
ATOM     72  C   UNL     1       0.067   9.344   7.400  1.00  0.00     0.000 A 
ENDBRANCH  48  67
BRANCH  60  73
ATOM     73  C   UNL     1      -4.771   7.690  14.810  1.00  0.00    -0.014 A 
ATOM     74  C   UNL     1      -5.294   8.991  14.737  1.00  0.00     0.009 A 
ATOM     75  C   UNL     1      -4.179   7.267  16.011  1.00  0.00     0.009 A 
ATOM     76  C   UNL     1      -5.192   9.858  15.828  1.00  0.00     0.001 A 
ATOM     77  C   UNL     1      -4.107   8.124  17.111  1.00  0.00     0.001 A 
ATOM     78  C   UNL     1      -4.604   9.422  17.015  1.00  0.00     0.000 A 
ENDBRANCH  60  73
ENDBRANCH  34  35
ENDBRANCH  27  29
ENDBRANCH  26  27
ENDBRANCH  25  26
ENDBRANCH  24  25
ENDBRANCH  23  24
ENDBRANCH  22  23
ENDBRANCH  21  22
ENDBRANCH   1  21
TORSDOF 22
