REMARK SMILES C[C@H]1[NH2+]CC[C@@H]1C(=O)N[C@@H](CC(=O)OCCOCCOCCOC(=O)c1ccc(-c2c3nc(c(-c4ccccc4)c4ccc([nH]4)c(-c4ccccc4)c4nc(c(-c5ccccc5)c5ccc2[nH]5)C=C4)C=C3)cc1)c1cccs1
REMARK SMILES IDX 18 1 17 2 16 3 15 4 14 5 12 6 13 7 11 8 10 9 9 10 7 11 8 12
REMARK SMILES IDX 6 14 1 15 2 16 3 17 4 18 5 21 74 22 75 23 78 24 76 25 77 26
REMARK SMILES IDX 19 27 20 28 21 29 22 30 23 31 24 32 25 33 26 34 27 35 73 36
REMARK SMILES IDX 28 37 72 38 29 39 30 40 31 41 66 42 32 43 71 44 65 45 67 46
REMARK SMILES IDX 33 47 70 48 64 49 63 50 34 52 56 53 41 54 55 55 42 56 45 57
REMARK SMILES IDX 54 58 68 59 43 60 44 61 53 63 69 64 46 65 35 66 36 67 40 68
REMARK SMILES IDX 37 69 39 70 38 71 57 72 58 73 62 74 59 75 61 76 60 77 47 78
REMARK SMILES IDX 48 79 52 80 49 81 51 82 50 83
REMARK H PARENT 9 13 3 19 3 20 67 51 45 62
REMARK Flexibility Score: inf
ROOT
ATOM      1  C   UNL     1      -5.979   4.124  -3.354  1.00  0.00     0.188 C 
ENDROOT
BRANCH   1   2
ATOM      2  O   UNL     1      -5.651   5.105  -4.335  1.00  0.00    -0.376 OA
BRANCH   2   3
ATOM      3  C   UNL     1      -4.489   4.912  -5.132  1.00  0.00     0.202 C 
BRANCH   3   4
ATOM      4  C   UNL     1      -3.171   5.223  -4.420  1.00  0.00     0.261 C 
BRANCH   4   5
ATOM      5  O   UNL     1      -2.955   4.378  -3.265  1.00  0.00    -0.463 OA
BRANCH   5   6
ATOM      6  C   UNL     1      -2.617   5.022  -2.126  1.00  0.00     0.308 C 
ATOM      7  O   UNL     1      -2.399   6.228  -2.053  1.00  0.00    -0.252 OA
BRANCH   6   8
ATOM      8  C   UNL     1      -2.693   4.181  -0.875  1.00  0.00     0.153 C 
BRANCH   8   9
ATOM      9  C   UNL     1      -2.221   2.724  -0.773  1.00  0.00     0.133 C 
BRANCH   9  10
ATOM     10  N   UNL     1      -1.326   2.221  -1.789  1.00  0.00    -0.347 N 
ATOM     11  C   UNL     1      -0.333   1.280  -1.679  1.00  0.00     0.229 C 
ATOM     12  O   UNL     1       0.130   0.870  -2.747  1.00  0.00    -0.275 OA
ATOM     13  H   UNL     1      -1.446   2.607  -2.687  1.00  0.00     0.164 HD
BRANCH  11  14
ATOM     14  C   UNL     1       0.279   0.890  -0.313  1.00  0.00     0.142 C 
ATOM     15  C   UNL     1       2.515  -0.011   0.492  1.00  0.00     0.076 C 
ATOM     16  C   UNL     1       1.331  -0.233  -0.457  1.00  0.00     0.192 C 
ATOM     17  N   UNL     1       0.661  -1.504  -0.098  1.00  0.00    -0.343 N 
ATOM     18  C   UNL     1      -0.653  -1.190   0.446  1.00  0.00     0.261 C 
ATOM     19  H   UNL     1       1.214  -2.000   0.600  1.00  0.00     0.346 HD
ATOM     20  H   UNL     1       0.568  -2.097  -0.923  1.00  0.00     0.346 HD
ATOM     21  C   UNL     1      -0.613   0.287   0.763  1.00  0.00     0.081 C 
ENDBRANCH  11  14
ENDBRANCH   9  10
BRANCH   9  22
ATOM     22  C   UNL     1      -3.354   1.728  -0.504  1.00  0.00     0.027 A 
ATOM     23  C   UNL     1      -4.128   1.655   0.647  1.00  0.00     0.017 A 
ATOM     24  S   UNL     1      -3.682   0.378  -1.525  1.00  0.00    -0.147 S 
ATOM     25  C   UNL     1      -4.902   0.460   0.722  1.00  0.00     0.012 A 
ATOM     26  C   UNL     1      -4.769  -0.312  -0.408  1.00  0.00     0.065 A 
ENDBRANCH   9  22
ENDBRANCH   8   9
ENDBRANCH   6   8
ENDBRANCH   5   6
ENDBRANCH   4   5
ENDBRANCH   3   4
ENDBRANCH   2   3
ENDBRANCH   1   2
BRANCH   1  27
ATOM     27  C   UNL     1      -5.429   2.702  -3.495  1.00  0.00     0.188 C 
BRANCH  27  28
ATOM     28  O   UNL     1      -5.645   2.162  -4.791  1.00  0.00    -0.376 OA
BRANCH  28  29
ATOM     29  C   UNL     1      -6.083   0.805  -4.776  1.00  0.00     0.202 C 
BRANCH  29  30
ATOM     30  C   UNL     1      -7.610   0.788  -4.812  1.00  0.00     0.261 C 
BRANCH  30  31
ATOM     31  O   UNL     1      -8.193   1.358  -3.623  1.00  0.00    -0.460 OA
BRANCH  31  32
ATOM     32  C   UNL     1      -8.154   0.566  -2.529  1.00  0.00     0.338 C 
ATOM     33  O   UNL     1      -7.715  -0.565  -2.446  1.00  0.00    -0.246 OA
BRANCH  32  34
ATOM     34  C   UNL     1      -8.633   1.340  -1.374  1.00  0.00     0.060 A 
ATOM     35  C   UNL     1      -7.696   1.895  -0.502  1.00  0.00     0.016 A 
ATOM     36  C   UNL     1      -9.994   1.427  -1.094  1.00  0.00     0.016 A 
ATOM     37  C   UNL     1      -8.102   2.477   0.696  1.00  0.00     0.010 A 
ATOM     38  C   UNL     1     -10.406   2.044   0.091  1.00  0.00     0.010 A 
ATOM     39  C   UNL     1      -9.462   2.540   1.012  1.00  0.00    -0.014 A 
BRANCH  39  40
ATOM     40  C   UNL     1      -9.902   3.016   2.346  1.00  0.00     0.031 A 
ATOM     41  C   UNL     1     -10.513   2.036   3.309  1.00  0.00     0.074 A 
ATOM     42  C   UNL     1      -9.749   4.302   2.713  1.00  0.00     0.049 A 
ATOM     43  N   UNL     1     -11.144   2.262   4.432  1.00  0.00    -0.248 NA
ATOM     44  C   UNL     1     -10.395   0.612   2.957  1.00  0.00     0.031 C 
ATOM     45  C   UNL     1      -9.088   5.341   1.924  1.00  0.00     0.029 A 
ATOM     46  N   UNL     1     -10.153   4.952   3.853  1.00  0.00    -0.354 N 
ATOM     47  C   UNL     1     -11.545   1.015   4.894  1.00  0.00     0.074 A 
ATOM     48  C   UNL     1     -11.079   0.036   3.935  1.00  0.00     0.031 C 
ATOM     49  C   UNL     1      -9.132   6.499   2.604  1.00  0.00     0.029 A 
ATOM     50  C   UNL     1      -9.887   6.299   3.838  1.00  0.00     0.049 A 
ATOM     51  H   UNL     1     -10.592   4.496   4.607  1.00  0.00     0.167 HD
ATOM     52  C   UNL     1     -12.248   0.713   6.011  1.00  0.00     0.031 A 
ATOM     53  C   UNL     1     -10.255   7.270   4.694  1.00  0.00     0.031 A 
ATOM     54  C   UNL     1     -12.695   1.682   6.975  1.00  0.00     0.049 A 
ATOM     55  C   UNL     1     -11.110   6.926   5.883  1.00  0.00     0.074 A 
ATOM     56  C   UNL     1     -13.421   1.475   8.135  1.00  0.00     0.029 A 
ATOM     57  N   UNL     1     -12.448   3.042   6.894  1.00  0.00    -0.354 N 
ATOM     58  N   UNL     1     -11.543   5.753   6.277  1.00  0.00    -0.248 NA
ATOM     59  C   UNL     1     -11.542   8.045   6.732  1.00  0.00     0.031 C 
ATOM     60  C   UNL     1     -13.649   2.718   8.736  1.00  0.00     0.029 A 
ATOM     61  C   UNL     1     -13.023   3.691   7.973  1.00  0.00     0.049 A 
ATOM     62  H   UNL     1     -11.940   3.483   6.175  1.00  0.00     0.167 HD
ATOM     63  C   UNL     1     -12.286   5.992   7.426  1.00  0.00     0.074 A 
ATOM     64  C   UNL     1     -12.230   7.418   7.675  1.00  0.00     0.031 C 
ATOM     65  C   UNL     1     -12.960   5.110   8.204  1.00  0.00     0.031 A 
BRANCH  52  66
ATOM     66  C   UNL     1     -12.625  -0.725   6.218  1.00  0.00    -0.014 A 
ATOM     67  C   UNL     1     -11.683  -1.680   6.630  1.00  0.00     0.009 A 
ATOM     68  C   UNL     1     -13.955  -1.124   6.014  1.00  0.00     0.009 A 
ATOM     69  C   UNL     1     -12.062  -3.013   6.803  1.00  0.00     0.001 A 
ATOM     70  C   UNL     1     -14.336  -2.451   6.211  1.00  0.00     0.001 A 
ATOM     71  C   UNL     1     -13.387  -3.397   6.597  1.00  0.00     0.000 A 
ENDBRANCH  52  66
BRANCH  53  72
ATOM     72  C   UNL     1      -9.875   8.681   4.426  1.00  0.00    -0.014 A 
ATOM     73  C   UNL     1      -8.940   9.336   5.240  1.00  0.00     0.009 A 
ATOM     74  C   UNL     1     -10.463   9.386   3.363  1.00  0.00     0.009 A 
ATOM     75  C   UNL     1      -8.614  10.674   5.005  1.00  0.00     0.001 A 
ATOM     76  C   UNL     1     -10.114  10.714   3.114  1.00  0.00     0.001 A 
ATOM     77  C   UNL     1      -9.197  11.360   3.940  1.00  0.00     0.000 A 
ENDBRANCH  53  72
BRANCH  65  78
ATOM     78  C   UNL     1     -13.662   5.659   9.412  1.00  0.00    -0.014 A 
ATOM     79  C   UNL     1     -14.862   6.377   9.290  1.00  0.00     0.009 A 
ATOM     80  C   UNL     1     -13.132   5.426  10.691  1.00  0.00     0.009 A 
ATOM     81  C   UNL     1     -15.502   6.877  10.426  1.00  0.00     0.001 A 
ATOM     82  C   UNL     1     -13.787   5.907  11.825  1.00  0.00     0.001 A 
ATOM     83  C   UNL     1     -14.966   6.638  11.692  1.00  0.00     0.000 A 
ENDBRANCH  65  78
ENDBRANCH  39  40
ENDBRANCH  32  34
ENDBRANCH  31  32
ENDBRANCH  30  31
ENDBRANCH  29  30
ENDBRANCH  28  29
ENDBRANCH  27  28
ENDBRANCH   1  27
TORSDOF 21
