REMARK SMILES O=C(OCCOCCOCCOC(=O)c1ccc(C[NH2+][C@@H]2CCCc3sccc32)nc1)c1ccc(-c2c3nc(c(-c4ccccc4)c4ccc([nH]4)c(-c4ccccc4)c4nc(c(-c5ccccc5)c5ccc2[nH]5)C=C4)C=C3)cc1
REMARK SMILES IDX 8 1 7 2 6 3 5 4 4 5 3 6 2 7 1 8 32 9 33 10 79 11 34 12 78 13
REMARK SMILES IDX 35 14 36 15 37 16 72 17 38 18 77 19 71 20 73 21 39 22 76 23
REMARK SMILES IDX 70 24 69 25 40 27 62 28 47 29 61 30 48 31 51 32 60 33 74 34
REMARK SMILES IDX 49 35 50 36 59 38 75 39 52 40 41 41 42 42 46 43 43 44 45 45
REMARK SMILES IDX 44 46 63 47 64 48 68 49 65 50 67 51 66 52 53 53 54 54 58 55
REMARK SMILES IDX 55 56 57 57 56 58 9 59 10 60 11 61 12 62 13 63 14 64 15 65
REMARK SMILES IDX 16 66 31 67 17 68 30 69 18 70 19 71 20 72 21 75 22 76 29 77
REMARK SMILES IDX 23 78 25 79 28 80 24 81 26 82 27 83
REMARK H PARENT 73 26 51 37 20 73 20 74
REMARK Flexibility Score: inf
ROOT
ATOM      1  C   UNL     1       1.883  -3.326   0.195  1.00  0.00     0.188 C 
ENDROOT
BRANCH   1   2
ATOM      2  C   UNL     1       2.424  -2.034   0.816  1.00  0.00     0.188 C 
BRANCH   2   3
ATOM      3  O   UNL     1       3.707  -1.682   0.275  1.00  0.00    -0.376 OA
BRANCH   3   4
ATOM      4  C   UNL     1       4.596  -1.112   1.244  1.00  0.00     0.202 C 
BRANCH   4   5
ATOM      5  C   UNL     1       4.444   0.403   1.436  1.00  0.00     0.261 C 
BRANCH   5   6
ATOM      6  O   UNL     1       3.078   0.827   1.327  1.00  0.00    -0.460 OA
BRANCH   6   7
ATOM      7  C   UNL     1       2.431   1.304   0.235  1.00  0.00     0.338 C 
ATOM      8  O   UNL     1       1.265   1.673   0.369  1.00  0.00    -0.246 OA
BRANCH   7   9
ATOM      9  C   UNL     1       3.056   1.447  -1.122  1.00  0.00     0.060 A 
ATOM     10  C   UNL     1       4.180   0.759  -1.583  1.00  0.00     0.016 A 
ATOM     11  C   UNL     1       2.422   2.329  -2.017  1.00  0.00     0.016 A 
ATOM     12  C   UNL     1       4.738   1.025  -2.830  1.00  0.00     0.010 A 
ATOM     13  C   UNL     1       2.941   2.561  -3.295  1.00  0.00     0.010 A 
ATOM     14  C   UNL     1       4.133   1.941  -3.686  1.00  0.00    -0.014 A 
BRANCH  14  15
ATOM     15  C   UNL     1       4.830   2.337  -4.924  1.00  0.00     0.031 A 
ATOM     16  C   UNL     1       5.507   3.671  -4.970  1.00  0.00     0.074 A 
ATOM     17  C   UNL     1       4.936   1.482  -5.955  1.00  0.00     0.049 A 
ATOM     18  N   UNL     1       6.130   4.247  -5.962  1.00  0.00    -0.248 NA
ATOM     19  C   UNL     1       5.504   4.448  -3.719  1.00  0.00     0.031 C 
ATOM     20  C   UNL     1       4.441   0.109  -5.961  1.00  0.00     0.029 A 
ATOM     21  N   UNL     1       5.498   1.642  -7.195  1.00  0.00    -0.354 N 
ATOM     22  C   UNL     1       6.591   5.454  -5.458  1.00  0.00     0.074 A 
ATOM     23  C   UNL     1       6.156   5.541  -4.082  1.00  0.00     0.031 C 
ATOM     24  C   UNL     1       4.688  -0.440  -7.160  1.00  0.00     0.029 A 
ATOM     25  C   UNL     1       5.306   0.560  -8.018  1.00  0.00     0.049 A 
ATOM     26  H   UNL     1       5.989   2.450  -7.468  1.00  0.00     0.167 HD
ATOM     27  C   UNL     1       7.315   6.406  -6.090  1.00  0.00     0.031 A 
ATOM     28  C   UNL     1       5.554   0.411  -9.331  1.00  0.00     0.031 A 
ATOM     29  C   UNL     1       7.709   6.319  -7.469  1.00  0.00     0.049 A 
ATOM     30  C   UNL     1       6.214   1.539 -10.064  1.00  0.00     0.074 A 
ATOM     31  C   UNL     1       8.408   7.237  -8.230  1.00  0.00     0.029 A 
ATOM     32  N   UNL     1       7.419   5.243  -8.297  1.00  0.00    -0.354 N 
ATOM     33  N   UNL     1       6.614   2.696  -9.593  1.00  0.00    -0.248 NA
ATOM     34  C   UNL     1       6.468   1.343 -11.495  1.00  0.00     0.031 C 
ATOM     35  C   UNL     1       8.495   6.736  -9.535  1.00  0.00     0.029 A 
ATOM     36  C   UNL     1       7.896   5.486  -9.572  1.00  0.00     0.049 A 
ATOM     37  H   UNL     1       6.944   4.427  -8.017  1.00  0.00     0.167 HD
ATOM     38  C   UNL     1       7.191   3.361 -10.663  1.00  0.00     0.074 A 
ATOM     39  C   UNL     1       7.086   2.475 -11.808  1.00  0.00     0.031 C 
ATOM     40  C   UNL     1       7.765   4.588 -10.692  1.00  0.00     0.031 A 
BRANCH  27  41
ATOM     41  C   UNL     1       7.640   7.636  -5.295  1.00  0.00    -0.014 A 
ATOM     42  C   UNL     1       8.588   7.611  -4.259  1.00  0.00     0.009 A 
ATOM     43  C   UNL     1       6.934   8.823  -5.543  1.00  0.00     0.009 A 
ATOM     44  C   UNL     1       8.783   8.736  -3.454  1.00  0.00     0.001 A 
ATOM     45  C   UNL     1       7.149   9.953  -4.753  1.00  0.00     0.001 A 
ATOM     46  C   UNL     1       8.063   9.904  -3.701  1.00  0.00     0.000 A 
ENDBRANCH  27  41
BRANCH  28  47
ATOM     47  C   UNL     1       5.098  -0.820 -10.024  1.00  0.00    -0.014 A 
ATOM     48  C   UNL     1       6.002  -1.817 -10.412  1.00  0.00     0.009 A 
ATOM     49  C   UNL     1       3.726  -1.018 -10.258  1.00  0.00     0.009 A 
ATOM     50  C   UNL     1       5.540  -2.986 -11.024  1.00  0.00     0.001 A 
ATOM     51  C   UNL     1       3.265  -2.196 -10.848  1.00  0.00     0.001 A 
ATOM     52  C   UNL     1       4.174  -3.178 -11.234  1.00  0.00     0.000 A 
ENDBRANCH  28  47
BRANCH  40  53
ATOM     53  C   UNL     1       8.350   5.029 -12.000  1.00  0.00    -0.014 A 
ATOM     54  C   UNL     1       7.530   5.484 -13.043  1.00  0.00     0.009 A 
ATOM     55  C   UNL     1       9.743   5.044 -12.162  1.00  0.00     0.009 A 
ATOM     56  C   UNL     1       8.099   5.930 -14.236  1.00  0.00     0.001 A 
ATOM     57  C   UNL     1      10.309   5.513 -13.348  1.00  0.00     0.001 A 
ATOM     58  C   UNL     1       9.486   5.950 -14.385  1.00  0.00     0.000 A 
ENDBRANCH  40  53
ENDBRANCH  14  15
ENDBRANCH   7   9
ENDBRANCH   6   7
ENDBRANCH   5   6
ENDBRANCH   4   5
ENDBRANCH   3   4
ENDBRANCH   2   3
ENDBRANCH   1   2
BRANCH   1  59
ATOM     59  O   UNL     1       2.565  -4.524   0.570  1.00  0.00    -0.376 OA
BRANCH  59  60
ATOM     60  C   UNL     1       3.952  -4.602   0.256  1.00  0.00     0.202 C 
BRANCH  60  61
ATOM     61  C   UNL     1       4.311  -4.806  -1.220  1.00  0.00     0.261 C 
BRANCH  61  62
ATOM     62  O   UNL     1       3.693  -3.869  -2.122  1.00  0.00    -0.460 OA
BRANCH  62  63
ATOM     63  C   UNL     1       3.003  -4.438  -3.140  1.00  0.00     0.339 C 
ATOM     64  O   UNL     1       2.847  -5.639  -3.338  1.00  0.00    -0.246 OA
BRANCH  63  65
ATOM     65  C   UNL     1       2.530  -3.444  -4.112  1.00  0.00     0.078 A 
ATOM     66  C   UNL     1       2.643  -3.742  -5.470  1.00  0.00     0.019 A 
ATOM     67  C   UNL     1       1.903  -2.263  -3.755  1.00  0.00     0.127 A 
ATOM     68  C   UNL     1       2.124  -2.862  -6.415  1.00  0.00     0.031 A 
ATOM     69  N   UNL     1       1.395  -1.382  -4.658  1.00  0.00    -0.254 NA
ATOM     70  C   UNL     1       1.508  -1.689  -5.978  1.00  0.00     0.094 A 
BRANCH  70  71
ATOM     71  C   UNL     1       0.968  -0.699  -7.000  1.00  0.00     0.318 C 
BRANCH  71  72
ATOM     72  N   UNL     1      -0.448  -0.922  -7.314  1.00  0.00    -0.335 N 
ATOM     73  H   UNL     1      -1.014  -0.566  -6.544  1.00  0.00     0.347 HD
ATOM     74  H   UNL     1      -0.580  -1.924  -7.447  1.00  0.00     0.347 HD
BRANCH  72  75
ATOM     75  C   UNL     1      -0.865  -0.252  -8.551  1.00  0.00     0.215 C 
ATOM     76  C   UNL     1      -0.741   1.290  -8.447  1.00  0.00     0.071 C 
ATOM     77  C   UNL     1      -2.289  -0.656  -8.883  1.00  0.00     0.023 A 
ATOM     78  C   UNL     1      -1.448   1.997  -9.613  1.00  0.00     0.012 C 
ATOM     79  C   UNL     1      -3.207   0.251  -9.388  1.00  0.00     0.014 A 
ATOM     80  C   UNL     1      -2.871  -1.966  -8.811  1.00  0.00     0.022 A 
ATOM     81  C   UNL     1      -2.954   1.709  -9.614  1.00  0.00     0.047 C 
ATOM     82  S   UNL     1      -4.726  -0.443  -9.716  1.00  0.00    -0.148 S 
ATOM     83  C   UNL     1      -4.187  -1.985  -9.218  1.00  0.00     0.065 A 
ENDBRANCH  72  75
ENDBRANCH  71  72
ENDBRANCH  70  71
ENDBRANCH  63  65
ENDBRANCH  62  63
ENDBRANCH  61  62
ENDBRANCH  60  61
ENDBRANCH  59  60
ENDBRANCH   1  59
TORSDOF 20
