REMARK SMILES Cc1c(Br)c(C)c2c(c1Br)O[C@H](C(F)(F)F)C(C(=O)OCCOCCOCCOC(=O)c1ccc(-c3c4nc(c(-c5ccccc5)c5ccc([nH]5)c(-c5ccccc5)c5nc(c(-c6ccccc6)c6ccc3[nH]6)C=C5)C=C4)cc1)=C2
REMARK SMILES IDX 25 1 24 2 23 3 22 4 21 5 20 6 18 7 19 8 17 9 1 10 2 11 3 12
REMARK SMILES IDX 9 13 4 14 5 15 8 16 10 17 6 18 7 19 11 20 80 21 12 22 13 23
REMARK SMILES IDX 14 24 15 25 16 26 26 27 27 28 28 29 29 30 30 31 31 32 32 33
REMARK SMILES IDX 33 34 79 35 34 36 78 37 35 38 36 39 37 40 72 41 38 42 77 43
REMARK SMILES IDX 71 44 73 45 39 46 76 47 70 48 69 49 40 51 62 52 47 53 61 54
REMARK SMILES IDX 48 55 51 56 60 57 74 58 49 59 50 60 59 62 75 63 52 64 41 65
REMARK SMILES IDX 42 66 46 67 43 68 45 69 44 70 63 71 64 72 68 73 65 74 67 75
REMARK SMILES IDX 66 76 53 77 54 78 58 79 55 80 57 81 56 82
REMARK H PARENT 73 50 51 61
REMARK Flexibility Score: inf
ROOT
ATOM      1  C   UNL     1      -3.396   7.271   0.766  1.00  0.00     0.188 C 
ENDROOT
BRANCH   1   2
ATOM      2  C   UNL     1      -2.410   8.379   0.341  1.00  0.00     0.188 C 
BRANCH   2   3
ATOM      3  O   UNL     1      -2.888   9.599  -0.185  1.00  0.00    -0.376 OA
BRANCH   3   4
ATOM      4  C   UNL     1      -3.696   9.627  -1.350  1.00  0.00     0.202 C 
BRANCH   4   5
ATOM      5  C   UNL     1      -3.529   8.645  -2.520  1.00  0.00     0.261 C 
BRANCH   5   6
ATOM      6  O   UNL     1      -3.229   7.291  -2.164  1.00  0.00    -0.460 OA
BRANCH   6   7
ATOM      7  C   UNL     1      -1.991   6.863  -2.508  1.00  0.00     0.338 C 
ATOM      8  O   UNL     1      -1.137   7.499  -3.103  1.00  0.00    -0.246 OA
BRANCH   7   9
ATOM      9  C   UNL     1      -1.742   5.536  -1.910  1.00  0.00     0.087 C 
ATOM     10  C   UNL     1       0.901  -0.055   0.118  1.00  0.00     0.047 C 
ATOM     11  C   UNL     1       0.502   1.383  -0.119  1.00  0.00    -0.019 A 
ATOM     12  C   UNL     1       1.380   2.458   0.168  1.00  0.00     0.025 A 
ATOM     13  C   UNL     1      -0.786   1.691  -0.602  1.00  0.00     0.064 A 
ATOM     14  Br  UNL     1       3.063   2.082   1.010  1.00  0.00    -0.050 Br
ATOM     15  C   UNL     1       1.034   3.797  -0.146  1.00  0.00    -0.026 A 
ATOM     16  C   UNL     1      -1.141   3.010  -0.934  1.00  0.00     0.142 A 
ATOM     17  Br  UNL     1      -2.102   0.315  -0.834  1.00  0.00    -0.046 Br
ATOM     18  C   UNL     1       1.955   4.963   0.149  1.00  0.00     0.046 C 
ATOM     19  C   UNL     1      -0.218   4.050  -0.763  1.00  0.00     0.022 A 
ATOM     20  O   UNL     1      -2.413   3.212  -1.402  1.00  0.00    -0.474 OA
ATOM     21  C   UNL     1      -0.568   5.371  -1.288  1.00  0.00     0.027 C 
ATOM     22  C   UNL     1      -2.782   4.465  -2.023  1.00  0.00     0.316 C 
BRANCH  22  23
ATOM     23  C   UNL     1      -3.190   4.194  -3.477  1.00  0.00     0.430 C 
ATOM     24  F   UNL     1      -4.091   3.187  -3.558  1.00  0.00    -0.167 F 
ATOM     25  F   UNL     1      -3.769   5.279  -4.044  1.00  0.00    -0.167 F 
ATOM     26  F   UNL     1      -2.128   3.856  -4.243  1.00  0.00    -0.167 F 
ENDBRANCH  22  23
ENDBRANCH   7   9
ENDBRANCH   6   7
ENDBRANCH   5   6
ENDBRANCH   4   5
ENDBRANCH   3   4
ENDBRANCH   2   3
ENDBRANCH   1   2
BRANCH   1  27
ATOM     27  O   UNL     1      -4.767   7.438   0.502  1.00  0.00    -0.376 OA
BRANCH  27  28
ATOM     28  C   UNL     1      -5.532   8.363   1.258  1.00  0.00     0.202 C 
BRANCH  28  29
ATOM     29  C   UNL     1      -5.116   8.985   2.607  1.00  0.00     0.261 C 
BRANCH  29  30
ATOM     30  O   UNL     1      -3.720   9.055   2.914  1.00  0.00    -0.460 OA
BRANCH  30  31
ATOM     31  C   UNL     1      -3.293   8.208   3.885  1.00  0.00     0.338 C 
ATOM     32  O   UNL     1      -3.953   7.395   4.504  1.00  0.00    -0.246 OA
BRANCH  31  33
ATOM     33  C   UNL     1      -1.819   8.269   3.952  1.00  0.00     0.060 A 
ATOM     34  C   UNL     1      -1.082   7.151   3.537  1.00  0.00     0.016 A 
ATOM     35  C   UNL     1      -1.173   9.405   4.438  1.00  0.00     0.016 A 
ATOM     36  C   UNL     1       0.310   7.165   3.611  1.00  0.00     0.010 A 
ATOM     37  C   UNL     1       0.222   9.405   4.543  1.00  0.00     0.010 A 
ATOM     38  C   UNL     1       0.967   8.278   4.149  1.00  0.00    -0.014 A 
BRANCH  38  39
ATOM     39  C   UNL     1       2.409   8.184   4.480  1.00  0.00     0.031 A 
ATOM     40  C   UNL     1       2.794   7.781   5.878  1.00  0.00     0.074 A 
ATOM     41  C   UNL     1       3.361   8.404   3.555  1.00  0.00     0.049 A 
ATOM     42  N   UNL     1       3.984   7.665   6.408  1.00  0.00    -0.248 NA
ATOM     43  C   UNL     1       1.689   7.457   6.796  1.00  0.00     0.031 C 
ATOM     44  C   UNL     1       3.122   8.726   2.149  1.00  0.00     0.029 A 
ATOM     45  N   UNL     1       4.730   8.384   3.669  1.00  0.00    -0.354 N 
ATOM     46  C   UNL     1       3.771   7.250   7.717  1.00  0.00     0.074 A 
ATOM     47  C   UNL     1       2.341   7.165   7.912  1.00  0.00     0.031 C 
ATOM     48  C   UNL     1       4.307   8.874   1.530  1.00  0.00     0.029 A 
ATOM     49  C   UNL     1       5.386   8.697   2.503  1.00  0.00     0.049 A 
ATOM     50  H   UNL     1       5.197   8.165   4.507  1.00  0.00     0.167 HD
ATOM     51  C   UNL     1       4.685   6.955   8.669  1.00  0.00     0.031 A 
ATOM     52  C   UNL     1       6.703   8.844   2.257  1.00  0.00     0.031 A 
ATOM     53  C   UNL     1       6.106   7.057   8.487  1.00  0.00     0.049 A 
ATOM     54  C   UNL     1       7.695   8.636   3.375  1.00  0.00     0.074 A 
ATOM     55  C   UNL     1       7.109   6.796   9.404  1.00  0.00     0.029 A 
ATOM     56  N   UNL     1       6.726   7.453   7.314  1.00  0.00    -0.354 N 
ATOM     57  N   UNL     1       7.483   8.244   4.608  1.00  0.00    -0.248 NA
ATOM     58  C   UNL     1       9.111   8.890   3.064  1.00  0.00     0.031 C 
ATOM     59  C   UNL     1       8.335   7.090   8.803  1.00  0.00     0.029 A 
ATOM     60  C   UNL     1       8.098   7.469   7.492  1.00  0.00     0.049 A 
ATOM     61  H   UNL     1       6.261   7.687   6.479  1.00  0.00     0.167 HD
ATOM     62  C   UNL     1       8.736   8.175   5.207  1.00  0.00     0.074 A 
ATOM     63  C   UNL     1       9.705   8.549   4.200  1.00  0.00     0.031 C 
ATOM     64  C   UNL     1       9.055   7.832   6.479  1.00  0.00     0.031 A 
BRANCH  51  65
ATOM     65  C   UNL     1       4.178   6.505  10.009  1.00  0.00    -0.014 A 
ATOM     66  C   UNL     1       3.636   5.223  10.183  1.00  0.00     0.009 A 
ATOM     67  C   UNL     1       4.322   7.342  11.127  1.00  0.00     0.009 A 
ATOM     68  C   UNL     1       3.237   4.792  11.449  1.00  0.00     0.001 A 
ATOM     69  C   UNL     1       3.948   6.898  12.396  1.00  0.00     0.001 A 
ATOM     70  C   UNL     1       3.403   5.625  12.555  1.00  0.00     0.000 A 
ENDBRANCH  51  65
BRANCH  52  71
ATOM     71  C   UNL     1       7.179   9.227   0.899  1.00  0.00    -0.014 A 
ATOM     72  C   UNL     1       7.946   8.336   0.133  1.00  0.00     0.009 A 
ATOM     73  C   UNL     1       6.904  10.502   0.378  1.00  0.00     0.009 A 
ATOM     74  C   UNL     1       8.449   8.722  -1.113  1.00  0.00     0.001 A 
ATOM     75  C   UNL     1       7.381  10.873  -0.881  1.00  0.00     0.001 A 
ATOM     76  C   UNL     1       8.161   9.987  -1.621  1.00  0.00     0.000 A 
ENDBRANCH  52  71
BRANCH  64  77
ATOM     77  C   UNL     1      10.509   7.808   6.861  1.00  0.00    -0.014 A 
ATOM     78  C   UNL     1      11.240   8.995   7.023  1.00  0.00     0.009 A 
ATOM     79  C   UNL     1      11.132   6.582   7.151  1.00  0.00     0.009 A 
ATOM     80  C   UNL     1      12.569   8.953   7.449  1.00  0.00     0.001 A 
ATOM     81  C   UNL     1      12.450   6.545   7.606  1.00  0.00     0.001 A 
ATOM     82  C   UNL     1      13.170   7.730   7.748  1.00  0.00     0.000 A 
ENDBRANCH  64  77
ENDBRANCH  38  39
ENDBRANCH  31  33
ENDBRANCH  30  31
ENDBRANCH  29  30
ENDBRANCH  28  29
ENDBRANCH  27  28
ENDBRANCH   1  27
TORSDOF 18
