REMARK SMILES Cc1nn(C(C)C)c(C)c1S(=O)(=O)Nc1cccc(C(=O)OCCOCCOCCOC(=O)c2ccc(-c3c4nc(c(-c5ccccc5)c5ccc([nH]5)c(-c5ccccc5)c5nc(c(-c6ccccc6)c6ccc3[nH]6)C=C5)C=C4)cc2)c1C
REMARK SMILES IDX 26 1 25 2 24 3 23 4 22 5 20 6 21 7 19 8 15 9 16 10 82 11
REMARK SMILES IDX 17 12 83 13 18 14 14 15 11 17 12 18 13 19 10 20 1 21 2 22
REMARK SMILES IDX 3 23 4 24 8 25 9 26 5 27 6 28 7 29 27 30 28 31 29 32 30 33
REMARK SMILES IDX 31 34 32 35 33 36 34 37 35 38 81 39 36 40 80 41 37 42 38 43
REMARK SMILES IDX 39 44 74 45 40 46 79 47 73 48 75 49 41 50 78 51 72 52 71 53
REMARK SMILES IDX 42 55 64 56 49 57 63 58 50 59 53 60 62 61 76 62 51 63 52 64
REMARK SMILES IDX 61 66 77 67 54 68 43 69 44 70 48 71 45 72 47 73 46 74 65 75
REMARK SMILES IDX 66 76 70 77 67 78 69 79 68 80 55 81 56 82 60 83 57 84 59 85
REMARK SMILES IDX 58 86
REMARK H PARENT 14 16 75 54 53 65
REMARK Flexibility Score: inf
ROOT
ATOM      1  C   UNL     1       2.295  -0.174   8.849  1.00  0.00     0.188 C 
ENDROOT
BRANCH   1   2
ATOM      2  O   UNL     1       1.178  -1.025   8.804  1.00  0.00    -0.376 OA
BRANCH   2   3
ATOM      3  C   UNL     1       0.571  -1.209   7.530  1.00  0.00     0.202 C 
BRANCH   3   4
ATOM      4  C   UNL     1       1.231  -0.755   6.173  1.00  0.00     0.261 C 
BRANCH   4   5
ATOM      5  O   UNL     1       0.854   0.361   5.232  1.00  0.00    -0.460 OA
BRANCH   5   6
ATOM      6  C   UNL     1       0.127   0.214   4.058  1.00  0.00     0.338 C 
ATOM      7  O   UNL     1      -1.033  -0.161   4.005  1.00  0.00    -0.246 OA
BRANCH   6   8
ATOM      8  C   UNL     1       0.754   0.463   2.729  1.00  0.00     0.065 A 
ATOM      9  C   UNL     1       1.672   1.769   0.945  1.00  0.00     0.053 A 
ATOM     10  C   UNL     1       2.173   0.618   0.330  1.00  0.00     0.027 A 
ATOM     11  C   UNL     1       0.972   1.721   2.173  1.00  0.00    -0.012 A 
ATOM     12  C   UNL     1       1.767  -0.616   0.785  1.00  0.00     0.003 A 
ATOM     13  C   UNL     1       0.399   2.933   2.841  1.00  0.00     0.047 C 
ATOM     14  C   UNL     1       0.929  -0.657   1.890  1.00  0.00     0.016 A 
BRANCH   9  15
ATOM     15  N   UNL     1       1.826   2.953   0.182  1.00  0.00    -0.279 N 
ATOM     16  H   UNL     1       2.617   3.527   0.304  1.00  0.00     0.180 HD
BRANCH  15  17
ATOM     17  S   UNL     1       0.625   3.368  -0.949  1.00  0.00     0.265 S 
ATOM     18  O   UNL     1       1.227   4.500  -1.636  1.00  0.00    -0.201 OA
ATOM     19  O   UNL     1      -0.629   3.525  -0.257  1.00  0.00    -0.201 OA
BRANCH  17  20
ATOM     20  C   UNL     1       0.264   2.228  -2.212  1.00  0.00     0.131 A 
ATOM     21  C   UNL     1      -0.769   0.120  -0.946  1.00  0.00     0.070 C 
ATOM     22  C   UNL     1      -0.260   0.910  -2.088  1.00  0.00     0.080 A 
ATOM     23  N   UNL     1      -0.394   0.326  -3.284  1.00  0.00    -0.176 NA
ATOM     24  N   UNL     1      -0.291   1.332  -4.159  1.00  0.00    -0.266 N 
ATOM     25  C   UNL     1       0.103   2.512  -3.572  1.00  0.00     0.056 A 
ATOM     26  C   UNL     1       0.157   3.784  -4.342  1.00  0.00     0.068 C 
BRANCH  24  27
ATOM     27  C   UNL     1      -0.761   1.098  -5.526  1.00  0.00     0.101 C 
ATOM     28  C   UNL     1       0.155   0.129  -6.271  1.00  0.00     0.033 C 
ATOM     29  C   UNL     1      -2.211   0.601  -5.533  1.00  0.00     0.033 C 
ENDBRANCH  24  27
ENDBRANCH  17  20
ENDBRANCH  15  17
ENDBRANCH   9  15
ENDBRANCH   6   8
ENDBRANCH   5   6
ENDBRANCH   4   5
ENDBRANCH   3   4
ENDBRANCH   2   3
ENDBRANCH   1   2
BRANCH   1  30
ATOM     30  C   UNL     1       3.577  -0.805   8.295  1.00  0.00     0.188 C 
BRANCH  30  31
ATOM     31  O   UNL     1       3.393  -2.172   7.922  1.00  0.00    -0.376 OA
BRANCH  31  32
ATOM     32  C   UNL     1       4.184  -3.101   8.660  1.00  0.00     0.202 C 
BRANCH  32  33
ATOM     33  C   UNL     1       5.665  -3.025   8.262  1.00  0.00     0.261 C 
BRANCH  33  34
ATOM     34  O   UNL     1       5.808  -3.504   6.912  1.00  0.00    -0.460 OA
BRANCH  34  35
ATOM     35  C   UNL     1       5.586  -2.555   5.970  1.00  0.00     0.338 C 
ATOM     36  O   UNL     1       6.057  -1.428   5.973  1.00  0.00    -0.246 OA
BRANCH  35  37
ATOM     37  C   UNL     1       4.446  -2.985   5.111  1.00  0.00     0.060 A 
ATOM     38  C   UNL     1       3.845  -2.009   4.349  1.00  0.00     0.016 A 
ATOM     39  C   UNL     1       3.777  -4.207   5.269  1.00  0.00     0.016 A 
ATOM     40  C   UNL     1       2.521  -2.208   3.946  1.00  0.00     0.010 A 
ATOM     41  C   UNL     1       2.432  -4.364   4.866  1.00  0.00     0.010 A 
ATOM     42  C   UNL     1       1.721  -3.317   4.280  1.00  0.00    -0.014 A 
BRANCH  42  43
ATOM     43  C   UNL     1       0.211  -3.475   4.084  1.00  0.00     0.031 A 
ATOM     44  C   UNL     1      -0.210  -4.071   2.781  1.00  0.00     0.074 A 
ATOM     45  C   UNL     1      -0.882  -3.132   4.861  1.00  0.00     0.049 A 
ATOM     46  N   UNL     1      -1.369  -3.890   2.223  1.00  0.00    -0.248 NA
ATOM     47  C   UNL     1       0.727  -4.800   1.927  1.00  0.00     0.031 C 
ATOM     48  C   UNL     1      -2.163  -3.850   4.907  1.00  0.00     0.029 A 
ATOM     49  N   UNL     1      -1.176  -2.042   5.696  1.00  0.00    -0.354 N 
ATOM     50  C   UNL     1      -1.457  -4.841   1.238  1.00  0.00     0.074 A 
ATOM     51  C   UNL     1      -0.084  -5.171   0.934  1.00  0.00     0.031 C 
ATOM     52  C   UNL     1      -3.076  -3.159   5.617  1.00  0.00     0.029 A 
ATOM     53  C   UNL     1      -2.532  -1.869   6.013  1.00  0.00     0.049 A 
ATOM     54  H   UNL     1      -0.476  -1.438   6.035  1.00  0.00     0.167 HD
ATOM     55  C   UNL     1      -2.645  -5.474   1.002  1.00  0.00     0.031 A 
ATOM     56  C   UNL     1      -3.172  -0.653   6.170  1.00  0.00     0.031 A 
ATOM     57  C   UNL     1      -3.782  -4.905   1.746  1.00  0.00     0.049 A 
ATOM     58  C   UNL     1      -4.281  -0.519   5.146  1.00  0.00     0.074 A 
ATOM     59  C   UNL     1      -4.581  -5.373   2.781  1.00  0.00     0.029 A 
ATOM     60  N   UNL     1      -4.113  -3.561   1.612  1.00  0.00    -0.354 N 
ATOM     61  N   UNL     1      -4.725  -1.521   4.451  1.00  0.00    -0.248 NA
ATOM     62  C   UNL     1      -4.853   0.756   4.695  1.00  0.00     0.031 C 
ATOM     63  C   UNL     1      -5.459  -4.336   3.192  1.00  0.00     0.029 A 
ATOM     64  C   UNL     1      -5.192  -3.226   2.418  1.00  0.00     0.049 A 
ATOM     65  H   UNL     1      -3.642  -2.929   1.022  1.00  0.00     0.167 HD
ATOM     66  C   UNL     1      -5.413  -1.050   3.372  1.00  0.00     0.074 A 
ATOM     67  C   UNL     1      -5.522   0.378   3.592  1.00  0.00     0.031 C 
ATOM     68  C   UNL     1      -5.753  -1.881   2.349  1.00  0.00     0.031 A 
BRANCH  55  69
ATOM     69  C   UNL     1      -2.669  -6.870   0.390  1.00  0.00    -0.014 A 
ATOM     70  C   UNL     1      -3.694  -7.770   0.729  1.00  0.00     0.009 A 
ATOM     71  C   UNL     1      -1.670  -7.391  -0.450  1.00  0.00     0.009 A 
ATOM     72  C   UNL     1      -3.644  -9.128   0.385  1.00  0.00     0.001 A 
ATOM     73  C   UNL     1      -1.584  -8.755  -0.764  1.00  0.00     0.001 A 
ATOM     74  C   UNL     1      -2.566  -9.630  -0.328  1.00  0.00     0.000 A 
ENDBRANCH  55  69
BRANCH  56  75
ATOM     75  C   UNL     1      -2.467   0.570   6.736  1.00  0.00    -0.014 A 
ATOM     76  C   UNL     1      -2.118   0.611   8.099  1.00  0.00     0.009 A 
ATOM     77  C   UNL     1      -1.983   1.630   5.949  1.00  0.00     0.009 A 
ATOM     78  C   UNL     1      -1.146   1.513   8.585  1.00  0.00     0.001 A 
ATOM     79  C   UNL     1      -1.018   2.536   6.430  1.00  0.00     0.001 A 
ATOM     80  C   UNL     1      -0.555   2.439   7.734  1.00  0.00     0.000 A 
ENDBRANCH  56  75
BRANCH  68  81
ATOM     81  C   UNL     1      -6.636  -1.514   1.191  1.00  0.00    -0.014 A 
ATOM     82  C   UNL     1      -7.594  -0.492   1.238  1.00  0.00     0.009 A 
ATOM     83  C   UNL     1      -6.633  -2.328   0.039  1.00  0.00     0.009 A 
ATOM     84  C   UNL     1      -8.460  -0.258   0.163  1.00  0.00     0.001 A 
ATOM     85  C   UNL     1      -7.510  -2.116  -1.023  1.00  0.00     0.001 A 
ATOM     86  C   UNL     1      -8.418  -1.071  -0.966  1.00  0.00     0.000 A 
ENDBRANCH  68  81
ENDBRANCH  42  43
ENDBRANCH  35  37
ENDBRANCH  34  35
ENDBRANCH  33  34
ENDBRANCH  32  33
ENDBRANCH  31  32
ENDBRANCH  30  31
ENDBRANCH   1  30
TORSDOF 21
