REMARK SMILES O=C(OCCOCCOCCOC(=O)c1ccccc1C(=O)OC[C@@H]1C[C@H]2CC[C@@H]1C2)c1ccc(-c2c3nc(c(-c4ccccc4)c4ccc([nH]4)c(-c4ccccc4)c4nc(c(-c5ccccc5)c5ccc2[nH]5)C=C4)C=C3)cc1
REMARK SMILES IDX 8 1 7 2 6 3 5 4 4 5 3 6 2 7 1 8 32 9 33 10 79 11 34 12 78 13
REMARK SMILES IDX 35 14 36 15 37 16 72 17 38 18 77 19 71 20 73 21 39 22 76 23
REMARK SMILES IDX 70 24 69 25 40 27 62 28 47 29 61 30 48 31 51 32 60 33 74 34
REMARK SMILES IDX 49 35 50 36 59 38 75 39 52 40 41 41 42 42 46 43 43 44 45 45
REMARK SMILES IDX 44 46 63 47 64 48 68 49 65 50 67 51 66 52 53 53 54 54 58 55
REMARK SMILES IDX 55 56 57 57 56 58 9 59 10 60 11 61 12 62 13 63 14 64 15 65
REMARK SMILES IDX 16 66 20 67 17 68 19 69 18 70 21 71 22 72 23 73 24 74 25 75
REMARK SMILES IDX 26 76 30 77 27 78 29 79 31 80 28 81
REMARK H PARENT 73 26 51 37
REMARK Flexibility Score: inf
ROOT
ATOM      1  C   UNL     1       1.826  -3.112  -0.546  1.00  0.00     0.188 C 
ENDROOT
BRANCH   1   2
ATOM      2  C   UNL     1       2.460  -1.942   0.208  1.00  0.00     0.188 C 
BRANCH   2   3
ATOM      3  O   UNL     1       3.741  -1.563  -0.312  1.00  0.00    -0.376 OA
BRANCH   3   4
ATOM      4  C   UNL     1       4.705  -1.261   0.704  1.00  0.00     0.202 C 
BRANCH   4   5
ATOM      5  C   UNL     1       4.549   0.118   1.364  1.00  0.00     0.261 C 
BRANCH   5   6
ATOM      6  O   UNL     1       3.186   0.561   1.428  1.00  0.00    -0.460 OA
BRANCH   6   7
ATOM      7  C   UNL     1       2.499   1.306   0.527  1.00  0.00     0.338 C 
ATOM      8  O   UNL     1       1.335   1.607   0.790  1.00  0.00    -0.246 OA
BRANCH   7   9
ATOM      9  C   UNL     1       3.065   1.799  -0.769  1.00  0.00     0.060 A 
ATOM     10  C   UNL     1       4.159   1.256  -1.447  1.00  0.00     0.016 A 
ATOM     11  C   UNL     1       2.396   2.880  -1.371  1.00  0.00     0.016 A 
ATOM     12  C   UNL     1       4.649   1.824  -2.618  1.00  0.00     0.010 A 
ATOM     13  C   UNL     1       2.855   3.434  -2.568  1.00  0.00     0.010 A 
ATOM     14  C   UNL     1       4.016   2.932  -3.167  1.00  0.00    -0.014 A 
BRANCH  14  15
ATOM     15  C   UNL     1       4.679   3.676  -4.252  1.00  0.00     0.031 A 
ATOM     16  C   UNL     1       5.357   4.960  -3.903  1.00  0.00     0.074 A 
ATOM     17  C   UNL     1       4.747   3.180  -5.497  1.00  0.00     0.049 A 
ATOM     18  N   UNL     1       5.891   5.853  -4.690  1.00  0.00    -0.248 NA
ATOM     19  C   UNL     1       5.465   5.269  -2.467  1.00  0.00     0.031 C 
ATOM     20  C   UNL     1       4.282   1.856  -5.896  1.00  0.00     0.029 A 
ATOM     21  N   UNL     1       5.232   3.732  -6.653  1.00  0.00    -0.354 N 
ATOM     22  C   UNL     1       6.378   6.840  -3.847  1.00  0.00     0.074 A 
ATOM     23  C   UNL     1       6.062   6.448  -2.492  1.00  0.00     0.031 C 
ATOM     24  C   UNL     1       4.471   1.712  -7.216  1.00  0.00     0.029 A 
ATOM     25  C   UNL     1       4.987   2.957  -7.759  1.00  0.00     0.049 A 
ATOM     26  H   UNL     1       5.707   4.593  -6.687  1.00  0.00     0.167 HD
ATOM     27  C   UNL     1       7.025   7.978  -4.185  1.00  0.00     0.031 A 
ATOM     28  C   UNL     1       5.101   3.242  -9.068  1.00  0.00     0.031 A 
ATOM     29  C   UNL     1       7.293   8.352  -5.545  1.00  0.00     0.049 A 
ATOM     30  C   UNL     1       5.665   4.578  -9.443  1.00  0.00     0.074 A 
ATOM     31  C   UNL     1       7.897   9.497  -6.026  1.00  0.00     0.029 A 
ATOM     32  N   UNL     1       6.956   7.577  -6.648  1.00  0.00    -0.354 N 
ATOM     33  N   UNL     1       6.074   5.540  -8.651  1.00  0.00    -0.248 NA
ATOM     34  C   UNL     1       5.801   4.867 -10.874  1.00  0.00     0.031 C 
ATOM     35  C   UNL     1       7.870   9.441  -7.425  1.00  0.00     0.029 A 
ATOM     36  C   UNL     1       7.309   8.232  -7.812  1.00  0.00     0.049 A 
ATOM     37  H   UNL     1       6.528   6.691  -6.606  1.00  0.00     0.167 HD
ATOM     38  C   UNL     1       6.556   6.537  -9.483  1.00  0.00     0.074 A 
ATOM     39  C   UNL     1       6.376   6.064 -10.844  1.00  0.00     0.031 C 
ATOM     40  C   UNL     1       7.114   7.726  -9.150  1.00  0.00     0.031 A 
BRANCH  27  41
ATOM     41  C   UNL     1       7.371   8.909  -3.059  1.00  0.00    -0.014 A 
ATOM     42  C   UNL     1       8.353   8.586  -2.107  1.00  0.00     0.009 A 
ATOM     43  C   UNL     1       6.635  10.092  -2.900  1.00  0.00     0.009 A 
ATOM     44  C   UNL     1       8.545   9.400  -0.987  1.00  0.00     0.001 A 
ATOM     45  C   UNL     1       6.851  10.919  -1.796  1.00  0.00     0.001 A 
ATOM     46  C   UNL     1       7.792  10.563  -0.832  1.00  0.00     0.000 A 
ENDBRANCH  27  41
BRANCH  28  47
ATOM     47  C   UNL     1       4.602   2.271 -10.078  1.00  0.00    -0.014 A 
ATOM     48  C   UNL     1       5.483   1.532 -10.878  1.00  0.00     0.009 A 
ATOM     49  C   UNL     1       3.220   2.034 -10.197  1.00  0.00     0.009 A 
ATOM     50  C   UNL     1       4.991   0.582 -11.780  1.00  0.00     0.001 A 
ATOM     51  C   UNL     1       2.733   1.068 -11.082  1.00  0.00     0.001 A 
ATOM     52  C   UNL     1       3.620   0.346 -11.876  1.00  0.00     0.000 A 
ENDBRANCH  28  47
BRANCH  40  53
ATOM     53  C   UNL     1       7.619   8.578 -10.275  1.00  0.00    -0.014 A 
ATOM     54  C   UNL     1       6.742   9.311 -11.085  1.00  0.00     0.009 A 
ATOM     55  C   UNL     1       9.004   8.709 -10.462  1.00  0.00     0.009 A 
ATOM     56  C   UNL     1       7.246  10.156 -12.074  1.00  0.00     0.001 A 
ATOM     57  C   UNL     1       9.505   9.574 -11.433  1.00  0.00     0.001 A 
ATOM     58  C   UNL     1       8.625  10.294 -12.240  1.00  0.00     0.000 A 
ENDBRANCH  40  53
ENDBRANCH  14  15
ENDBRANCH   7   9
ENDBRANCH   6   7
ENDBRANCH   5   6
ENDBRANCH   4   5
ENDBRANCH   3   4
ENDBRANCH   2   3
ENDBRANCH   1   2
BRANCH   1  59
ATOM     59  O   UNL     1       2.490  -4.368  -0.439  1.00  0.00    -0.376 OA
BRANCH  59  60
ATOM     60  C   UNL     1       3.854  -4.418  -0.838  1.00  0.00     0.202 C 
BRANCH  60  61
ATOM     61  C   UNL     1       4.167  -4.206  -2.323  1.00  0.00     0.261 C 
BRANCH  61  62
ATOM     62  O   UNL     1       3.631  -3.003  -2.901  1.00  0.00    -0.460 OA
BRANCH  62  63
ATOM     63  C   UNL     1       2.687  -3.215  -3.844  1.00  0.00     0.339 C 
ATOM     64  O   UNL     1       2.133  -4.277  -4.126  1.00  0.00    -0.246 OA
BRANCH  63  65
ATOM     65  C   UNL     1       2.401  -1.998  -4.611  1.00  0.00     0.074 A 
ATOM     66  C   UNL     1       1.362  -1.164  -4.168  1.00  0.00     0.016 A 
ATOM     67  C   UNL     1       2.951  -1.826  -5.883  1.00  0.00     0.074 A 
ATOM     68  C   UNL     1       0.842  -0.186  -5.019  1.00  0.00     0.001 A 
ATOM     69  C   UNL     1       2.353  -0.908  -6.758  1.00  0.00     0.016 A 
ATOM     70  C   UNL     1       1.310  -0.084  -6.329  1.00  0.00     0.001 A 
BRANCH  67  71
ATOM     71  C   UNL     1       4.172  -2.514  -6.361  1.00  0.00     0.339 C 
ATOM     72  O   UNL     1       4.624  -2.365  -7.500  1.00  0.00    -0.246 OA
BRANCH  71  73
ATOM     73  O   UNL     1       4.748  -3.256  -5.386  1.00  0.00    -0.462 OA
BRANCH  73  74
ATOM     74  C   UNL     1       5.907  -4.010  -5.743  1.00  0.00     0.237 C 
BRANCH  74  75
ATOM     75  C   UNL     1       5.518  -5.150  -6.682  1.00  0.00     0.030 C 
ATOM     76  C   UNL     1       5.182  -6.479  -5.968  1.00  0.00     0.011 C 
ATOM     77  C   UNL     1       6.675  -5.547  -7.622  1.00  0.00    -0.004 C 
ATOM     78  C   UNL     1       6.066  -7.488  -6.722  1.00  0.00    -0.010 C 
ATOM     79  C   UNL     1       6.054  -6.286  -8.816  1.00  0.00     0.004 C 
ATOM     80  C   UNL     1       7.358  -6.688  -6.871  1.00  0.00     0.007 C 
ATOM     81  C   UNL     1       5.585  -7.604  -8.182  1.00  0.00     0.004 C 
ENDBRANCH  74  75
ENDBRANCH  73  74
ENDBRANCH  71  73
ENDBRANCH  67  71
ENDBRANCH  63  65
ENDBRANCH  62  63
ENDBRANCH  61  62
ENDBRANCH  60  61
ENDBRANCH  59  60
ENDBRANCH   1  59
TORSDOF 21
