REMARK SMILES O=Cc1cc(Cl)c(OCc2ccc(C(=O)OCCOCCOCCOC(=O)c3ccc(-c4c5nc(c(-c6ccccc6)c6ccc([nH]6)c(-c6ccccc6)c6nc(c(-c7ccccc7)c7ccc4[nH]7)C=C6)C=C5)cc3)cc2)c(Cl)c1
REMARK SMILES IDX 20 1 19 2 18 3 17 4 16 5 14 6 15 7 13 8 10 9 11 10 77 11
REMARK SMILES IDX 12 12 76 13 9 14 8 15 7 16 3 17 4 18 80 19 5 20 78 21 6 22
REMARK SMILES IDX 79 23 2 24 1 25 21 26 22 27 23 28 24 29 25 30 26 31 27 32
REMARK SMILES IDX 28 33 29 34 75 35 30 36 74 37 31 38 32 39 33 40 68 41 34 42
REMARK SMILES IDX 73 43 67 44 69 45 35 46 72 47 66 48 65 49 36 51 58 52 43 53
REMARK SMILES IDX 57 54 44 55 47 56 56 57 70 58 45 59 46 60 55 62 71 63 48 64
REMARK SMILES IDX 37 65 38 66 42 67 39 68 41 69 40 70 59 71 60 72 64 73 61 74
REMARK SMILES IDX 63 75 62 76 49 77 50 78 54 79 51 80 53 81 52 82
REMARK H PARENT 69 50 47 61
REMARK Flexibility Score: inf
ROOT
ATOM      1  C   UNL     1      -0.407  -4.754   7.831  1.00  0.00     0.188 C 
ENDROOT
BRANCH   1   2
ATOM      2  O   UNL     1      -1.757  -5.076   8.100  1.00  0.00    -0.376 OA
BRANCH   2   3
ATOM      3  C   UNL     1      -2.366  -6.201   7.488  1.00  0.00     0.202 C 
BRANCH   3   4
ATOM      4  C   UNL     1      -2.167  -6.522   6.004  1.00  0.00     0.261 C 
BRANCH   4   5
ATOM      5  O   UNL     1      -0.798  -6.526   5.585  1.00  0.00    -0.460 OA
BRANCH   5   6
ATOM      6  C   UNL     1      -0.509  -5.629   4.610  1.00  0.00     0.338 C 
ATOM      7  O   UNL     1      -1.288  -4.896   4.027  1.00  0.00    -0.246 OA
BRANCH   6   8
ATOM      8  C   UNL     1       0.952  -5.494   4.469  1.00  0.00     0.060 A 
ATOM      9  C   UNL     1       3.655  -5.064   3.919  1.00  0.00    -0.011 A 
ATOM     10  C   UNL     1       2.844  -3.996   4.316  1.00  0.00     0.008 A 
ATOM     11  C   UNL     1       3.131  -6.372   3.968  1.00  0.00     0.008 A 
ATOM     12  C   UNL     1       1.486  -4.202   4.539  1.00  0.00     0.016 A 
ATOM     13  C   UNL     1       1.781  -6.591   4.250  1.00  0.00     0.016 A 
BRANCH   9  14
ATOM     14  C   UNL     1       5.049  -4.861   3.351  1.00  0.00     0.265 C 
BRANCH  14  15
ATOM     15  O   UNL     1       5.412  -3.561   2.872  1.00  0.00    -0.486 OA
BRANCH  15  16
ATOM     16  C   UNL     1       4.633  -2.794   2.048  1.00  0.00     0.157 A 
ATOM     17  C   UNL     1       3.048  -0.884   0.702  1.00  0.00     0.017 A 
ATOM     18  C   UNL     1       2.803  -2.248   0.537  1.00  0.00     0.036 A 
ATOM     19  C   UNL     1       4.116  -0.457   1.480  1.00  0.00     0.036 A 
ATOM     20  C   UNL     1       3.617  -3.201   1.169  1.00  0.00     0.085 A 
ATOM     21  C   UNL     1       4.893  -1.408   2.150  1.00  0.00     0.085 A 
ATOM     22  Cl  UNL     1       3.319  -4.841   0.715  1.00  0.00    -0.080 Cl
ATOM     23  Cl  UNL     1       6.182  -0.805   3.141  1.00  0.00    -0.080 Cl
BRANCH  17  24
ATOM     24  C   UNL     1       2.189   0.118   0.042  1.00  0.00     0.260 C 
ATOM     25  O   UNL     1       1.171  -0.202  -0.557  1.00  0.00    -0.298 OA
ENDBRANCH  17  24
ENDBRANCH  15  16
ENDBRANCH  14  15
ENDBRANCH   9  14
ENDBRANCH   6   8
ENDBRANCH   5   6
ENDBRANCH   4   5
ENDBRANCH   3   4
ENDBRANCH   2   3
ENDBRANCH   1   2
BRANCH   1  26
ATOM     26  C   UNL     1       0.726  -5.770   8.091  1.00  0.00     0.188 C 
BRANCH  26  27
ATOM     27  O   UNL     1       0.459  -7.043   8.637  1.00  0.00    -0.376 OA
BRANCH  27  28
ATOM     28  C   UNL     1      -0.155  -7.173   9.907  1.00  0.00     0.202 C 
BRANCH  28  29
ATOM     29  C   UNL     1       0.177  -6.261  11.093  1.00  0.00     0.261 C 
BRANCH  29  30
ATOM     30  O   UNL     1       0.322  -4.871  10.789  1.00  0.00    -0.460 OA
BRANCH  30  31
ATOM     31  C   UNL     1       1.570  -4.377  10.981  1.00  0.00     0.338 C 
ATOM     32  O   UNL     1       2.557  -4.974  11.370  1.00  0.00    -0.246 OA
BRANCH  31  33
ATOM     33  C   UNL     1       1.625  -2.990  10.492  1.00  0.00     0.060 A 
ATOM     34  C   UNL     1       2.480  -2.696   9.422  1.00  0.00     0.016 A 
ATOM     35  C   UNL     1       0.901  -1.981  11.128  1.00  0.00     0.016 A 
ATOM     36  C   UNL     1       2.639  -1.377   9.002  1.00  0.00     0.010 A 
ATOM     37  C   UNL     1       1.076  -0.657  10.718  1.00  0.00     0.010 A 
ATOM     38  C   UNL     1       1.968  -0.348   9.675  1.00  0.00    -0.014 A 
BRANCH  38  39
ATOM     39  C   UNL     1       2.331   1.063   9.409  1.00  0.00     0.031 A 
ATOM     40  C   UNL     1       3.328   1.734  10.313  1.00  0.00     0.074 A 
ATOM     41  C   UNL     1       1.793   1.738   8.379  1.00  0.00     0.049 A 
ATOM     42  N   UNL     1       3.755   2.970  10.305  1.00  0.00    -0.248 NA
ATOM     43  C   UNL     1       3.921   0.895  11.369  1.00  0.00     0.031 C 
ATOM     44  C   UNL     1       0.852   1.190   7.404  1.00  0.00     0.029 A 
ATOM     45  N   UNL     1       1.960   3.044   7.992  1.00  0.00    -0.354 N 
ATOM     46  C   UNL     1       4.660   3.061  11.355  1.00  0.00     0.074 A 
ATOM     47  C   UNL     1       4.702   1.763  11.994  1.00  0.00     0.031 C 
ATOM     48  C   UNL     1       0.513   2.159   6.536  1.00  0.00     0.029 A 
ATOM     49  C   UNL     1       1.186   3.400   6.916  1.00  0.00     0.049 A 
ATOM     50  H   UNL     1       2.575   3.665   8.444  1.00  0.00     0.167 HD
ATOM     51  C   UNL     1       5.393   4.127  11.752  1.00  0.00     0.031 A 
ATOM     52  C   UNL     1       1.022   4.599   6.324  1.00  0.00     0.031 A 
ATOM     53  C   UNL     1       5.338   5.424  11.134  1.00  0.00     0.049 A 
ATOM     54  C   UNL     1       1.779   5.794   6.842  1.00  0.00     0.074 A 
ATOM     55  C   UNL     1       6.050   6.565  11.458  1.00  0.00     0.029 A 
ATOM     56  N   UNL     1       4.512   5.755  10.072  1.00  0.00    -0.354 N 
ATOM     57  N   UNL     1       2.654   5.861   7.816  1.00  0.00    -0.248 NA
ATOM     58  C   UNL     1       1.526   7.079   6.172  1.00  0.00     0.031 C 
ATOM     59  C   UNL     1       5.614   7.602  10.627  1.00  0.00     0.029 A 
ATOM     60  C   UNL     1       4.675   7.091   9.746  1.00  0.00     0.049 A 
ATOM     61  H   UNL     1       3.900   5.133   9.617  1.00  0.00     0.167 HD
ATOM     62  C   UNL     1       3.076   7.185   7.856  1.00  0.00     0.074 A 
ATOM     63  C   UNL     1       2.373   7.882   6.800  1.00  0.00     0.031 C 
ATOM     64  C   UNL     1       3.970   7.771   8.691  1.00  0.00     0.031 A 
BRANCH  51  65
ATOM     65  C   UNL     1       6.292   3.939  12.941  1.00  0.00    -0.014 A 
ATOM     66  C   UNL     1       7.464   3.172  12.856  1.00  0.00     0.009 A 
ATOM     67  C   UNL     1       5.971   4.558  14.159  1.00  0.00     0.009 A 
ATOM     68  C   UNL     1       8.279   3.001  13.977  1.00  0.00     0.001 A 
ATOM     69  C   UNL     1       6.802   4.408  15.270  1.00  0.00     0.001 A 
ATOM     70  C   UNL     1       7.950   3.623  15.181  1.00  0.00     0.000 A 
ENDBRANCH  51  65
BRANCH  52  71
ATOM     71  C   UNL     1       0.080   4.745   5.183  1.00  0.00    -0.014 A 
ATOM     72  C   UNL     1       0.557   5.008   3.890  1.00  0.00     0.009 A 
ATOM     73  C   UNL     1      -1.305   4.651   5.389  1.00  0.00     0.009 A 
ATOM     74  C   UNL     1      -0.335   5.199   2.832  1.00  0.00     0.001 A 
ATOM     75  C   UNL     1      -2.193   4.814   4.324  1.00  0.00     0.001 A 
ATOM     76  C   UNL     1      -1.708   5.097   3.049  1.00  0.00     0.000 A 
ENDBRANCH  52  71
BRANCH  64  77
ATOM     77  C   UNL     1       4.269   9.228   8.473  1.00  0.00    -0.014 A 
ATOM     78  C   UNL     1       3.339  10.225   8.806  1.00  0.00     0.009 A 
ATOM     79  C   UNL     1       5.523   9.610   7.968  1.00  0.00     0.009 A 
ATOM     80  C   UNL     1       3.647  11.572   8.607  1.00  0.00     0.001 A 
ATOM     81  C   UNL     1       5.839  10.959   7.799  1.00  0.00     0.001 A 
ATOM     82  C   UNL     1       4.897  11.938   8.110  1.00  0.00     0.000 A 
ENDBRANCH  64  77
ENDBRANCH  38  39
ENDBRANCH  31  33
ENDBRANCH  30  31
ENDBRANCH  29  30
ENDBRANCH  28  29
ENDBRANCH  27  28
ENDBRANCH  26  27
ENDBRANCH   1  26
TORSDOF 21
