REMARK SMILES Cc1ccc(-c2nn(CCC(=O)OCCOCCOCCOC(=O)c3ccc(-c4c5nc(c(-c6ccccc6)c6ccc([nH]6)c(-c6ccccc6)c6nc(c(-c7ccccc7)c7ccc4[nH]7)C=C6)C=C5)cc3)c(=O)c3noc(C)c23)cc1C
REMARK SMILES IDX 17 1 16 2 15 3 14 4 13 5 11 6 12 7 10 8 9 9 8 10 6 11 7 12
REMARK SMILES IDX 80 13 75 14 78 15 73 16 76 17 77 18 79 19 74 20 5 21 1 22
REMARK SMILES IDX 2 23 3 24 82 25 4 26 81 27 83 28 18 29 19 30 20 31 21 32
REMARK SMILES IDX 22 33 23 34 24 35 25 36 26 37 72 38 27 39 71 40 28 41 29 42
REMARK SMILES IDX 30 43 65 44 31 45 70 46 64 47 66 48 32 49 69 50 63 51 62 52
REMARK SMILES IDX 33 54 55 55 40 56 54 57 41 58 44 59 53 60 67 61 42 62 43 63
REMARK SMILES IDX 52 65 68 66 45 67 34 68 35 69 39 70 36 71 38 72 37 73 56 74
REMARK SMILES IDX 57 75 61 76 58 77 60 78 59 79 46 80 47 81 51 82 48 83 50 84
REMARK SMILES IDX 49 85
REMARK H PARENT 66 53 44 64
REMARK Flexibility Score: inf
ROOT
ATOM      1  C   UNL     1      -8.658  -4.192  -1.616  1.00  0.00     0.188 C 
ENDROOT
BRANCH   1   2
ATOM      2  O   UNL     1      -8.955  -5.421  -0.973  1.00  0.00    -0.376 OA
BRANCH   2   3
ATOM      3  C   UNL     1      -7.862  -6.028  -0.274  1.00  0.00     0.202 C 
BRANCH   3   4
ATOM      4  C   UNL     1      -6.649  -6.508  -1.114  1.00  0.00     0.261 C 
BRANCH   4   5
ATOM      5  O   UNL     1      -5.786  -5.455  -1.616  1.00  0.00    -0.463 OA
BRANCH   5   6
ATOM      6  C   UNL     1      -5.954  -5.051  -2.897  1.00  0.00     0.307 C 
ATOM      7  O   UNL     1      -6.638  -5.641  -3.727  1.00  0.00    -0.252 OA
BRANCH   6   8
ATOM      8  C   UNL     1      -5.211  -3.765  -3.221  1.00  0.00     0.146 C 
BRANCH   8   9
ATOM      9  C   UNL     1      -5.401  -2.548  -2.304  1.00  0.00     0.160 C 
BRANCH   9  10
ATOM     10  N   UNL     1      -4.615  -2.542  -1.068  1.00  0.00    -0.227 N 
ATOM     11  C   UNL     1      -2.706  -1.657  -0.023  1.00  0.00     0.104 A 
ATOM     12  N   UNL     1      -3.457  -1.749  -1.086  1.00  0.00    -0.169 NA
ATOM     13  C   UNL     1      -3.017  -2.416   1.155  1.00  0.00     0.078 A 
ATOM     14  C   UNL     1      -4.202  -3.148   1.203  1.00  0.00     0.183 A 
ATOM     15  C   UNL     1      -2.421  -2.664   2.369  1.00  0.00     0.143 A 
ATOM     16  C   UNL     1      -5.113  -3.162   0.093  1.00  0.00     0.296 A 
ATOM     17  N   UNL     1      -4.353  -3.813   2.353  1.00  0.00    -0.074 NA
ATOM     18  O   UNL     1      -3.222  -3.506   3.088  1.00  0.00    -0.360 OA
ATOM     19  C   UNL     1      -1.172  -2.276   3.046  1.00  0.00     0.091 C 
ATOM     20  O   UNL     1      -6.211  -3.691   0.187  1.00  0.00    -0.265 OA
BRANCH  11  21
ATOM     21  C   UNL     1      -1.525  -0.797  -0.037  1.00  0.00     0.003 A 
ATOM     22  C   UNL     1       1.994   1.655   0.009  1.00  0.00     0.044 C 
ATOM     23  C   UNL     1       0.777   0.772  -0.009  1.00  0.00    -0.048 A 
ATOM     24  C   UNL     1      -0.499   1.369   0.005  1.00  0.00     0.004 A 
ATOM     25  C   UNL     1       0.888  -0.633  -0.046  1.00  0.00    -0.048 A 
ATOM     26  C   UNL     1      -1.654   0.588  -0.009  1.00  0.00     0.011 A 
ATOM     27  C   UNL     1      -0.275  -1.407  -0.080  1.00  0.00     0.014 A 
ATOM     28  C   UNL     1       2.193  -1.375  -0.037  1.00  0.00     0.044 C 
ENDBRANCH  11  21
ENDBRANCH   9  10
ENDBRANCH   8   9
ENDBRANCH   6   8
ENDBRANCH   5   6
ENDBRANCH   4   5
ENDBRANCH   3   4
ENDBRANCH   2   3
ENDBRANCH   1   2
BRANCH   1  29
ATOM     29  C   UNL     1      -9.272  -2.951  -0.994  1.00  0.00     0.188 C 
BRANCH  29  30
ATOM     30  O   UNL     1      -8.506  -2.351   0.049  1.00  0.00    -0.376 OA
BRANCH  30  31
ATOM     31  C   UNL     1      -8.870  -2.716   1.377  1.00  0.00     0.202 C 
BRANCH  31  32
ATOM     32  C   UNL     1     -10.212  -2.145   1.874  1.00  0.00     0.261 C 
BRANCH  32  33
ATOM     33  O   UNL     1     -11.021  -1.553   0.847  1.00  0.00    -0.460 OA
BRANCH  33  34
ATOM     34  C   UNL     1     -10.521  -0.386   0.372  1.00  0.00     0.338 C 
ATOM     35  O   UNL     1      -9.595   0.265   0.827  1.00  0.00    -0.246 OA
BRANCH  34  36
ATOM     36  C   UNL     1     -11.215  -0.009  -0.868  1.00  0.00     0.060 A 
ATOM     37  C   UNL     1     -10.460   0.273  -2.015  1.00  0.00     0.016 A 
ATOM     38  C   UNL     1     -12.583   0.226  -0.843  1.00  0.00     0.016 A 
ATOM     39  C   UNL     1     -11.066   0.859  -3.126  1.00  0.00     0.010 A 
ATOM     40  C   UNL     1     -13.169   0.868  -1.929  1.00  0.00     0.010 A 
ATOM     41  C   UNL     1     -12.416   1.218  -3.070  1.00  0.00    -0.014 A 
BRANCH  41  42
ATOM     42  C   UNL     1     -13.026   1.956  -4.211  1.00  0.00     0.031 A 
ATOM     43  C   UNL     1     -14.405   1.489  -4.545  1.00  0.00     0.074 A 
ATOM     44  C   UNL     1     -12.675   3.237  -4.496  1.00  0.00     0.049 A 
ATOM     45  N   UNL     1     -15.411   1.836  -3.796  1.00  0.00    -0.248 NA
ATOM     46  C   UNL     1     -14.707   0.379  -5.447  1.00  0.00     0.031 C 
ATOM     47  C   UNL     1     -12.017   4.118  -3.516  1.00  0.00     0.029 A 
ATOM     48  N   UNL     1     -12.996   4.091  -5.537  1.00  0.00    -0.354 N 
ATOM     49  C   UNL     1     -16.428   0.934  -4.019  1.00  0.00     0.074 A 
ATOM     50  C   UNL     1     -15.977   0.091  -5.105  1.00  0.00     0.031 C 
ATOM     51  C   UNL     1     -12.154   5.398  -3.914  1.00  0.00     0.029 A 
ATOM     52  C   UNL     1     -12.786   5.444  -5.234  1.00  0.00     0.049 A 
ATOM     53  H   UNL     1     -13.340   3.779  -6.406  1.00  0.00     0.167 HD
ATOM     54  C   UNL     1     -17.544   0.914  -3.243  1.00  0.00     0.031 A 
ATOM     55  C   UNL     1     -13.598   6.477  -5.610  1.00  0.00     0.031 A 
ATOM     56  C   UNL     1     -17.530   1.807  -2.117  1.00  0.00     0.049 A 
ATOM     57  C   UNL     1     -14.856   6.175  -4.838  1.00  0.00     0.074 A 
ATOM     58  C   UNL     1     -17.320   1.731  -0.756  1.00  0.00     0.029 A 
ATOM     59  N   UNL     1     -17.719   3.144  -2.358  1.00  0.00    -0.354 N 
ATOM     60  N   UNL     1     -15.072   6.388  -3.571  1.00  0.00    -0.248 NA
ATOM     61  C   UNL     1     -15.812   5.275  -5.484  1.00  0.00     0.031 C 
ATOM     62  C   UNL     1     -16.926   3.048  -0.356  1.00  0.00     0.029 A 
ATOM     63  C   UNL     1     -16.899   3.837  -1.505  1.00  0.00     0.049 A 
ATOM     64  H   UNL     1     -18.331   3.535  -3.022  1.00  0.00     0.167 HD
ATOM     65  C   UNL     1     -15.996   5.416  -3.188  1.00  0.00     0.074 A 
ATOM     66  C   UNL     1     -16.425   4.781  -4.419  1.00  0.00     0.031 C 
ATOM     67  C   UNL     1     -16.226   5.057  -1.891  1.00  0.00     0.031 A 
BRANCH  54  68
ATOM     68  C   UNL     1     -18.791   0.208  -3.585  1.00  0.00    -0.014 A 
ATOM     69  C   UNL     1     -19.773   0.974  -4.238  1.00  0.00     0.009 A 
ATOM     70  C   UNL     1     -19.124  -1.056  -3.095  1.00  0.00     0.009 A 
ATOM     71  C   UNL     1     -21.078   0.510  -4.359  1.00  0.00     0.001 A 
ATOM     72  C   UNL     1     -20.435  -1.529  -3.235  1.00  0.00     0.001 A 
ATOM     73  C   UNL     1     -21.411  -0.740  -3.850  1.00  0.00     0.000 A 
ENDBRANCH  54  68
BRANCH  55  74
ATOM     74  C   UNL     1     -13.667   6.875  -7.054  1.00  0.00    -0.014 A 
ATOM     75  C   UNL     1     -12.480   6.966  -7.803  1.00  0.00     0.009 A 
ATOM     76  C   UNL     1     -14.861   7.232  -7.707  1.00  0.00     0.009 A 
ATOM     77  C   UNL     1     -12.501   7.280  -9.168  1.00  0.00     0.001 A 
ATOM     78  C   UNL     1     -14.890   7.511  -9.079  1.00  0.00     0.001 A 
ATOM     79  C   UNL     1     -13.710   7.518  -9.813  1.00  0.00     0.000 A 
ENDBRANCH  55  74
BRANCH  67  80
ATOM     80  C   UNL     1     -15.556   5.881  -0.839  1.00  0.00    -0.014 A 
ATOM     81  C   UNL     1     -15.991   7.190  -0.597  1.00  0.00     0.009 A 
ATOM     82  C   UNL     1     -14.544   5.341  -0.027  1.00  0.00     0.009 A 
ATOM     83  C   UNL     1     -15.457   7.930   0.460  1.00  0.00     0.001 A 
ATOM     84  C   UNL     1     -14.021   6.077   1.039  1.00  0.00     0.001 A 
ATOM     85  C   UNL     1     -14.485   7.368   1.286  1.00  0.00     0.000 A 
ENDBRANCH  67  80
ENDBRANCH  41  42
ENDBRANCH  34  36
ENDBRANCH  33  34
ENDBRANCH  32  33
ENDBRANCH  31  32
ENDBRANCH  30  31
ENDBRANCH  29  30
ENDBRANCH   1  29
TORSDOF 20
