REMARK SMILES CCN(Cc1ccccn1)C(=O)[C@H]1CC[C@@H](C(=O)OCCOCCOCCOC(=O)c2ccc(-c3c4nc(c(-c5ccccc5)c5ccc([nH]5)c(-c5ccccc5)c5nc(c(-c6ccccc6)c6ccc3[nH]6)C=C5)C=C4)cc2)CC1
REMARK SMILES IDX 23 1 22 2 21 3 20 4 19 5 17 6 18 7 16 8 13 9 80 10 14 11
REMARK SMILES IDX 79 12 15 13 11 14 12 15 3 16 2 17 1 18 4 19 5 20 6 21 10 22
REMARK SMILES IDX 7 23 9 24 8 25 24 26 25 27 26 28 27 29 28 30 29 31 30 32
REMARK SMILES IDX 31 33 32 34 78 35 33 36 77 37 34 38 35 39 36 40 71 41 37 42
REMARK SMILES IDX 76 43 70 44 72 45 38 46 75 47 69 48 68 49 39 51 61 52 46 53
REMARK SMILES IDX 60 54 47 55 50 56 59 57 73 58 48 59 49 60 58 62 74 63 51 64
REMARK SMILES IDX 40 65 41 66 45 67 42 68 44 69 43 70 62 71 63 72 67 73 64 74
REMARK SMILES IDX 66 75 65 76 52 77 53 78 57 79 54 80 56 81 55 82
REMARK H PARENT 72 50 50 61
REMARK Flexibility Score: inf
ROOT
ATOM      1  C   UNL     1       5.813   7.935   2.757  1.00  0.00     0.188 C 
ENDROOT
BRANCH   1   2
ATOM      2  O   UNL     1       5.177   7.842   4.024  1.00  0.00    -0.376 OA
BRANCH   2   3
ATOM      3  C   UNL     1       4.382   6.676   4.250  1.00  0.00     0.202 C 
BRANCH   3   4
ATOM      4  C   UNL     1       3.291   6.366   3.212  1.00  0.00     0.261 C 
BRANCH   4   5
ATOM      5  O   UNL     1       3.768   6.111   1.868  1.00  0.00    -0.463 OA
BRANCH   5   6
ATOM      6  C   UNL     1       3.343   6.961   0.899  1.00  0.00     0.309 C 
ATOM      7  O   UNL     1       2.620   7.934   1.104  1.00  0.00    -0.252 OA
BRANCH   6   8
ATOM      8  C   UNL     1       3.853   6.639  -0.512  1.00  0.00     0.099 C 
ATOM      9  C   UNL     1       2.743   3.853  -0.949  1.00  0.00     0.079 C 
ATOM     10  C   UNL     1       1.933   5.139  -0.987  1.00  0.00     0.014 C 
ATOM     11  C   UNL     1       4.191   4.103  -0.441  1.00  0.00     0.014 C 
ATOM     12  C   UNL     1       2.648   6.411  -1.412  1.00  0.00     0.016 C 
ATOM     13  C   UNL     1       4.801   5.466  -0.735  1.00  0.00     0.016 C 
BRANCH   9  14
ATOM     14  C   UNL     1       2.178   2.676  -0.096  1.00  0.00     0.226 C 
ATOM     15  O   UNL     1       3.009   1.871   0.359  1.00  0.00    -0.275 OA
BRANCH  14  16
ATOM     16  N   UNL     1       0.828   2.403   0.091  1.00  0.00    -0.337 N 
BRANCH  16  17
ATOM     17  C   UNL     1       0.518   1.182   0.845  1.00  0.00     0.116 C 
ATOM     18  C   UNL     1       0.733  -0.070  -0.001  1.00  0.00     0.027 C 
ENDBRANCH  16  17
BRANCH  16  19
ATOM     19  C   UNL     1      -0.342   3.212  -0.300  1.00  0.00     0.175 C 
BRANCH  19  20
ATOM     20  C   UNL     1      -0.592   4.442   0.571  1.00  0.00     0.060 A 
ATOM     21  C   UNL     1      -1.082   5.610  -0.024  1.00  0.00     0.026 A 
ATOM     22  N   UNL     1      -0.166   4.421   1.861  1.00  0.00    -0.259 NA
ATOM     23  C   UNL     1      -0.992   6.813   0.673  1.00  0.00     0.004 A 
ATOM     24  C   UNL     1      -0.125   5.600   2.523  1.00  0.00     0.111 A 
ATOM     25  C   UNL     1      -0.485   6.814   1.965  1.00  0.00     0.020 A 
ENDBRANCH  19  20
ENDBRANCH  16  19
ENDBRANCH  14  16
ENDBRANCH   9  14
ENDBRANCH   6   8
ENDBRANCH   5   6
ENDBRANCH   4   5
ENDBRANCH   3   4
ENDBRANCH   2   3
ENDBRANCH   1   2
BRANCH   1  26
ATOM     26  C   UNL     1       6.777   6.800   2.401  1.00  0.00     0.188 C 
BRANCH  26  27
ATOM     27  O   UNL     1       6.390   5.510   2.839  1.00  0.00    -0.376 OA
BRANCH  27  28
ATOM     28  C   UNL     1       7.354   4.460   2.766  1.00  0.00     0.202 C 
BRANCH  28  29
ATOM     29  C   UNL     1       8.713   4.728   3.444  1.00  0.00     0.261 C 
BRANCH  29  30
ATOM     30  O   UNL     1       9.481   5.828   2.908  1.00  0.00    -0.460 OA
BRANCH  30  31
ATOM     31  C   UNL     1       9.640   5.905   1.566  1.00  0.00     0.338 C 
ATOM     32  O   UNL     1       9.474   5.005   0.761  1.00  0.00    -0.246 OA
BRANCH  31  33
ATOM     33  C   UNL     1       9.777   7.343   1.195  1.00  0.00     0.060 A 
ATOM     34  C   UNL     1       9.138   7.791   0.027  1.00  0.00     0.016 A 
ATOM     35  C   UNL     1      10.430   8.262   2.021  1.00  0.00     0.016 A 
ATOM     36  C   UNL     1       9.193   9.140  -0.342  1.00  0.00     0.010 A 
ATOM     37  C   UNL     1      10.499   9.609   1.645  1.00  0.00     0.010 A 
ATOM     38  C   UNL     1       9.916  10.048   0.441  1.00  0.00    -0.014 A 
BRANCH  38  39
ATOM     39  C   UNL     1      10.317  11.368  -0.111  1.00  0.00     0.031 A 
ATOM     40  C   UNL     1      11.682  11.464  -0.743  1.00  0.00     0.074 A 
ATOM     41  C   UNL     1       9.533  12.460  -0.052  1.00  0.00     0.049 A 
ATOM     42  N   UNL     1      12.332  12.514  -1.172  1.00  0.00    -0.248 NA
ATOM     43  C   UNL     1      12.412  10.195  -0.900  1.00  0.00     0.031 C 
ATOM     44  C   UNL     1       8.168  12.508   0.465  1.00  0.00     0.029 A 
ATOM     45  N   UNL     1       9.797  13.757  -0.428  1.00  0.00    -0.354 N 
ATOM     46  C   UNL     1      13.554  12.034  -1.628  1.00  0.00     0.074 A 
ATOM     47  C   UNL     1      13.564  10.606  -1.403  1.00  0.00     0.031 C 
ATOM     48  C   UNL     1       7.719  13.775   0.390  1.00  0.00     0.029 A 
ATOM     49  C   UNL     1       8.779  14.634  -0.138  1.00  0.00     0.049 A 
ATOM     50  H   UNL     1      10.636  14.031  -0.863  1.00  0.00     0.167 HD
ATOM     51  C   UNL     1      14.582  12.716  -2.185  1.00  0.00     0.031 A 
ATOM     52  C   UNL     1       8.725  15.977  -0.256  1.00  0.00     0.031 A 
ATOM     53  C   UNL     1      14.589  14.136  -2.398  1.00  0.00     0.049 A 
ATOM     54  C   UNL     1       9.921  16.732  -0.787  1.00  0.00     0.074 A 
ATOM     55  C   UNL     1      15.587  14.918  -2.953  1.00  0.00     0.029 A 
ATOM     56  N   UNL     1      13.551  14.988  -2.059  1.00  0.00    -0.354 N 
ATOM     57  N   UNL     1      11.070  16.270  -1.218  1.00  0.00    -0.248 NA
ATOM     58  C   UNL     1       9.808  18.198  -0.849  1.00  0.00     0.031 C 
ATOM     59  C   UNL     1      15.174  16.252  -2.898  1.00  0.00     0.029 A 
ATOM     60  C   UNL     1      13.893  16.291  -2.373  1.00  0.00     0.049 A 
ATOM     61  H   UNL     1      12.698  14.708  -1.654  1.00  0.00     0.167 HD
ATOM     62  C   UNL     1      11.795  17.381  -1.638  1.00  0.00     0.074 A 
ATOM     63  C   UNL     1      10.957  18.539  -1.416  1.00  0.00     0.031 C 
ATOM     64  C   UNL     1      13.042  17.435  -2.167  1.00  0.00     0.031 A 
BRANCH  51  65
ATOM     65  C   UNL     1      15.804  11.928  -2.562  1.00  0.00    -0.014 A 
ATOM     66  C   UNL     1      15.793  11.033  -3.643  1.00  0.00     0.009 A 
ATOM     67  C   UNL     1      16.990  12.098  -1.831  1.00  0.00     0.009 A 
ATOM     68  C   UNL     1      16.935  10.296  -3.961  1.00  0.00     0.001 A 
ATOM     69  C   UNL     1      18.139  11.384  -2.171  1.00  0.00     0.001 A 
ATOM     70  C   UNL     1      18.108  10.477  -3.228  1.00  0.00     0.000 A 
ENDBRANCH  51  65
BRANCH  52  71
ATOM     71  C   UNL     1       7.507  16.724   0.166  1.00  0.00    -0.014 A 
ATOM     72  C   UNL     1       6.713  17.392  -0.780  1.00  0.00     0.009 A 
ATOM     73  C   UNL     1       7.161  16.817   1.523  1.00  0.00     0.009 A 
ATOM     74  C   UNL     1       5.618  18.160  -0.374  1.00  0.00     0.001 A 
ATOM     75  C   UNL     1       6.048  17.560   1.924  1.00  0.00     0.001 A 
ATOM     76  C   UNL     1       5.284  18.240   0.977  1.00  0.00     0.000 A 
ENDBRANCH  52  71
BRANCH  64  77
ATOM     77  C   UNL     1      13.561  18.775  -2.613  1.00  0.00    -0.014 A 
ATOM     78  C   UNL     1      13.949  19.760  -1.694  1.00  0.00     0.009 A 
ATOM     79  C   UNL     1      13.729  19.024  -3.986  1.00  0.00     0.009 A 
ATOM     80  C   UNL     1      14.468  20.978  -2.141  1.00  0.00     0.001 A 
ATOM     81  C   UNL     1      14.276  20.229  -4.429  1.00  0.00     0.001 A 
ATOM     82  C   UNL     1      14.638  21.208  -3.507  1.00  0.00     0.000 A 
ENDBRANCH  64  77
ENDBRANCH  38  39
ENDBRANCH  31  33
ENDBRANCH  30  31
ENDBRANCH  29  30
ENDBRANCH  28  29
ENDBRANCH  27  28
ENDBRANCH  26  27
ENDBRANCH   1  26
TORSDOF 22
