REMARK SMILES O=C(OCCOCCOCCOC(=O)c1ccc(-c2c3nc(c(-c4ccccc4)c4ccc([nH]4)c(-c4ccccc4)c4nc(c(-c5ccccc5)c5ccc2[nH]5)C=C4)C=C3)cc1)c1ccc(NS(=O)(=O)C2=Cc3ccccc3CC2)cc1
REMARK SMILES IDX 7 1 6 2 5 3 4 4 3 5 2 6 1 7 63 8 64 9 82 10 65 11 81 12
REMARK SMILES IDX 66 13 67 14 68 16 69 17 70 18 71 19 72 20 80 21 73 22 79 23
REMARK SMILES IDX 74 24 78 25 75 26 77 27 76 28 8 29 9 30 10 31 11 32 12 33
REMARK SMILES IDX 13 34 14 35 15 36 16 37 62 38 17 39 61 40 18 41 19 42 20 43
REMARK SMILES IDX 55 44 21 45 60 46 54 47 56 48 22 49 59 50 53 51 52 52 23 54
REMARK SMILES IDX 45 55 30 56 44 57 31 58 34 59 43 60 57 61 32 62 33 63 42 65
REMARK SMILES IDX 58 66 35 67 24 68 25 69 29 70 26 71 28 72 27 73 46 74 47 75
REMARK SMILES IDX 51 76 48 77 50 78 49 79 36 80 37 81 41 82 38 83 40 84 39 85
REMARK H PARENT 67 15 56 53 34 64
REMARK Flexibility Score: inf
ROOT
ATOM      1  C   UNL     1       2.524   1.588   0.418  1.00  0.00     0.188 C 
ENDROOT
BRANCH   1   2
ATOM      2  O   UNL     1       3.698   0.865   0.796  1.00  0.00    -0.376 OA
BRANCH   2   3
ATOM      3  C   UNL     1       4.691   0.802  -0.221  1.00  0.00     0.202 C 
BRANCH   3   4
ATOM      4  C   UNL     1       4.336   0.038  -1.500  1.00  0.00     0.261 C 
BRANCH   4   5
ATOM      5  O   UNL     1       3.042  -0.592  -1.580  1.00  0.00    -0.460 OA
BRANCH   5   6
ATOM      6  C   UNL     1       2.496  -1.613  -0.885  1.00  0.00     0.338 C 
ATOM      7  O   UNL     1       1.327  -1.927  -1.095  1.00  0.00    -0.246 OA
BRANCH   6   8
ATOM      8  C   UNL     1       3.226  -2.319   0.195  1.00  0.00     0.060 A 
ATOM      9  C   UNL     1       4.589  -2.589   0.171  1.00  0.00     0.018 A 
ATOM     10  C   UNL     1       2.472  -2.798   1.278  1.00  0.00     0.018 A 
ATOM     11  C   UNL     1       5.207  -3.152   1.291  1.00  0.00     0.027 A 
ATOM     12  C   UNL     1       3.102  -3.343   2.401  1.00  0.00     0.027 A 
ATOM     13  C   UNL     1       4.490  -3.424   2.450  1.00  0.00     0.049 A 
BRANCH  13  14
ATOM     14  N   UNL     1       5.085  -3.654   3.720  1.00  0.00    -0.280 N 
ATOM     15  H   UNL     1       4.483  -3.863   4.471  1.00  0.00     0.180 HD
BRANCH  14  16
ATOM     16  S   UNL     1       6.733  -3.597   4.046  1.00  0.00     0.258 S 
ATOM     17  O   UNL     1       6.802  -3.872   5.470  1.00  0.00    -0.202 OA
ATOM     18  O   UNL     1       7.364  -4.510   3.115  1.00  0.00    -0.202 OA
BRANCH  16  19
ATOM     19  C   UNL     1       7.288  -1.923   3.728  1.00  0.00     0.066 C 
ATOM     20  C   UNL     1       7.783  -1.271   4.807  1.00  0.00     0.026 C 
ATOM     21  C   UNL     1       8.147  -1.735   2.488  1.00  0.00     0.055 C 
ATOM     22  C   UNL     1       9.229  -1.553   5.077  1.00  0.00    -0.021 A 
ATOM     23  C   UNL     1       9.524  -2.377   2.687  1.00  0.00     0.041 C 
ATOM     24  C   UNL     1       9.774  -1.244   6.324  1.00  0.00     0.008 A 
ATOM     25  C   UNL     1      10.051  -2.130   4.081  1.00  0.00    -0.040 A 
ATOM     26  C   UNL     1      11.101  -1.573   6.606  1.00  0.00     0.001 A 
ATOM     27  C   UNL     1      11.365  -2.498   4.391  1.00  0.00     0.004 A 
ATOM     28  C   UNL     1      11.885  -2.223   5.653  1.00  0.00     0.000 A 
ENDBRANCH  16  19
ENDBRANCH  14  16
ENDBRANCH  13  14
ENDBRANCH   6   8
ENDBRANCH   5   6
ENDBRANCH   4   5
ENDBRANCH   3   4
ENDBRANCH   2   3
ENDBRANCH   1   2
BRANCH   1  29
ATOM     29  C   UNL     1       2.201   2.729   1.387  1.00  0.00     0.188 C 
BRANCH  29  30
ATOM     30  O   UNL     1       3.005   3.899   1.245  1.00  0.00    -0.376 OA
BRANCH  30  31
ATOM     31  C   UNL     1       4.355   3.832   1.698  1.00  0.00     0.202 C 
BRANCH  31  32
ATOM     32  C   UNL     1       4.565   3.788   3.214  1.00  0.00     0.261 C 
BRANCH  32  33
ATOM     33  O   UNL     1       4.184   2.521   3.786  1.00  0.00    -0.460 OA
BRANCH  33  34
ATOM     34  C   UNL     1       3.215   2.602   4.726  1.00  0.00     0.338 C 
ATOM     35  O   UNL     1       2.663   3.609   5.139  1.00  0.00    -0.246 OA
BRANCH  34  36
ATOM     36  C   UNL     1       2.807   1.268   5.192  1.00  0.00     0.060 A 
ATOM     37  C   UNL     1       1.512   0.835   4.886  1.00  0.00     0.016 A 
ATOM     38  C   UNL     1       3.578   0.597   6.142  1.00  0.00     0.016 A 
ATOM     39  C   UNL     1       0.946  -0.218   5.603  1.00  0.00     0.010 A 
ATOM     40  C   UNL     1       3.010  -0.462   6.859  1.00  0.00     0.010 A 
ATOM     41  C   UNL     1       1.668  -0.825   6.640  1.00  0.00    -0.014 A 
BRANCH  41  42
ATOM     42  C   UNL     1       0.950  -1.679   7.621  1.00  0.00     0.031 A 
ATOM     43  C   UNL     1       0.519  -1.080   8.935  1.00  0.00     0.074 A 
ATOM     44  C   UNL     1       0.637  -2.954   7.337  1.00  0.00     0.049 A 
ATOM     45  N   UNL     1      -0.140  -1.634   9.922  1.00  0.00    -0.248 NA
ATOM     46  C   UNL     1       0.874   0.330   9.166  1.00  0.00     0.031 C 
ATOM     47  C   UNL     1       0.952  -3.643   6.089  1.00  0.00     0.029 A 
ATOM     48  N   UNL     1      -0.024  -3.894   8.086  1.00  0.00    -0.354 N 
ATOM     49  C   UNL     1      -0.268  -0.647  10.892  1.00  0.00     0.074 A 
ATOM     50  C   UNL     1       0.404   0.531  10.389  1.00  0.00     0.031 C 
ATOM     51  C   UNL     1       0.485  -4.901   6.156  1.00  0.00     0.029 A 
ATOM     52  C   UNL     1      -0.144  -5.109   7.460  1.00  0.00     0.049 A 
ATOM     53  H   UNL     1      -0.379  -3.714   8.986  1.00  0.00     0.167 HD
ATOM     54  C   UNL     1      -0.895  -0.708  12.092  1.00  0.00     0.031 A 
ATOM     55  C   UNL     1      -0.695  -6.260   7.891  1.00  0.00     0.031 A 
ATOM     56  C   UNL     1      -1.565  -1.873  12.604  1.00  0.00     0.049 A 
ATOM     57  C   UNL     1      -1.335  -6.319   9.251  1.00  0.00     0.074 A 
ATOM     58  C   UNL     1      -2.247  -2.019  13.800  1.00  0.00     0.029 A 
ATOM     59  N   UNL     1      -1.633  -3.093  11.953  1.00  0.00    -0.354 N 
ATOM     60  N   UNL     1      -1.479  -5.368  10.142  1.00  0.00    -0.248 NA
ATOM     61  C   UNL     1      -1.905  -7.613   9.656  1.00  0.00     0.031 C 
ATOM     62  C   UNL     1      -2.689  -3.343  13.894  1.00  0.00     0.029 A 
ATOM     63  C   UNL     1      -2.328  -4.005  12.731  1.00  0.00     0.049 A 
ATOM     64  H   UNL     1      -1.246  -3.284  11.068  1.00  0.00     0.167 HD
ATOM     65  C   UNL     1      -2.188  -5.938  11.193  1.00  0.00     0.074 A 
ATOM     66  C   UNL     1      -2.450  -7.314  10.827  1.00  0.00     0.031 C 
ATOM     67  C   UNL     1      -2.591  -5.369  12.356  1.00  0.00     0.031 A 
BRANCH  54  68
ATOM     68  C   UNL     1      -0.857   0.524  12.951  1.00  0.00    -0.014 A 
ATOM     69  C   UNL     1      -1.625   1.656  12.637  1.00  0.00     0.009 A 
ATOM     70  C   UNL     1      -0.065   0.539  14.110  1.00  0.00     0.009 A 
ATOM     71  C   UNL     1      -1.575   2.791  13.450  1.00  0.00     0.001 A 
ATOM     72  C   UNL     1      -0.037   1.665  14.934  1.00  0.00     0.001 A 
ATOM     73  C   UNL     1      -0.784   2.792  14.598  1.00  0.00     0.000 A 
ENDBRANCH  54  68
BRANCH  55  74
ATOM     74  C   UNL     1      -0.675  -7.463   7.022  1.00  0.00    -0.014 A 
ATOM     75  C   UNL     1      -1.858  -7.938   6.435  1.00  0.00     0.009 A 
ATOM     76  C   UNL     1       0.522  -8.160   6.801  1.00  0.00     0.009 A 
ATOM     77  C   UNL     1      -1.847  -9.104   5.667  1.00  0.00     0.001 A 
ATOM     78  C   UNL     1       0.535  -9.311   6.011  1.00  0.00     0.001 A 
ATOM     79  C   UNL     1      -0.650  -9.787   5.453  1.00  0.00     0.000 A 
ENDBRANCH  55  74
BRANCH  67  80
ATOM     80  C   UNL     1      -3.405  -6.216  13.293  1.00  0.00    -0.014 A 
ATOM     81  C   UNL     1      -2.824  -7.258  14.033  1.00  0.00     0.009 A 
ATOM     82  C   UNL     1      -4.772  -5.945  13.460  1.00  0.00     0.009 A 
ATOM     83  C   UNL     1      -3.605  -8.035  14.891  1.00  0.00     0.001 A 
ATOM     84  C   UNL     1      -5.545  -6.705  14.339  1.00  0.00     0.001 A 
ATOM     85  C   UNL     1      -4.963  -7.756  15.046  1.00  0.00     0.000 A 
ENDBRANCH  67  80
ENDBRANCH  41  42
ENDBRANCH  34  36
ENDBRANCH  33  34
ENDBRANCH  32  33
ENDBRANCH  31  32
ENDBRANCH  30  31
ENDBRANCH  29  30
ENDBRANCH   1  29
TORSDOF 20
