REMARK SMILES CCOc1ccc(C(=O)NC(=S)Nc2cccc(C(=O)OCCOCCOCCOC(=O)c3ccc(-c4c5nc(c(-c6ccccc6)c6ccc([nH]6)c(-c6ccccc6)c6nc(c(-c7ccccc7)c7ccc4[nH]7)C=C6)C=C5)cc3)c2C)cc1Br
REMARK SMILES IDX 23 1 22 2 21 3 19 4 20 5 18 6 14 7 15 8 81 9 16 10 82 11
REMARK SMILES IDX 17 12 13 13 11 15 12 16 10 17 8 18 9 19 7 21 4 22 5 23 84 24
REMARK SMILES IDX 6 25 83 26 85 27 3 28 2 29 1 30 24 31 25 32 26 33 27 34
REMARK SMILES IDX 28 35 29 36 30 37 31 38 32 39 33 40 34 41 80 42 35 43 79 44
REMARK SMILES IDX 36 45 37 46 38 47 73 48 39 49 78 50 72 51 74 52 40 53 77 54
REMARK SMILES IDX 71 55 70 56 41 58 63 59 48 60 62 61 49 62 52 63 61 64 75 65
REMARK SMILES IDX 50 66 51 67 60 69 76 70 53 71 42 72 43 73 47 74 44 75 46 76
REMARK SMILES IDX 45 77 64 78 65 79 69 80 66 81 68 82 67 83 54 84 55 85 59 86
REMARK SMILES IDX 56 87 58 88 57 89
REMARK H PARENT 13 14 10 20 74 57 52 68
REMARK Flexibility Score: inf
ROOT
ATOM      1  C   UNL     1      -0.787  -0.957  -5.207  1.00  0.00     0.202 C 
ENDROOT
BRANCH   1   2
ATOM      2  C   UNL     1       0.485  -2.120  -4.838  1.00  0.00     0.261 C 
BRANCH   2   3
ATOM      3  O   UNL     1       1.934  -2.300  -3.614  1.00  0.00    -0.460 OA
BRANCH   3   4
ATOM      4  C   UNL     1       3.361  -1.443  -3.180  1.00  0.00     0.338 C 
ATOM      5  O   UNL     1       3.915  -0.451  -3.671  1.00  0.00    -0.246 OA
BRANCH   4   6
ATOM      6  C   UNL     1       4.054  -1.661  -1.963  1.00  0.00     0.065 A 
ATOM      7  C   UNL     1       5.749  -1.492   0.695  1.00  0.00     0.044 A 
ATOM      8  C   UNL     1       5.430  -3.200   1.140  1.00  0.00     0.026 A 
ATOM      9  C   UNL     1       4.962  -0.700  -0.745  1.00  0.00    -0.013 A 
ATOM     10  C   UNL     1       4.412  -4.145   0.017  1.00  0.00     0.003 A 
ATOM     11  C   UNL     1       5.069   0.788  -0.868  1.00  0.00     0.047 C 
ATOM     12  C   UNL     1       3.851  -3.296  -1.700  1.00  0.00     0.016 A 
BRANCH   7  13
ATOM     13  N   UNL     1       7.141  -1.245   0.758  1.00  0.00    -0.332 N 
ATOM     14  H   UNL     1       7.405  -0.387   1.163  1.00  0.00     0.169 HD
BRANCH  13  15
ATOM     15  C   UNL     1       8.175  -2.046   0.326  1.00  0.00     0.177 C 
ATOM     16  S   UNL     1       9.712  -1.565   0.812  1.00  0.00    -0.040 S 
BRANCH  15  17
ATOM     17  N   UNL     1       8.075  -3.199  -0.572  1.00  0.00    -0.299 N 
ATOM     18  C   UNL     1       7.340  -4.244  -1.487  1.00  0.00     0.257 C 
ATOM     19  O   UNL     1       8.029  -5.060  -2.094  1.00  0.00    -0.269 OA
ATOM     20  H   UNL     1       9.014  -3.486  -0.644  1.00  0.00     0.172 HD
BRANCH  18  21
ATOM     21  C   UNL     1       5.818  -4.247  -1.621  1.00  0.00     0.041 A 
ATOM     22  C   UNL     1       2.262  -3.437  -0.343  1.00  0.00     0.133 A 
ATOM     23  C   UNL     1       2.706  -4.975  -1.243  1.00  0.00     0.048 A 
ATOM     24  C   UNL     1       3.690  -2.361  -0.004  1.00  0.00     0.060 A 
ATOM     25  C   UNL     1       4.431  -5.370  -1.822  1.00  0.00     0.018 A 
ATOM     26  C   UNL     1       5.452  -2.796  -0.869  1.00  0.00     0.033 A 
ATOM     27  Br  UNL     1       3.421  -1.552   2.075  1.00  0.00    -0.047 Br
BRANCH  22  28
ATOM     28  O   UNL     1       0.988  -2.460  -1.102  1.00  0.00    -0.493 OA
BRANCH  28  29
ATOM     29  C   UNL     1      -0.300  -0.926  -0.662  1.00  0.00     0.226 C 
ATOM     30  C   UNL     1      -0.318   0.144   0.747  1.00  0.00     0.049 C 
ENDBRANCH  28  29
ENDBRANCH  22  28
ENDBRANCH  18  21
ENDBRANCH  15  17
ENDBRANCH  13  15
ENDBRANCH   7  13
ENDBRANCH   4   6
ENDBRANCH   3   4
ENDBRANCH   2   3
ENDBRANCH   1   2
BRANCH   1  31
ATOM     31  O   UNL     1      -1.175   0.345  -4.771  1.00  0.00    -0.376 OA
BRANCH  31  32
ATOM     32  C   UNL     1      -1.624   0.686  -3.478  1.00  0.00     0.188 C 
BRANCH  32  33
ATOM     33  C   UNL     1      -2.758  -0.067  -2.809  1.00  0.00     0.188 C 
BRANCH  33  34
ATOM     34  O   UNL     1      -2.824  -1.409  -3.231  1.00  0.00    -0.376 OA
BRANCH  34  35
ATOM     35  C   UNL     1      -3.770  -2.239  -2.587  1.00  0.00     0.202 C 
BRANCH  35  36
ATOM     36  C   UNL     1      -3.964  -2.099  -1.048  1.00  0.00     0.261 C 
BRANCH  36  37
ATOM     37  O   UNL     1      -3.029  -2.468   0.138  1.00  0.00    -0.460 OA
BRANCH  37  38
ATOM     38  C   UNL     1      -1.889  -2.739   0.875  1.00  0.00     0.338 C 
ATOM     39  O   UNL     1      -1.951  -2.726   2.098  1.00  0.00    -0.246 OA
BRANCH  38  40
ATOM     40  C   UNL     1      -0.501  -2.876   0.216  1.00  0.00     0.060 A 
ATOM     41  C   UNL     1       0.897  -1.775   0.639  1.00  0.00     0.016 A 
ATOM     42  C   UNL     1      -0.915  -3.070  -1.395  1.00  0.00     0.016 A 
ATOM     43  C   UNL     1       1.698  -0.728  -0.738  1.00  0.00     0.010 A 
ATOM     44  C   UNL     1      -0.256  -2.019  -2.579  1.00  0.00     0.010 A 
ATOM     45  C   UNL     1       1.078  -0.820  -2.465  1.00  0.00    -0.014 A 
BRANCH  45  46
ATOM     46  C   UNL     1       1.693  -0.289  -4.194  1.00  0.00     0.031 A 
ATOM     47  C   UNL     1       2.661  -1.498  -5.394  1.00  0.00     0.074 A 
ATOM     48  C   UNL     1       1.456   0.917  -4.745  1.00  0.00     0.049 A 
ATOM     49  N   UNL     1       3.817  -1.396  -6.006  1.00  0.00    -0.248 NA
ATOM     50  C   UNL     1       2.494  -3.217  -5.463  1.00  0.00     0.031 C 
ATOM     51  C   UNL     1       1.550   1.273  -6.161  1.00  0.00     0.029 A 
ATOM     52  N   UNL     1       0.974   2.077  -4.162  1.00  0.00    -0.354 N 
ATOM     53  C   UNL     1       4.137  -2.655  -6.629  1.00  0.00     0.074 A 
ATOM     54  C   UNL     1       3.622  -3.720  -5.885  1.00  0.00     0.031 C 
ATOM     55  C   UNL     1       1.449   2.612  -6.278  1.00  0.00     0.029 A 
ATOM     56  C   UNL     1       1.456   3.156  -4.932  1.00  0.00     0.049 A 
ATOM     57  H   UNL     1       0.404   2.137  -3.362  1.00  0.00     0.167 HD
ATOM     58  C   UNL     1       4.399  -2.754  -7.964  1.00  0.00     0.031 A 
ATOM     59  C   UNL     1       2.435   3.916  -4.363  1.00  0.00     0.031 A 
ATOM     60  C   UNL     1       4.419  -1.399  -8.464  1.00  0.00     0.049 A 
ATOM     61  C   UNL     1       3.798   3.526  -4.945  1.00  0.00     0.074 A 
ATOM     62  C   UNL     1       3.465  -0.576  -9.031  1.00  0.00     0.029 A 
ATOM     63  N   UNL     1       5.282  -0.560  -7.796  1.00  0.00    -0.354 N 
ATOM     64  N   UNL     1       3.989   2.662  -5.915  1.00  0.00    -0.248 NA
ATOM     65  C   UNL     1       5.057   4.072  -4.456  1.00  0.00     0.031 C 
ATOM     66  C   UNL     1       3.788   0.777  -8.645  1.00  0.00     0.029 A 
ATOM     67  C   UNL     1       4.944   0.769  -7.882  1.00  0.00     0.049 A 
ATOM     68  H   UNL     1       6.070  -0.883  -7.302  1.00  0.00     0.167 HD
ATOM     69  C   UNL     1       5.321   2.491  -6.162  1.00  0.00     0.074 A 
ATOM     70  C   UNL     1       5.949   3.380  -5.188  1.00  0.00     0.031 C 
ATOM     71  C   UNL     1       5.830   1.663  -7.136  1.00  0.00     0.031 A 
BRANCH  58  72
ATOM     72  C   UNL     1       4.321  -4.038  -8.804  1.00  0.00    -0.014 A 
ATOM     73  C   UNL     1       4.189  -3.899 -10.193  1.00  0.00     0.009 A 
ATOM     74  C   UNL     1       4.360  -5.383  -8.349  1.00  0.00     0.009 A 
ATOM     75  C   UNL     1       4.066  -5.002 -11.059  1.00  0.00     0.001 A 
ATOM     76  C   UNL     1       4.189  -6.493  -9.202  1.00  0.00     0.001 A 
ATOM     77  C   UNL     1       4.049  -6.300 -10.565  1.00  0.00     0.000 A 
ENDBRANCH  58  72
BRANCH  59  78
ATOM     78  C   UNL     1       2.054   4.164  -2.910  1.00  0.00    -0.014 A 
ATOM     79  C   UNL     1       0.796   4.787  -2.681  1.00  0.00     0.009 A 
ATOM     80  C   UNL     1       2.524   3.286  -1.927  1.00  0.00     0.009 A 
ATOM     81  C   UNL     1      -0.065   4.323  -1.677  1.00  0.00     0.001 A 
ATOM     82  C   UNL     1       1.669   2.854  -0.902  1.00  0.00     0.001 A 
ATOM     83  C   UNL     1       0.358   3.318  -0.821  1.00  0.00     0.000 A 
ENDBRANCH  59  78
BRANCH  71  84
ATOM     84  C   UNL     1       7.323   1.557  -7.443  1.00  0.00    -0.014 A 
ATOM     85  C   UNL     1       8.178   2.646  -7.292  1.00  0.00     0.009 A 
ATOM     86  C   UNL     1       7.913   0.401  -8.020  1.00  0.00     0.009 A 
ATOM     87  C   UNL     1       9.550   2.537  -7.546  1.00  0.00     0.001 A 
ATOM     88  C   UNL     1       9.271   0.287  -8.300  1.00  0.00     0.001 A 
ATOM     89  C   UNL     1      10.098   1.354  -8.033  1.00  0.00     0.000 A 
ENDBRANCH  71  84
ENDBRANCH  45  46
ENDBRANCH  38  40
ENDBRANCH  37  38
ENDBRANCH  36  37
ENDBRANCH  35  36
ENDBRANCH  34  35
ENDBRANCH  33  34
ENDBRANCH  32  33
ENDBRANCH  31  32
ENDBRANCH   1  31
TORSDOF 23
