REMARK SMILES CCC(CC)COc1cc2c(cc1Cl)C=C(C(=O)OCCOCCOCCOC(=O)c1ccc(-c3c4nc(c(-c5ccccc5)c5ccc([nH]5)c(-c5ccccc5)c5nc(c(-c6ccccc6)c6ccc3[nH]6)C=C5)C=C4)cc1)[C@@H](C(F)(F)F)O2
REMARK SMILES IDX 23 1 22 2 21 3 20 4 19 5 17 6 18 7 16 8 8 9 9 10 13 11 10 12
REMARK SMILES IDX 12 13 14 14 11 15 84 16 15 17 79 18 7 19 6 20 3 21 2 22 1 23
REMARK SMILES IDX 4 24 5 25 80 26 81 27 82 28 83 29 24 30 25 31 26 32 27 33
REMARK SMILES IDX 28 34 29 35 30 36 31 37 32 38 78 39 33 40 77 41 34 42 35 43
REMARK SMILES IDX 36 44 71 45 37 46 76 47 70 48 72 49 38 50 75 51 69 52 68 53
REMARK SMILES IDX 39 55 61 56 46 57 60 58 47 59 50 60 59 61 73 62 48 63 49 64
REMARK SMILES IDX 58 66 74 67 51 68 40 69 41 70 45 71 42 72 44 73 43 74 62 75
REMARK SMILES IDX 63 76 67 77 64 78 66 79 65 80 52 81 53 82 57 83 54 84 56 85
REMARK SMILES IDX 55 86
REMARK H PARENT 72 54 50 65
REMARK Flexibility Score: inf
ROOT
ATOM      1  C   UNL     1      -2.424  -3.087  -7.131  1.00  0.00     0.188 C 
ENDROOT
BRANCH   1   2
ATOM      2  O   UNL     1      -2.660  -3.235  -8.511  1.00  0.00    -0.376 OA
BRANCH   2   3
ATOM      3  C   UNL     1      -2.047  -4.273  -9.258  1.00  0.00     0.202 C 
BRANCH   3   4
ATOM      4  C   UNL     1      -0.954  -5.231  -8.747  1.00  0.00     0.261 C 
BRANCH   4   5
ATOM      5  O   UNL     1      -0.855  -5.418  -7.332  1.00  0.00    -0.460 OA
BRANCH   5   6
ATOM      6  C   UNL     1       0.257  -4.885  -6.777  1.00  0.00     0.338 C 
ATOM      7  O   UNL     1       1.163  -4.321  -7.372  1.00  0.00    -0.246 OA
BRANCH   6   8
ATOM      8  C   UNL     1       0.173  -4.910  -5.307  1.00  0.00     0.087 C 
ATOM      9  C   UNL     1       1.172  -3.958  -0.509  1.00  0.00     0.141 A 
ATOM     10  C   UNL     1       0.324  -4.890  -1.127  1.00  0.00     0.095 A 
ATOM     11  C   UNL     1       1.944  -3.099  -1.300  1.00  0.00     0.083 A 
ATOM     12  C   UNL     1       0.196  -4.889  -2.523  1.00  0.00     0.131 A 
ATOM     13  C   UNL     1       1.687  -2.989  -2.661  1.00  0.00     0.036 A 
ATOM     14  Cl  UNL     1       3.265  -2.183  -0.675  1.00  0.00    -0.080 Cl
ATOM     15  C   UNL     1       0.808  -3.880  -3.269  1.00  0.00     0.019 A 
ATOM     16  O   UNL     1      -0.530  -5.889  -3.122  1.00  0.00    -0.475 OA
ATOM     17  C   UNL     1       0.626  -3.808  -4.702  1.00  0.00     0.027 C 
ATOM     18  C   UNL     1      -0.284  -6.129  -4.552  1.00  0.00     0.316 C 
BRANCH   9  19
ATOM     19  O   UNL     1       1.325  -3.964   0.853  1.00  0.00    -0.492 OA
BRANCH  19  20
ATOM     20  C   UNL     1       0.360  -3.151   1.568  1.00  0.00     0.233 C 
BRANCH  20  21
ATOM     21  C   UNL     1       0.702  -1.636   1.573  1.00  0.00     0.026 C 
BRANCH  21  22
ATOM     22  C   UNL     1       0.040  -0.901   0.383  1.00  0.00     0.003 C 
ATOM     23  C   UNL     1       0.679   0.448   0.082  1.00  0.00     0.004 C 
ENDBRANCH  21  22
BRANCH  21  24
ATOM     24  C   UNL     1       0.376  -0.947   2.919  1.00  0.00     0.003 C 
ATOM     25  C   UNL     1      -1.101  -0.810   3.254  1.00  0.00     0.004 C 
ENDBRANCH  21  24
ENDBRANCH  20  21
ENDBRANCH  19  20
ENDBRANCH   9  19
BRANCH  18  26
ATOM     26  C   UNL     1       0.696  -7.291  -4.768  1.00  0.00     0.430 C 
ATOM     27  F   UNL     1       0.334  -8.392  -4.071  1.00  0.00    -0.167 F 
ATOM     28  F   UNL     1       0.740  -7.650  -6.075  1.00  0.00    -0.167 F 
ATOM     29  F   UNL     1       1.957  -6.969  -4.400  1.00  0.00    -0.167 F 
ENDBRANCH  18  26
ENDBRANCH   6   8
ENDBRANCH   5   6
ENDBRANCH   4   5
ENDBRANCH   3   4
ENDBRANCH   2   3
ENDBRANCH   1   2
BRANCH   1  30
ATOM     30  C   UNL     1      -3.151  -4.042  -6.163  1.00  0.00     0.188 C 
BRANCH  30  31
ATOM     31  O   UNL     1      -3.797  -5.197  -6.654  1.00  0.00    -0.376 OA
BRANCH  31  32
ATOM     32  C   UNL     1      -4.883  -5.071  -7.561  1.00  0.00     0.202 C 
BRANCH  32  33
ATOM     33  C   UNL     1      -5.897  -3.911  -7.536  1.00  0.00     0.261 C 
BRANCH  33  34
ATOM     34  O   UNL     1      -5.397  -2.614  -7.195  1.00  0.00    -0.460 OA
BRANCH  34  35
ATOM     35  C   UNL     1      -5.752  -2.157  -5.964  1.00  0.00     0.338 C 
ATOM     36  O   UNL     1      -6.418  -2.727  -5.127  1.00  0.00    -0.246 OA
BRANCH  35  37
ATOM     37  C   UNL     1      -5.012  -0.904  -5.705  1.00  0.00     0.060 A 
ATOM     38  C   UNL     1      -5.195   0.207  -6.526  1.00  0.00     0.016 A 
ATOM     39  C   UNL     1      -4.124  -0.851  -4.620  1.00  0.00     0.016 A 
ATOM     40  C   UNL     1      -4.499   1.384  -6.246  1.00  0.00     0.010 A 
ATOM     41  C   UNL     1      -3.418   0.324  -4.350  1.00  0.00     0.010 A 
ATOM     42  C   UNL     1      -3.619   1.458  -5.149  1.00  0.00    -0.014 A 
BRANCH  42  43
ATOM     43  C   UNL     1      -3.051   2.772  -4.757  1.00  0.00     0.031 A 
ATOM     44  C   UNL     1      -1.627   3.142  -5.036  1.00  0.00     0.074 A 
ATOM     45  C   UNL     1      -3.870   3.654  -4.151  1.00  0.00     0.049 A 
ATOM     46  N   UNL     1      -1.042   4.303  -4.880  1.00  0.00    -0.248 NA
ATOM     47  C   UNL     1      -0.744   2.084  -5.548  1.00  0.00     0.031 C 
ATOM     48  C   UNL     1      -5.267   3.390  -3.804  1.00  0.00     0.029 A 
ATOM     49  N   UNL     1      -3.661   4.948  -3.747  1.00  0.00    -0.354 N 
ATOM     50  C   UNL     1       0.270   4.128  -5.299  1.00  0.00     0.074 A 
ATOM     51  C   UNL     1       0.410   2.733  -5.664  1.00  0.00     0.031 C 
ATOM     52  C   UNL     1      -5.805   4.503  -3.286  1.00  0.00     0.029 A 
ATOM     53  C   UNL     1      -4.785   5.548  -3.231  1.00  0.00     0.049 A 
ATOM     54  H   UNL     1      -2.791   5.403  -3.818  1.00  0.00     0.167 HD
ATOM     55  C   UNL     1       1.254   5.054  -5.389  1.00  0.00     0.031 A 
ATOM     56  C   UNL     1      -4.986   6.801  -2.778  1.00  0.00     0.031 A 
ATOM     57  C   UNL     1       1.107   6.436  -5.001  1.00  0.00     0.049 A 
ATOM     58  C   UNL     1      -3.863   7.797  -2.848  1.00  0.00     0.074 A 
ATOM     59  C   UNL     1       2.041   7.455  -5.098  1.00  0.00     0.029 A 
ATOM     60  N   UNL     1      -0.029   6.992  -4.434  1.00  0.00    -0.354 N 
ATOM     61  N   UNL     1      -2.655   7.642  -3.335  1.00  0.00    -0.248 NA
ATOM     62  C   UNL     1      -4.131   9.144  -2.325  1.00  0.00     0.031 C 
ATOM     63  C   UNL     1       1.502   8.601  -4.513  1.00  0.00     0.029 A 
ATOM     64  C   UNL     1       0.196   8.327  -4.138  1.00  0.00     0.049 A 
ATOM     65  H   UNL     1      -0.871   6.510  -4.266  1.00  0.00     0.167 HD
ATOM     66  C   UNL     1      -2.030   8.875  -3.203  1.00  0.00     0.074 A 
ATOM     67  C   UNL     1      -2.997   9.773  -2.608  1.00  0.00     0.031 C 
ATOM     68  C   UNL     1      -0.766   9.224  -3.547  1.00  0.00     0.031 A 
BRANCH  55  69
ATOM     69  C   UNL     1       2.589   4.631  -5.943  1.00  0.00    -0.014 A 
ATOM     70  C   UNL     1       3.736   4.688  -5.133  1.00  0.00     0.009 A 
ATOM     71  C   UNL     1       2.738   4.315  -7.302  1.00  0.00     0.009 A 
ATOM     72  C   UNL     1       5.003   4.463  -5.676  1.00  0.00     0.001 A 
ATOM     73  C   UNL     1       4.004   4.058  -7.836  1.00  0.00     0.001 A 
ATOM     74  C   UNL     1       5.135   4.146  -7.026  1.00  0.00     0.000 A 
ENDBRANCH  55  69
BRANCH  56  75
ATOM     75  C   UNL     1      -6.331   7.181  -2.268  1.00  0.00    -0.014 A 
ATOM     76  C   UNL     1      -6.847   6.586  -1.104  1.00  0.00     0.009 A 
ATOM     77  C   UNL     1      -7.133   8.092  -2.972  1.00  0.00     0.009 A 
ATOM     78  C   UNL     1      -8.145   6.869  -0.675  1.00  0.00     0.001 A 
ATOM     79  C   UNL     1      -8.418   8.402  -2.519  1.00  0.00     0.001 A 
ATOM     80  C   UNL     1      -8.927   7.781  -1.380  1.00  0.00     0.000 A 
ENDBRANCH  56  75
BRANCH  68  81
ATOM     81  C   UNL     1      -0.328  10.646  -3.309  1.00  0.00    -0.014 A 
ATOM     82  C   UNL     1       0.000  11.466  -4.403  1.00  0.00     0.009 A 
ATOM     83  C   UNL     1      -0.116  11.136  -2.011  1.00  0.00     0.009 A 
ATOM     84  C   UNL     1       0.558  12.730  -4.204  1.00  0.00     0.001 A 
ATOM     85  C   UNL     1       0.408  12.416  -1.815  1.00  0.00     0.001 A 
ATOM     86  C   UNL     1       0.759  13.205  -2.910  1.00  0.00     0.000 A 
ENDBRANCH  68  81
ENDBRANCH  42  43
ENDBRANCH  35  37
ENDBRANCH  34  35
ENDBRANCH  33  34
ENDBRANCH  32  33
ENDBRANCH  31  32
ENDBRANCH  30  31
ENDBRANCH   1  30
TORSDOF 23
