REMARK SMILES Cc1nc(C[N@@H+]2CCC[C@H]2C(=O)OCCOCCOCCOC(=O)c2ccc(-c3c4nc(c(-c5ccccc5)c5ccc([nH]5)c(-c5ccccc5)c5nc(c(-c6ccccc6)c6ccc3[nH]6)C=C5)C=C4)cc2)cs1
REMARK SMILES IDX 17 1 16 2 15 3 14 4 13 5 11 6 12 7 10 8 6 9 7 10 8 12 9 13
REMARK SMILES IDX 5 14 4 15 1 16 2 17 3 18 74 19 73 20 18 21 19 22 20 23 21 24
REMARK SMILES IDX 22 25 23 26 24 27 25 28 26 29 72 30 27 31 71 32 28 33 29 34
REMARK SMILES IDX 30 35 65 36 31 37 70 38 64 39 66 40 32 41 69 42 63 43 62 44
REMARK SMILES IDX 33 46 55 47 40 48 54 49 41 50 44 51 53 52 67 53 42 54 43 55
REMARK SMILES IDX 52 57 68 58 45 59 34 60 35 61 39 62 36 63 38 64 37 65 56 66
REMARK SMILES IDX 57 67 61 68 58 69 60 70 59 71 46 72 47 73 51 74 48 75 50 76
REMARK SMILES IDX 49 77
REMARK H PARENT 6 11 66 45 44 56
REMARK Flexibility Score: inf
ROOT
ATOM      1  C   UNL     1       1.128  -4.613  -4.453  1.00  0.00     0.188 C 
ENDROOT
BRANCH   1   2
ATOM      2  O   UNL     1       1.829  -5.365  -5.419  1.00  0.00    -0.376 OA
BRANCH   2   3
ATOM      3  C   UNL     1       3.220  -5.605  -5.288  1.00  0.00     0.202 C 
BRANCH   3   4
ATOM      4  C   UNL     1       4.184  -4.689  -4.512  1.00  0.00     0.261 C 
BRANCH   4   5
ATOM      5  O   UNL     1       3.589  -3.894  -3.485  1.00  0.00    -0.459 OA
BRANCH   5   6
ATOM      6  C   UNL     1       3.632  -2.538  -3.650  1.00  0.00     0.365 C 
ATOM      7  O   UNL     1       4.275  -1.966  -4.522  1.00  0.00    -0.245 OA
BRANCH   6   8
ATOM      8  C   UNL     1       2.678  -1.843  -2.648  1.00  0.00     0.295 C 
ATOM      9  N   UNL     1       3.254  -1.892  -1.295  1.00  0.00    -0.318 N 
ATOM     10  C   UNL     1       4.068  -0.690  -1.159  1.00  0.00     0.263 C 
ATOM     11  H   UNL     1       3.847  -2.714  -1.182  1.00  0.00     0.349 HD
ATOM     12  C   UNL     1       3.428   0.374  -2.040  1.00  0.00     0.068 C 
ATOM     13  C   UNL     1       2.494  -0.368  -2.981  1.00  0.00     0.083 C 
BRANCH   9  14
ATOM     14  C   UNL     1       2.291  -2.161  -0.217  1.00  0.00     0.321 C 
BRANCH  14  15
ATOM     15  C   UNL     1       1.263  -1.093   0.049  1.00  0.00     0.106 A 
ATOM     16  C   UNL     1      -2.279  -0.175  -0.171  1.00  0.00     0.079 C 
ATOM     17  C   UNL     1      -0.807  -0.279   0.039  1.00  0.00     0.090 A 
ATOM     18  N   UNL     1      -0.046  -1.262  -0.402  1.00  0.00    -0.241 NA
ATOM     19  S   UNL     1       0.008   0.946   0.926  1.00  0.00    -0.127 S 
ATOM     20  C   UNL     1       1.456   0.049   0.807  1.00  0.00     0.096 A 
ENDBRANCH  14  15
ENDBRANCH   9  14
ENDBRANCH   6   8
ENDBRANCH   5   6
ENDBRANCH   4   5
ENDBRANCH   3   4
ENDBRANCH   2   3
ENDBRANCH   1   2
BRANCH   1  21
ATOM     21  C   UNL     1       1.049  -5.112  -2.991  1.00  0.00     0.188 C 
BRANCH  21  22
ATOM     22  O   UNL     1       1.667  -6.322  -2.619  1.00  0.00    -0.376 OA
BRANCH  22  23
ATOM     23  C   UNL     1       1.242  -7.538  -3.201  1.00  0.00     0.202 C 
BRANCH  23  24
ATOM     24  C   UNL     1      -0.209  -7.809  -3.635  1.00  0.00     0.261 C 
BRANCH  24  25
ATOM     25  O   UNL     1      -0.931  -6.715  -4.219  1.00  0.00    -0.460 OA
BRANCH  25  26
ATOM     26  C   UNL     1      -1.977  -6.241  -3.497  1.00  0.00     0.338 C 
ATOM     27  O   UNL     1      -2.370  -6.636  -2.407  1.00  0.00    -0.246 OA
BRANCH  26  28
ATOM     28  C   UNL     1      -2.521  -5.040  -4.158  1.00  0.00     0.060 A 
ATOM     29  C   UNL     1      -2.316  -3.776  -3.583  1.00  0.00     0.016 A 
ATOM     30  C   UNL     1      -3.250  -5.168  -5.339  1.00  0.00     0.016 A 
ATOM     31  C   UNL     1      -2.824  -2.632  -4.204  1.00  0.00     0.010 A 
ATOM     32  C   UNL     1      -3.782  -4.025  -5.942  1.00  0.00     0.010 A 
ATOM     33  C   UNL     1      -3.578  -2.751  -5.379  1.00  0.00    -0.014 A 
BRANCH  33  34
ATOM     34  C   UNL     1      -4.236  -1.573  -5.997  1.00  0.00     0.031 A 
ATOM     35  C   UNL     1      -5.702  -1.343  -5.760  1.00  0.00     0.074 A 
ATOM     36  C   UNL     1      -3.551  -0.751  -6.812  1.00  0.00     0.049 A 
ATOM     37  N   UNL     1      -6.505  -0.473  -6.319  1.00  0.00    -0.248 NA
ATOM     38  C   UNL     1      -6.349  -2.210  -4.763  1.00  0.00     0.031 C 
ATOM     39  C   UNL     1      -2.118  -0.831  -7.088  1.00  0.00     0.029 A 
ATOM     40  N   UNL     1      -3.985   0.302  -7.581  1.00  0.00    -0.354 N 
ATOM     41  C   UNL     1      -7.756  -0.703  -5.760  1.00  0.00     0.074 A 
ATOM     42  C   UNL     1      -7.607  -1.798  -4.825  1.00  0.00     0.031 C 
ATOM     43  C   UNL     1      -1.794   0.121  -7.981  1.00  0.00     0.029 A 
ATOM     44  C   UNL     1      -3.002   0.841  -8.377  1.00  0.00     0.049 A 
ATOM     45  H   UNL     1      -4.910   0.637  -7.564  1.00  0.00     0.167 HD
ATOM     46  C   UNL     1      -8.924  -0.064  -6.009  1.00  0.00     0.031 A 
ATOM     47  C   UNL     1      -3.077   1.777  -9.344  1.00  0.00     0.031 A 
ATOM     48  C   UNL     1      -9.076   1.014  -6.951  1.00  0.00     0.049 A 
ATOM     49  C   UNL     1      -4.412   2.393  -9.680  1.00  0.00     0.074 A 
ATOM     50  C   UNL     1     -10.213   1.747  -7.243  1.00  0.00     0.029 A 
ATOM     51  N   UNL     1      -8.067   1.498  -7.769  1.00  0.00    -0.354 N 
ATOM     52  N   UNL     1      -5.579   2.203  -9.115  1.00  0.00    -0.248 NA
ATOM     53  C   UNL     1      -4.438   3.351 -10.798  1.00  0.00     0.031 C 
ATOM     54  C   UNL     1      -9.912   2.623  -8.290  1.00  0.00     0.029 A 
ATOM     55  C   UNL     1      -8.569   2.484  -8.601  1.00  0.00     0.049 A 
ATOM     56  H   UNL     1      -7.133   1.188  -7.759  1.00  0.00     0.167 HD
ATOM     57  C   UNL     1      -6.469   3.030  -9.790  1.00  0.00     0.074 A 
ATOM     58  C   UNL     1      -5.705   3.741 -10.793  1.00  0.00     0.031 C 
ATOM     59  C   UNL     1      -7.802   3.184  -9.599  1.00  0.00     0.031 A 
BRANCH  46  60
ATOM     60  C   UNL     1     -10.151  -0.543  -5.286  1.00  0.00    -0.014 A 
ATOM     61  C   UNL     1     -10.332  -0.313  -3.914  1.00  0.00     0.009 A 
ATOM     62  C   UNL     1     -11.171  -1.185  -6.007  1.00  0.00     0.009 A 
ATOM     63  C   UNL     1     -11.498  -0.741  -3.274  1.00  0.00     0.001 A 
ATOM     64  C   UNL     1     -12.347  -1.586  -5.372  1.00  0.00     0.001 A 
ATOM     65  C   UNL     1     -12.506  -1.370  -4.004  1.00  0.00     0.000 A 
ENDBRANCH  46  60
BRANCH  47  66
ATOM     66  C   UNL     1      -1.862   2.169 -10.108  1.00  0.00    -0.014 A 
ATOM     67  C   UNL     1      -1.337   3.466  -9.996  1.00  0.00     0.009 A 
ATOM     68  C   UNL     1      -1.245   1.264 -10.987  1.00  0.00     0.009 A 
ATOM     69  C   UNL     1      -0.239   3.855 -10.768  1.00  0.00     0.001 A 
ATOM     70  C   UNL     1      -0.128   1.645 -11.732  1.00  0.00     0.001 A 
ATOM     71  C   UNL     1       0.368   2.944 -11.630  1.00  0.00     0.000 A 
ENDBRANCH  47  66
BRANCH  59  72
ATOM     72  C   UNL     1      -8.522   4.173 -10.474  1.00  0.00    -0.014 A 
ATOM     73  C   UNL     1      -8.760   3.906 -11.832  1.00  0.00     0.009 A 
ATOM     74  C   UNL     1      -9.023   5.362  -9.919  1.00  0.00     0.009 A 
ATOM     75  C   UNL     1      -9.462   4.821 -12.620  1.00  0.00     0.001 A 
ATOM     76  C   UNL     1      -9.752   6.260 -10.702  1.00  0.00     0.001 A 
ATOM     77  C   UNL     1      -9.964   5.992 -12.053  1.00  0.00     0.000 A 
ENDBRANCH  59  72
ENDBRANCH  33  34
ENDBRANCH  26  28
ENDBRANCH  25  26
ENDBRANCH  24  25
ENDBRANCH  23  24
ENDBRANCH  22  23
ENDBRANCH  21  22
ENDBRANCH   1  21
TORSDOF 19
