REMARK SMILES O=C(CSc1cc(-c2ccccc2)nc(-c2ccccc2F)n1)OCCOCCOCCOC(=O)c1ccc(-c2c3nc(c(-c4ccccc4)c4ccc([nH]4)c(-c4ccccc4)c4nc(c(-c5ccccc5)c5ccc2[nH]5)C=C4)C=C3)cc1
REMARK SMILES IDX 28 1 27 2 26 3 25 4 24 5 2 6 1 7 3 8 4 9 5 10 6 11 23 12
REMARK SMILES IDX 7 13 15 14 14 15 8 16 9 17 13 18 10 19 12 20 11 21 16 22
REMARK SMILES IDX 17 23 21 24 18 25 20 26 22 27 19 28 29 29 30 30 31 31 32 32
REMARK SMILES IDX 33 33 34 34 35 35 36 36 37 37 83 38 38 39 82 40 39 41 40 42
REMARK SMILES IDX 41 43 76 44 42 45 81 46 75 47 77 48 43 49 80 50 74 51 73 52
REMARK SMILES IDX 44 54 66 55 51 56 65 57 52 58 55 59 64 60 78 61 53 62 54 63
REMARK SMILES IDX 63 65 79 66 56 67 45 68 46 69 50 70 47 71 49 72 48 73 67 74
REMARK SMILES IDX 68 75 72 76 69 77 71 78 70 79 57 80 58 81 62 82 59 83 61 84
REMARK SMILES IDX 60 85
REMARK H PARENT 77 53 55 64
REMARK Flexibility Score: inf
ROOT
ATOM      1  C   UNL     1       2.760   0.749  -1.511  1.00  0.00     0.188 C 
ENDROOT
BRANCH   1   2
ATOM      2  O   UNL     1       4.116   1.130  -1.339  1.00  0.00    -0.376 OA
BRANCH   2   3
ATOM      3  C   UNL     1       4.915   0.479  -0.358  1.00  0.00     0.202 C 
BRANCH   3   4
ATOM      4  C   UNL     1       4.498  -0.900   0.160  1.00  0.00     0.261 C 
BRANCH   4   5
ATOM      5  O   UNL     1       3.190  -1.030   0.777  1.00  0.00    -0.463 OA
BRANCH   5   6
ATOM      6  C   UNL     1       2.489  -0.126   1.495  1.00  0.00     0.316 C 
ATOM      7  O   UNL     1       1.260  -0.202   1.516  1.00  0.00    -0.251 OA
BRANCH   6   8
ATOM      8  C   UNL     1       3.209   0.960   2.257  1.00  0.00     0.199 C 
BRANCH   8   9
ATOM      9  S   UNL     1       4.550   0.295   3.293  1.00  0.00    -0.094 SA
BRANCH   9  10
ATOM     10  C   UNL     1       3.535  -0.840   4.204  1.00  0.00     0.101 A 
ATOM     11  C   UNL     1       3.715  -2.194   4.093  1.00  0.00     0.064 A 
ATOM     12  N   UNL     1       2.531  -0.283   4.882  1.00  0.00    -0.222 NA
ATOM     13  C   UNL     1       2.770  -2.988   4.717  1.00  0.00     0.075 A 
ATOM     14  C   UNL     1       1.675  -1.123   5.479  1.00  0.00     0.163 A 
ATOM     15  N   UNL     1       1.735  -2.463   5.414  1.00  0.00    -0.228 NA
BRANCH  13  16
ATOM     16  C   UNL     1       2.837  -4.457   4.620  1.00  0.00     0.000 A 
ATOM     17  C   UNL     1       1.691  -5.224   4.354  1.00  0.00     0.010 A 
ATOM     18  C   UNL     1       4.063  -5.138   4.753  1.00  0.00     0.010 A 
ATOM     19  C   UNL     1       1.770  -6.614   4.210  1.00  0.00     0.001 A 
ATOM     20  C   UNL     1       4.144  -6.525   4.613  1.00  0.00     0.001 A 
ATOM     21  C   UNL     1       2.997  -7.262   4.338  1.00  0.00     0.000 A 
ENDBRANCH  13  16
BRANCH  14  22
ATOM     22  C   UNL     1       0.636  -0.470   6.259  1.00  0.00     0.055 A 
ATOM     23  C   UNL     1      -0.320   0.360   5.642  1.00  0.00     0.015 A 
ATOM     24  C   UNL     1       0.660  -0.517   7.655  1.00  0.00     0.134 A 
ATOM     25  C   UNL     1      -1.205   1.127   6.406  1.00  0.00     0.001 A 
ATOM     26  C   UNL     1      -0.216   0.249   8.423  1.00  0.00     0.040 A 
ATOM     27  F   UNL     1       1.583  -1.255   8.292  1.00  0.00    -0.206 F 
ATOM     28  C   UNL     1      -1.146   1.078   7.798  1.00  0.00     0.003 A 
ENDBRANCH  14  22
ENDBRANCH   9  10
ENDBRANCH   8   9
ENDBRANCH   6   8
ENDBRANCH   5   6
ENDBRANCH   4   5
ENDBRANCH   3   4
ENDBRANCH   2   3
ENDBRANCH   1   2
BRANCH   1  29
ATOM     29  C   UNL     1       2.240   1.066  -2.917  1.00  0.00     0.188 C 
BRANCH  29  30
ATOM     30  O   UNL     1       3.025   0.553  -3.990  1.00  0.00    -0.376 OA
BRANCH  30  31
ATOM     31  C   UNL     1       4.345   1.083  -4.144  1.00  0.00     0.202 C 
BRANCH  31  32
ATOM     32  C   UNL     1       4.462   2.598  -4.383  1.00  0.00     0.261 C 
BRANCH  32  33
ATOM     33  O   UNL     1       4.060   3.406  -3.254  1.00  0.00    -0.460 OA
BRANCH  33  34
ATOM     34  C   UNL     1       3.111   4.337  -3.526  1.00  0.00     0.338 C 
ATOM     35  O   UNL     1       2.603   4.581  -4.607  1.00  0.00    -0.246 OA
BRANCH  34  36
ATOM     36  C   UNL     1       2.634   4.996  -2.295  1.00  0.00     0.060 A 
ATOM     37  C   UNL     1       1.322   4.747  -1.874  1.00  0.00     0.016 A 
ATOM     38  C   UNL     1       3.384   6.012  -1.699  1.00  0.00     0.016 A 
ATOM     39  C   UNL     1       0.738   5.549  -0.890  1.00  0.00     0.010 A 
ATOM     40  C   UNL     1       2.793   6.820  -0.717  1.00  0.00     0.010 A 
ATOM     41  C   UNL     1       1.453   6.621  -0.339  1.00  0.00    -0.014 A 
BRANCH  41  42
ATOM     42  C   UNL     1       0.743   7.612   0.512  1.00  0.00     0.031 A 
ATOM     43  C   UNL     1       0.226   8.886  -0.105  1.00  0.00     0.074 A 
ATOM     44  C   UNL     1       0.511   7.366   1.814  1.00  0.00     0.049 A 
ATOM     45  N   UNL     1      -0.453   9.860   0.450  1.00  0.00    -0.248 NA
ATOM     46  C   UNL     1       0.504   9.086  -1.536  1.00  0.00     0.031 C 
ATOM     47  C   UNL     1       0.926   6.165   2.537  1.00  0.00     0.029 A 
ATOM     48  N   UNL     1      -0.138   8.122   2.759  1.00  0.00    -0.354 N 
ATOM     49  C   UNL     1      -0.693  10.780  -0.563  1.00  0.00     0.074 A 
ATOM     50  C   UNL     1      -0.056  10.267  -1.758  1.00  0.00     0.031 C 
ATOM     51  C   UNL     1       0.525   6.268   3.816  1.00  0.00     0.029 A 
ATOM     52  C   UNL     1      -0.159   7.547   4.005  1.00  0.00     0.049 A 
ATOM     53  H   UNL     1      -0.549   8.995   2.561  1.00  0.00     0.167 HD
ATOM     54  C   UNL     1      -1.390  11.942  -0.514  1.00  0.00     0.031 A 
ATOM     55  C   UNL     1      -0.664   8.000   5.169  1.00  0.00     0.031 A 
ATOM     56  C   UNL     1      -2.009  12.478   0.669  1.00  0.00     0.049 A 
ATOM     57  C   UNL     1      -1.373   9.327   5.213  1.00  0.00     0.074 A 
ATOM     58  C   UNL     1      -2.732  13.651   0.808  1.00  0.00     0.029 A 
ATOM     59  N   UNL     1      -1.973  11.881   1.917  1.00  0.00    -0.354 N 
ATOM     60  N   UNL     1      -1.615  10.171   4.240  1.00  0.00    -0.248 NA
ATOM     61  C   UNL     1      -1.891   9.756   6.522  1.00  0.00     0.031 C 
ATOM     62  C   UNL     1      -3.099  13.784   2.152  1.00  0.00     0.029 A 
ATOM     63  C   UNL     1      -2.644  12.670   2.838  1.00  0.00     0.049 A 
ATOM     64  H   UNL     1      -1.536  11.023   2.121  1.00  0.00     0.167 HD
ATOM     65  C   UNL     1      -2.330  11.216   4.813  1.00  0.00     0.074 A 
ATOM     66  C   UNL     1      -2.501  10.892   6.213  1.00  0.00     0.031 C 
ATOM     67  C   UNL     1      -2.802  12.345   4.230  1.00  0.00     0.031 A 
BRANCH  54  68
ATOM     68  C   UNL     1      -1.509  12.727  -1.789  1.00  0.00    -0.014 A 
ATOM     69  C   UNL     1      -2.372  12.309  -2.815  1.00  0.00     0.009 A 
ATOM     70  C   UNL     1      -0.788  13.920  -1.949  1.00  0.00     0.009 A 
ATOM     71  C   UNL     1      -2.490  13.058  -3.987  1.00  0.00     0.001 A 
ATOM     72  C   UNL     1      -0.926  14.679  -3.113  1.00  0.00     0.001 A 
ATOM     73  C   UNL     1      -1.771  14.244  -4.133  1.00  0.00     0.000 A 
ENDBRANCH  54  68
BRANCH  55  74
ATOM     74  C   UNL     1      -0.506   7.199   6.410  1.00  0.00    -0.014 A 
ATOM     75  C   UNL     1      -1.611   6.570   7.004  1.00  0.00     0.009 A 
ATOM     76  C   UNL     1       0.750   7.093   7.025  1.00  0.00     0.009 A 
ATOM     77  C   UNL     1      -1.464   5.875   8.207  1.00  0.00     0.001 A 
ATOM     78  C   UNL     1       0.898   6.376   8.213  1.00  0.00     0.001 A 
ATOM     79  C   UNL     1      -0.210   5.776   8.808  1.00  0.00     0.000 A 
ENDBRANCH  55  74
BRANCH  67  80
ATOM     80  C   UNL     1      -3.569  13.299   5.102  1.00  0.00    -0.014 A 
ATOM     81  C   UNL     1      -2.917  14.092   6.060  1.00  0.00     0.009 A 
ATOM     82  C   UNL     1      -4.959  13.420   4.952  1.00  0.00     0.009 A 
ATOM     83  C   UNL     1      -3.648  14.959   6.875  1.00  0.00     0.001 A 
ATOM     84  C   UNL     1      -5.684  14.306   5.751  1.00  0.00     0.001 A 
ATOM     85  C   UNL     1      -5.029  15.067   6.719  1.00  0.00     0.000 A 
ENDBRANCH  67  80
ENDBRANCH  41  42
ENDBRANCH  34  36
ENDBRANCH  33  34
ENDBRANCH  32  33
ENDBRANCH  31  32
ENDBRANCH  30  31
ENDBRANCH  29  30
ENDBRANCH   1  29
TORSDOF 21
