REMARK SMILES CN1C(=O)C[C@@H](C(=O)OCCOCCOCCOC(=O)c2ccc(-c3c4nc(c(-c5ccccc5)c5ccc([nH]5)c(-c5ccccc5)c5nc(c(-c6ccccc6)c6ccc3[nH]6)C=C5)C=C4)cc2)C12CCN(C(=O)c1cccc3ccccc13)CC2
REMARK SMILES IDX 14 1 13 2 12 3 11 4 10 5 9 6 7 7 8 8 6 9 1 10 2 11 3 12
REMARK SMILES IDX 69 13 4 14 5 15 70 16 86 17 71 18 85 19 72 20 73 21 74 22
REMARK SMILES IDX 75 23 76 24 84 25 77 26 79 27 83 28 78 29 80 30 82 31 81 32
REMARK SMILES IDX 15 33 16 34 17 35 18 36 19 37 20 38 21 39 22 40 68 41 23 42
REMARK SMILES IDX 67 43 24 44 25 45 26 46 61 47 27 48 66 49 60 50 62 51 28 52
REMARK SMILES IDX 65 53 59 54 58 55 29 57 51 58 36 59 50 60 37 61 40 62 49 63
REMARK SMILES IDX 63 64 38 65 39 66 48 68 64 69 41 70 30 71 31 72 35 73 32 74
REMARK SMILES IDX 34 75 33 76 52 77 53 78 57 79 54 80 56 81 55 82 42 83 43 84
REMARK SMILES IDX 47 85 44 86 46 87 45 88
REMARK H PARENT 62 56 40 67
REMARK Flexibility Score: inf
ROOT
ATOM      1  C   UNL     1      -0.499  -1.396   5.573  1.00  0.00     0.188 C 
ENDROOT
BRANCH   1   2
ATOM      2  C   UNL     1      -1.104  -0.473   6.621  1.00  0.00     0.188 C 
BRANCH   2   3
ATOM      3  O   UNL     1      -2.500  -0.218   6.589  1.00  0.00    -0.376 OA
BRANCH   3   4
ATOM      4  C   UNL     1      -3.249  -0.568   5.434  1.00  0.00     0.202 C 
BRANCH   4   5
ATOM      5  C   UNL     1      -3.100   0.344   4.200  1.00  0.00     0.261 C 
BRANCH   5   6
ATOM      6  O   UNL     1      -1.808   0.393   3.525  1.00  0.00    -0.463 OA
BRANCH   6   7
ATOM      7  C   UNL     1      -1.019   1.439   3.866  1.00  0.00     0.311 C 
ATOM      8  O   UNL     1      -1.309   2.228   4.765  1.00  0.00    -0.252 OA
BRANCH   7   9
ATOM      9  C   UNL     1       0.241   1.703   3.035  1.00  0.00     0.134 C 
ATOM     10  C   UNL     1       0.687   0.193  -0.387  1.00  0.00     0.147 C 
ATOM     11  N   UNL     1       0.424   0.985   0.803  1.00  0.00    -0.339 N 
ATOM     12  C   UNL     1      -0.297   2.171   0.744  1.00  0.00     0.223 C 
ATOM     13  C   UNL     1       1.069   0.753   2.105  1.00  0.00     0.060 C 
ATOM     14  O   UNL     1      -0.869   2.629  -0.215  1.00  0.00    -0.275 OA
ATOM     15  C   UNL     1      -0.186   2.844   2.088  1.00  0.00     0.118 C 
ATOM     16  C   UNL     1       1.147  -0.751   2.440  1.00  0.00     0.051 C 
ATOM     17  C   UNL     1       2.548   1.291   2.010  1.00  0.00     0.051 C 
ATOM     18  C   UNL     1       2.054  -1.046   3.631  1.00  0.00     0.122 C 
ATOM     19  C   UNL     1       3.504   0.830   3.115  1.00  0.00     0.122 C 
ATOM     20  N   UNL     1       3.411  -0.601   3.405  1.00  0.00    -0.338 N 
ATOM     21  C   UNL     1       4.605  -1.285   3.707  1.00  0.00     0.254 C 
ATOM     22  O   UNL     1       5.697  -0.735   3.531  1.00  0.00    -0.269 OA
BRANCH  21  23
ATOM     23  C   UNL     1       4.684  -2.625   4.380  1.00  0.00     0.047 A 
ATOM     24  C   UNL     1       5.491  -2.614   5.542  1.00  0.00     0.014 A 
ATOM     25  C   UNL     1       4.170  -3.866   3.905  1.00  0.00    -0.006 A 
ATOM     26  C   UNL     1       5.790  -3.782   6.239  1.00  0.00     0.001 A 
ATOM     27  C   UNL     1       4.491  -5.052   4.640  1.00  0.00    -0.018 A 
ATOM     28  C   UNL     1       3.345  -4.035   2.770  1.00  0.00     0.009 A 
ATOM     29  C   UNL     1       5.301  -4.994   5.781  1.00  0.00     0.009 A 
ATOM     30  C   UNL     1       3.976  -6.299   4.260  1.00  0.00     0.009 A 
ATOM     31  C   UNL     1       2.784  -5.277   2.445  1.00  0.00     0.001 A 
ATOM     32  C   UNL     1       3.102  -6.408   3.186  1.00  0.00     0.001 A 
ENDBRANCH  21  23
ENDBRANCH   7   9
ENDBRANCH   6   7
ENDBRANCH   5   6
ENDBRANCH   4   5
ENDBRANCH   3   4
ENDBRANCH   2   3
ENDBRANCH   1   2
BRANCH   1  33
ATOM     33  O   UNL     1      -1.238  -2.575   5.330  1.00  0.00    -0.376 OA
BRANCH  33  34
ATOM     34  C   UNL     1      -0.467  -3.766   5.340  1.00  0.00     0.202 C 
BRANCH  34  35
ATOM     35  C   UNL     1      -0.194  -4.203   6.787  1.00  0.00     0.261 C 
BRANCH  35  36
ATOM     36  O   UNL     1       0.574  -3.255   7.573  1.00  0.00    -0.460 OA
BRANCH  36  37
ATOM     37  C   UNL     1       1.862  -3.142   7.182  1.00  0.00     0.338 C 
ATOM     38  O   UNL     1       2.363  -3.753   6.259  1.00  0.00    -0.246 OA
BRANCH  37  39
ATOM     39  C   UNL     1       2.587  -2.068   7.889  1.00  0.00     0.060 A 
ATOM     40  C   UNL     1       2.883  -0.881   7.211  1.00  0.00     0.016 A 
ATOM     41  C   UNL     1       3.177  -2.321   9.121  1.00  0.00     0.016 A 
ATOM     42  C   UNL     1       3.810   0.027   7.714  1.00  0.00     0.010 A 
ATOM     43  C   UNL     1       4.084  -1.391   9.648  1.00  0.00     0.010 A 
ATOM     44  C   UNL     1       4.437  -0.229   8.933  1.00  0.00    -0.014 A 
BRANCH  44  45
ATOM     45  C   UNL     1       5.525   0.659   9.419  1.00  0.00     0.031 A 
ATOM     46  C   UNL     1       6.933   0.134   9.512  1.00  0.00     0.074 A 
ATOM     47  C   UNL     1       5.270   1.935   9.759  1.00  0.00     0.049 A 
ATOM     48  N   UNL     1       7.990   0.666  10.070  1.00  0.00    -0.248 NA
ATOM     49  C   UNL     1       7.181  -1.170   8.884  1.00  0.00     0.031 C 
ATOM     50  C   UNL     1       3.982   2.615   9.621  1.00  0.00     0.029 A 
ATOM     51  N   UNL     1       6.092   2.885  10.313  1.00  0.00    -0.354 N 
ATOM     52  C   UNL     1       9.018  -0.253   9.884  1.00  0.00     0.074 A 
ATOM     53  C   UNL     1       8.458  -1.376   9.166  1.00  0.00     0.031 C 
ATOM     54  C   UNL     1       4.095   3.866  10.093  1.00  0.00     0.029 A 
ATOM     55  C   UNL     1       5.438   4.048  10.635  1.00  0.00     0.049 A 
ATOM     56  H   UNL     1       7.054   2.745  10.465  1.00  0.00     0.167 HD
ATOM     57  C   UNL     1      10.308  -0.175  10.290  1.00  0.00     0.031 A 
ATOM     58  C   UNL     1       5.854   5.116  11.341  1.00  0.00     0.031 A 
ATOM     59  C   UNL     1      10.853   0.934  11.025  1.00  0.00     0.049 A 
ATOM     60  C   UNL     1       7.250   5.128  11.899  1.00  0.00     0.074 A 
ATOM     61  C   UNL     1      12.135   1.100  11.519  1.00  0.00     0.029 A 
ATOM     62  N   UNL     1      10.139   2.070  11.375  1.00  0.00    -0.354 N 
ATOM     63  N   UNL     1       8.201   4.235  11.771  1.00  0.00    -0.248 NA
ATOM     64  C   UNL     1       7.626   6.298  12.705  1.00  0.00     0.031 C 
ATOM     65  C   UNL     1      12.179   2.309  12.221  1.00  0.00     0.029 A 
ATOM     66  C   UNL     1      10.945   2.928  12.103  1.00  0.00     0.049 A 
ATOM     67  H   UNL     1       9.198   2.241  11.141  1.00  0.00     0.167 HD
ATOM     68  C   UNL     1       9.298   4.749  12.450  1.00  0.00     0.074 A 
ATOM     69  C   UNL     1       8.896   6.037  12.979  1.00  0.00     0.031 C 
ATOM     70  C   UNL     1      10.530   4.207  12.617  1.00  0.00     0.031 A 
BRANCH  57  71
ATOM     71  C   UNL     1      11.196  -1.357  10.010  1.00  0.00    -0.014 A 
ATOM     72  C   UNL     1      11.642  -1.655   8.714  1.00  0.00     0.009 A 
ATOM     73  C   UNL     1      11.608  -2.176  11.074  1.00  0.00     0.009 A 
ATOM     74  C   UNL     1      12.456  -2.768   8.485  1.00  0.00     0.001 A 
ATOM     75  C   UNL     1      12.444  -3.271  10.847  1.00  0.00     0.001 A 
ATOM     76  C   UNL     1      12.860  -3.571   9.551  1.00  0.00     0.000 A 
ENDBRANCH  57  71
BRANCH  58  77
ATOM     77  C   UNL     1       4.914   6.235  11.617  1.00  0.00    -0.014 A 
ATOM     78  C   UNL     1       5.123   7.501  11.050  1.00  0.00     0.009 A 
ATOM     79  C   UNL     1       3.806   6.043  12.458  1.00  0.00     0.009 A 
ATOM     80  C   UNL     1       4.255   8.556  11.339  1.00  0.00     0.001 A 
ATOM     81  C   UNL     1       2.921   7.091  12.718  1.00  0.00     0.001 A 
ATOM     82  C   UNL     1       3.152   8.349  12.166  1.00  0.00     0.000 A 
ENDBRANCH  58  77
BRANCH  70  83
ATOM     83  C   UNL     1      11.548   5.033  13.352  1.00  0.00    -0.014 A 
ATOM     84  C   UNL     1      11.462   5.247  14.736  1.00  0.00     0.009 A 
ATOM     85  C   UNL     1      12.631   5.579  12.645  1.00  0.00     0.009 A 
ATOM     86  C   UNL     1      12.420   6.027  15.389  1.00  0.00     0.001 A 
ATOM     87  C   UNL     1      13.603   6.330  13.305  1.00  0.00     0.001 A 
ATOM     88  C   UNL     1      13.491   6.563  14.674  1.00  0.00     0.000 A 
ENDBRANCH  70  83
ENDBRANCH  44  45
ENDBRANCH  37  39
ENDBRANCH  36  37
ENDBRANCH  35  36
ENDBRANCH  34  35
ENDBRANCH  33  34
ENDBRANCH   1  33
TORSDOF 18
