REMARK SMILES Cc1cccc(C[NH+]2CCC(OCC(=O)OCCOCCOCCOC(=O)c3ccc(-c4c5nc(c(-c6ccccc6)c6ccc([nH]6)c(-c6ccccc6)c6nc(c(-c7ccccc7)c7ccc4[nH]7)C=C6)C=C5)cc3)CC2)n1
REMARK SMILES IDX 20 1 19 2 18 3 17 4 16 5 14 6 15 7 13 8 12 9 11 10 8 11 9 12
REMARK SMILES IDX 77 13 10 15 76 16 7 17 6 18 1 19 2 20 3 21 78 22 4 23 5 24
REMARK SMILES IDX 21 25 22 26 23 27 24 28 25 29 26 30 27 31 28 32 29 33 75 34
REMARK SMILES IDX 30 35 74 36 31 37 32 38 33 39 68 40 34 41 73 42 67 43 69 44
REMARK SMILES IDX 35 45 72 46 66 47 65 48 36 50 58 51 43 52 57 53 44 54 47 55
REMARK SMILES IDX 56 56 70 57 45 58 46 59 55 61 71 62 48 63 37 64 38 65 42 66
REMARK SMILES IDX 39 67 41 68 40 69 59 70 60 71 64 72 61 73 63 74 62 75 49 76
REMARK SMILES IDX 50 77 54 78 51 79 53 80 52 81
REMARK H PARENT 8 14 69 49 47 60
REMARK Flexibility Score: inf
ROOT
ATOM      1  C   UNL     1       0.325   6.293   0.385  1.00  0.00     0.188 C 
ENDROOT
BRANCH   1   2
ATOM      2  O   UNL     1       0.522   7.585  -0.126  1.00  0.00    -0.376 OA
BRANCH   2   3
ATOM      3  C   UNL     1       1.723   8.175   0.328  1.00  0.00     0.202 C 
BRANCH   3   4
ATOM      4  C   UNL     1       1.845   8.495   1.846  1.00  0.00     0.261 C 
BRANCH   4   5
ATOM      5  O   UNL     1       1.446   7.515   2.864  1.00  0.00    -0.462 OA
BRANCH   5   6
ATOM      6  C   UNL     1       0.311   7.785   3.575  1.00  0.00     0.332 C 
ATOM      7  O   UNL     1      -0.426   8.733   3.303  1.00  0.00    -0.250 OA
BRANCH   6   8
ATOM      8  C   UNL     1      -0.033   6.859   4.824  1.00  0.00     0.283 C 
BRANCH   8   9
ATOM      9  O   UNL     1       0.477   5.679   5.420  1.00  0.00    -0.366 OA
BRANCH   9  10
ATOM     10  C   UNL     1       0.338   4.420   4.759  1.00  0.00     0.130 C 
ATOM     11  N   UNL     1      -0.295   3.335   1.870  1.00  0.00    -0.330 N 
ATOM     12  C   UNL     1      -1.093   2.996   3.185  1.00  0.00     0.265 C 
ATOM     13  C   UNL     1       1.024   3.277   2.622  1.00  0.00     0.265 C 
ATOM     14  H   UNL     1      -0.756   4.073   1.337  1.00  0.00     0.348 HD
ATOM     15  C   UNL     1      -1.054   4.013   4.364  1.00  0.00     0.093 C 
ATOM     16  C   UNL     1       1.174   4.471   3.537  1.00  0.00     0.093 C 
BRANCH  11  17
ATOM     17  C   UNL     1      -0.383   2.866   0.052  1.00  0.00     0.319 C 
BRANCH  17  18
ATOM     18  C   UNL     1      -0.038   1.302  -1.035  1.00  0.00     0.095 A 
ATOM     19  C   UNL     1       3.116  -0.540  -0.591  1.00  0.00     0.067 C 
ATOM     20  C   UNL     1       1.678  -0.373  -0.999  1.00  0.00     0.038 A 
ATOM     21  C   UNL     1       0.842  -1.430  -0.749  1.00  0.00     0.023 A 
ATOM     22  N   UNL     1       1.233   0.914  -1.286  1.00  0.00    -0.252 NA
ATOM     23  C   UNL     1      -0.469  -1.192  -0.998  1.00  0.00     0.004 A 
ATOM     24  C   UNL     1      -0.870   0.136  -1.257  1.00  0.00     0.030 A 
ENDBRANCH  17  18
ENDBRANCH  11  17
ENDBRANCH   9  10
ENDBRANCH   8   9
ENDBRANCH   6   8
ENDBRANCH   5   6
ENDBRANCH   4   5
ENDBRANCH   3   4
ENDBRANCH   2   3
ENDBRANCH   1   2
BRANCH   1  25
ATOM     25  C   UNL     1       1.575   5.456   0.680  1.00  0.00     0.188 C 
BRANCH  25  26
ATOM     26  O   UNL     1       2.566   4.995  -0.210  1.00  0.00    -0.376 OA
BRANCH  26  27
ATOM     27  C   UNL     1       3.177   3.781   0.381  1.00  0.00     0.202 C 
BRANCH  27  28
ATOM     28  C   UNL     1       2.311   2.465   0.107  1.00  0.00     0.261 C 
BRANCH  28  29
ATOM     29  O   UNL     1       1.188   1.475   1.083  1.00  0.00    -0.460 OA
BRANCH  29  30
ATOM     30  C   UNL     1      -0.274   0.872   1.381  1.00  0.00     0.338 C 
ATOM     31  O   UNL     1      -0.251  -0.021   2.242  1.00  0.00    -0.246 OA
BRANCH  30  32
ATOM     32  C   UNL     1      -1.999   1.260   0.864  1.00  0.00     0.060 A 
ATOM     33  C   UNL     1      -2.822   1.713   1.871  1.00  0.00     0.016 A 
ATOM     34  C   UNL     1      -2.722   1.657  -0.353  1.00  0.00     0.016 A 
ATOM     35  C   UNL     1      -4.195   1.845   1.916  1.00  0.00     0.010 A 
ATOM     36  C   UNL     1      -4.082   1.931  -0.479  1.00  0.00     0.010 A 
ATOM     37  C   UNL     1      -4.791   1.972   0.690  1.00  0.00    -0.014 A 
BRANCH  37  38
ATOM     38  C   UNL     1      -6.203   1.851   0.691  1.00  0.00     0.031 A 
ATOM     39  C   UNL     1      -6.649   0.446   0.659  1.00  0.00     0.074 A 
ATOM     40  C   UNL     1      -6.892   2.987   0.856  1.00  0.00     0.049 A 
ATOM     41  N   UNL     1      -7.854  -0.013   0.628  1.00  0.00    -0.248 NA
ATOM     42  C   UNL     1      -5.594  -0.599   0.640  1.00  0.00     0.031 C 
ATOM     43  C   UNL     1      -6.312   4.331   0.978  1.00  0.00     0.029 A 
ATOM     44  N   UNL     1      -8.216   3.165   0.979  1.00  0.00    -0.354 N 
ATOM     45  C   UNL     1      -7.702  -1.385   0.556  1.00  0.00     0.074 A 
ATOM     46  C   UNL     1      -6.303  -1.701   0.500  1.00  0.00     0.031 C 
ATOM     47  C   UNL     1      -7.310   5.210   1.163  1.00  0.00     0.029 A 
ATOM     48  C   UNL     1      -8.566   4.481   1.102  1.00  0.00     0.049 A 
ATOM     49  H   UNL     1      -8.867   2.426   0.981  1.00  0.00     0.167 HD
ATOM     50  C   UNL     1      -8.703  -2.279   0.545  1.00  0.00     0.031 A 
ATOM     51  C   UNL     1      -9.805   4.981   1.109  1.00  0.00     0.031 A 
ATOM     52  C   UNL     1     -10.061  -1.828   0.581  1.00  0.00     0.049 A 
ATOM     53  C   UNL     1     -10.901   3.959   0.997  1.00  0.00     0.074 A 
ATOM     54  C   UNL     1     -11.221  -2.562   0.538  1.00  0.00     0.029 A 
ATOM     55  N   UNL     1     -10.421  -0.480   0.661  1.00  0.00    -0.354 N 
ATOM     56  N   UNL     1     -10.796   2.648   0.900  1.00  0.00    -0.248 NA
ATOM     57  C   UNL     1     -12.268   4.463   0.998  1.00  0.00     0.031 C 
ATOM     58  C   UNL     1     -12.281  -1.650   0.513  1.00  0.00     0.029 A 
ATOM     59  C   UNL     1     -11.789  -0.352   0.640  1.00  0.00     0.049 A 
ATOM     60  H   UNL     1      -9.786   0.270   0.724  1.00  0.00     0.167 HD
ATOM     61  C   UNL     1     -12.086   2.158   0.858  1.00  0.00     0.074 A 
ATOM     62  C   UNL     1     -12.952   3.327   0.965  1.00  0.00     0.031 C 
ATOM     63  C   UNL     1     -12.538   0.881   0.745  1.00  0.00     0.031 A 
BRANCH  50  64
ATOM     64  C   UNL     1      -8.325  -3.716   0.388  1.00  0.00    -0.014 A 
ATOM     65  C   UNL     1      -7.572  -4.401   1.359  1.00  0.00     0.009 A 
ATOM     66  C   UNL     1      -8.652  -4.375  -0.804  1.00  0.00     0.009 A 
ATOM     67  C   UNL     1      -7.133  -5.705   1.125  1.00  0.00     0.001 A 
ATOM     68  C   UNL     1      -8.247  -5.692  -1.018  1.00  0.00     0.001 A 
ATOM     69  C   UNL     1      -7.482  -6.353  -0.059  1.00  0.00     0.000 A 
ENDBRANCH  50  64
BRANCH  51  70
ATOM     70  C   UNL     1     -10.021   6.441   1.188  1.00  0.00    -0.014 A 
ATOM     71  C   UNL     1     -10.655   7.010   2.299  1.00  0.00     0.009 A 
ATOM     72  C   UNL     1      -9.545   7.289   0.171  1.00  0.00     0.009 A 
ATOM     73  C   UNL     1     -10.849   8.391   2.370  1.00  0.00     0.001 A 
ATOM     74  C   UNL     1      -9.708   8.672   0.261  1.00  0.00     0.001 A 
ATOM     75  C   UNL     1     -10.376   9.220   1.353  1.00  0.00     0.000 A 
ENDBRANCH  51  70
BRANCH  63  76
ATOM     76  C   UNL     1     -14.024   0.724   0.785  1.00  0.00    -0.014 A 
ATOM     77  C   UNL     1     -14.831   1.163  -0.272  1.00  0.00     0.009 A 
ATOM     78  C   UNL     1     -14.602   0.069   1.882  1.00  0.00     0.009 A 
ATOM     79  C   UNL     1     -16.209   0.996  -0.203  1.00  0.00     0.001 A 
ATOM     80  C   UNL     1     -15.973  -0.149   1.919  1.00  0.00     0.001 A 
ATOM     81  C   UNL     1     -16.776   0.331   0.885  1.00  0.00     0.000 A 
ENDBRANCH  63  76
ENDBRANCH  37  38
ENDBRANCH  30  32
ENDBRANCH  29  30
ENDBRANCH  28  29
ENDBRANCH  27  28
ENDBRANCH  26  27
ENDBRANCH  25  26
ENDBRANCH   1  25
TORSDOF 21
