REMARK SMILES C[C@@H](C(=O)OCCOCCOCCOC(=O)c1ccc(-c2c3nc(c(-c4ccccc4)c4ccc([nH]4)c(-c4ccccc4)c4nc(c(-c5ccccc5)c5ccc2[nH]5)C=C4)C=C3)cc1)c1cc(/C=C/S(C)(=O)=O)cc(C(=O)c2ccccc2)c1
REMARK SMILES IDX 9 1 8 2 7 3 6 4 5 5 3 6 4 7 2 8 1 9 65 10 66 11 84 12 67 13
REMARK SMILES IDX 75 14 74 15 68 16 69 17 70 18 71 19 72 20 73 21 76 22 77 23
REMARK SMILES IDX 78 24 79 25 83 26 80 27 82 28 81 29 10 30 11 31 12 32 13 33
REMARK SMILES IDX 14 34 15 35 16 36 17 37 18 38 64 39 19 40 63 41 20 42 21 43
REMARK SMILES IDX 22 44 57 45 23 46 62 47 56 48 58 49 24 50 61 51 55 52 54 53
REMARK SMILES IDX 25 55 47 56 32 57 46 58 33 59 36 60 45 61 59 62 34 63 35 64
REMARK SMILES IDX 44 66 60 67 37 68 26 69 27 70 31 71 28 72 30 73 29 74 48 75
REMARK SMILES IDX 49 76 53 77 50 78 52 79 51 80 38 81 39 82 43 83 40 84 42 85
REMARK SMILES IDX 41 86
REMARK H PARENT 58 54 36 65
REMARK Flexibility Score: inf
ROOT
ATOM      1  C   UNL     1       0.467  -0.606   3.705  1.00  0.00     0.188 C 
ENDROOT
BRANCH   1   2
ATOM      2  O   UNL     1       1.224  -1.222   4.726  1.00  0.00    -0.376 OA
BRANCH   2   3
ATOM      3  C   UNL     1       2.457  -1.834   4.372  1.00  0.00     0.202 C 
BRANCH   3   4
ATOM      4  C   UNL     1       2.583  -2.626   3.061  1.00  0.00     0.261 C 
BRANCH   4   5
ATOM      5  O   UNL     1       2.176  -1.898   1.879  1.00  0.00    -0.463 OA
BRANCH   5   6
ATOM      6  C   UNL     1       1.400  -2.587   1.000  1.00  0.00     0.313 C 
ATOM      7  O   UNL     1       1.116  -3.774   1.144  1.00  0.00    -0.252 OA
BRANCH   6   8
ATOM      8  C   UNL     1       0.823  -1.740  -0.158  1.00  0.00     0.126 C 
ATOM      9  C   UNL     1       1.690  -0.550  -0.577  1.00  0.00     0.025 C 
BRANCH   8  10
ATOM     10  C   UNL     1      -0.684  -1.476   0.010  1.00  0.00    -0.033 A 
ATOM     11  C   UNL     1      -1.303  -0.211  -0.013  1.00  0.00     0.012 A 
ATOM     12  C   UNL     1      -1.513  -2.598   0.179  1.00  0.00     0.016 A 
ATOM     13  C   UNL     1      -2.695  -0.061   0.184  1.00  0.00    -0.024 A 
ATOM     14  C   UNL     1      -2.885  -2.485   0.424  1.00  0.00     0.023 A 
ATOM     15  C   UNL     1      -3.471  -1.214   0.415  1.00  0.00     0.020 A 
BRANCH  13  16
ATOM     16  C   UNL     1      -3.389   1.250   0.178  1.00  0.00     0.020 C 
ATOM     17  C   UNL     1      -2.807   2.457   0.293  1.00  0.00     0.106 C 
BRANCH  17  18
ATOM     18  S   UNL     1      -3.792   3.891   0.452  1.00  0.00     0.168 S 
ATOM     19  C   UNL     1      -2.963   4.794   1.740  1.00  0.00     0.163 C 
ATOM     20  O   UNL     1      -3.662   4.667  -0.759  1.00  0.00    -0.225 OA
ATOM     21  O   UNL     1      -5.101   3.532   0.975  1.00  0.00    -0.225 OA
ENDBRANCH  17  18
ENDBRANCH  13  16
BRANCH  14  22
ATOM     22  C   UNL     1      -3.725  -3.700   0.666  1.00  0.00     0.193 C 
ATOM     23  O   UNL     1      -4.948  -3.619   0.698  1.00  0.00    -0.289 OA
BRANCH  22  24
ATOM     24  C   UNL     1      -3.091  -5.032   0.822  1.00  0.00     0.022 A 
ATOM     25  C   UNL     1      -3.390  -6.029  -0.110  1.00  0.00     0.012 A 
ATOM     26  C   UNL     1      -2.152  -5.270   1.834  1.00  0.00     0.012 A 
ATOM     27  C   UNL     1      -2.709  -7.247  -0.063  1.00  0.00     0.001 A 
ATOM     28  C   UNL     1      -1.470  -6.487   1.871  1.00  0.00     0.001 A 
ATOM     29  C   UNL     1      -1.742  -7.470   0.919  1.00  0.00     0.000 A 
ENDBRANCH  22  24
ENDBRANCH  14  22
ENDBRANCH   8  10
ENDBRANCH   6   8
ENDBRANCH   5   6
ENDBRANCH   4   5
ENDBRANCH   3   4
ENDBRANCH   2   3
ENDBRANCH   1   2
BRANCH   1  30
ATOM     30  C   UNL     1       1.092   0.542   2.890  1.00  0.00     0.188 C 
BRANCH  30  31
ATOM     31  O   UNL     1       2.478   0.775   2.917  1.00  0.00    -0.376 OA
BRANCH  31  32
ATOM     32  C   UNL     1       3.042   1.521   3.988  1.00  0.00     0.202 C 
BRANCH  32  33
ATOM     33  C   UNL     1       2.258   2.496   4.891  1.00  0.00     0.261 C 
BRANCH  33  34
ATOM     34  O   UNL     1       0.876   2.197   5.143  1.00  0.00    -0.460 OA
BRANCH  34  35
ATOM     35  C   UNL     1      -0.001   3.112   4.656  1.00  0.00     0.338 C 
ATOM     36  O   UNL     1       0.251   4.133   4.038  1.00  0.00    -0.246 OA
BRANCH  35  37
ATOM     37  C   UNL     1      -1.382   2.613   4.769  1.00  0.00     0.060 A 
ATOM     38  C   UNL     1      -1.944   1.982   3.658  1.00  0.00     0.016 A 
ATOM     39  C   UNL     1      -2.176   2.926   5.869  1.00  0.00     0.016 A 
ATOM     40  C   UNL     1      -3.297   1.683   3.635  1.00  0.00     0.010 A 
ATOM     41  C   UNL     1      -3.551   2.640   5.829  1.00  0.00     0.010 A 
ATOM     42  C   UNL     1      -4.129   2.058   4.688  1.00  0.00    -0.014 A 
BRANCH  42  43
ATOM     43  C   UNL     1      -5.597   1.985   4.463  1.00  0.00     0.031 A 
ATOM     44  C   UNL     1      -6.392   3.258   4.296  1.00  0.00     0.074 A 
ATOM     45  C   UNL     1      -6.197   0.804   4.214  1.00  0.00     0.049 A 
ATOM     46  N   UNL     1      -7.674   3.413   4.080  1.00  0.00    -0.248 NA
ATOM     47  C   UNL     1      -5.639   4.523   4.350  1.00  0.00     0.031 C 
ATOM     48  C   UNL     1      -5.529  -0.499   4.146  1.00  0.00     0.029 A 
ATOM     49  N   UNL     1      -7.511   0.517   3.940  1.00  0.00    -0.354 N 
ATOM     50  C   UNL     1      -7.872   4.782   3.942  1.00  0.00     0.074 A 
ATOM     51  C   UNL     1      -6.589   5.419   4.129  1.00  0.00     0.031 C 
ATOM     52  C   UNL     1      -6.436  -1.440   3.839  1.00  0.00     0.029 A 
ATOM     53  C   UNL     1      -7.759  -0.825   3.786  1.00  0.00     0.049 A 
ATOM     54  H   UNL     1      -8.209   1.207   3.861  1.00  0.00     0.167 HD
ATOM     55  C   UNL     1      -9.022   5.455   3.702  1.00  0.00     0.031 A 
ATOM     56  C   UNL     1      -8.923  -1.494   3.681  1.00  0.00     0.031 A 
ATOM     57  C   UNL     1     -10.314   4.837   3.583  1.00  0.00     0.049 A 
ATOM     58  C   UNL     1     -10.215  -0.727   3.691  1.00  0.00     0.074 A 
ATOM     59  C   UNL     1     -11.549   5.444   3.438  1.00  0.00     0.029 A 
ATOM     60  N   UNL     1     -10.539   3.471   3.619  1.00  0.00    -0.354 N 
ATOM     61  N   UNL     1     -10.408   0.569   3.654  1.00  0.00    -0.248 NA
ATOM     62  C   UNL     1     -11.453  -1.518   3.749  1.00  0.00     0.031 C 
ATOM     63  C   UNL     1     -12.530   4.449   3.491  1.00  0.00     0.029 A 
ATOM     64  C   UNL     1     -11.900   3.219   3.576  1.00  0.00     0.049 A 
ATOM     65  H   UNL     1      -9.837   2.783   3.668  1.00  0.00     0.167 HD
ATOM     66  C   UNL     1     -11.785   0.748   3.656  1.00  0.00     0.074 A 
ATOM     67  C   UNL     1     -12.380  -0.571   3.690  1.00  0.00     0.031 C 
ATOM     68  C   UNL     1     -12.490   1.906   3.626  1.00  0.00     0.031 A 
BRANCH  55  69
ATOM     69  C   UNL     1      -8.950   6.955   3.669  1.00  0.00    -0.014 A 
ATOM     70  C   UNL     1      -8.436   7.649   2.563  1.00  0.00     0.009 A 
ATOM     71  C   UNL     1      -9.445   7.683   4.763  1.00  0.00     0.009 A 
ATOM     72  C   UNL     1      -8.407   9.046   2.564  1.00  0.00     0.001 A 
ATOM     73  C   UNL     1      -9.434   9.077   4.751  1.00  0.00     0.001 A 
ATOM     74  C   UNL     1      -8.910   9.758   3.654  1.00  0.00     0.000 A 
ENDBRANCH  55  69
BRANCH  56  75
ATOM     75  C   UNL     1      -8.921  -2.982   3.676  1.00  0.00    -0.014 A 
ATOM     76  C   UNL     1      -9.365  -3.705   2.561  1.00  0.00     0.009 A 
ATOM     77  C   UNL     1      -8.485  -3.687   4.811  1.00  0.00     0.009 A 
ATOM     78  C   UNL     1      -9.381  -5.103   2.588  1.00  0.00     0.001 A 
ATOM     79  C   UNL     1      -8.469  -5.082   4.823  1.00  0.00     0.001 A 
ATOM     80  C   UNL     1      -8.926  -5.789   3.714  1.00  0.00     0.000 A 
ENDBRANCH  56  75
BRANCH  68  81
ATOM     81  C   UNL     1     -13.990   1.807   3.597  1.00  0.00    -0.014 A 
ATOM     82  C   UNL     1     -14.719   1.389   4.720  1.00  0.00     0.009 A 
ATOM     83  C   UNL     1     -14.686   2.187   2.438  1.00  0.00     0.009 A 
ATOM     84  C   UNL     1     -16.113   1.322   4.672  1.00  0.00     0.001 A 
ATOM     85  C   UNL     1     -16.080   2.151   2.403  1.00  0.00     0.001 A 
ATOM     86  C   UNL     1     -16.792   1.708   3.516  1.00  0.00     0.000 A 
ENDBRANCH  68  81
ENDBRANCH  42  43
ENDBRANCH  35  37
ENDBRANCH  34  35
ENDBRANCH  33  34
ENDBRANCH  32  33
ENDBRANCH  31  32
ENDBRANCH  30  31
ENDBRANCH   1  30
TORSDOF 22
