REMARK SMILES O=C(OCCOCCOCCOC(=O)c1nccnc1C(=O)Nc1ccc(-n2cncn2)c(Cl)c1)c1ccc(-c2c3nc(c(-c4ccccc4)c4ccc([nH]4)c(-c4ccccc4)c4nc(c(-c5ccccc5)c5ccc2[nH]5)C=C4)C=C3)cc1
REMARK SMILES IDX 8 1 7 2 6 3 5 4 4 5 3 6 2 7 1 8 36 9 37 10 83 11 38 12 82 13
REMARK SMILES IDX 39 14 40 15 41 16 76 17 42 18 81 19 75 20 77 21 43 22 80 23
REMARK SMILES IDX 74 24 73 25 44 27 66 28 51 29 65 30 52 31 55 32 64 33 78 34
REMARK SMILES IDX 53 35 54 36 63 38 79 39 56 40 45 41 46 42 50 43 47 44 49 45
REMARK SMILES IDX 48 46 67 47 68 48 72 49 69 50 71 51 70 52 57 53 58 54 62 55
REMARK SMILES IDX 59 56 61 57 60 58 9 59 10 60 11 61 12 62 13 63 14 64 15 65
REMARK SMILES IDX 16 66 20 67 17 68 19 69 18 70 21 71 22 72 23 73 24 75 25 76
REMARK SMILES IDX 35 77 26 78 33 79 27 80 34 81 28 82 29 83 32 84 30 85 31 86
REMARK H PARENT 77 26 55 37 23 74
REMARK Flexibility Score: inf
ROOT
ATOM      1  C   UNL     1       3.459   1.845  -1.174  1.00  0.00     0.188 C 
ENDROOT
BRANCH   1   2
ATOM      2  C   UNL     1       3.796   0.938   0.008  1.00  0.00     0.188 C 
BRANCH   2   3
ATOM      3  O   UNL     1       4.973   0.127  -0.064  1.00  0.00    -0.376 OA
BRANCH   3   4
ATOM      4  C   UNL     1       5.399  -0.392  -1.323  1.00  0.00     0.202 C 
BRANCH   4   5
ATOM      5  C   UNL     1       4.683  -1.638  -1.848  1.00  0.00     0.261 C 
BRANCH   5   6
ATOM      6  O   UNL     1       3.292  -1.401  -2.107  1.00  0.00    -0.460 OA
BRANCH   6   7
ATOM      7  C   UNL     1       2.233  -1.426  -1.272  1.00  0.00     0.338 C 
ATOM      8  O   UNL     1       1.151  -1.031  -1.706  1.00  0.00    -0.246 OA
BRANCH   7   9
ATOM      9  C   UNL     1       2.291  -1.878   0.155  1.00  0.00     0.060 A 
ATOM     10  C   UNL     1       3.436  -2.292   0.846  1.00  0.00     0.016 A 
ATOM     11  C   UNL     1       1.075  -1.806   0.863  1.00  0.00     0.016 A 
ATOM     12  C   UNL     1       3.340  -2.868   2.090  1.00  0.00     0.010 A 
ATOM     13  C   UNL     1       0.967  -2.351   2.128  1.00  0.00     0.010 A 
ATOM     14  C   UNL     1       2.081  -3.004   2.643  1.00  0.00    -0.014 A 
BRANCH  14  15
ATOM     15  C   UNL     1       1.938  -4.107   3.566  1.00  0.00     0.031 A 
ATOM     16  C   UNL     1       2.478  -3.916   4.928  1.00  0.00     0.074 A 
ATOM     17  C   UNL     1       1.355  -5.224   3.087  1.00  0.00     0.049 A 
ATOM     18  N   UNL     1       3.317  -4.662   5.570  1.00  0.00    -0.248 NA
ATOM     19  C   UNL     1       2.098  -2.682   5.632  1.00  0.00     0.031 C 
ATOM     20  C   UNL     1       0.657  -5.389   1.800  1.00  0.00     0.029 A 
ATOM     21  N   UNL     1       1.127  -6.406   3.707  1.00  0.00    -0.354 N 
ATOM     22  C   UNL     1       3.439  -4.086   6.830  1.00  0.00     0.074 A 
ATOM     23  C   UNL     1       2.777  -2.807   6.770  1.00  0.00     0.031 C 
ATOM     24  C   UNL     1      -0.155  -6.460   1.875  1.00  0.00     0.029 A 
ATOM     25  C   UNL     1       0.075  -7.115   3.148  1.00  0.00     0.049 A 
ATOM     26  H   UNL     1       1.653  -6.728   4.474  1.00  0.00     0.167 HD
ATOM     27  C   UNL     1       3.852  -4.795   7.915  1.00  0.00     0.031 A 
ATOM     28  C   UNL     1      -0.656  -8.075   3.759  1.00  0.00     0.031 A 
ATOM     29  C   UNL     1       4.605  -5.964   7.564  1.00  0.00     0.049 A 
ATOM     30  C   UNL     1       0.135  -8.567   4.912  1.00  0.00     0.074 A 
ATOM     31  C   UNL     1       5.809  -6.186   6.926  1.00  0.00     0.029 A 
ATOM     32  N   UNL     1       3.954  -7.173   7.571  1.00  0.00    -0.354 N 
ATOM     33  N   UNL     1       1.260  -9.213   4.782  1.00  0.00    -0.248 NA
ATOM     34  C   UNL     1      -0.070  -7.936   6.208  1.00  0.00     0.031 C 
ATOM     35  C   UNL     1       5.614  -7.381   6.175  1.00  0.00     0.029 A 
ATOM     36  C   UNL     1       4.319  -7.838   6.428  1.00  0.00     0.049 A 
ATOM     37  H   UNL     1       3.340  -7.502   8.267  1.00  0.00     0.167 HD
ATOM     38  C   UNL     1       2.074  -8.728   5.798  1.00  0.00     0.074 A 
ATOM     39  C   UNL     1       1.167  -8.030   6.707  1.00  0.00     0.031 C 
ATOM     40  C   UNL     1       3.433  -8.685   5.660  1.00  0.00     0.031 A 
BRANCH  27  41
ATOM     41  C   UNL     1       3.209  -4.613   9.263  1.00  0.00    -0.014 A 
ATOM     42  C   UNL     1       3.761  -5.243  10.389  1.00  0.00     0.009 A 
ATOM     43  C   UNL     1       1.918  -4.063   9.408  1.00  0.00     0.009 A 
ATOM     44  C   UNL     1       3.037  -5.347  11.584  1.00  0.00     0.001 A 
ATOM     45  C   UNL     1       1.212  -4.128  10.609  1.00  0.00     0.001 A 
ATOM     46  C   UNL     1       1.764  -4.792  11.692  1.00  0.00     0.000 A 
ENDBRANCH  27  41
BRANCH  28  47
ATOM     47  C   UNL     1      -2.118  -8.244   3.614  1.00  0.00    -0.014 A 
ATOM     48  C   UNL     1      -2.751  -9.437   3.979  1.00  0.00     0.009 A 
ATOM     49  C   UNL     1      -2.937  -7.139   3.297  1.00  0.00     0.009 A 
ATOM     50  C   UNL     1      -4.151  -9.515   4.032  1.00  0.00     0.001 A 
ATOM     51  C   UNL     1      -4.330  -7.218   3.339  1.00  0.00     0.001 A 
ATOM     52  C   UNL     1      -4.938  -8.407   3.718  1.00  0.00     0.000 A 
ENDBRANCH  28  47
BRANCH  40  53
ATOM     53  C   UNL     1       4.030  -9.328   4.429  1.00  0.00    -0.014 A 
ATOM     54  C   UNL     1       3.794  -8.826   3.135  1.00  0.00     0.009 A 
ATOM     55  C   UNL     1       4.986 -10.340   4.583  1.00  0.00     0.009 A 
ATOM     56  C   UNL     1       4.473  -9.342   2.026  1.00  0.00     0.001 A 
ATOM     57  C   UNL     1       5.678 -10.843   3.477  1.00  0.00     0.001 A 
ATOM     58  C   UNL     1       5.419 -10.348   2.200  1.00  0.00     0.000 A 
ENDBRANCH  40  53
ENDBRANCH  14  15
ENDBRANCH   7   9
ENDBRANCH   6   7
ENDBRANCH   5   6
ENDBRANCH   4   5
ENDBRANCH   3   4
ENDBRANCH   2   3
ENDBRANCH   1   2
BRANCH   1  59
ATOM     59  O   UNL     1       4.126   3.100  -1.218  1.00  0.00    -0.376 OA
BRANCH  59  60
ATOM     60  C   UNL     1       5.484   3.113  -0.815  1.00  0.00     0.202 C 
BRANCH  60  61
ATOM     61  C   UNL     1       5.652   3.685   0.594  1.00  0.00     0.261 C 
BRANCH  61  62
ATOM     62  O   UNL     1       4.479   3.490   1.413  1.00  0.00    -0.458 OA
BRANCH  62  63
ATOM     63  C   UNL     1       4.419   4.295   2.491  1.00  0.00     0.359 C 
ATOM     64  O   UNL     1       5.244   5.159   2.756  1.00  0.00    -0.244 OA
BRANCH  63  65
ATOM     65  C   UNL     1       3.250   4.035   3.377  1.00  0.00     0.179 A 
ATOM     66  N   UNL     1       3.550   4.305   4.694  1.00  0.00    -0.245 NA
ATOM     67  C   UNL     1       1.956   3.687   3.004  1.00  0.00     0.161 A 
ATOM     68  C   UNL     1       2.561   4.173   5.600  1.00  0.00     0.132 A 
ATOM     69  N   UNL     1       0.954   3.586   3.946  1.00  0.00    -0.247 NA
ATOM     70  C   UNL     1       1.283   3.822   5.232  1.00  0.00     0.132 A 
BRANCH  67  71
ATOM     71  C   UNL     1       1.483   3.165   1.702  1.00  0.00     0.276 C 
ATOM     72  O   UNL     1       1.177   1.966   1.672  1.00  0.00    -0.267 OA
ATOM     73  N   UNL     1       1.196   3.903   0.572  1.00  0.00    -0.321 N 
ATOM     74  H   UNL     1       0.411   3.580   0.072  1.00  0.00     0.170 HD
BRANCH  73  75
ATOM     75  C   UNL     1       1.812   5.027   0.002  1.00  0.00     0.043 A 
ATOM     76  C   UNL     1       2.532   5.975   0.711  1.00  0.00     0.028 A 
ATOM     77  C   UNL     1       1.858   5.041  -1.402  1.00  0.00     0.049 A 
ATOM     78  C   UNL     1       3.503   6.735   0.054  1.00  0.00     0.032 A 
ATOM     79  C   UNL     1       2.850   5.768  -2.068  1.00  0.00     0.068 A 
ATOM     80  C   UNL     1       3.724   6.558  -1.323  1.00  0.00     0.085 A 
ATOM     81  Cl  UNL     1       2.925   5.639  -3.789  1.00  0.00    -0.082 Cl
BRANCH  80  82
ATOM     82  N   UNL     1       4.944   7.026  -1.853  1.00  0.00    -0.220 N 
ATOM     83  C   UNL     1       5.608   8.180  -1.516  1.00  0.00     0.226 A 
ATOM     84  N   UNL     1       5.811   6.181  -2.465  1.00  0.00    -0.155 NA
ATOM     85  N   UNL     1       6.885   8.079  -1.803  1.00  0.00    -0.223 NA
ATOM     86  C   UNL     1       6.968   6.834  -2.346  1.00  0.00     0.246 A 
ENDBRANCH  80  82
ENDBRANCH  73  75
ENDBRANCH  67  71
ENDBRANCH  63  65
ENDBRANCH  62  63
ENDBRANCH  61  62
ENDBRANCH  60  61
ENDBRANCH  59  60
ENDBRANCH   1  59
TORSDOF 20
