REMARK SMILES O=C(OCCOCCOCCOC(=O)c1ccc(-c2c3nc(c(-c4ccccc4)c4ccc([nH]4)c(-c4ccccc4)c4nc(c(-c5ccccc5)c5ccc2[nH]5)C=C4)C=C3)cc1)c1ccc(NS(=O)(=O)Cc2c(Cl)cccc2Cl)cc1
REMARK SMILES IDX 7 1 6 2 5 3 4 4 3 5 2 6 1 7 63 8 64 9 81 10 65 11 80 12
REMARK SMILES IDX 66 13 67 14 68 16 69 17 70 18 71 19 72 20 73 21 78 22 74 23
REMARK SMILES IDX 75 24 77 25 79 26 76 27 8 28 9 29 10 30 11 31 12 32 13 33
REMARK SMILES IDX 14 34 15 35 16 36 62 37 17 38 61 39 18 40 19 41 20 42 55 43
REMARK SMILES IDX 21 44 60 45 54 46 56 47 22 48 59 49 53 50 52 51 23 53 45 54
REMARK SMILES IDX 30 55 44 56 31 57 34 58 43 59 57 60 32 61 33 62 42 64 58 65
REMARK SMILES IDX 35 66 24 67 25 68 29 69 26 70 28 71 27 72 46 73 47 74 51 75
REMARK SMILES IDX 48 76 50 77 49 78 36 79 37 80 41 81 38 82 40 83 39 84
REMARK H PARENT 67 15 56 52 34 63
REMARK Flexibility Score: inf
ROOT
ATOM      1  C   UNL     1       2.324  -0.418   1.607  1.00  0.00     0.188 C 
ENDROOT
BRANCH   1   2
ATOM      2  O   UNL     1       3.719  -0.142   1.488  1.00  0.00    -0.376 OA
BRANCH   2   3
ATOM      3  C   UNL     1       4.026   1.244   1.348  1.00  0.00     0.202 C 
BRANCH   3   4
ATOM      4  C   UNL     1       4.091   1.699  -0.123  1.00  0.00     0.261 C 
BRANCH   4   5
ATOM      5  O   UNL     1       2.843   1.471  -0.823  1.00  0.00    -0.460 OA
BRANCH   5   6
ATOM      6  C   UNL     1       2.519   0.573  -1.789  1.00  0.00     0.338 C 
ATOM      7  O   UNL     1       1.470   0.739  -2.411  1.00  0.00    -0.246 OA
BRANCH   6   8
ATOM      8  C   UNL     1       3.302  -0.669  -2.091  1.00  0.00     0.060 A 
ATOM      9  C   UNL     1       4.273  -1.178  -1.254  1.00  0.00     0.018 A 
ATOM     10  C   UNL     1       2.943  -1.473  -3.196  1.00  0.00     0.018 A 
ATOM     11  C   UNL     1       4.814  -2.436  -1.462  1.00  0.00     0.027 A 
ATOM     12  C   UNL     1       3.564  -2.724  -3.444  1.00  0.00     0.027 A 
ATOM     13  C   UNL     1       4.530  -3.199  -2.566  1.00  0.00     0.049 A 
BRANCH  13  14
ATOM     14  N   UNL     1       5.147  -4.486  -2.653  1.00  0.00    -0.283 N 
ATOM     15  H   UNL     1       4.598  -5.303  -2.681  1.00  0.00     0.180 HD
BRANCH  14  16
ATOM     16  S   UNL     1       6.843  -4.583  -2.708  1.00  0.00     0.237 S 
ATOM     17  O   UNL     1       7.082  -5.946  -3.146  1.00  0.00    -0.206 OA
ATOM     18  O   UNL     1       7.294  -3.477  -3.526  1.00  0.00    -0.206 OA
BRANCH  16  19
ATOM     19  C   UNL     1       7.472  -4.471  -0.960  1.00  0.00     0.198 C 
BRANCH  19  20
ATOM     20  C   UNL     1       8.097  -3.112  -0.683  1.00  0.00     0.006 A 
ATOM     21  C   UNL     1       9.189  -2.634  -1.424  1.00  0.00     0.046 A 
ATOM     22  C   UNL     1       7.597  -2.243   0.305  1.00  0.00     0.046 A 
ATOM     23  Cl  UNL     1      10.199  -3.705  -2.333  1.00  0.00    -0.084 Cl
ATOM     24  C   UNL     1       9.548  -1.280  -1.395  1.00  0.00     0.021 A 
ATOM     25  C   UNL     1       7.915  -0.879   0.310  1.00  0.00     0.021 A 
ATOM     26  Cl  UNL     1       6.619  -2.821   1.610  1.00  0.00    -0.084 Cl
ATOM     27  C   UNL     1       8.859  -0.387  -0.581  1.00  0.00     0.003 A 
ENDBRANCH  19  20
ENDBRANCH  16  19
ENDBRANCH  14  16
ENDBRANCH  13  14
ENDBRANCH   6   8
ENDBRANCH   5   6
ENDBRANCH   4   5
ENDBRANCH   3   4
ENDBRANCH   2   3
ENDBRANCH   1   2
BRANCH   1  28
ATOM     28  C   UNL     1       1.815  -0.384   3.051  1.00  0.00     0.188 C 
BRANCH  28  29
ATOM     29  O   UNL     1       2.797   0.084   3.973  1.00  0.00    -0.376 OA
BRANCH  29  30
ATOM     30  C   UNL     1       3.294  -0.932   4.846  1.00  0.00     0.202 C 
BRANCH  30  31
ATOM     31  C   UNL     1       4.271  -1.912   4.187  1.00  0.00     0.261 C 
BRANCH  31  32
ATOM     32  O   UNL     1       3.717  -2.722   3.130  1.00  0.00    -0.460 OA
BRANCH  32  33
ATOM     33  C   UNL     1       2.883  -3.708   3.489  1.00  0.00     0.338 C 
ATOM     34  O   UNL     1       2.413  -3.920   4.607  1.00  0.00    -0.246 OA
BRANCH  33  35
ATOM     35  C   UNL     1       2.644  -4.576   2.327  1.00  0.00     0.060 A 
ATOM     36  C   UNL     1       1.524  -4.392   1.508  1.00  0.00     0.016 A 
ATOM     37  C   UNL     1       3.505  -5.656   2.118  1.00  0.00     0.016 A 
ATOM     38  C   UNL     1       1.237  -5.325   0.502  1.00  0.00     0.010 A 
ATOM     39  C   UNL     1       3.220  -6.579   1.110  1.00  0.00     0.010 A 
ATOM     40  C   UNL     1       2.061  -6.446   0.322  1.00  0.00    -0.014 A 
BRANCH  40  41
ATOM     41  C   UNL     1       1.667  -7.578  -0.559  1.00  0.00     0.031 A 
ATOM     42  C   UNL     1       1.153  -8.845   0.072  1.00  0.00     0.074 A 
ATOM     43  C   UNL     1       1.822  -7.527  -1.893  1.00  0.00     0.049 A 
ATOM     44  N   UNL     1       0.916 -10.010  -0.475  1.00  0.00    -0.248 NA
ATOM     45  C   UNL     1       0.881  -8.786   1.516  1.00  0.00     0.031 C 
ATOM     46  C   UNL     1       2.251  -6.356  -2.649  1.00  0.00     0.029 A 
ATOM     47  N   UNL     1       1.665  -8.507  -2.845  1.00  0.00    -0.354 N 
ATOM     48  C   UNL     1       0.489 -10.831   0.562  1.00  0.00     0.074 A 
ATOM     49  C   UNL     1       0.524 -10.036   1.771  1.00  0.00     0.031 C 
ATOM     50  C   UNL     1       2.368  -6.694  -3.945  1.00  0.00     0.029 A 
ATOM     51  C   UNL     1       2.056  -8.114  -4.101  1.00  0.00     0.049 A 
ATOM     52  H   UNL     1       1.307  -9.402  -2.645  1.00  0.00     0.167 HD
ATOM     53  C   UNL     1       0.105 -12.129   0.516  1.00  0.00     0.031 A 
ATOM     54  C   UNL     1       2.184  -8.822  -5.241  1.00  0.00     0.031 A 
ATOM     55  C   UNL     1       0.084 -12.931  -0.679  1.00  0.00     0.049 A 
ATOM     56  C   UNL     1       1.834 -10.286  -5.262  1.00  0.00     0.074 A 
ATOM     57  C   UNL     1      -0.319 -14.247  -0.826  1.00  0.00     0.029 A 
ATOM     58  N   UNL     1       0.497 -12.497  -1.929  1.00  0.00    -0.354 N 
ATOM     59  N   UNL     1       1.403 -11.045  -4.284  1.00  0.00    -0.248 NA
ATOM     60  C   UNL     1       1.975 -10.987  -6.547  1.00  0.00     0.031 C 
ATOM     61  C   UNL     1      -0.088 -14.629  -2.152  1.00  0.00     0.029 A 
ATOM     62  C   UNL     1       0.391 -13.530  -2.846  1.00  0.00     0.049 A 
ATOM     63  H   UNL     1       0.819 -11.590  -2.134  1.00  0.00     0.167 HD
ATOM     64  C   UNL     1       1.189 -12.301  -4.841  1.00  0.00     0.074 A 
ATOM     65  C   UNL     1       1.536 -12.202  -6.243  1.00  0.00     0.031 C 
ATOM     66  C   UNL     1       0.734 -13.429  -4.242  1.00  0.00     0.031 A 
BRANCH  53  67
ATOM     67  C   UNL     1      -0.273 -12.777   1.820  1.00  0.00    -0.014 A 
ATOM     68  C   UNL     1      -1.442 -12.418   2.510  1.00  0.00     0.009 A 
ATOM     69  C   UNL     1       0.558 -13.769   2.365  1.00  0.00     0.009 A 
ATOM     70  C   UNL     1      -1.742 -13.000   3.743  1.00  0.00     0.001 A 
ATOM     71  C   UNL     1       0.238 -14.374   3.581  1.00  0.00     0.001 A 
ATOM     72  C   UNL     1      -0.903 -13.979   4.276  1.00  0.00     0.000 A 
ENDBRANCH  53  67
BRANCH  54  73
ATOM     73  C   UNL     1       2.693  -8.148  -6.464  1.00  0.00    -0.014 A 
ATOM     74  C   UNL     1       1.833  -7.865  -7.536  1.00  0.00     0.009 A 
ATOM     75  C   UNL     1       4.042  -7.767  -6.556  1.00  0.00     0.009 A 
ATOM     76  C   UNL     1       2.317  -7.224  -8.679  1.00  0.00     0.001 A 
ATOM     77  C   UNL     1       4.516  -7.103  -7.689  1.00  0.00     0.001 A 
ATOM     78  C   UNL     1       3.654  -6.836  -8.751  1.00  0.00     0.000 A 
ENDBRANCH  54  73
BRANCH  66  79
ATOM     79  C   UNL     1       0.529 -14.648  -5.101  1.00  0.00    -0.014 A 
ATOM     80  C   UNL     1       1.611 -15.397  -5.587  1.00  0.00     0.009 A 
ATOM     81  C   UNL     1      -0.777 -15.093  -5.364  1.00  0.00     0.009 A 
ATOM     82  C   UNL     1       1.388 -16.555  -6.338  1.00  0.00     0.001 A 
ATOM     83  C   UNL     1      -0.997 -16.265  -6.090  1.00  0.00     0.001 A 
ATOM     84  C   UNL     1       0.086 -16.991  -6.582  1.00  0.00     0.000 A 
ENDBRANCH  66  79
ENDBRANCH  40  41
ENDBRANCH  33  35
ENDBRANCH  32  33
ENDBRANCH  31  32
ENDBRANCH  30  31
ENDBRANCH  29  30
ENDBRANCH  28  29
ENDBRANCH   1  28
TORSDOF 21
