REMARK SMILES Cc1ccc(C(=O)Nc2cccc(F)c2C(=O)OCCOCCOCCOC(=O)c2ccc(-c3c4nc(c(-c5ccccc5)c5ccc([nH]5)c(-c5ccccc5)c5nc(c(-c6ccccc6)c6ccc3[nH]6)C=C5)C=C4)cc2)c(F)c1
REMARK SMILES IDX 22 1 21 2 20 3 19 4 18 5 16 6 17 7 15 8 9 9 10 10 11 11
REMARK SMILES IDX 13 12 12 13 14 14 8 15 6 16 7 17 5 19 1 20 2 21 3 22 80 23
REMARK SMILES IDX 4 24 78 25 79 26 23 27 24 28 25 29 26 30 27 31 28 32 29 33
REMARK SMILES IDX 30 34 31 35 77 36 32 37 76 38 33 39 34 40 35 41 70 42 36 43
REMARK SMILES IDX 75 44 69 45 71 46 37 47 74 48 68 49 67 50 38 52 60 53 45 54
REMARK SMILES IDX 59 55 46 56 49 57 58 58 72 59 47 60 48 61 57 63 73 64 50 65
REMARK SMILES IDX 39 66 40 67 44 68 41 69 43 70 42 71 61 72 62 73 66 74 63 75
REMARK SMILES IDX 65 76 64 77 51 78 52 79 56 80 53 81 55 82 54 83
REMARK H PARENT 8 18 71 51 49 62
REMARK Flexibility Score: inf
ROOT
ATOM      1  C   UNL     1      -3.747  -6.589  -0.685  1.00  0.00     0.188 C 
ENDROOT
BRANCH   1   2
ATOM      2  O   UNL     1      -4.518  -7.001  -1.797  1.00  0.00    -0.376 OA
BRANCH   2   3
ATOM      3  C   UNL     1      -3.879  -7.395  -3.005  1.00  0.00     0.202 C 
BRANCH   3   4
ATOM      4  C   UNL     1      -2.722  -6.572  -3.573  1.00  0.00     0.261 C 
BRANCH   4   5
ATOM      5  O   UNL     1      -1.651  -6.407  -2.633  1.00  0.00    -0.460 OA
BRANCH   5   6
ATOM      6  C   UNL     1      -1.183  -5.147  -2.504  1.00  0.00     0.343 C 
ATOM      7  O   UNL     1      -1.516  -4.168  -3.163  1.00  0.00    -0.246 OA
BRANCH   6   8
ATOM      8  C   UNL     1      -0.386  -5.040  -1.276  1.00  0.00     0.119 A 
ATOM      9  C   UNL     1      -0.708  -4.076  -0.301  1.00  0.00     0.059 A 
ATOM     10  C   UNL     1       0.076  -3.989   0.858  1.00  0.00     0.027 A 
ATOM     11  C   UNL     1       1.194  -4.814   1.017  1.00  0.00     0.005 A 
ATOM     12  C   UNL     1       0.742  -5.842  -1.118  1.00  0.00     0.139 A 
ATOM     13  C   UNL     1       1.534  -5.730   0.021  1.00  0.00     0.040 A 
ATOM     14  F   UNL     1       1.105  -6.711  -2.071  1.00  0.00    -0.206 F 
BRANCH   9  15
ATOM     15  N   UNL     1      -1.808  -3.217  -0.490  1.00  0.00    -0.321 N 
ATOM     16  C   UNL     1      -1.950  -1.868  -0.235  1.00  0.00     0.258 C 
ATOM     17  O   UNL     1      -3.089  -1.405  -0.217  1.00  0.00    -0.269 OA
ATOM     18  H   UNL     1      -2.608  -3.651  -0.865  1.00  0.00     0.170 HD
BRANCH  16  19
ATOM     19  C   UNL     1      -0.766  -0.965  -0.158  1.00  0.00     0.075 A 
ATOM     20  C   UNL     1       2.609   1.729   0.067  1.00  0.00     0.044 C 
ATOM     21  C   UNL     1       1.436   0.800  -0.011  1.00  0.00    -0.048 A 
ATOM     22  C   UNL     1       1.568  -0.441  -0.632  1.00  0.00     0.004 A 
ATOM     23  C   UNL     1       0.178   1.186   0.466  1.00  0.00     0.043 A 
ATOM     24  C   UNL     1       0.469  -1.294  -0.738  1.00  0.00     0.017 A 
ATOM     25  C   UNL     1      -0.904   0.304   0.406  1.00  0.00     0.136 A 
ATOM     26  F   UNL     1      -2.076   0.726   0.902  1.00  0.00    -0.206 F 
ENDBRANCH  16  19
ENDBRANCH   9  15
ENDBRANCH   6   8
ENDBRANCH   5   6
ENDBRANCH   4   5
ENDBRANCH   3   4
ENDBRANCH   2   3
ENDBRANCH   1   2
BRANCH   1  27
ATOM     27  C   UNL     1      -2.698  -7.529  -0.055  1.00  0.00     0.188 C 
BRANCH  27  28
ATOM     28  O   UNL     1      -2.536  -8.859  -0.493  1.00  0.00    -0.376 OA
BRANCH  28  29
ATOM     29  C   UNL     1      -3.640  -9.745  -0.520  1.00  0.00     0.202 C 
BRANCH  29  30
ATOM     30  C   UNL     1      -4.655  -9.828   0.626  1.00  0.00     0.261 C 
BRANCH  30  31
ATOM     31  O   UNL     1      -5.040  -8.580   1.214  1.00  0.00    -0.460 OA
BRANCH  31  32
ATOM     32  C   UNL     1      -4.619  -8.400   2.486  1.00  0.00     0.338 C 
ATOM     33  O   UNL     1      -3.964  -9.177   3.171  1.00  0.00    -0.246 OA
BRANCH  32  34
ATOM     34  C   UNL     1      -4.905  -7.023   2.920  1.00  0.00     0.060 A 
ATOM     35  C   UNL     1      -3.823  -6.220   3.303  1.00  0.00     0.016 A 
ATOM     36  C   UNL     1      -6.215  -6.553   3.029  1.00  0.00     0.016 A 
ATOM     37  C   UNL     1      -4.052  -4.957   3.842  1.00  0.00     0.010 A 
ATOM     38  C   UNL     1      -6.443  -5.290   3.584  1.00  0.00     0.010 A 
ATOM     39  C   UNL     1      -5.364  -4.504   4.030  1.00  0.00    -0.014 A 
BRANCH  39  40
ATOM     40  C   UNL     1      -5.588  -3.288   4.847  1.00  0.00     0.031 A 
ATOM     41  C   UNL     1      -5.928  -3.439   6.305  1.00  0.00     0.074 A 
ATOM     42  C   UNL     1      -5.424  -2.062   4.322  1.00  0.00     0.049 A 
ATOM     43  N   UNL     1      -6.075  -2.518   7.223  1.00  0.00    -0.248 NA
ATOM     44  C   UNL     1      -6.122  -4.814   6.792  1.00  0.00     0.031 C 
ATOM     45  C   UNL     1      -5.064  -1.776   2.935  1.00  0.00     0.029 A 
ATOM     46  N   UNL     1      -5.533  -0.827   4.908  1.00  0.00    -0.354 N 
ATOM     47  C   UNL     1      -6.372  -3.201   8.396  1.00  0.00     0.074 A 
ATOM     48  C   UNL     1      -6.426  -4.608   8.064  1.00  0.00     0.031 C 
ATOM     49  C   UNL     1      -4.985  -0.444   2.775  1.00  0.00     0.029 A 
ATOM     50  C   UNL     1      -5.306   0.212   4.041  1.00  0.00     0.049 A 
ATOM     51  H   UNL     1      -5.754  -0.698   5.859  1.00  0.00     0.167 HD
ATOM     52  C   UNL     1      -6.569  -2.706   9.642  1.00  0.00     0.031 A 
ATOM     53  C   UNL     1      -5.356   1.542   4.244  1.00  0.00     0.031 A 
ATOM     54  C   UNL     1      -6.549  -1.306   9.972  1.00  0.00     0.049 A 
ATOM     55  C   UNL     1      -5.644   2.076   5.621  1.00  0.00     0.074 A 
ATOM     56  C   UNL     1      -6.725  -0.707  11.208  1.00  0.00     0.029 A 
ATOM     57  N   UNL     1      -6.357  -0.282   9.056  1.00  0.00    -0.354 N 
ATOM     58  N   UNL     1      -5.871   1.421   6.734  1.00  0.00    -0.248 NA
ATOM     59  C   UNL     1      -5.657   3.539   5.773  1.00  0.00     0.031 C 
ATOM     60  C   UNL     1      -6.697   0.681  11.030  1.00  0.00     0.029 A 
ATOM     61  C   UNL     1      -6.437   0.945   9.694  1.00  0.00     0.049 A 
ATOM     62  H   UNL     1      -6.188  -0.409   8.095  1.00  0.00     0.167 HD
ATOM     63  C   UNL     1      -6.024   2.387   7.721  1.00  0.00     0.074 A 
ATOM     64  C   UNL     1      -5.852   3.673   7.078  1.00  0.00     0.031 C 
ATOM     65  C   UNL     1      -6.275   2.221   9.044  1.00  0.00     0.031 A 
BRANCH  52  66
ATOM     66  C   UNL     1      -6.862  -3.701  10.731  1.00  0.00    -0.014 A 
ATOM     67  C   UNL     1      -5.875  -4.585  11.198  1.00  0.00     0.009 A 
ATOM     68  C   UNL     1      -8.145  -3.758  11.296  1.00  0.00     0.009 A 
ATOM     69  C   UNL     1      -6.181  -5.536  12.173  1.00  0.00     0.001 A 
ATOM     70  C   UNL     1      -8.440  -4.690  12.292  1.00  0.00     0.001 A 
ATOM     71  C   UNL     1      -7.462  -5.587  12.721  1.00  0.00     0.000 A 
ENDBRANCH  52  66
BRANCH  53  72
ATOM     72  C   UNL     1      -5.125   2.464   3.102  1.00  0.00    -0.014 A 
ATOM     73  C   UNL     1      -3.946   3.217   3.011  1.00  0.00     0.009 A 
ATOM     74  C   UNL     1      -6.086   2.580   2.086  1.00  0.00     0.009 A 
ATOM     75  C   UNL     1      -3.740   4.080   1.931  1.00  0.00     0.001 A 
ATOM     76  C   UNL     1      -5.867   3.423   0.995  1.00  0.00     0.001 A 
ATOM     77  C   UNL     1      -4.697   4.176   0.921  1.00  0.00     0.000 A 
ENDBRANCH  53  72
BRANCH  65  78
ATOM     78  C   UNL     1      -6.344   3.461   9.895  1.00  0.00    -0.014 A 
ATOM     79  C   UNL     1      -7.421   4.356   9.804  1.00  0.00     0.009 A 
ATOM     80  C   UNL     1      -5.327   3.717  10.829  1.00  0.00     0.009 A 
ATOM     81  C   UNL     1      -7.458   5.501  10.604  1.00  0.00     0.001 A 
ATOM     82  C   UNL     1      -5.381   4.846  11.648  1.00  0.00     0.001 A 
ATOM     83  C   UNL     1      -6.441   5.743  11.527  1.00  0.00     0.000 A 
ENDBRANCH  65  78
ENDBRANCH  39  40
ENDBRANCH  32  34
ENDBRANCH  31  32
ENDBRANCH  30  31
ENDBRANCH  29  30
ENDBRANCH  28  29
ENDBRANCH  27  28
ENDBRANCH   1  27
TORSDOF 19
