REMARK SMILES C[C@H]([N@H+](CCC(=O)OCCOCCOCCOC(=O)c1ccc(-c2c3nc(c(-c4ccccc4)c4ccc([nH]4)c(-c4ccccc4)c4nc(c(-c5ccccc5)c5ccc2[nH]5)C=C4)C=C3)cc1)C(C)(C)C)C1(C)CC1
REMARK SMILES IDX 12 1 11 2 10 3 9 4 8 5 6 6 7 7 5 8 4 9 3 10 2 12 1 13 72 14
REMARK SMILES IDX 73 15 74 16 75 17 68 18 69 19 70 20 71 21 13 22 14 23 15 24
REMARK SMILES IDX 16 25 17 26 18 27 19 28 20 29 21 30 67 31 22 32 66 33 23 34
REMARK SMILES IDX 24 35 25 36 60 37 26 38 65 39 59 40 61 41 27 42 64 43 58 44
REMARK SMILES IDX 57 45 28 47 50 48 35 49 49 50 36 51 39 52 48 53 62 54 37 55
REMARK SMILES IDX 38 56 47 58 63 59 40 60 29 61 30 62 34 63 31 64 33 65 32 66
REMARK SMILES IDX 51 67 52 68 56 69 53 70 55 71 54 72 41 73 42 74 46 75 43 76
REMARK SMILES IDX 45 77 44 78
REMARK H PARENT 3 11 61 46 39 57
REMARK Flexibility Score: inf
ROOT
ATOM      1  C   UNL     1       0.864   4.678  -0.455  1.00  0.00     0.188 C 
ENDROOT
BRANCH   1   2
ATOM      2  O   UNL     1       1.842   5.379  -1.214  1.00  0.00    -0.376 OA
BRANCH   2   3
ATOM      3  C   UNL     1       2.805   4.511  -1.817  1.00  0.00     0.202 C 
BRANCH   3   4
ATOM      4  C   UNL     1       3.881   4.035  -0.817  1.00  0.00     0.261 C 
BRANCH   4   5
ATOM      5  O   UNL     1       3.626   2.708  -0.286  1.00  0.00    -0.463 OA
BRANCH   5   6
ATOM      6  C   UNL     1       2.960   2.524   0.883  1.00  0.00     0.311 C 
ATOM      7  O   UNL     1       2.666   3.421   1.663  1.00  0.00    -0.252 OA
BRANCH   6   8
ATOM      8  C   UNL     1       2.588   1.057   1.092  1.00  0.00     0.184 C 
BRANCH   8   9
ATOM      9  C   UNL     1       1.229   0.596   0.491  1.00  0.00     0.274 C 
BRANCH   9  10
ATOM     10  N   UNL     1       1.268  -0.509  -0.500  1.00  0.00    -0.328 N 
ATOM     11  H   UNL     1       2.196  -0.859  -0.266  1.00  0.00     0.348 HD
BRANCH  10  12
ATOM     12  C   UNL     1       0.443  -1.708  -0.222  1.00  0.00     0.187 C 
ATOM     13  C   UNL     1       1.177  -2.575   0.820  1.00  0.00     0.076 C 
BRANCH  12  14
ATOM     14  C   UNL     1      -1.072  -1.589   0.087  1.00  0.00     0.019 C 
ATOM     15  C   UNL     1      -1.480  -1.660   1.546  1.00  0.00     0.018 C 
ATOM     16  C   UNL     1      -2.086  -0.910  -0.824  1.00  0.00     0.013 C 
ATOM     17  C   UNL     1      -1.967  -2.395  -0.859  1.00  0.00     0.013 C 
ENDBRANCH  12  14
ENDBRANCH  10  12
BRANCH  10  18
ATOM     18  C   UNL     1       1.519  -0.178  -1.935  1.00  0.00     0.089 C 
ATOM     19  C   UNL     1       2.710   0.769  -2.073  1.00  0.00     0.078 C 
ATOM     20  C   UNL     1       1.918  -1.401  -2.797  1.00  0.00     0.078 C 
ATOM     21  C   UNL     1       0.328   0.525  -2.610  1.00  0.00     0.078 C 
ENDBRANCH  10  18
ENDBRANCH   9  10
ENDBRANCH   8   9
ENDBRANCH   6   8
ENDBRANCH   5   6
ENDBRANCH   4   5
ENDBRANCH   3   4
ENDBRANCH   2   3
ENDBRANCH   1   2
BRANCH   1  22
ATOM     22  C   UNL     1      -0.457   4.561  -1.189  1.00  0.00     0.188 C 
BRANCH  22  23
ATOM     23  O   UNL     1      -0.349   3.711  -2.332  1.00  0.00    -0.376 OA
BRANCH  23  24
ATOM     24  C   UNL     1      -1.284   4.023  -3.369  1.00  0.00     0.202 C 
BRANCH  24  25
ATOM     25  C   UNL     1      -2.736   3.608  -3.090  1.00  0.00     0.261 C 
BRANCH  25  26
ATOM     26  O   UNL     1      -3.256   4.332  -1.963  1.00  0.00    -0.460 OA
BRANCH  26  27
ATOM     27  C   UNL     1      -3.533   3.591  -0.856  1.00  0.00     0.338 C 
ATOM     28  O   UNL     1      -3.606   2.385  -0.778  1.00  0.00    -0.246 OA
BRANCH  27  29
ATOM     29  C   UNL     1      -3.500   4.497   0.326  1.00  0.00     0.060 A 
ATOM     30  C   UNL     1      -3.013   3.981   1.538  1.00  0.00     0.016 A 
ATOM     31  C   UNL     1      -3.844   5.848   0.227  1.00  0.00     0.016 A 
ATOM     32  C   UNL     1      -2.917   4.801   2.664  1.00  0.00     0.010 A 
ATOM     33  C   UNL     1      -3.751   6.667   1.351  1.00  0.00     0.010 A 
ATOM     34  C   UNL     1      -3.328   6.136   2.583  1.00  0.00    -0.014 A 
BRANCH  34  35
ATOM     35  C   UNL     1      -3.591   6.922   3.809  1.00  0.00     0.031 A 
ATOM     36  C   UNL     1      -5.011   6.968   4.302  1.00  0.00     0.074 A 
ATOM     37  C   UNL     1      -2.628   7.616   4.438  1.00  0.00     0.049 A 
ATOM     38  N   UNL     1      -5.543   7.697   5.247  1.00  0.00    -0.248 NA
ATOM     39  C   UNL     1      -5.964   6.080   3.612  1.00  0.00     0.031 C 
ATOM     40  C   UNL     1      -1.210   7.621   4.087  1.00  0.00     0.029 A 
ATOM     41  N   UNL     1      -2.717   8.477   5.504  1.00  0.00    -0.354 N 
ATOM     42  C   UNL     1      -6.894   7.373   5.247  1.00  0.00     0.074 A 
ATOM     43  C   UNL     1      -7.106   6.407   4.193  1.00  0.00     0.031 C 
ATOM     44  C   UNL     1      -0.562   8.462   4.913  1.00  0.00     0.029 A 
ATOM     45  C   UNL     1      -1.526   9.081   5.822  1.00  0.00     0.049 A 
ATOM     46  H   UNL     1      -3.555   8.645   5.993  1.00  0.00     0.167 HD
ATOM     47  C   UNL     1      -7.876   7.838   6.053  1.00  0.00     0.031 A 
ATOM     48  C   UNL     1      -1.258  10.045   6.725  1.00  0.00     0.031 A 
ATOM     49  C   UNL     1      -7.668   8.811   7.088  1.00  0.00     0.049 A 
ATOM     50  C   UNL     1      -2.378  10.600   7.569  1.00  0.00     0.074 A 
ATOM     51  C   UNL     1      -8.591   9.342   7.970  1.00  0.00     0.029 A 
ATOM     52  N   UNL     1      -6.447   9.402   7.373  1.00  0.00    -0.354 N 
ATOM     53  N   UNL     1      -3.649  10.277   7.577  1.00  0.00    -0.248 NA
ATOM     54  C   UNL     1      -2.022  11.654   8.531  1.00  0.00     0.031 C 
ATOM     55  C   UNL     1      -7.937  10.296   8.757  1.00  0.00     0.029 A 
ATOM     56  C   UNL     1      -6.596  10.311   8.405  1.00  0.00     0.049 A 
ATOM     57  H   UNL     1      -5.601   9.206   6.910  1.00  0.00     0.167 HD
ATOM     58  C   UNL     1      -4.236  11.059   8.566  1.00  0.00     0.074 A 
ATOM     59  C   UNL     1      -3.181  11.868   9.139  1.00  0.00     0.031 C 
ATOM     60  C   UNL     1      -5.530  11.100   8.967  1.00  0.00     0.031 A 
BRANCH  47  61
ATOM     61  C   UNL     1      -9.265   7.325   5.802  1.00  0.00    -0.014 A 
ATOM     62  C   UNL     1      -9.616   5.995   6.088  1.00  0.00     0.009 A 
ATOM     63  C   UNL     1     -10.234   8.182   5.261  1.00  0.00     0.009 A 
ATOM     64  C   UNL     1     -10.897   5.524   5.795  1.00  0.00     0.001 A 
ATOM     65  C   UNL     1     -11.524   7.717   4.998  1.00  0.00     0.001 A 
ATOM     66  C   UNL     1     -11.850   6.386   5.254  1.00  0.00     0.000 A 
ENDBRANCH  47  61
BRANCH  48  67
ATOM     67  C   UNL     1       0.127  10.565   6.875  1.00  0.00    -0.014 A 
ATOM     68  C   UNL     1       0.872  10.289   8.032  1.00  0.00     0.009 A 
ATOM     69  C   UNL     1       0.706  11.358   5.871  1.00  0.00     0.009 A 
ATOM     70  C   UNL     1       2.157  10.816   8.191  1.00  0.00     0.001 A 
ATOM     71  C   UNL     1       2.001  11.860   6.021  1.00  0.00     0.001 A 
ATOM     72  C   UNL     1       2.722  11.596   7.184  1.00  0.00     0.000 A 
ENDBRANCH  48  67
BRANCH  60  73
ATOM     73  C   UNL     1      -5.874  12.008  10.115  1.00  0.00    -0.014 A 
ATOM     74  C   UNL     1      -5.921  13.401   9.960  1.00  0.00     0.009 A 
ATOM     75  C   UNL     1      -6.221  11.448  11.355  1.00  0.00     0.009 A 
ATOM     76  C   UNL     1      -6.283  14.217  11.034  1.00  0.00     0.001 A 
ATOM     77  C   UNL     1      -6.611  12.264  12.418  1.00  0.00     0.001 A 
ATOM     78  C   UNL     1      -6.633  13.648  12.259  1.00  0.00     0.000 A 
ENDBRANCH  60  73
ENDBRANCH  34  35
ENDBRANCH  27  29
ENDBRANCH  26  27
ENDBRANCH  25  26
ENDBRANCH  24  25
ENDBRANCH  23  24
ENDBRANCH  22  23
ENDBRANCH   1  22
TORSDOF 22
