REMARK SMILES O=C(OCCOCCOCCOC(=O)c1nn(Cc2ccc(F)cc2)c2c1CN(C(=O)[C@H]1CC1(F)F)CC2)c1ccc(-c2c3nc(c(-c4ccccc4)c4ccc([nH]4)c(-c4ccccc4)c4nc(c(-c5ccccc5)c5ccc2[nH]5)C=C4)C=C3)cc1
REMARK SMILES IDX 7 1 6 2 5 3 4 4 3 5 2 6 1 7 39 8 40 9 86 10 41 11 85 12
REMARK SMILES IDX 42 13 43 14 44 15 79 16 45 17 84 18 78 19 80 20 46 21 83 22
REMARK SMILES IDX 77 23 76 24 47 26 69 27 54 28 68 29 55 30 58 31 67 32 81 33
REMARK SMILES IDX 56 34 57 35 66 37 82 38 59 39 48 40 49 41 53 42 50 43 52 44
REMARK SMILES IDX 51 45 70 46 71 47 75 48 72 49 74 50 73 51 60 52 61 53 65 54
REMARK SMILES IDX 62 55 64 56 63 57 8 58 9 59 10 60 11 61 12 62 13 63 14 64
REMARK SMILES IDX 15 65 16 66 27 67 17 68 26 69 28 70 38 71 29 72 37 73 18 74
REMARK SMILES IDX 19 75 20 76 25 77 21 78 24 79 22 80 23 81 30 82 31 83 32 84
REMARK SMILES IDX 33 85 34 86 35 87 36 88
REMARK H PARENT 80 25 58 36
REMARK Flexibility Score: inf
ROOT
ATOM      1  C   UNL     1      -7.308   1.580  -1.704  1.00  0.00     0.188 C 
ENDROOT
BRANCH   1   2
ATOM      2  O   UNL     1      -7.508   2.580  -0.713  1.00  0.00    -0.376 OA
BRANCH   2   3
ATOM      3  C   UNL     1      -7.683   3.935  -1.081  1.00  0.00     0.202 C 
BRANCH   3   4
ATOM      4  C   UNL     1      -6.433   4.701  -1.487  1.00  0.00     0.261 C 
BRANCH   4   5
ATOM      5  O   UNL     1      -5.725   4.081  -2.564  1.00  0.00    -0.460 OA
BRANCH   5   6
ATOM      6  C   UNL     1      -4.562   3.401  -2.567  1.00  0.00     0.338 C 
ATOM      7  O   UNL     1      -3.971   3.275  -3.639  1.00  0.00    -0.246 OA
BRANCH   6   8
ATOM      8  C   UNL     1      -3.990   2.676  -1.389  1.00  0.00     0.060 A 
ATOM      9  C   UNL     1      -4.175   2.990  -0.042  1.00  0.00     0.016 A 
ATOM     10  C   UNL     1      -3.120   1.611  -1.703  1.00  0.00     0.016 A 
ATOM     11  C   UNL     1      -3.409   2.369   0.943  1.00  0.00     0.010 A 
ATOM     12  C   UNL     1      -2.371   0.968  -0.720  1.00  0.00     0.010 A 
ATOM     13  C   UNL     1      -2.457   1.410   0.598  1.00  0.00    -0.014 A 
BRANCH  13  14
ATOM     14  C   UNL     1      -1.493   1.029   1.628  1.00  0.00     0.031 A 
ATOM     15  C   UNL     1      -1.971   0.332   2.852  1.00  0.00     0.074 A 
ATOM     16  C   UNL     1      -0.175   1.286   1.503  1.00  0.00     0.049 A 
ATOM     17  N   UNL     1      -1.854   0.709   4.087  1.00  0.00    -0.248 NA
ATOM     18  C   UNL     1      -2.648  -0.959   2.678  1.00  0.00     0.031 C 
ATOM     19  C   UNL     1       0.552   1.708   0.303  1.00  0.00     0.029 A 
ATOM     20  N   UNL     1       0.811   1.128   2.434  1.00  0.00    -0.354 N 
ATOM     21  C   UNL     1      -2.323  -0.348   4.863  1.00  0.00     0.074 A 
ATOM     22  C   UNL     1      -2.849  -1.329   3.943  1.00  0.00     0.031 C 
ATOM     23  C   UNL     1       1.877   1.559   0.516  1.00  0.00     0.029 A 
ATOM     24  C   UNL     1       2.086   1.179   1.903  1.00  0.00     0.049 A 
ATOM     25  H   UNL     1       0.631   0.991   3.392  1.00  0.00     0.167 HD
ATOM     26  C   UNL     1      -2.138  -0.427   6.210  1.00  0.00     0.031 A 
ATOM     27  C   UNL     1       3.244   0.884   2.532  1.00  0.00     0.031 A 
ATOM     28  C   UNL     1      -1.775   0.823   6.809  1.00  0.00     0.049 A 
ATOM     29  C   UNL     1       3.034   0.983   3.990  1.00  0.00     0.074 A 
ATOM     30  C   UNL     1      -2.386   2.049   6.971  1.00  0.00     0.029 A 
ATOM     31  N   UNL     1      -0.462   1.010   7.159  1.00  0.00    -0.354 N 
ATOM     32  N   UNL     1       2.840   2.103   4.622  1.00  0.00    -0.248 NA
ATOM     33  C   UNL     1       2.731  -0.219   4.750  1.00  0.00     0.031 C 
ATOM     34  C   UNL     1      -1.325   3.002   6.980  1.00  0.00     0.029 A 
ATOM     35  C   UNL     1      -0.132   2.296   6.812  1.00  0.00     0.049 A 
ATOM     36  H   UNL     1       0.132   0.347   7.580  1.00  0.00     0.167 HD
ATOM     37  C   UNL     1       2.020   1.774   5.689  1.00  0.00     0.074 A 
ATOM     38  C   UNL     1       2.121   0.325   5.806  1.00  0.00     0.031 C 
ATOM     39  C   UNL     1       1.121   2.672   6.192  1.00  0.00     0.031 A 
BRANCH  26  40
ATOM     40  C   UNL     1      -2.051  -1.724   6.967  1.00  0.00    -0.014 A 
ATOM     41  C   UNL     1      -2.170  -1.725   8.368  1.00  0.00     0.009 A 
ATOM     42  C   UNL     1      -1.614  -2.917   6.361  1.00  0.00     0.009 A 
ATOM     43  C   UNL     1      -1.864  -2.865   9.123  1.00  0.00     0.001 A 
ATOM     44  C   UNL     1      -1.343  -4.067   7.109  1.00  0.00     0.001 A 
ATOM     45  C   UNL     1      -1.456  -4.037   8.493  1.00  0.00     0.000 A 
ENDBRANCH  26  40
BRANCH  27  46
ATOM     46  C   UNL     1       4.466   0.324   1.927  1.00  0.00    -0.014 A 
ATOM     47  C   UNL     1       5.712   0.449   2.554  1.00  0.00     0.009 A 
ATOM     48  C   UNL     1       4.366  -0.541   0.819  1.00  0.00     0.009 A 
ATOM     49  C   UNL     1       6.816  -0.281   2.095  1.00  0.00     0.001 A 
ATOM     50  C   UNL     1       5.468  -1.262   0.357  1.00  0.00     0.001 A 
ATOM     51  C   UNL     1       6.692  -1.140   1.004  1.00  0.00     0.000 A 
ENDBRANCH  27  46
BRANCH  39  52
ATOM     52  C   UNL     1       1.261   4.114   5.767  1.00  0.00    -0.014 A 
ATOM     53  C   UNL     1       1.157   4.512   4.423  1.00  0.00     0.009 A 
ATOM     54  C   UNL     1       1.360   5.111   6.749  1.00  0.00     0.009 A 
ATOM     55  C   UNL     1       1.198   5.863   4.067  1.00  0.00     0.001 A 
ATOM     56  C   UNL     1       1.377   6.464   6.395  1.00  0.00     0.001 A 
ATOM     57  C   UNL     1       1.304   6.839   5.054  1.00  0.00     0.000 A 
ENDBRANCH  39  52
ENDBRANCH  13  14
ENDBRANCH   6   8
ENDBRANCH   5   6
ENDBRANCH   4   5
ENDBRANCH   3   4
ENDBRANCH   2   3
ENDBRANCH   1   2
BRANCH   1  58
ATOM     58  C   UNL     1      -7.737   1.734  -3.175  1.00  0.00     0.188 C 
BRANCH  58  59
ATOM     59  O   UNL     1      -8.971   2.346  -3.505  1.00  0.00    -0.376 OA
BRANCH  59  60
ATOM     60  C   UNL     1     -10.124   2.094  -2.719  1.00  0.00     0.202 C 
BRANCH  60  61
ATOM     61  C   UNL     1     -10.723   0.692  -2.795  1.00  0.00     0.261 C 
BRANCH  61  62
ATOM     62  O   UNL     1     -10.062  -0.229  -1.915  1.00  0.00    -0.458 OA
BRANCH  62  63
ATOM     63  C   UNL     1      -9.318  -1.214  -2.486  1.00  0.00     0.359 C 
ATOM     64  O   UNL     1      -9.078  -1.305  -3.693  1.00  0.00    -0.244 OA
BRANCH  63  65
ATOM     65  C   UNL     1      -8.739  -2.121  -1.498  1.00  0.00     0.175 A 
ATOM     66  N   UNL     1      -9.505  -2.741  -0.577  1.00  0.00    -0.165 NA
ATOM     67  C   UNL     1      -7.377  -2.501  -1.359  1.00  0.00     0.028 A 
ATOM     68  N   UNL     1      -8.652  -3.527   0.117  1.00  0.00    -0.264 N 
ATOM     69  C   UNL     1      -7.362  -3.386  -0.302  1.00  0.00     0.046 A 
ATOM     70  C   UNL     1      -6.165  -2.077  -2.117  1.00  0.00     0.159 C 
ATOM     71  C   UNL     1      -6.149  -4.076   0.201  1.00  0.00     0.078 C 
ATOM     72  N   UNL     1      -5.016  -2.916  -1.720  1.00  0.00    -0.337 N 
ATOM     73  C   UNL     1      -4.912  -3.301  -0.296  1.00  0.00     0.126 C 
BRANCH  68  74
ATOM     74  C   UNL     1      -9.188  -4.504   1.059  1.00  0.00     0.180 C 
BRANCH  74  75
ATOM     75  C   UNL     1      -9.684  -3.875   2.338  1.00  0.00    -0.026 A 
ATOM     76  C   UNL     1     -10.869  -3.118   2.343  1.00  0.00     0.008 A 
ATOM     77  C   UNL     1      -8.992  -4.061   3.546  1.00  0.00     0.008 A 
ATOM     78  C   UNL     1     -11.354  -2.562   3.526  1.00  0.00     0.039 A 
ATOM     79  C   UNL     1      -9.482  -3.506   4.731  1.00  0.00     0.039 A 
ATOM     80  C   UNL     1     -10.658  -2.764   4.710  1.00  0.00     0.123 A 
ATOM     81  F   UNL     1     -11.127  -2.240   5.850  1.00  0.00    -0.207 F 
ENDBRANCH  74  75
ENDBRANCH  68  74
BRANCH  72  82
ATOM     82  C   UNL     1      -4.022  -3.123  -2.666  1.00  0.00     0.232 C 
ATOM     83  O   UNL     1      -4.006  -2.567  -3.757  1.00  0.00    -0.274 OA
BRANCH  82  84
ATOM     84  C   UNL     1      -2.922  -4.038  -2.303  1.00  0.00     0.154 C 
ATOM     85  C   UNL     1      -3.177  -5.535  -2.215  1.00  0.00     0.097 C 
ATOM     86  C   UNL     1      -2.363  -4.966  -3.315  1.00  0.00     0.260 C 
ATOM     87  F   UNL     1      -2.832  -5.057  -4.603  1.00  0.00    -0.206 F 
ATOM     88  F   UNL     1      -1.013  -5.235  -3.349  1.00  0.00    -0.206 F 
ENDBRANCH  82  84
ENDBRANCH  72  82
ENDBRANCH  63  65
ENDBRANCH  62  63
ENDBRANCH  61  62
ENDBRANCH  60  61
ENDBRANCH  59  60
ENDBRANCH  58  59
ENDBRANCH   1  58
TORSDOF 21
