REMARK SMILES C[C@@H](C(=O)OCCOCCOCCOC(=O)c1ccc(-c2c3nc(c(-c4ccccc4)c4ccc([nH]4)c(-c4ccccc4)c4nc(c(-c5ccccc5)c5ccc2[nH]5)C=C4)C=C3)cc1)N1C(=O)/C(=C/c2nc3ccccc3[nH]2)SC1=S
REMARK SMILES IDX 9 1 8 2 7 3 6 4 5 5 3 6 4 7 2 8 1 9 65 10 66 11 80 12 67 13
REMARK SMILES IDX 68 14 79 15 81 16 69 17 70 18 71 19 78 20 72 21 77 22 73 24
REMARK SMILES IDX 76 25 74 26 75 27 10 28 11 29 12 30 13 31 14 32 15 33 16 34
REMARK SMILES IDX 17 35 18 36 64 37 19 38 63 39 20 40 21 41 22 42 57 43 23 44
REMARK SMILES IDX 62 45 56 46 58 47 24 48 61 49 55 50 54 51 25 53 47 54 32 55
REMARK SMILES IDX 46 56 33 57 36 58 45 59 59 60 34 61 35 62 44 64 60 65 37 66
REMARK SMILES IDX 26 67 27 68 31 69 28 70 30 71 29 72 48 73 49 74 53 75 50 76
REMARK SMILES IDX 52 77 51 78 38 79 39 80 43 81 40 82 42 83 41 84
REMARK H PARENT 78 23 58 52 36 63
REMARK Flexibility Score: inf
ROOT
ATOM      1  C   UNL     1       0.575   3.571  -1.202  1.00  0.00     0.188 C 
ENDROOT
BRANCH   1   2
ATOM      2  O   UNL     1       1.357   4.712  -0.869  1.00  0.00    -0.376 OA
BRANCH   2   3
ATOM      3  C   UNL     1       2.505   4.544  -0.045  1.00  0.00     0.202 C 
BRANCH   3   4
ATOM      4  C   UNL     1       2.288   3.933   1.342  1.00  0.00     0.261 C 
BRANCH   4   5
ATOM      5  O   UNL     1       1.654   2.647   1.259  1.00  0.00    -0.462 OA
BRANCH   5   6
ATOM      6  C   UNL     1       1.387   2.049   2.449  1.00  0.00     0.329 C 
ATOM      7  O   UNL     1       1.765   2.466   3.538  1.00  0.00    -0.250 OA
BRANCH   6   8
ATOM      8  C   UNL     1       0.510   0.798   2.278  1.00  0.00     0.199 C 
ATOM      9  C   UNL     1       1.248  -0.161   1.312  1.00  0.00     0.044 C 
BRANCH   8  10
ATOM     10  N   UNL     1      -0.932   0.962   1.913  1.00  0.00    -0.279 N 
ATOM     11  C   UNL     1      -1.669  -0.206   1.722  1.00  0.00     0.267 C 
ATOM     12  C   UNL     1      -1.712   2.098   2.043  1.00  0.00     0.149 C 
ATOM     13  O   UNL     1      -1.252  -1.351   1.837  1.00  0.00    -0.268 OA
ATOM     14  C   UNL     1      -3.099   0.087   1.454  1.00  0.00     0.084 C 
ATOM     15  S   UNL     1      -3.348   1.777   1.473  1.00  0.00    -0.054 SA
ATOM     16  S   UNL     1      -1.350   3.612   2.632  1.00  0.00    -0.052 S 
ATOM     17  C   UNL     1      -4.007  -0.891   1.327  1.00  0.00     0.068 C 
BRANCH  17  18
ATOM     18  C   UNL     1      -5.376  -0.624   1.102  1.00  0.00     0.132 A 
ATOM     19  N   UNL     1      -5.966   0.078   0.159  1.00  0.00    -0.229 NA
ATOM     20  N   UNL     1      -6.301  -1.125   1.988  1.00  0.00    -0.338 N 
ATOM     21  C   UNL     1      -7.301   0.094   0.486  1.00  0.00     0.089 A 
ATOM     22  C   UNL     1      -7.536  -0.632   1.648  1.00  0.00     0.066 A 
ATOM     23  H   UNL     1      -6.111  -1.734   2.737  1.00  0.00     0.168 HD
ATOM     24  C   UNL     1      -8.379   0.714  -0.158  1.00  0.00     0.030 A 
ATOM     25  C   UNL     1      -8.799  -0.752   2.235  1.00  0.00     0.028 A 
ATOM     26  C   UNL     1      -9.654   0.620   0.413  1.00  0.00     0.002 A 
ATOM     27  C   UNL     1      -9.856  -0.095   1.594  1.00  0.00     0.002 A 
ENDBRANCH  17  18
ENDBRANCH   8  10
ENDBRANCH   6   8
ENDBRANCH   5   6
ENDBRANCH   4   5
ENDBRANCH   3   4
ENDBRANCH   2   3
ENDBRANCH   1   2
BRANCH   1  28
ATOM     28  C   UNL     1       1.278   2.275  -1.643  1.00  0.00     0.188 C 
BRANCH  28  29
ATOM     29  O   UNL     1       2.623   2.350  -2.039  1.00  0.00    -0.376 OA
BRANCH  29  30
ATOM     30  C   UNL     1       3.029   2.836  -3.301  1.00  0.00     0.202 C 
BRANCH  30  31
ATOM     31  C   UNL     1       2.115   3.341  -4.430  1.00  0.00     0.261 C 
BRANCH  31  32
ATOM     32  O   UNL     1       0.709   3.341  -4.215  1.00  0.00    -0.460 OA
BRANCH  32  33
ATOM     33  C   UNL     1       0.040   2.238  -4.624  1.00  0.00     0.338 C 
ATOM     34  O   UNL     1       0.505   1.215  -5.087  1.00  0.00    -0.246 OA
BRANCH  33  35
ATOM     35  C   UNL     1      -1.375   2.425  -4.245  1.00  0.00     0.060 A 
ATOM     36  C   UNL     1      -1.989   1.479  -3.414  1.00  0.00     0.016 A 
ATOM     37  C   UNL     1      -2.081   3.537  -4.709  1.00  0.00     0.016 A 
ATOM     38  C   UNL     1      -3.332   1.632  -3.066  1.00  0.00     0.010 A 
ATOM     39  C   UNL     1      -3.428   3.677  -4.379  1.00  0.00     0.010 A 
ATOM     40  C   UNL     1      -4.064   2.710  -3.583  1.00  0.00    -0.014 A 
BRANCH  40  41
ATOM     41  C   UNL     1      -5.537   2.741  -3.461  1.00  0.00     0.031 A 
ATOM     42  C   UNL     1      -6.353   2.064  -4.526  1.00  0.00     0.074 A 
ATOM     43  C   UNL     1      -6.136   3.377  -2.441  1.00  0.00     0.049 A 
ATOM     44  N   UNL     1      -7.651   1.932  -4.621  1.00  0.00    -0.248 NA
ATOM     45  C   UNL     1      -5.600   1.451  -5.634  1.00  0.00     0.031 C 
ATOM     46  C   UNL     1      -5.448   3.988  -1.307  1.00  0.00     0.029 A 
ATOM     47  N   UNL     1      -7.468   3.584  -2.185  1.00  0.00    -0.354 N 
ATOM     48  C   UNL     1      -7.869   1.238  -5.805  1.00  0.00     0.074 A 
ATOM     49  C   UNL     1      -6.575   0.983  -6.398  1.00  0.00     0.031 C 
ATOM     50  C   UNL     1      -6.368   4.449  -0.441  1.00  0.00     0.029 A 
ATOM     51  C   UNL     1      -7.703   4.195  -0.977  1.00  0.00     0.049 A 
ATOM     52  H   UNL     1      -8.185   3.319  -2.805  1.00  0.00     0.167 HD
ATOM     53  C   UNL     1      -9.045   0.857  -6.356  1.00  0.00     0.031 A 
ATOM     54  C   UNL     1      -8.869   4.473  -0.362  1.00  0.00     0.031 A 
ATOM     55  C   UNL     1     -10.330   1.120  -5.772  1.00  0.00     0.049 A 
ATOM     56  C   UNL     1     -10.164   4.081  -1.024  1.00  0.00     0.074 A 
ATOM     57  C   UNL     1     -11.581   0.773  -6.250  1.00  0.00     0.029 A 
ATOM     58  N   UNL     1     -10.528   1.806  -4.584  1.00  0.00    -0.354 N 
ATOM     59  N   UNL     1     -10.362   3.377  -2.113  1.00  0.00    -0.248 NA
ATOM     60  C   UNL     1     -11.402   4.504  -0.351  1.00  0.00     0.031 C 
ATOM     61  C   UNL     1     -12.540   1.299  -5.379  1.00  0.00     0.029 A 
ATOM     62  C   UNL     1     -11.883   1.925  -4.330  1.00  0.00     0.049 A 
ATOM     63  H   UNL     1      -9.811   2.157  -4.007  1.00  0.00     0.167 HD
ATOM     64  C   UNL     1     -11.740   3.233  -2.230  1.00  0.00     0.074 A 
ATOM     65  C   UNL     1     -12.328   3.916  -1.096  1.00  0.00     0.031 C 
ATOM     66  C   UNL     1     -12.452   2.587  -3.185  1.00  0.00     0.031 A 
BRANCH  53  67
ATOM     67  C   UNL     1      -8.989   0.175  -7.692  1.00  0.00    -0.014 A 
ATOM     68  C   UNL     1      -8.557  -1.153  -7.822  1.00  0.00     0.009 A 
ATOM     69  C   UNL     1      -9.389   0.878  -8.839  1.00  0.00     0.009 A 
ATOM     70  C   UNL     1      -8.499  -1.754  -9.082  1.00  0.00     0.001 A 
ATOM     71  C   UNL     1      -9.352   0.268 -10.093  1.00  0.00     0.001 A 
ATOM     72  C   UNL     1      -8.900  -1.045 -10.215  1.00  0.00     0.000 A 
ENDBRANCH  53  67
BRANCH  54  73
ATOM     73  C   UNL     1      -8.873   5.070   1.000  1.00  0.00    -0.014 A 
ATOM     74  C   UNL     1      -9.319   4.310   2.094  1.00  0.00     0.009 A 
ATOM     75  C   UNL     1      -8.445   6.387   1.222  1.00  0.00     0.009 A 
ATOM     76  C   UNL     1      -9.359   4.863   3.375  1.00  0.00     0.001 A 
ATOM     77  C   UNL     1      -8.458   6.928   2.510  1.00  0.00     0.001 A 
ATOM     78  C   UNL     1      -8.924   6.169   3.583  1.00  0.00     0.000 A 
ENDBRANCH  54  73
BRANCH  66  79
ATOM     79  C   UNL     1     -13.947   2.541  -3.031  1.00  0.00    -0.014 A 
ATOM     80  C   UNL     1     -14.738   3.684  -3.227  1.00  0.00     0.009 A 
ATOM     81  C   UNL     1     -14.579   1.317  -2.758  1.00  0.00     0.009 A 
ATOM     82  C   UNL     1     -16.128   3.608  -3.119  1.00  0.00     0.001 A 
ATOM     83  C   UNL     1     -15.970   1.238  -2.681  1.00  0.00     0.001 A 
ATOM     84  C   UNL     1     -16.743   2.385  -2.853  1.00  0.00     0.000 A 
ENDBRANCH  66  79
ENDBRANCH  40  41
ENDBRANCH  33  35
ENDBRANCH  32  33
ENDBRANCH  31  32
ENDBRANCH  30  31
ENDBRANCH  29  30
ENDBRANCH  28  29
ENDBRANCH   1  28
TORSDOF 19
