REMARK SMILES C#CCN(CC(=O)OCCOCCOCCOC(=O)c1ccc(-c2c3nc(c(-c4ccccc4)c4ccc([nH]4)c(-c4ccccc4)c4nc(c(-c5ccccc5)c5ccc2[nH]5)C=C4)C=C3)cc1)c1nnc(C)c2ccccc12
REMARK SMILES IDX 12 1 11 2 10 3 9 4 8 5 6 6 7 7 5 8 4 9 3 10 2 11 1 12 68 13
REMARK SMILES IDX 69 14 78 15 70 16 73 17 77 18 71 19 74 20 76 21 72 22 75 23
REMARK SMILES IDX 13 24 14 25 15 26 16 27 17 28 18 29 19 30 20 31 21 32 67 33
REMARK SMILES IDX 22 34 66 35 23 36 24 37 25 38 60 39 26 40 65 41 59 42 61 43
REMARK SMILES IDX 27 44 64 45 58 46 57 47 28 49 50 50 35 51 49 52 36 53 39 54
REMARK SMILES IDX 48 55 62 56 37 57 38 58 47 60 63 61 40 62 29 63 30 64 34 65
REMARK SMILES IDX 31 66 33 67 32 68 51 69 52 70 56 71 53 72 55 73 54 74 41 75
REMARK SMILES IDX 42 76 46 77 43 78 45 79 44 80
REMARK H PARENT 61 48 39 59
REMARK Flexibility Score: inf
ROOT
ATOM      1  C   UNL     1      -5.072  -2.976  -0.025  1.00  0.00     0.188 C 
ENDROOT
BRANCH   1   2
ATOM      2  O   UNL     1      -6.289  -2.981   0.714  1.00  0.00    -0.376 OA
BRANCH   2   3
ATOM      3  C   UNL     1      -7.045  -1.781   0.662  1.00  0.00     0.202 C 
BRANCH   3   4
ATOM      4  C   UNL     1      -6.373  -0.543   1.283  1.00  0.00     0.261 C 
BRANCH   4   5
ATOM      5  O   UNL     1      -4.944  -0.516   1.073  1.00  0.00    -0.462 OA
BRANCH   5   6
ATOM      6  C   UNL     1      -4.185  -0.567   2.202  1.00  0.00     0.325 C 
ATOM      7  O   UNL     1      -4.588  -0.206   3.305  1.00  0.00    -0.250 OA
BRANCH   6   8
ATOM      8  C   UNL     1      -2.841  -1.286   2.040  1.00  0.00     0.241 C 
BRANCH   8   9
ATOM      9  N   UNL     1      -2.261  -1.443   0.647  1.00  0.00    -0.332 N 
BRANCH   9  10
ATOM     10  C   UNL     1      -1.901   0.047   0.044  1.00  0.00     0.208 C 
BRANCH  10  11
ATOM     11  C   UNL     1      -0.381   0.047   0.044  1.00  0.00    -0.085 C 
ATOM     12  C   UNL     1       0.923   0.047   0.044  1.00  0.00     0.006 C 
ENDBRANCH  10  11
ENDBRANCH   9  10
BRANCH   9  13
ATOM     13  C   UNL     1      -1.468  -2.684   0.642  1.00  0.00     0.160 A 
ATOM     14  N   UNL     1      -1.273  -3.341   1.771  1.00  0.00    -0.132 NA
ATOM     15  C   UNL     1      -1.346  -3.691  -0.339  1.00  0.00     0.028 A 
ATOM     16  N   UNL     1      -1.549  -4.818   1.922  1.00  0.00    -0.153 NA
ATOM     17  C   UNL     1      -2.015  -5.003  -0.283  1.00  0.00     0.009 A 
ATOM     18  C   UNL     1      -0.023  -3.899  -0.807  1.00  0.00     0.013 A 
ATOM     19  C   UNL     1      -2.258  -5.721   1.098  1.00  0.00     0.068 A 
ATOM     20  C   UNL     1      -1.905  -5.599  -1.558  1.00  0.00     0.011 A 
ATOM     21  C   UNL     1       0.372  -5.075  -1.480  1.00  0.00     0.001 A 
ATOM     22  C   UNL     1      -3.407  -7.328   1.837  1.00  0.00     0.069 C 
ATOM     23  C   UNL     1      -0.620  -5.891  -1.966  1.00  0.00     0.001 A 
ENDBRANCH   9  13
ENDBRANCH   8   9
ENDBRANCH   6   8
ENDBRANCH   5   6
ENDBRANCH   4   5
ENDBRANCH   3   4
ENDBRANCH   2   3
ENDBRANCH   1   2
BRANCH   1  24
ATOM     24  C   UNL     1      -5.022  -2.358  -1.410  1.00  0.00     0.188 C 
BRANCH  24  25
ATOM     25  O   UNL     1      -6.161  -2.683  -2.205  1.00  0.00    -0.376 OA
BRANCH  25  26
ATOM     26  C   UNL     1      -6.120  -3.976  -2.810  1.00  0.00     0.202 C 
BRANCH  26  27
ATOM     27  C   UNL     1      -6.859  -5.065  -2.006  1.00  0.00     0.261 C 
BRANCH  27  28
ATOM     28  O   UNL     1      -6.205  -5.415  -0.762  1.00  0.00    -0.460 OA
BRANCH  28  29
ATOM     29  C   UNL     1      -5.167  -6.259  -0.892  1.00  0.00     0.338 C 
ATOM     30  O   UNL     1      -4.926  -6.896  -1.910  1.00  0.00    -0.246 OA
BRANCH  29  31
ATOM     31  C   UNL     1      -4.197  -6.300   0.254  1.00  0.00     0.060 A 
ATOM     32  C   UNL     1      -4.210  -5.460   1.874  1.00  0.00     0.016 A 
ATOM     33  C   UNL     1      -2.859  -7.492  -0.100  1.00  0.00     0.016 A 
ATOM     34  C   UNL     1      -2.921  -5.877   3.139  1.00  0.00     0.010 A 
ATOM     35  C   UNL     1      -1.555  -7.812   1.087  1.00  0.00     0.010 A 
ATOM     36  C   UNL     1      -1.548  -7.059   2.740  1.00  0.00    -0.014 A 
BRANCH  36  37
ATOM     37  C   UNL     1      -0.532  -7.662   3.770  1.00  0.00     0.031 A 
ATOM     38  C   UNL     1       0.714  -8.532   3.403  1.00  0.00     0.074 A 
ATOM     39  C   UNL     1      -0.740  -7.546   5.102  1.00  0.00     0.049 A 
ATOM     40  N   UNL     1       1.446  -9.315   4.185  1.00  0.00    -0.248 NA
ATOM     41  C   UNL     1       1.158  -8.607   2.004  1.00  0.00     0.031 C 
ATOM     42  C   UNL     1      -1.903  -6.947   5.729  1.00  0.00     0.029 A 
ATOM     43  N   UNL     1       0.035  -7.911   6.188  1.00  0.00    -0.354 N 
ATOM     44  C   UNL     1       2.317 -10.038   3.357  1.00  0.00     0.074 A 
ATOM     45  C   UNL     1       1.990  -9.644   2.006  1.00  0.00     0.031 C 
ATOM     46  C   UNL     1      -1.684  -6.767   7.032  1.00  0.00     0.029 A 
ATOM     47  C   UNL     1      -0.457  -7.455   7.393  1.00  0.00     0.049 A 
ATOM     48  H   UNL     1       0.859  -8.445   6.109  1.00  0.00     0.167 HD
ATOM     49  C   UNL     1       3.325 -10.906   3.660  1.00  0.00     0.031 A 
ATOM     50  C   UNL     1      -0.052  -7.608   8.668  1.00  0.00     0.031 A 
ATOM     51  C   UNL     1       3.806 -11.188   4.996  1.00  0.00     0.049 A 
ATOM     52  C   UNL     1       1.111  -8.491   8.984  1.00  0.00     0.074 A 
ATOM     53  C   UNL     1       4.890 -11.969   5.379  1.00  0.00     0.029 A 
ATOM     54  N   UNL     1       3.276 -10.663   6.161  1.00  0.00    -0.354 N 
ATOM     55  N   UNL     1       1.869  -9.178   8.169  1.00  0.00    -0.248 NA
ATOM     56  C   UNL     1       1.449  -8.648  10.406  1.00  0.00     0.031 C 
ATOM     57  C   UNL     1       4.988 -11.950   6.775  1.00  0.00     0.029 A 
ATOM     58  C   UNL     1       4.004 -11.108   7.258  1.00  0.00     0.049 A 
ATOM     59  H   UNL     1       2.498 -10.062   6.206  1.00  0.00     0.167 HD
ATOM     60  C   UNL     1       2.775  -9.847   8.979  1.00  0.00     0.074 A 
ATOM     61  C   UNL     1       2.499  -9.452  10.344  1.00  0.00     0.031 C 
ATOM     62  C   UNL     1       3.737 -10.728   8.617  1.00  0.00     0.031 A 
BRANCH  49  63
ATOM     63  C   UNL     1       4.057 -11.620   2.532  1.00  0.00    -0.014 A 
ATOM     64  C   UNL     1       4.917 -10.938   1.655  1.00  0.00     0.009 A 
ATOM     65  C   UNL     1       3.996 -13.025   2.437  1.00  0.00     0.009 A 
ATOM     66  C   UNL     1       5.660 -11.634   0.693  1.00  0.00     0.001 A 
ATOM     67  C   UNL     1       4.768 -13.722   1.500  1.00  0.00     0.001 A 
ATOM     68  C   UNL     1       5.592 -13.024   0.621  1.00  0.00     0.000 A 
ENDBRANCH  49  63
BRANCH  50  69
ATOM     69  C   UNL     1      -0.807  -6.939   9.767  1.00  0.00    -0.014 A 
ATOM     70  C   UNL     1      -0.219  -5.896  10.498  1.00  0.00     0.009 A 
ATOM     71  C   UNL     1      -2.127  -7.316  10.066  1.00  0.00     0.009 A 
ATOM     72  C   UNL     1      -0.936  -5.248  11.506  1.00  0.00     0.001 A 
ATOM     73  C   UNL     1      -2.859  -6.630  11.035  1.00  0.00     0.001 A 
ATOM     74  C   UNL     1      -2.260  -5.604  11.761  1.00  0.00     0.000 A 
ENDBRANCH  50  69
BRANCH  62  75
ATOM     75  C   UNL     1       4.593 -11.281   9.721  1.00  0.00    -0.014 A 
ATOM     76  C   UNL     1       4.076 -12.188  10.660  1.00  0.00     0.009 A 
ATOM     77  C   UNL     1       5.922 -10.851   9.852  1.00  0.00     0.009 A 
ATOM     78  C   UNL     1       4.855 -12.607  11.741  1.00  0.00     0.001 A 
ATOM     79  C   UNL     1       6.708 -11.296  10.915  1.00  0.00     0.001 A 
ATOM     80  C   UNL     1       6.169 -12.159  11.868  1.00  0.00     0.000 A 
ENDBRANCH  62  75
ENDBRANCH  36  37
ENDBRANCH  29  31
ENDBRANCH  28  29
ENDBRANCH  27  28
ENDBRANCH  26  27
ENDBRANCH  25  26
ENDBRANCH  24  25
ENDBRANCH   1  24
TORSDOF 21
