REMARK SMILES O=C(OCCOCCOCCOC(=O)[C@@H]1C=C[C@H](NC(=O)[C@@H]2Cc3ccccc3O2)C1)c1ccc(-c2c3nc(c(-c4ccccc4)c4ccc([nH]4)c(-c4ccccc4)c4nc(c(-c5ccccc5)c5ccc2[nH]5)C=C4)C=C3)cc1
REMARK SMILES IDX 7 1 6 2 5 3 4 4 3 5 2 6 1 7 32 8 33 9 79 10 34 11 78 12
REMARK SMILES IDX 35 13 36 14 37 15 72 16 38 17 77 18 71 19 73 20 39 21 76 22
REMARK SMILES IDX 70 23 69 24 40 26 62 27 47 28 61 29 48 30 51 31 60 32 74 33
REMARK SMILES IDX 49 34 50 35 59 37 75 38 52 39 41 40 42 41 46 42 43 43 45 44
REMARK SMILES IDX 44 45 63 46 64 47 68 48 65 49 67 50 66 51 53 52 54 53 58 54
REMARK SMILES IDX 55 55 57 56 56 57 8 58 9 59 10 60 11 61 12 62 13 63 14 64
REMARK SMILES IDX 15 65 16 66 31 67 17 68 18 69 19 70 20 71 21 73 22 74 23 75
REMARK SMILES IDX 30 76 24 77 29 78 25 79 28 80 26 81 27 82
REMARK H PARENT 73 25 51 36 19 72
REMARK Flexibility Score: inf
ROOT
ATOM      1  C   UNL     1      -0.793  -3.385  -3.746  1.00  0.00     0.188 C 
ENDROOT
BRANCH   1   2
ATOM      2  O   UNL     1      -1.605  -4.459  -4.227  1.00  0.00    -0.376 OA
BRANCH   2   3
ATOM      3  C   UNL     1      -1.878  -4.414  -5.633  1.00  0.00     0.202 C 
BRANCH   3   4
ATOM      4  C   UNL     1      -2.757  -3.248  -6.129  1.00  0.00     0.261 C 
BRANCH   4   5
ATOM      5  O   UNL     1      -2.762  -2.096  -5.265  1.00  0.00    -0.460 OA
BRANCH   5   6
ATOM      6  C   UNL     1      -3.663  -1.759  -4.309  1.00  0.00     0.338 C 
ATOM      7  O   UNL     1      -3.600  -0.642  -3.800  1.00  0.00    -0.246 OA
BRANCH   6   8
ATOM      8  C   UNL     1      -4.721  -2.689  -3.816  1.00  0.00     0.060 A 
ATOM      9  C   UNL     1      -4.632  -4.076  -3.880  1.00  0.00     0.016 A 
ATOM     10  C   UNL     1      -5.835  -2.135  -3.164  1.00  0.00     0.016 A 
ATOM     11  C   UNL     1      -5.641  -4.897  -3.413  1.00  0.00     0.010 A 
ATOM     12  C   UNL     1      -6.835  -2.956  -2.630  1.00  0.00     0.010 A 
ATOM     13  C   UNL     1      -6.746  -4.344  -2.778  1.00  0.00    -0.014 A 
BRANCH  13  14
ATOM     14  C   UNL     1      -7.824  -5.266  -2.386  1.00  0.00     0.031 A 
ATOM     15  C   UNL     1      -9.068  -5.294  -3.214  1.00  0.00     0.074 A 
ATOM     16  C   UNL     1      -7.600  -6.175  -1.419  1.00  0.00     0.049 A 
ATOM     17  N   UNL     1     -10.139  -6.021  -3.059  1.00  0.00    -0.248 NA
ATOM     18  C   UNL     1      -9.103  -4.401  -4.386  1.00  0.00     0.031 C 
ATOM     19  C   UNL     1      -6.349  -6.308  -0.667  1.00  0.00     0.029 A 
ATOM     20  N   UNL     1      -8.386  -7.183  -0.931  1.00  0.00    -0.354 N 
ATOM     21  C   UNL     1     -10.990  -5.648  -4.089  1.00  0.00     0.074 A 
ATOM     22  C   UNL     1     -10.314  -4.637  -4.868  1.00  0.00     0.031 C 
ATOM     23  C   UNL     1      -6.442  -7.363   0.156  1.00  0.00     0.029 A 
ATOM     24  C   UNL     1      -7.785  -7.910   0.069  1.00  0.00     0.049 A 
ATOM     25  H   UNL     1      -9.293  -7.370  -1.263  1.00  0.00     0.167 HD
ATOM     26  C   UNL     1     -12.234  -6.109  -4.342  1.00  0.00     0.031 A 
ATOM     27  C   UNL     1      -8.284  -8.874   0.863  1.00  0.00     0.031 A 
ATOM     28  C   UNL     1     -12.878  -7.109  -3.537  1.00  0.00     0.049 A 
ATOM     29  C   UNL     1      -9.714  -9.271   0.641  1.00  0.00     0.074 A 
ATOM     30  C   UNL     1     -14.157  -7.618  -3.651  1.00  0.00     0.029 A 
ATOM     31  N   UNL     1     -12.281  -7.749  -2.459  1.00  0.00    -0.354 N 
ATOM     32  N   UNL     1     -10.540  -8.870  -0.297  1.00  0.00    -0.248 NA
ATOM     33  C   UNL     1     -10.288 -10.234   1.585  1.00  0.00     0.031 C 
ATOM     34  C   UNL     1     -14.355  -8.520  -2.601  1.00  0.00     0.029 A 
ATOM     35  C   UNL     1     -13.176  -8.626  -1.877  1.00  0.00     0.049 A 
ATOM     36  H   UNL     1     -11.356  -7.600  -2.155  1.00  0.00     0.167 HD
ATOM     37  C   UNL     1     -11.728  -9.546  -0.068  1.00  0.00     0.074 A 
ATOM     38  C   UNL     1     -11.502 -10.404   1.080  1.00  0.00     0.031 C 
ATOM     39  C   UNL     1     -12.903  -9.463  -0.737  1.00  0.00     0.031 A 
BRANCH  26  40
ATOM     40  C   UNL     1     -12.992  -5.463  -5.463  1.00  0.00    -0.014 A 
ATOM     41  C   UNL     1     -12.673  -5.697  -6.809  1.00  0.00     0.009 A 
ATOM     42  C   UNL     1     -14.048  -4.590  -5.157  1.00  0.00     0.009 A 
ATOM     43  C   UNL     1     -13.381  -5.048  -7.825  1.00  0.00     0.001 A 
ATOM     44  C   UNL     1     -14.770  -3.963  -6.173  1.00  0.00     0.001 A 
ATOM     45  C   UNL     1     -14.431  -4.187  -7.506  1.00  0.00     0.000 A 
ENDBRANCH  26  40
BRANCH  27  46
ATOM     46  C   UNL     1      -7.482  -9.441   1.984  1.00  0.00    -0.014 A 
ATOM     47  C   UNL     1      -7.173 -10.808   2.043  1.00  0.00     0.009 A 
ATOM     48  C   UNL     1      -7.061  -8.614   3.041  1.00  0.00     0.009 A 
ATOM     49  C   UNL     1      -6.498 -11.338   3.148  1.00  0.00     0.001 A 
ATOM     50  C   UNL     1      -6.354  -9.138   4.126  1.00  0.00     0.001 A 
ATOM     51  C   UNL     1      -6.088 -10.503   4.187  1.00  0.00     0.000 A 
ENDBRANCH  27  46
BRANCH  39  52
ATOM     52  C   UNL     1     -14.008 -10.358  -0.260  1.00  0.00    -0.014 A 
ATOM     53  C   UNL     1     -14.674 -10.112   0.950  1.00  0.00     0.009 A 
ATOM     54  C   UNL     1     -14.410 -11.438  -1.060  1.00  0.00     0.009 A 
ATOM     55  C   UNL     1     -15.703 -10.956   1.366  1.00  0.00     0.001 A 
ATOM     56  C   UNL     1     -15.463 -12.257  -0.658  1.00  0.00     0.001 A 
ATOM     57  C   UNL     1     -16.101 -12.021   0.559  1.00  0.00     0.000 A 
ENDBRANCH  39  52
ENDBRANCH  13  14
ENDBRANCH   6   8
ENDBRANCH   5   6
ENDBRANCH   4   5
ENDBRANCH   3   4
ENDBRANCH   2   3
ENDBRANCH   1   2
BRANCH   1  58
ATOM     58  C   UNL     1       0.218  -3.822  -2.684  1.00  0.00     0.188 C 
BRANCH  58  59
ATOM     59  O   UNL     1       1.250  -4.703  -3.117  1.00  0.00    -0.376 OA
BRANCH  59  60
ATOM     60  C   UNL     1       0.853  -5.928  -3.723  1.00  0.00     0.202 C 
BRANCH  60  61
ATOM     61  C   UNL     1       0.138  -6.959  -2.838  1.00  0.00     0.261 C 
BRANCH  61  62
ATOM     62  O   UNL     1      -1.065  -6.469  -2.223  1.00  0.00    -0.463 OA
BRANCH  62  63
ATOM     63  C   UNL     1      -1.066  -6.421  -0.858  1.00  0.00     0.312 C 
ATOM     64  O   UNL     1      -0.151  -6.779  -0.134  1.00  0.00    -0.252 OA
BRANCH  63  65
ATOM     65  C   UNL     1      -2.385  -5.848  -0.349  1.00  0.00     0.124 C 
ATOM     66  C   UNL     1      -2.297  -4.399   0.028  1.00  0.00    -0.014 C 
ATOM     67  C   UNL     1      -2.746  -6.501   0.991  1.00  0.00     0.048 C 
ATOM     68  C   UNL     1      -2.239  -4.229   1.354  1.00  0.00    -0.006 C 
ATOM     69  C   UNL     1      -2.289  -5.525   2.086  1.00  0.00     0.106 C 
BRANCH  69  70
ATOM     70  N   UNL     1      -0.981  -5.817   2.608  1.00  0.00    -0.347 N 
ATOM     71  C   UNL     1      -0.327  -5.426   3.731  1.00  0.00     0.261 C 
ATOM     72  H   UNL     1      -0.454  -6.421   2.036  1.00  0.00     0.164 HD
ATOM     73  O   UNL     1       0.764  -5.984   3.926  1.00  0.00    -0.271 OA
BRANCH  71  74
ATOM     74  C   UNL     1      -0.783  -4.333   4.723  1.00  0.00     0.266 C 
ATOM     75  C   UNL     1      -2.231  -3.856   4.871  1.00  0.00     0.095 C 
ATOM     76  O   UNL     1       0.089  -3.181   4.527  1.00  0.00    -0.480 OA
ATOM     77  C   UNL     1      -2.069  -2.396   4.694  1.00  0.00    -0.002 A 
ATOM     78  C   UNL     1      -0.731  -2.091   4.543  1.00  0.00     0.123 A 
ATOM     79  C   UNL     1      -3.032  -1.401   4.678  1.00  0.00     0.008 A 
ATOM     80  C   UNL     1      -0.291  -0.790   4.413  1.00  0.00     0.047 A 
ATOM     81  C   UNL     1      -2.611  -0.077   4.533  1.00  0.00     0.001 A 
ATOM     82  C   UNL     1      -1.246   0.229   4.413  1.00  0.00     0.004 A 
ENDBRANCH  71  74
ENDBRANCH  69  70
ENDBRANCH  63  65
ENDBRANCH  62  63
ENDBRANCH  61  62
ENDBRANCH  60  61
ENDBRANCH  59  60
ENDBRANCH  58  59
ENDBRANCH   1  58
TORSDOF 19
