REMARK SMILES Cc1cc(C(=O)OCCOCCOCCOC(=O)c2ccc(-c3c4nc(c(-c5ccccc5)c5ccc([nH]5)c(-c5ccccc5)c5nc(c(-c6ccccc6)c6ccc3[nH]6)C=C5)C=C4)cc2)ccc1NS(=O)(=O)c1ccc(C#N)cc1C
REMARK SMILES IDX 11 1 10 2 9 3 8 4 7 5 5 6 6 7 4 8 1 9 2 10 3 11 69 12 68 13
REMARK SMILES IDX 67 14 70 15 71 17 72 18 73 19 74 20 75 21 81 22 76 23 80 24
REMARK SMILES IDX 82 25 77 26 78 27 79 28 12 29 13 30 14 31 15 32 16 33 17 34
REMARK SMILES IDX 18 35 19 36 20 37 66 38 21 39 65 40 22 41 23 42 24 43 59 44
REMARK SMILES IDX 25 45 64 46 58 47 60 48 26 49 63 50 57 51 56 52 27 54 49 55
REMARK SMILES IDX 34 56 48 57 35 58 38 59 47 60 61 61 36 62 37 63 46 65 62 66
REMARK SMILES IDX 39 67 28 68 29 69 33 70 30 71 32 72 31 73 50 74 51 75 55 76
REMARK SMILES IDX 52 77 54 78 53 79 40 80 41 81 45 82 42 83 44 84 43 85
REMARK H PARENT 70 16 60 53 38 64
REMARK Flexibility Score: inf
ROOT
ATOM      1  C   UNL     1      -2.908  -5.719  -2.128  1.00  0.00     0.188 C 
ENDROOT
BRANCH   1   2
ATOM      2  O   UNL     1      -3.815  -5.361  -1.098  1.00  0.00    -0.376 OA
BRANCH   2   3
ATOM      3  C   UNL     1      -4.785  -4.314  -1.016  1.00  0.00     0.202 C 
BRANCH   3   4
ATOM      4  C   UNL     1      -4.854  -2.621  -0.866  1.00  0.00     0.261 C 
BRANCH   4   5
ATOM      5  O   UNL     1      -3.697  -1.260  -0.575  1.00  0.00    -0.460 OA
BRANCH   5   6
ATOM      6  C   UNL     1      -2.543  -0.771   0.182  1.00  0.00     0.338 C 
ATOM      7  O   UNL     1      -2.251  -0.907   1.369  1.00  0.00    -0.246 OA
BRANCH   6   8
ATOM      8  C   UNL     1      -1.412  -0.053  -0.446  1.00  0.00     0.060 A 
ATOM      9  C   UNL     1       2.292   0.706   0.303  1.00  0.00     0.046 C 
ATOM     10  C   UNL     1       0.852   0.893  -0.117  1.00  0.00    -0.026 A 
ATOM     11  C   UNL     1      -0.102  -0.100   0.148  1.00  0.00     0.021 A 
ATOM     12  C   UNL     1       0.404   1.960  -0.902  1.00  0.00     0.052 A 
ATOM     13  C   UNL     1      -0.758   1.846  -1.682  1.00  0.00     0.028 A 
ATOM     14  C   UNL     1      -1.681   0.837  -1.453  1.00  0.00     0.018 A 
BRANCH  12  15
ATOM     15  N   UNL     1       0.955   3.274  -0.807  1.00  0.00    -0.279 N 
ATOM     16  H   UNL     1       1.775   3.502  -1.302  1.00  0.00     0.180 HD
BRANCH  15  17
ATOM     17  S   UNL     1       0.176   4.467   0.179  1.00  0.00     0.262 S 
ATOM     18  O   UNL     1       0.576   4.205   1.545  1.00  0.00    -0.201 OA
ATOM     19  O   UNL     1       0.569   5.701  -0.470  1.00  0.00    -0.201 OA
BRANCH  17  20
ATOM     20  C   UNL     1      -1.631   4.352   0.146  1.00  0.00     0.090 A 
ATOM     21  C   UNL     1      -2.237   3.160   0.568  1.00  0.00     0.024 A 
ATOM     22  C   UNL     1      -2.480   5.428  -0.186  1.00  0.00    -0.029 A 
ATOM     23  C   UNL     1      -3.609   2.926   0.379  1.00  0.00     0.021 A 
ATOM     24  C   UNL     1      -3.865   5.184  -0.376  1.00  0.00     0.024 A 
ATOM     25  C   UNL     1      -2.091   6.882  -0.178  1.00  0.00     0.046 C 
ATOM     26  C   UNL     1      -4.425   3.926  -0.143  1.00  0.00     0.052 A 
BRANCH  26  27
ATOM     27  C   UNL     1      -5.807   3.690  -0.376  1.00  0.00     0.099 C 
ATOM     28  N   UNL     1      -6.952   3.478  -0.577  1.00  0.00    -0.192 NA
ENDBRANCH  26  27
ENDBRANCH  17  20
ENDBRANCH  15  17
ENDBRANCH  12  15
ENDBRANCH   6   8
ENDBRANCH   5   6
ENDBRANCH   4   5
ENDBRANCH   3   4
ENDBRANCH   2   3
ENDBRANCH   1   2
BRANCH   1  29
ATOM     29  C   UNL     1      -3.204  -5.431  -3.570  1.00  0.00     0.188 C 
BRANCH  29  30
ATOM     30  O   UNL     1      -3.933  -4.229  -3.659  1.00  0.00    -0.376 OA
BRANCH  30  31
ATOM     31  C   UNL     1      -4.395  -3.930  -4.959  1.00  0.00     0.202 C 
BRANCH  31  32
ATOM     32  C   UNL     1      -3.264  -3.757  -5.995  1.00  0.00     0.261 C 
BRANCH  32  33
ATOM     33  O   UNL     1      -2.331  -2.715  -5.606  1.00  0.00    -0.460 OA
BRANCH  33  34
ATOM     34  C   UNL     1      -1.086  -3.076  -5.126  1.00  0.00     0.338 C 
ATOM     35  O   UNL     1      -0.318  -3.836  -5.685  1.00  0.00    -0.246 OA
BRANCH  34  36
ATOM     36  C   UNL     1      -0.942  -2.606  -3.700  1.00  0.00     0.060 A 
ATOM     37  C   UNL     1      -0.171  -3.197  -2.683  1.00  0.00     0.016 A 
ATOM     38  C   UNL     1      -1.990  -1.900  -3.268  1.00  0.00     0.016 A 
ATOM     39  C   UNL     1      -0.649  -3.327  -1.295  1.00  0.00     0.010 A 
ATOM     40  C   UNL     1      -2.529  -2.395  -2.090  1.00  0.00     0.010 A 
ATOM     41  C   UNL     1      -1.965  -3.052  -0.931  1.00  0.00    -0.014 A 
BRANCH  41  42
ATOM     42  C   UNL     1      -2.719  -3.454   0.619  1.00  0.00     0.031 A 
ATOM     43  C   UNL     1      -3.792  -2.578   1.724  1.00  0.00     0.074 A 
ATOM     44  C   UNL     1      -2.466  -4.691   1.112  1.00  0.00     0.049 A 
ATOM     45  N   UNL     1      -3.599  -2.521   3.031  1.00  0.00    -0.248 NA
ATOM     46  C   UNL     1      -4.870  -1.515   1.447  1.00  0.00     0.031 C 
ATOM     47  C   UNL     1      -3.054  -5.378   2.265  1.00  0.00     0.029 A 
ATOM     48  N   UNL     1      -1.581  -5.644   0.601  1.00  0.00    -0.354 N 
ATOM     49  C   UNL     1      -4.429  -1.499   3.554  1.00  0.00     0.074 A 
ATOM     50  C   UNL     1      -4.840  -0.713   2.485  1.00  0.00     0.031 C 
ATOM     51  C   UNL     1      -2.292  -6.450   2.561  1.00  0.00     0.029 A 
ATOM     52  C   UNL     1      -1.134  -6.407   1.680  1.00  0.00     0.049 A 
ATOM     53  H   UNL     1      -1.321  -5.756  -0.342  1.00  0.00     0.167 HD
ATOM     54  C   UNL     1      -4.996  -1.466   4.788  1.00  0.00     0.031 A 
ATOM     55  C   UNL     1       0.174  -6.304   2.041  1.00  0.00     0.031 A 
ATOM     56  C   UNL     1      -4.455  -2.578   5.514  1.00  0.00     0.049 A 
ATOM     57  C   UNL     1       0.258  -5.679   3.415  1.00  0.00     0.074 A 
ATOM     58  C   UNL     1      -4.836  -3.906   5.549  1.00  0.00     0.029 A 
ATOM     59  N   UNL     1      -3.096  -2.534   5.769  1.00  0.00    -0.354 N 
ATOM     60  N   UNL     1      -0.666  -4.912   3.939  1.00  0.00    -0.248 NA
ATOM     61  C   UNL     1       1.344  -5.962   4.343  1.00  0.00     0.031 C 
ATOM     62  C   UNL     1      -3.641  -4.675   5.685  1.00  0.00     0.029 A 
ATOM     63  C   UNL     1      -2.567  -3.808   5.819  1.00  0.00     0.049 A 
ATOM     64  H   UNL     1      -2.577  -1.707   5.897  1.00  0.00     0.167 HD
ATOM     65  C   UNL     1      -0.359  -4.658   5.246  1.00  0.00     0.074 A 
ATOM     66  C   UNL     1       0.916  -5.325   5.445  1.00  0.00     0.031 C 
ATOM     67  C   UNL     1      -1.149  -3.951   6.107  1.00  0.00     0.031 A 
BRANCH  54  68
ATOM     68  C   UNL     1      -6.267  -0.655   5.113  1.00  0.00    -0.014 A 
ATOM     69  C   UNL     1      -7.119  -1.112   6.127  1.00  0.00     0.009 A 
ATOM     70  C   UNL     1      -6.745   0.494   4.429  1.00  0.00     0.009 A 
ATOM     71  C   UNL     1      -8.381  -0.530   6.371  1.00  0.00     0.001 A 
ATOM     72  C   UNL     1      -8.026   1.044   4.618  1.00  0.00     0.001 A 
ATOM     73  C   UNL     1      -8.851   0.524   5.595  1.00  0.00     0.000 A 
ENDBRANCH  54  68
BRANCH  55  74
ATOM     74  C   UNL     1       1.114  -6.159   0.870  1.00  0.00    -0.014 A 
ATOM     75  C   UNL     1       0.997  -7.111  -0.180  1.00  0.00     0.009 A 
ATOM     76  C   UNL     1       1.847  -4.997   0.594  1.00  0.00     0.009 A 
ATOM     77  C   UNL     1       1.446  -6.848  -1.481  1.00  0.00     0.001 A 
ATOM     78  C   UNL     1       2.341  -4.755  -0.708  1.00  0.00     0.001 A 
ATOM     79  C   UNL     1       2.105  -5.659  -1.749  1.00  0.00     0.000 A 
ENDBRANCH  55  74
BRANCH  67  80
ATOM     80  C   UNL     1      -0.630  -3.288   7.362  1.00  0.00    -0.014 A 
ATOM     81  C   UNL     1       0.718  -2.973   7.557  1.00  0.00     0.009 A 
ATOM     82  C   UNL     1      -1.548  -2.764   8.303  1.00  0.00     0.009 A 
ATOM     83  C   UNL     1       1.137  -2.228   8.663  1.00  0.00     0.001 A 
ATOM     84  C   UNL     1      -1.145  -1.942   9.353  1.00  0.00     0.001 A 
ATOM     85  C   UNL     1       0.204  -1.696   9.547  1.00  0.00     0.000 A 
ENDBRANCH  67  80
ENDBRANCH  41  42
ENDBRANCH  34  36
ENDBRANCH  33  34
ENDBRANCH  32  33
ENDBRANCH  31  32
ENDBRANCH  30  31
ENDBRANCH  29  30
ENDBRANCH   1  29
TORSDOF 21
