REMARK SMILES NS(=O)(=O)c1ccc(-n2nc(C(=O)OCCOCCOCCOC(=O)c3ccc(-c4c5nc(c(-c6ccccc6)c6ccc([nH]6)c(-c6ccccc6)c6nc(c(-c7ccccc7)c7ccc4[nH]7)C=C6)C=C5)cc3)cc2-c2cc3ccccc3s2)cc1
REMARK SMILES IDX 18 1 17 2 16 3 15 4 14 5 12 6 13 7 11 8 9 9 10 10 75 11
REMARK SMILES IDX 74 12 8 13 5 14 6 15 86 16 7 17 85 18 2 19 3 20 4 21 1 22
REMARK SMILES IDX 76 25 77 26 84 27 78 28 83 29 79 30 82 31 80 32 81 33 19 34
REMARK SMILES IDX 20 35 21 36 22 37 23 38 24 39 25 40 26 41 27 42 73 43 28 44
REMARK SMILES IDX 72 45 29 46 30 47 31 48 66 49 32 50 71 51 65 52 67 53 33 54
REMARK SMILES IDX 70 55 64 56 63 57 34 59 56 60 41 61 55 62 42 63 45 64 54 65
REMARK SMILES IDX 68 66 43 67 44 68 53 70 69 71 46 72 35 73 36 74 40 75 37 76
REMARK SMILES IDX 39 77 38 78 57 79 58 80 62 81 59 82 61 83 60 84 47 85 48 86
REMARK SMILES IDX 52 87 49 88 51 89 50 90
REMARK H PARENT 1 23 1 24 67 58 45 69
REMARK Flexibility Score: inf
ROOT
ATOM      1  C   UNL     1       1.481   0.607  11.222  1.00  0.00     0.188 C 
ENDROOT
BRANCH   1   2
ATOM      2  O   UNL     1       0.983   0.317  12.513  1.00  0.00    -0.376 OA
BRANCH   2   3
ATOM      3  C   UNL     1       0.951  -1.009  13.020  1.00  0.00     0.202 C 
BRANCH   3   4
ATOM      4  C   UNL     1       0.746  -2.273  12.160  1.00  0.00     0.261 C 
BRANCH   4   5
ATOM      5  O   UNL     1       1.319  -2.254  10.855  1.00  0.00    -0.458 OA
BRANCH   5   6
ATOM      6  C   UNL     1       0.471  -1.992   9.816  1.00  0.00     0.358 C 
ATOM      7  O   UNL     1      -0.747  -1.926   9.920  1.00  0.00    -0.244 OA
BRANCH   6   8
ATOM      8  C   UNL     1       1.216  -1.741   8.575  1.00  0.00     0.171 A 
ATOM      9  N   UNL     1       1.619  -1.279   6.527  1.00  0.00    -0.231 N 
ATOM     10  N   UNL     1       0.765  -0.995   7.550  1.00  0.00    -0.160 NA
ATOM     11  C   UNL     1       2.591  -2.172   6.915  1.00  0.00     0.085 A 
ATOM     12  C   UNL     1       2.520  -2.192   8.295  1.00  0.00     0.068 A 
BRANCH   9  13
ATOM     13  C   UNL     1       1.383  -0.714   5.261  1.00  0.00     0.065 A 
ATOM     14  C   UNL     1       0.804   0.429   2.807  1.00  0.00     0.082 A 
ATOM     15  C   UNL     1       0.846  -0.966   2.932  1.00  0.00     0.024 A 
ATOM     16  C   UNL     1       1.057   1.259   3.904  1.00  0.00     0.024 A 
ATOM     17  C   UNL     1       1.162  -1.542   4.161  1.00  0.00     0.030 A 
ATOM     18  C   UNL     1       1.315   0.683   5.148  1.00  0.00     0.030 A 
BRANCH  14  19
ATOM     19  S   UNL     1       0.445   1.156   1.238  1.00  0.00     0.238 S 
ATOM     20  O   UNL     1       1.183   2.397   1.117  1.00  0.00    -0.207 OA
ATOM     21  O   UNL     1      -0.969   1.058   0.997  1.00  0.00    -0.207 OA
BRANCH  19  22
ATOM     22  N   UNL     1       1.184   0.108   0.148  1.00  0.00    -0.225 NA
ATOM     23  H   UNL     1       1.033   0.444  -0.803  1.00  0.00     0.137 HD
ATOM     24  H   UNL     1       0.782  -0.824   0.247  1.00  0.00     0.137 HD
ENDBRANCH  19  22
ENDBRANCH  14  19
ENDBRANCH   9  13
BRANCH  11  25
ATOM     25  C   UNL     1       3.374  -3.107   6.143  1.00  0.00     0.054 A 
ATOM     26  C   UNL     1       4.757  -3.276   6.186  1.00  0.00     0.031 A 
ATOM     27  S   UNL     1       2.767  -4.759   6.202  1.00  0.00    -0.134 S 
ATOM     28  C   UNL     1       5.021  -4.232   7.258  1.00  0.00    -0.007 A 
ATOM     29  C   UNL     1       3.870  -4.986   7.532  1.00  0.00     0.035 A 
ATOM     30  C   UNL     1       6.126  -4.372   8.125  1.00  0.00     0.009 A 
ATOM     31  C   UNL     1       3.705  -5.710   8.721  1.00  0.00     0.019 A 
ATOM     32  C   UNL     1       5.966  -5.076   9.325  1.00  0.00     0.001 A 
ATOM     33  C   UNL     1       4.755  -5.690   9.640  1.00  0.00     0.001 A 
ENDBRANCH  11  25
ENDBRANCH   6   8
ENDBRANCH   5   6
ENDBRANCH   4   5
ENDBRANCH   3   4
ENDBRANCH   2   3
ENDBRANCH   1   2
BRANCH   1  34
ATOM     34  C   UNL     1       2.909   0.184  10.822  1.00  0.00     0.188 C 
BRANCH  34  35
ATOM     35  O   UNL     1       3.519  -0.840  11.575  1.00  0.00    -0.376 OA
BRANCH  35  36
ATOM     36  C   UNL     1       4.298  -0.596  12.736  1.00  0.00     0.202 C 
BRANCH  36  37
ATOM     37  C   UNL     1       4.370   0.722  13.508  1.00  0.00     0.261 C 
BRANCH  37  38
ATOM     38  O   UNL     1       3.640   1.792  12.961  1.00  0.00    -0.460 OA
BRANCH  38  39
ATOM     39  C   UNL     1       4.317   2.499  12.037  1.00  0.00     0.338 C 
ATOM     40  O   UNL     1       5.421   2.265  11.577  1.00  0.00    -0.246 OA
BRANCH  39  41
ATOM     41  C   UNL     1       3.485   3.639  11.656  1.00  0.00     0.060 A 
ATOM     42  C   UNL     1       3.841   4.312  10.485  1.00  0.00     0.016 A 
ATOM     43  C   UNL     1       2.717   4.217  12.669  1.00  0.00     0.016 A 
ATOM     44  C   UNL     1       3.734   5.679  10.492  1.00  0.00     0.010 A 
ATOM     45  C   UNL     1       2.656   5.577  12.696  1.00  0.00     0.010 A 
ATOM     46  C   UNL     1       3.280   6.280  11.666  1.00  0.00    -0.014 A 
BRANCH  46  47
ATOM     47  C   UNL     1       3.466   7.698  11.840  1.00  0.00     0.031 A 
ATOM     48  C   UNL     1       2.340   8.468  11.284  1.00  0.00     0.074 A 
ATOM     49  C   UNL     1       4.484   8.175  12.581  1.00  0.00     0.049 A 
ATOM     50  N   UNL     1       2.326   9.153  10.191  1.00  0.00    -0.248 NA
ATOM     51  C   UNL     1       1.007   8.240  11.874  1.00  0.00     0.031 C 
ATOM     52  C   UNL     1       5.450   7.430  13.399  1.00  0.00     0.029 A 
ATOM     53  N   UNL     1       4.792   9.463  12.865  1.00  0.00    -0.354 N 
ATOM     54  C   UNL     1       1.027   9.633  10.097  1.00  0.00     0.074 A 
ATOM     55  C   UNL     1       0.228   8.799  10.951  1.00  0.00     0.031 C 
ATOM     56  C   UNL     1       6.042   8.281  14.271  1.00  0.00     0.029 A 
ATOM     57  C   UNL     1       5.584   9.632  13.993  1.00  0.00     0.049 A 
ATOM     58  H   UNL     1       4.481  10.218  12.315  1.00  0.00     0.167 HD
ATOM     59  C   UNL     1       0.780  10.898   9.661  1.00  0.00     0.031 A 
ATOM     60  C   UNL     1       5.751  10.791  14.684  1.00  0.00     0.031 A 
ATOM     61  C   UNL     1       1.929  11.451   8.986  1.00  0.00     0.049 A 
ATOM     62  C   UNL     1       5.278  11.897  13.811  1.00  0.00     0.074 A 
ATOM     63  C   UNL     1       2.683  11.089   7.888  1.00  0.00     0.029 A 
ATOM     64  N   UNL     1       2.700  12.333   9.708  1.00  0.00    -0.354 N 
ATOM     65  N   UNL     1       5.886  12.254  12.716  1.00  0.00    -0.248 NA
ATOM     66  C   UNL     1       3.869  12.261  13.887  1.00  0.00     0.031 C 
ATOM     67  C   UNL     1       4.027  11.414   8.239  1.00  0.00     0.029 A 
ATOM     68  C   UNL     1       4.017  12.025   9.494  1.00  0.00     0.049 A 
ATOM     69  H   UNL     1       2.363  13.060  10.280  1.00  0.00     0.167 HD
ATOM     70  C   UNL     1       4.865  12.469  11.799  1.00  0.00     0.074 A 
ATOM     71  C   UNL     1       3.643  12.545  12.601  1.00  0.00     0.031 C 
ATOM     72  C   UNL     1       5.064  12.255  10.464  1.00  0.00     0.031 A 
BRANCH  59  73
ATOM     73  C   UNL     1      -0.279  11.781  10.285  1.00  0.00    -0.014 A 
ATOM     74  C   UNL     1      -0.427  13.084   9.783  1.00  0.00     0.009 A 
ATOM     75  C   UNL     1      -0.927  11.504  11.507  1.00  0.00     0.009 A 
ATOM     76  C   UNL     1      -1.092  14.074  10.515  1.00  0.00     0.001 A 
ATOM     77  C   UNL     1      -1.628  12.477  12.220  1.00  0.00     0.001 A 
ATOM     78  C   UNL     1      -1.681  13.773  11.739  1.00  0.00     0.000 A 
ENDBRANCH  59  73
BRANCH  60  79
ATOM     79  C   UNL     1       5.954  10.981  16.141  1.00  0.00    -0.014 A 
ATOM     80  C   UNL     1       6.388  12.215  16.655  1.00  0.00     0.009 A 
ATOM     81  C   UNL     1       5.459  10.035  17.058  1.00  0.00     0.009 A 
ATOM     82  C   UNL     1       6.297  12.501  18.026  1.00  0.00     0.001 A 
ATOM     83  C   UNL     1       5.370  10.319  18.426  1.00  0.00     0.001 A 
ATOM     84  C   UNL     1       5.776  11.558  18.909  1.00  0.00     0.000 A 
ENDBRANCH  60  79
BRANCH  72  85
ATOM     85  C   UNL     1       6.475  12.002   9.992  1.00  0.00    -0.014 A 
ATOM     86  C   UNL     1       7.239  10.890  10.391  1.00  0.00     0.009 A 
ATOM     87  C   UNL     1       6.985  12.832   8.984  1.00  0.00     0.009 A 
ATOM     88  C   UNL     1       8.487  10.634   9.810  1.00  0.00     0.001 A 
ATOM     89  C   UNL     1       8.220  12.566   8.391  1.00  0.00     0.001 A 
ATOM     90  C   UNL     1       8.973  11.470   8.807  1.00  0.00     0.000 A 
ENDBRANCH  72  85
ENDBRANCH  46  47
ENDBRANCH  39  41
ENDBRANCH  38  39
ENDBRANCH  37  38
ENDBRANCH  36  37
ENDBRANCH  35  36
ENDBRANCH  34  35
ENDBRANCH   1  34
TORSDOF 21
