REMARK SMILES CC1=C(C)C[C@@H](C(=O)OCCOCCOCCOC(=O)c2ccc(-c3c4nc(c(-c5ccccc5)c5ccc([nH]5)c(-c5ccccc5)c5nc(c(-c6ccccc6)c6ccc3[nH]6)C=C5)C=C4)cc2)[C@@H](C(=O)N2CCN(c3cccc(C(F)(F)F)c3)CC2)C1
REMARK SMILES IDX 13 1 12 2 11 3 10 4 9 5 7 6 8 7 6 8 1 9 2 10 3 11 88 12 4 13
REMARK SMILES IDX 5 14 69 15 70 16 71 17 72 18 73 19 87 20 74 21 86 22 75 23
REMARK SMILES IDX 76 24 77 25 85 26 78 27 80 28 79 29 81 30 82 31 83 32 84 33
REMARK SMILES IDX 14 34 15 35 16 36 17 37 18 38 19 39 20 40 21 41 22 42 68 43
REMARK SMILES IDX 23 44 67 45 24 46 25 47 26 48 61 49 27 50 66 51 60 52 62 53
REMARK SMILES IDX 28 54 65 55 59 56 58 57 29 59 51 60 36 61 50 62 37 63 40 64
REMARK SMILES IDX 49 65 63 66 38 67 39 68 48 70 64 71 41 72 30 73 31 74 35 75
REMARK SMILES IDX 32 76 34 77 33 78 52 79 53 80 57 81 54 82 56 83 55 84 42 85
REMARK SMILES IDX 43 86 47 87 44 88 46 89 45 90
REMARK H PARENT 62 58 40 69
REMARK Flexibility Score: inf
ROOT
ATOM      1  C   UNL     1       2.161   5.987   4.213  1.00  0.00     0.188 C 
ENDROOT
BRANCH   1   2
ATOM      2  O   UNL     1       1.945   5.053   5.271  1.00  0.00    -0.376 OA
BRANCH   2   3
ATOM      3  C   UNL     1       2.586   3.787   5.210  1.00  0.00     0.202 C 
BRANCH   3   4
ATOM      4  C   UNL     1       1.756   2.667   4.562  1.00  0.00     0.261 C 
BRANCH   4   5
ATOM      5  O   UNL     1       1.463   2.800   3.150  1.00  0.00    -0.463 OA
BRANCH   5   6
ATOM      6  C   UNL     1       0.343   3.494   2.856  1.00  0.00     0.310 C 
ATOM      7  O   UNL     1      -0.297   4.144   3.682  1.00  0.00    -0.252 OA
BRANCH   6   8
ATOM      8  C   UNL     1      -0.245   3.276   1.471  1.00  0.00     0.116 C 
ATOM      9  C   UNL     1       0.945  -0.659  -0.072  1.00  0.00     0.039 C 
ATOM     10  C   UNL     1       0.294   0.629   0.360  1.00  0.00    -0.074 C 
ATOM     11  C   UNL     1      -0.624   0.762   1.337  1.00  0.00    -0.073 C 
ATOM     12  C   UNL     1       0.740   1.817  -0.457  1.00  0.00     0.045 C 
ATOM     13  C   UNL     1      -1.157  -0.349   2.201  1.00  0.00     0.039 C 
ATOM     14  C   UNL     1      -1.239   2.114   1.609  1.00  0.00     0.046 C 
ATOM     15  C   UNL     1       0.540   3.227   0.149  1.00  0.00     0.097 C 
BRANCH  15  16
ATOM     16  C   UNL     1       1.898   3.928   0.085  1.00  0.00     0.227 C 
ATOM     17  O   UNL     1       2.872   3.430   0.652  1.00  0.00    -0.275 OA
ATOM     18  N   UNL     1       2.051   5.043  -0.749  1.00  0.00    -0.339 N 
ATOM     19  C   UNL     1       3.440   5.503  -0.951  1.00  0.00     0.141 C 
ATOM     20  C   UNL     1       0.980   6.024  -1.014  1.00  0.00     0.141 C 
ATOM     21  C   UNL     1       3.640   6.485  -2.112  1.00  0.00     0.138 C 
ATOM     22  C   UNL     1       1.278   7.129  -2.064  1.00  0.00     0.138 C 
ATOM     23  N   UNL     1       2.668   7.576  -1.983  1.00  0.00    -0.368 N 
BRANCH  23  24
ATOM     24  C   UNL     1       3.025   8.787  -2.559  1.00  0.00     0.037 A 
ATOM     25  C   UNL     1       3.131   8.991  -3.934  1.00  0.00     0.026 A 
ATOM     26  C   UNL     1       3.361   9.852  -1.718  1.00  0.00     0.039 A 
ATOM     27  C   UNL     1       3.562  10.224  -4.443  1.00  0.00     0.003 A 
ATOM     28  C   UNL     1       3.817  11.089  -2.198  1.00  0.00     0.058 A 
ATOM     29  C   UNL     1       3.902  11.268  -3.580  1.00  0.00     0.013 A 
BRANCH  28  30
ATOM     30  C   UNL     1       4.176  12.198  -1.242  1.00  0.00     0.416 C 
ATOM     31  F   UNL     1       5.170  13.006  -1.707  1.00  0.00    -0.166 F 
ATOM     32  F   UNL     1       3.118  13.020  -0.991  1.00  0.00    -0.166 F 
ATOM     33  F   UNL     1       4.598  11.765  -0.021  1.00  0.00    -0.166 F 
ENDBRANCH  28  30
ENDBRANCH  23  24
ENDBRANCH  15  16
ENDBRANCH   6   8
ENDBRANCH   5   6
ENDBRANCH   4   5
ENDBRANCH   3   4
ENDBRANCH   2   3
ENDBRANCH   1   2
BRANCH   1  34
ATOM     34  C   UNL     1       3.127   5.618   3.085  1.00  0.00     0.188 C 
BRANCH  34  35
ATOM     35  O   UNL     1       4.477   5.583   3.546  1.00  0.00    -0.376 OA
BRANCH  35  36
ATOM     36  C   UNL     1       5.338   6.495   2.870  1.00  0.00     0.202 C 
BRANCH  36  37
ATOM     37  C   UNL     1       5.260   7.879   3.517  1.00  0.00     0.261 C 
BRANCH  37  38
ATOM     38  O   UNL     1       3.983   8.517   3.302  1.00  0.00    -0.460 OA
BRANCH  38  39
ATOM     39  C   UNL     1       3.834   9.030   2.063  1.00  0.00     0.338 C 
ATOM     40  O   UNL     1       4.651   8.992   1.163  1.00  0.00    -0.246 OA
BRANCH  39  41
ATOM     41  C   UNL     1       2.489   9.619   1.912  1.00  0.00     0.060 A 
ATOM     42  C   UNL     1       1.415   8.806   1.546  1.00  0.00     0.016 A 
ATOM     43  C   UNL     1       2.345  11.005   1.920  1.00  0.00     0.016 A 
ATOM     44  C   UNL     1       0.207   9.378   1.133  1.00  0.00     0.010 A 
ATOM     45  C   UNL     1       1.127  11.576   1.537  1.00  0.00     0.010 A 
ATOM     46  C   UNL     1       0.053  10.771   1.115  1.00  0.00    -0.014 A 
BRANCH  46  47
ATOM     47  C   UNL     1      -1.206  11.413   0.651  1.00  0.00     0.031 A 
ATOM     48  C   UNL     1      -1.209  12.274  -0.583  1.00  0.00     0.074 A 
ATOM     49  C   UNL     1      -2.345  11.271   1.353  1.00  0.00     0.049 A 
ATOM     50  N   UNL     1      -2.097  13.151  -0.979  1.00  0.00    -0.248 NA
ATOM     51  C   UNL     1      -0.065  12.123  -1.493  1.00  0.00     0.031 C 
ATOM     52  C   UNL     1      -2.526  10.405   2.517  1.00  0.00     0.029 A 
ATOM     53  N   UNL     1      -3.564  11.889   1.201  1.00  0.00    -0.354 N 
ATOM     54  C   UNL     1      -1.594  13.695  -2.155  1.00  0.00     0.074 A 
ATOM     55  C   UNL     1      -0.334  13.033  -2.420  1.00  0.00     0.031 C 
ATOM     56  C   UNL     1      -3.773  10.560   2.987  1.00  0.00     0.029 A 
ATOM     57  C   UNL     1      -4.447  11.597   2.212  1.00  0.00     0.049 A 
ATOM     58  H   UNL     1      -3.782  12.479   0.444  1.00  0.00     0.167 HD
ATOM     59  C   UNL     1      -2.129  14.668  -2.930  1.00  0.00     0.031 A 
ATOM     60  C   UNL     1      -5.631  12.153   2.533  1.00  0.00     0.031 A 
ATOM     61  C   UNL     1      -3.391  15.313  -2.677  1.00  0.00     0.049 A 
ATOM     62  C   UNL     1      -6.162  13.298   1.720  1.00  0.00     0.074 A 
ATOM     63  C   UNL     1      -4.010  16.317  -3.404  1.00  0.00     0.029 A 
ATOM     64  N   UNL     1      -4.231  15.011  -1.618  1.00  0.00    -0.354 N 
ATOM     65  N   UNL     1      -5.644  13.865   0.658  1.00  0.00    -0.248 NA
ATOM     66  C   UNL     1      -7.429  13.893   2.166  1.00  0.00     0.031 C 
ATOM     67  C   UNL     1      -5.210  16.647  -2.763  1.00  0.00     0.029 A 
ATOM     68  C   UNL     1      -5.354  15.820  -1.661  1.00  0.00     0.049 A 
ATOM     69  H   UNL     1      -4.055  14.324  -0.936  1.00  0.00     0.167 HD
ATOM     70  C   UNL     1      -6.523  14.881   0.308  1.00  0.00     0.074 A 
ATOM     71  C   UNL     1      -7.616  14.840   1.256  1.00  0.00     0.031 C 
ATOM     72  C   UNL     1      -6.429  15.773  -0.708  1.00  0.00     0.031 A 
BRANCH  59  73
ATOM     73  C   UNL     1      -1.330  15.142  -4.110  1.00  0.00    -0.014 A 
ATOM     74  C   UNL     1      -1.290  14.414  -5.307  1.00  0.00     0.009 A 
ATOM     75  C   UNL     1      -0.670  16.380  -4.041  1.00  0.00     0.009 A 
ATOM     76  C   UNL     1      -0.592  14.912  -6.411  1.00  0.00     0.001 A 
ATOM     77  C   UNL     1       0.011  16.883  -5.150  1.00  0.00     0.001 A 
ATOM     78  C   UNL     1       0.052  16.147  -6.333  1.00  0.00     0.000 A 
ENDBRANCH  59  73
BRANCH  60  79
ATOM     79  C   UNL     1      -6.347  11.697   3.751  1.00  0.00    -0.014 A 
ATOM     80  C   UNL     1      -7.528  10.949   3.652  1.00  0.00     0.009 A 
ATOM     81  C   UNL     1      -5.839  12.006   5.024  1.00  0.00     0.009 A 
ATOM     82  C   UNL     1      -8.192  10.526   4.806  1.00  0.00     0.001 A 
ATOM     83  C   UNL     1      -6.490  11.559   6.174  1.00  0.00     0.001 A 
ATOM     84  C   UNL     1      -7.669  10.824   6.064  1.00  0.00     0.000 A 
ENDBRANCH  60  79
BRANCH  72  85
ATOM     85  C   UNL     1      -7.552  16.757  -0.855  1.00  0.00    -0.014 A 
ATOM     86  C   UNL     1      -7.651  17.872  -0.009  1.00  0.00     0.009 A 
ATOM     87  C   UNL     1      -8.512  16.574  -1.862  1.00  0.00     0.009 A 
ATOM     88  C   UNL     1      -8.709  18.771  -0.151  1.00  0.00     0.001 A 
ATOM     89  C   UNL     1      -9.558  17.486  -2.013  1.00  0.00     0.001 A 
ATOM     90  C   UNL     1      -9.660  18.579  -1.153  1.00  0.00     0.000 A 
ENDBRANCH  72  85
ENDBRANCH  46  47
ENDBRANCH  39  41
ENDBRANCH  38  39
ENDBRANCH  37  38
ENDBRANCH  36  37
ENDBRANCH  35  36
ENDBRANCH  34  35
ENDBRANCH   1  34
TORSDOF 20
