REMARK SMILES CC(C)(C)OC(=O)N1CCN(c2nc3ccccc3s2)[C@H](C(=O)OCCOCCOCCOC(=O)c2ccc(-c3c4nc(c(-c5ccccc5)c5ccc([nH]5)c(-c5ccccc5)c5nc(c(-c6ccccc6)c6ccc3[nH]6)C=C5)C=C4)cc2)C1
REMARK SMILES IDX 28 1 27 2 26 3 25 4 24 5 22 6 23 7 21 8 8 9 9 10 84 11 10 12
REMARK SMILES IDX 11 13 6 14 7 15 5 16 2 17 1 18 3 19 4 20 12 21 13 22 20 23
REMARK SMILES IDX 14 24 19 25 15 26 18 27 16 28 17 29 29 30 30 31 31 32 32 33
REMARK SMILES IDX 33 34 34 35 35 36 36 37 37 38 83 39 38 40 82 41 39 42 40 43
REMARK SMILES IDX 41 44 76 45 42 46 81 47 75 48 77 49 43 50 80 51 74 52 73 53
REMARK SMILES IDX 44 55 66 56 51 57 65 58 52 59 55 60 64 61 78 62 53 63 54 64
REMARK SMILES IDX 63 66 79 67 56 68 45 69 46 70 50 71 47 72 49 73 48 74 67 75
REMARK SMILES IDX 68 76 72 77 69 78 71 79 70 80 57 81 58 82 62 83 59 84 61 85
REMARK SMILES IDX 60 86
REMARK H PARENT 77 54 55 65
REMARK Flexibility Score: inf
ROOT
ATOM      1  C   UNL     1       5.962   6.333  -0.230  1.00  0.00     0.188 C 
ENDROOT
BRANCH   1   2
ATOM      2  O   UNL     1       7.082   5.496  -0.467  1.00  0.00    -0.376 OA
BRANCH   2   3
ATOM      3  C   UNL     1       7.386   5.079  -1.792  1.00  0.00     0.202 C 
BRANCH   3   4
ATOM      4  C   UNL     1       6.321   4.317  -2.592  1.00  0.00     0.261 C 
BRANCH   4   5
ATOM      5  O   UNL     1       5.095   5.018  -2.933  1.00  0.00    -0.462 OA
BRANCH   5   6
ATOM      6  C   UNL     1       4.026   4.628  -2.203  1.00  0.00     0.330 C 
ATOM      7  O   UNL     1       4.137   3.931  -1.189  1.00  0.00    -0.250 OA
BRANCH   6   8
ATOM      8  C   UNL     1       2.635   4.879  -2.738  1.00  0.00     0.214 C 
ATOM      9  N   UNL     1       0.802   3.462  -3.590  1.00  0.00    -0.304 N 
ATOM     10  C   UNL     1       0.196   4.571  -4.324  1.00  0.00     0.144 C 
ATOM     11  C   UNL     1       2.252   3.545  -3.410  1.00  0.00     0.160 C 
ATOM     12  C   UNL     1       0.680   5.933  -3.780  1.00  0.00     0.141 C 
ATOM     13  N   UNL     1       2.168   5.952  -3.653  1.00  0.00    -0.331 N 
BRANCH   9  14
ATOM     14  C   UNL     1       0.047   2.421  -3.101  1.00  0.00     0.410 C 
ATOM     15  O   UNL     1      -1.108   2.206  -3.435  1.00  0.00    -0.224 OA
BRANCH  14  16
ATOM     16  O   UNL     1       0.750   1.704  -2.194  1.00  0.00    -0.444 OA
BRANCH  16  17
ATOM     17  C   UNL     1       0.321   0.433  -1.649  1.00  0.00     0.106 C 
ATOM     18  C   UNL     1       1.091   0.296  -0.327  1.00  0.00     0.056 C 
ATOM     19  C   UNL     1       0.777  -0.657  -2.620  1.00  0.00     0.056 C 
ATOM     20  C   UNL     1      -1.177   0.336  -1.353  1.00  0.00     0.056 C 
ENDBRANCH  16  17
ENDBRANCH  14  16
ENDBRANCH   9  14
BRANCH  13  21
ATOM     21  C   UNL     1       2.729   7.171  -3.836  1.00  0.00     0.187 A 
ATOM     22  N   UNL     1       2.186   8.279  -3.381  1.00  0.00    -0.220 NA
ATOM     23  S   UNL     1       3.941   7.413  -5.040  1.00  0.00    -0.097 S 
ATOM     24  C   UNL     1       2.678   9.388  -4.055  1.00  0.00     0.084 A 
ATOM     25  C   UNL     1       3.665   9.115  -5.001  1.00  0.00     0.056 A 
ATOM     26  C   UNL     1       2.276  10.727  -3.857  1.00  0.00     0.030 A 
ATOM     27  C   UNL     1       4.287  10.140  -5.737  1.00  0.00     0.021 A 
ATOM     28  C   UNL     1       2.899  11.755  -4.572  1.00  0.00     0.002 A 
ATOM     29  C   UNL     1       3.899  11.463  -5.494  1.00  0.00     0.002 A 
ENDBRANCH  13  21
ENDBRANCH   6   8
ENDBRANCH   5   6
ENDBRANCH   4   5
ENDBRANCH   3   4
ENDBRANCH   2   3
ENDBRANCH   1   2
BRANCH   1  30
ATOM     30  C   UNL     1       5.687   7.520  -1.161  1.00  0.00     0.188 C 
BRANCH  30  31
ATOM     31  O   UNL     1       6.648   7.644  -2.193  1.00  0.00    -0.376 OA
BRANCH  31  32
ATOM     32  C   UNL     1       6.673   8.873  -2.903  1.00  0.00     0.202 C 
BRANCH  32  33
ATOM     33  C   UNL     1       7.361   9.975  -2.093  1.00  0.00     0.261 C 
BRANCH  33  34
ATOM     34  O   UNL     1       6.544  10.415  -0.992  1.00  0.00    -0.460 OA
BRANCH  34  35
ATOM     35  C   UNL     1       5.379  11.005  -1.360  1.00  0.00     0.338 C 
ATOM     36  O   UNL     1       5.091  11.423  -2.455  1.00  0.00    -0.246 OA
BRANCH  35  37
ATOM     37  C   UNL     1       4.441  10.914  -0.227  1.00  0.00     0.060 A 
ATOM     38  C   UNL     1       3.278  10.138  -0.338  1.00  0.00     0.016 A 
ATOM     39  C   UNL     1       4.716  11.622   0.938  1.00  0.00     0.016 A 
ATOM     40  C   UNL     1       2.360  10.102   0.713  1.00  0.00     0.010 A 
ATOM     41  C   UNL     1       3.799  11.588   1.984  1.00  0.00     0.010 A 
ATOM     42  C   UNL     1       2.607  10.849   1.870  1.00  0.00    -0.014 A 
BRANCH  42  43
ATOM     43  C   UNL     1       1.605  10.971   2.952  1.00  0.00     0.031 A 
ATOM     44  C   UNL     1       0.803  12.236   3.053  1.00  0.00     0.074 A 
ATOM     45  C   UNL     1       1.478  10.008   3.881  1.00  0.00     0.049 A 
ATOM     46  N   UNL     1       0.067  12.674   4.040  1.00  0.00    -0.248 NA
ATOM     47  C   UNL     1       0.847  13.130   1.884  1.00  0.00     0.031 C 
ATOM     48  C   UNL     1       2.152   8.712   3.860  1.00  0.00     0.029 A 
ATOM     49  N   UNL     1       0.755   9.996   5.048  1.00  0.00    -0.354 N 
ATOM     50  C   UNL     1      -0.424  13.904   3.622  1.00  0.00     0.074 A 
ATOM     51  C   UNL     1       0.107  14.148   2.298  1.00  0.00     0.031 C 
ATOM     52  C   UNL     1       1.834   8.039   4.979  1.00  0.00     0.029 A 
ATOM     53  C   UNL     1       0.982   8.881   5.816  1.00  0.00     0.049 A 
ATOM     54  H   UNL     1       0.135  10.716   5.308  1.00  0.00     0.167 HD
ATOM     55  C   UNL     1      -1.240  14.756   4.288  1.00  0.00     0.031 A 
ATOM     56  C   UNL     1       0.588   8.597   7.072  1.00  0.00     0.031 A 
ATOM     57  C   UNL     1      -1.744  14.520   5.614  1.00  0.00     0.049 A 
ATOM     58  C   UNL     1      -0.234   9.604   7.832  1.00  0.00     0.074 A 
ATOM     59  C   UNL     1      -2.557  15.330   6.387  1.00  0.00     0.029 A 
ATOM     60  N   UNL     1      -1.480  13.384   6.363  1.00  0.00    -0.354 N 
ATOM     61  N   UNL     1      -0.673  10.777   7.443  1.00  0.00    -0.248 NA
ATOM     62  C   UNL     1      -0.609   9.247   9.208  1.00  0.00     0.031 C 
ATOM     63  C   UNL     1      -2.751  14.701   7.622  1.00  0.00     0.029 A 
ATOM     64  C   UNL     1      -2.103  13.477   7.596  1.00  0.00     0.049 A 
ATOM     65  H   UNL     1      -0.931  12.624   6.063  1.00  0.00     0.167 HD
ATOM     66  C   UNL     1      -1.399  11.284   8.514  1.00  0.00     0.074 A 
ATOM     67  C   UNL     1      -1.352  10.286   9.563  1.00  0.00     0.031 C 
ATOM     68  C   UNL     1      -2.049  12.469   8.622  1.00  0.00     0.031 A 
BRANCH  55  69
ATOM     69  C   UNL     1      -1.602  16.041   3.600  1.00  0.00    -0.014 A 
ATOM     70  C   UNL     1      -2.498  16.060   2.519  1.00  0.00     0.009 A 
ATOM     71  C   UNL     1      -1.060  17.253   4.055  1.00  0.00     0.009 A 
ATOM     72  C   UNL     1      -2.819  17.265   1.890  1.00  0.00     0.001 A 
ATOM     73  C   UNL     1      -1.403  18.458   3.440  1.00  0.00     0.001 A 
ATOM     74  C   UNL     1      -2.276  18.462   2.353  1.00  0.00     0.000 A 
ENDBRANCH  55  69
BRANCH  56  75
ATOM     75  C   UNL     1       1.002   7.323   7.717  1.00  0.00    -0.014 A 
ATOM     76  C   UNL     1       0.055   6.327   8.000  1.00  0.00     0.009 A 
ATOM     77  C   UNL     1       2.340   7.110   8.083  1.00  0.00     0.009 A 
ATOM     78  C   UNL     1       0.435   5.156   8.660  1.00  0.00     0.001 A 
ATOM     79  C   UNL     1       2.723   5.926   8.716  1.00  0.00     0.001 A 
ATOM     80  C   UNL     1       1.769   4.955   9.013  1.00  0.00     0.000 A 
ENDBRANCH  56  75
BRANCH  68  81
ATOM     81  C   UNL     1      -2.802  12.725   9.896  1.00  0.00    -0.014 A 
ATOM     82  C   UNL     1      -2.134  13.031  11.091  1.00  0.00     0.009 A 
ATOM     83  C   UNL     1      -4.205  12.691   9.889  1.00  0.00     0.009 A 
ATOM     84  C   UNL     1      -2.857  13.268  12.262  1.00  0.00     0.001 A 
ATOM     85  C   UNL     1      -4.926  12.954  11.054  1.00  0.00     0.001 A 
ATOM     86  C   UNL     1      -4.252  13.233  12.241  1.00  0.00     0.000 A 
ENDBRANCH  68  81
ENDBRANCH  42  43
ENDBRANCH  35  37
ENDBRANCH  34  35
ENDBRANCH  33  34
ENDBRANCH  32  33
ENDBRANCH  31  32
ENDBRANCH  30  31
ENDBRANCH   1  30
TORSDOF 21
