REMARK SMILES O=C(OCCOCCOCCOC(=O)c1ccc([C@H]2CCCN(C(=O)c3ccc4[nH]ccc4c3)C2)cc1)c1ccc(-c2c3nc(c(-c4ccccc4)c4ccc([nH]4)c(-c4ccccc4)c4nc(c(-c5ccccc5)c5ccc2[nH]5)C=C4)C=C3)cc1
REMARK SMILES IDX 8 1 7 2 6 3 5 4 4 5 3 6 2 7 1 8 38 9 39 10 85 11 40 12 84 13
REMARK SMILES IDX 41 14 42 15 43 16 78 17 44 18 83 19 77 20 79 21 45 22 82 23
REMARK SMILES IDX 76 24 75 25 46 27 68 28 53 29 67 30 54 31 57 32 66 33 80 34
REMARK SMILES IDX 55 35 56 36 65 38 81 39 58 40 47 41 48 42 52 43 49 44 51 45
REMARK SMILES IDX 50 46 69 47 70 48 74 49 71 50 73 51 72 52 59 53 60 54 64 55
REMARK SMILES IDX 61 56 63 57 62 58 9 59 10 60 11 61 12 62 13 63 14 64 15 65
REMARK SMILES IDX 16 66 37 67 17 68 36 69 18 70 19 71 20 72 35 73 21 74 23 75
REMARK SMILES IDX 22 76 24 77 25 78 26 79 27 80 34 81 28 82 33 83 29 84 32 85
REMARK SMILES IDX 30 86 31 87
REMARK H PARENT 79 26 57 37 30 88
REMARK Flexibility Score: inf
ROOT
ATOM      1  C   UNL     1      -5.060  -5.048  -5.031  1.00  0.00     0.188 C 
ENDROOT
BRANCH   1   2
ATOM      2  C   UNL     1      -6.074  -6.125  -4.638  1.00  0.00     0.188 C 
BRANCH   2   3
ATOM      3  O   UNL     1      -5.607  -7.435  -4.983  1.00  0.00    -0.376 OA
BRANCH   3   4
ATOM      4  C   UNL     1      -6.658  -8.348  -5.316  1.00  0.00     0.202 C 
BRANCH   4   5
ATOM      5  C   UNL     1      -7.326  -9.021  -4.107  1.00  0.00     0.261 C 
BRANCH   5   6
ATOM      6  O   UNL     1      -7.297  -8.204  -2.925  1.00  0.00    -0.460 OA
BRANCH   6   7
ATOM      7  C   UNL     1      -6.418  -8.259  -1.893  1.00  0.00     0.338 C 
ATOM      8  O   UNL     1      -6.629  -7.563  -0.901  1.00  0.00    -0.246 OA
BRANCH   7   9
ATOM      9  C   UNL     1      -5.209  -9.141  -1.877  1.00  0.00     0.060 A 
ATOM     10  C   UNL     1      -4.541  -9.596  -3.012  1.00  0.00     0.016 A 
ATOM     11  C   UNL     1      -4.667  -9.477  -0.624  1.00  0.00     0.016 A 
ATOM     12  C   UNL     1      -3.443 -10.442  -2.922  1.00  0.00     0.010 A 
ATOM     13  C   UNL     1      -3.517 -10.274  -0.524  1.00  0.00     0.010 A 
ATOM     14  C   UNL     1      -2.915 -10.784  -1.681  1.00  0.00    -0.014 A 
BRANCH  14  15
ATOM     15  C   UNL     1      -1.806 -11.762  -1.626  1.00  0.00     0.031 A 
ATOM     16  C   UNL     1      -2.088 -13.139  -1.101  1.00  0.00     0.074 A 
ATOM     17  C   UNL     1      -0.612 -11.482  -2.186  1.00  0.00     0.049 A 
ATOM     18  N   UNL     1      -1.260 -14.124  -0.881  1.00  0.00    -0.248 NA
ATOM     19  C   UNL     1      -3.499 -13.464  -0.825  1.00  0.00     0.031 C 
ATOM     20  C   UNL     1      -0.285 -10.260  -2.922  1.00  0.00     0.029 A 
ATOM     21  N   UNL     1       0.541 -12.222  -2.256  1.00  0.00    -0.354 N 
ATOM     22  C   UNL     1      -2.046 -15.184  -0.449  1.00  0.00     0.074 A 
ATOM     23  C   UNL     1      -3.413 -14.718  -0.407  1.00  0.00     0.031 C 
ATOM     24  C   UNL     1       0.971 -10.346  -3.391  1.00  0.00     0.029 A 
ATOM     25  C   UNL     1       1.571 -11.577  -2.901  1.00  0.00     0.049 A 
ATOM     26  H   UNL     1       0.624 -13.128  -1.880  1.00  0.00     0.167 HD
ATOM     27  C   UNL     1      -1.656 -16.439  -0.129  1.00  0.00     0.031 A 
ATOM     28  C   UNL     1       2.871 -11.914  -3.014  1.00  0.00     0.031 A 
ATOM     29  C   UNL     1      -0.291 -16.882  -0.176  1.00  0.00     0.049 A 
ATOM     30  C   UNL     1       3.324 -13.157  -2.309  1.00  0.00     0.074 A 
ATOM     31  C   UNL     1       0.232 -18.123   0.140  1.00  0.00     0.029 A 
ATOM     32  N   UNL     1       0.773 -16.083  -0.563  1.00  0.00    -0.354 N 
ATOM     33  N   UNL     1       2.600 -14.118  -1.791  1.00  0.00    -0.248 NA
ATOM     34  C   UNL     1       4.773 -13.330  -2.147  1.00  0.00     0.031 C 
ATOM     35  C   UNL     1       1.624 -18.053   0.004  1.00  0.00     0.029 A 
ATOM     36  C   UNL     1       1.958 -16.784  -0.444  1.00  0.00     0.049 A 
ATOM     37  H   UNL     1       0.696 -15.153  -0.877  1.00  0.00     0.167 HD
ATOM     38  C   UNL     1       3.505 -15.042  -1.295  1.00  0.00     0.074 A 
ATOM     39  C   UNL     1       4.830 -14.509  -1.544  1.00  0.00     0.031 C 
ATOM     40  C   UNL     1       3.261 -16.238  -0.710  1.00  0.00     0.031 A 
BRANCH  27  41
ATOM     41  C   UNL     1      -2.711 -17.391   0.347  1.00  0.00    -0.014 A 
ATOM     42  C   UNL     1      -3.616 -17.988  -0.544  1.00  0.00     0.009 A 
ATOM     43  C   UNL     1      -2.788 -17.709   1.712  1.00  0.00     0.009 A 
ATOM     44  C   UNL     1      -4.591 -18.870  -0.072  1.00  0.00     0.001 A 
ATOM     45  C   UNL     1      -3.750 -18.605   2.177  1.00  0.00     0.001 A 
ATOM     46  C   UNL     1      -4.655 -19.181   1.286  1.00  0.00     0.000 A 
ENDBRANCH  27  41
BRANCH  28  47
ATOM     47  C   UNL     1       3.869 -11.001  -3.637  1.00  0.00    -0.014 A 
ATOM     48  C   UNL     1       4.652 -11.377  -4.734  1.00  0.00     0.009 A 
ATOM     49  C   UNL     1       4.116  -9.757  -3.042  1.00  0.00     0.009 A 
ATOM     50  C   UNL     1       5.662 -10.528  -5.207  1.00  0.00     0.001 A 
ATOM     51  C   UNL     1       5.093  -8.892  -3.534  1.00  0.00     0.001 A 
ATOM     52  C   UNL     1       5.876  -9.285  -4.612  1.00  0.00     0.000 A 
ENDBRANCH  28  47
BRANCH  40  53
ATOM     53  C   UNL     1       4.456 -17.085  -0.407  1.00  0.00    -0.014 A 
ATOM     54  C   UNL     1       5.281 -16.824   0.696  1.00  0.00     0.009 A 
ATOM     55  C   UNL     1       4.756 -18.162  -1.256  1.00  0.00     0.009 A 
ATOM     56  C   UNL     1       6.408 -17.614   0.925  1.00  0.00     0.001 A 
ATOM     57  C   UNL     1       5.867 -18.964  -1.008  1.00  0.00     0.001 A 
ATOM     58  C   UNL     1       6.697 -18.684   0.076  1.00  0.00     0.000 A 
ENDBRANCH  40  53
ENDBRANCH  14  15
ENDBRANCH   7   9
ENDBRANCH   6   7
ENDBRANCH   5   6
ENDBRANCH   4   5
ENDBRANCH   3   4
ENDBRANCH   2   3
ENDBRANCH   1   2
BRANCH   1  59
ATOM     59  O   UNL     1      -4.893  -4.829  -6.433  1.00  0.00    -0.376 OA
BRANCH  59  60
ATOM     60  C   UNL     1      -4.538  -5.952  -7.232  1.00  0.00     0.202 C 
BRANCH  60  61
ATOM     61  C   UNL     1      -3.113  -6.502  -7.094  1.00  0.00     0.261 C 
BRANCH  61  62
ATOM     62  O   UNL     1      -2.661  -6.731  -5.749  1.00  0.00    -0.460 OA
BRANCH  62  63
ATOM     63  C   UNL     1      -1.764  -5.819  -5.311  1.00  0.00     0.338 C 
ATOM     64  O   UNL     1      -1.402  -4.798  -5.895  1.00  0.00    -0.246 OA
BRANCH  63  65
ATOM     65  C   UNL     1      -1.094  -6.273  -4.086  1.00  0.00     0.060 A 
ATOM     66  C   UNL     1      -1.720  -6.365  -2.840  1.00  0.00     0.016 A 
ATOM     67  C   UNL     1       0.275  -6.484  -4.193  1.00  0.00     0.016 A 
ATOM     68  C   UNL     1      -0.951  -6.649  -1.693  1.00  0.00     0.005 A 
ATOM     69  C   UNL     1       1.026  -6.763  -3.056  1.00  0.00     0.005 A 
ATOM     70  C   UNL     1       0.441  -6.848  -1.777  1.00  0.00    -0.043 A 
BRANCH  70  71
ATOM     71  C   UNL     1       1.278  -7.105  -0.507  1.00  0.00     0.039 C 
ATOM     72  C   UNL     1       0.888  -8.414   0.200  1.00  0.00     0.012 C 
ATOM     73  C   UNL     1       2.796  -7.034  -0.775  1.00  0.00     0.128 C 
ATOM     74  C   UNL     1       1.843  -8.751   1.345  1.00  0.00     0.022 C 
ATOM     75  N   UNL     1       3.714  -7.651   0.170  1.00  0.00    -0.338 N 
ATOM     76  C   UNL     1       3.279  -8.864   0.853  1.00  0.00     0.120 C 
BRANCH  75  77
ATOM     77  C   UNL     1       5.057  -7.306  -0.021  1.00  0.00     0.253 C 
ATOM     78  O   UNL     1       5.428  -6.446  -0.819  1.00  0.00    -0.269 OA
BRANCH  77  79
ATOM     79  C   UNL     1       6.113  -7.986   0.740  1.00  0.00     0.040 A 
ATOM     80  C   UNL     1       6.608  -7.340   1.873  1.00  0.00     0.016 A 
ATOM     81  C   UNL     1       6.727  -9.133   0.215  1.00  0.00     0.024 A 
ATOM     82  C   UNL     1       7.731  -7.835   2.536  1.00  0.00     0.027 A 
ATOM     83  C   UNL     1       7.872  -9.635   0.866  1.00  0.00     0.000 A 
ATOM     84  C   UNL     1       8.344  -8.977   2.004  1.00  0.00     0.045 A 
ATOM     85  C   UNL     1       8.764 -10.715   0.611  1.00  0.00     0.028 A 
ATOM     86  N   UNL     1       9.474  -9.645   2.420  1.00  0.00    -0.361 N 
ATOM     87  C   UNL     1       9.741 -10.693   1.581  1.00  0.00     0.083 A 
ATOM     88  H   UNL     1      10.013  -9.403   3.208  1.00  0.00     0.166 HD
ENDBRANCH  77  79
ENDBRANCH  75  77
ENDBRANCH  70  71
ENDBRANCH  63  65
ENDBRANCH  62  63
ENDBRANCH  61  62
ENDBRANCH  60  61
ENDBRANCH  59  60
ENDBRANCH   1  59
TORSDOF 20
