REMARK SMILES COC[C@@H](C)[C@@](O)(C(=O)OCCOCCOCCOC(=O)c1ccc(-c2c3nc(c(-c4ccccc4)c4ccc([nH]4)c(-c4ccccc4)c4nc(c(-c5ccccc5)c5ccc2[nH]5)C=C4)C=C3)cc1)C(C)C
REMARK SMILES IDX 14 1 13 2 12 3 11 4 10 5 8 6 9 7 6 8 4 9 5 10 3 11 2 12 1 13
REMARK SMILES IDX 7 14 70 16 71 17 72 18 15 19 16 20 17 21 18 22 19 23 20 24
REMARK SMILES IDX 21 25 22 26 23 27 69 28 24 29 68 30 25 31 26 32 27 33 62 34
REMARK SMILES IDX 28 35 67 36 61 37 63 38 29 39 66 40 60 41 59 42 30 44 52 45
REMARK SMILES IDX 37 46 51 47 38 48 41 49 50 50 64 51 39 52 40 53 49 55 65 56
REMARK SMILES IDX 42 57 31 58 32 59 36 60 33 61 35 62 34 63 53 64 54 65 58 66
REMARK SMILES IDX 55 67 57 68 56 69 43 70 44 71 48 72 45 73 47 74 46 75
REMARK H PARENT 7 15 63 43 41 54
REMARK Flexibility Score: inf
ROOT
ATOM      1  C   UNL     1       1.068   6.536  -0.847  1.00  0.00     0.188 C 
ENDROOT
BRANCH   1   2
ATOM      2  O   UNL     1       0.169   7.515  -1.344  1.00  0.00    -0.376 OA
BRANCH   2   3
ATOM      3  C   UNL     1      -1.126   7.045  -1.724  1.00  0.00     0.202 C 
BRANCH   3   4
ATOM      4  C   UNL     1      -1.198   5.947  -2.804  1.00  0.00     0.261 C 
BRANCH   4   5
ATOM      5  O   UNL     1      -0.569   4.676  -2.483  1.00  0.00    -0.461 OA
BRANCH   5   6
ATOM      6  C   UNL     1       0.239   4.166  -3.453  1.00  0.00     0.338 C 
ATOM      7  O   UNL     1       0.525   4.779  -4.484  1.00  0.00    -0.249 OA
BRANCH   6   8
ATOM      8  C   UNL     1       0.818   2.726  -3.227  1.00  0.00     0.168 C 
BRANCH   8   9
ATOM      9  C   UNL     1       0.120   1.826  -2.161  1.00  0.00     0.055 C 
ATOM     10  C   UNL     1       0.215   2.294  -0.710  1.00  0.00     0.014 C 
BRANCH   9  11
ATOM     11  C   UNL     1       0.550   0.342  -2.264  1.00  0.00     0.166 C 
BRANCH  11  12
ATOM     12  O   UNL     1      -0.159  -0.469  -1.323  1.00  0.00    -0.384 OA
ATOM     13  C   UNL     1       0.645  -0.960  -0.254  1.00  0.00     0.194 C 
ENDBRANCH  11  12
ENDBRANCH   9  11
ENDBRANCH   8   9
BRANCH   8  14
ATOM     14  O   UNL     1       0.449   2.106  -4.506  1.00  0.00    -0.378 OA
ATOM     15  H   UNL     1      -0.515   2.013  -4.555  1.00  0.00     0.212 HD
ENDBRANCH   8  14
BRANCH   8  16
ATOM     16  C   UNL     1       2.393   2.824  -3.261  1.00  0.00     0.026 C 
ATOM     17  C   UNL     1       3.063   3.267  -1.965  1.00  0.00     0.011 C 
ATOM     18  C   UNL     1       3.142   1.596  -3.811  1.00  0.00     0.011 C 
ENDBRANCH   8  16
ENDBRANCH   6   8
ENDBRANCH   5   6
ENDBRANCH   4   5
ENDBRANCH   3   4
ENDBRANCH   2   3
ENDBRANCH   1   2
BRANCH   1  19
ATOM     19  C   UNL     1       0.694   5.859   0.480  1.00  0.00     0.188 C 
BRANCH  19  20
ATOM     20  O   UNL     1      -0.699   5.626   0.632  1.00  0.00    -0.376 OA
BRANCH  20  21
ATOM     21  C   UNL     1      -1.114   4.816   1.731  1.00  0.00     0.202 C 
BRANCH  21  22
ATOM     22  C   UNL     1      -0.654   5.302   3.112  1.00  0.00     0.261 C 
BRANCH  22  23
ATOM     23  O   UNL     1       0.773   5.229   3.289  1.00  0.00    -0.460 OA
BRANCH  23  24
ATOM     24  C   UNL     1       1.336   4.005   3.159  1.00  0.00     0.338 C 
ATOM     25  O   UNL     1       0.757   2.932   3.132  1.00  0.00    -0.246 OA
BRANCH  24  26
ATOM     26  C   UNL     1       2.762   4.185   2.802  1.00  0.00     0.060 A 
ATOM     27  C   UNL     1       3.325   3.298   1.875  1.00  0.00     0.016 A 
ATOM     28  C   UNL     1       3.528   5.233   3.322  1.00  0.00     0.016 A 
ATOM     29  C   UNL     1       4.660   3.434   1.492  1.00  0.00     0.010 A 
ATOM     30  C   UNL     1       4.868   5.362   2.949  1.00  0.00     0.010 A 
ATOM     31  C   UNL     1       5.448   4.445   2.056  1.00  0.00    -0.014 A 
BRANCH  31  32
ATOM     32  C   UNL     1       6.919   4.414   1.879  1.00  0.00     0.031 A 
ATOM     33  C   UNL     1       7.746   3.753   2.947  1.00  0.00     0.074 A 
ATOM     34  C   UNL     1       7.516   4.932   0.792  1.00  0.00     0.049 A 
ATOM     35  N   UNL     1       9.046   3.635   3.037  1.00  0.00    -0.248 NA
ATOM     36  C   UNL     1       7.004   3.137   4.060  1.00  0.00     0.031 C 
ATOM     37  C   UNL     1       6.833   5.541  -0.347  1.00  0.00     0.029 A 
ATOM     38  N   UNL     1       8.849   5.024   0.477  1.00  0.00    -0.354 N 
ATOM     39  C   UNL     1       9.277   2.941   4.217  1.00  0.00     0.074 A 
ATOM     40  C   UNL     1       7.988   2.683   4.820  1.00  0.00     0.031 C 
ATOM     41  C   UNL     1       7.756   5.949  -1.238  1.00  0.00     0.029 A 
ATOM     42  C   UNL     1       9.091   5.665  -0.713  1.00  0.00     0.049 A 
ATOM     43  H   UNL     1       9.564   4.665   1.050  1.00  0.00     0.167 HD
ATOM     44  C   UNL     1      10.455   2.550   4.755  1.00  0.00     0.031 A 
ATOM     45  C   UNL     1      10.258   6.003  -1.298  1.00  0.00     0.031 A 
ATOM     46  C   UNL     1      11.742   2.821   4.177  1.00  0.00     0.049 A 
ATOM     47  C   UNL     1      11.561   5.655  -0.621  1.00  0.00     0.074 A 
ATOM     48  C   UNL     1      12.992   2.463   4.652  1.00  0.00     0.029 A 
ATOM     49  N   UNL     1      11.946   3.529   3.004  1.00  0.00    -0.354 N 
ATOM     50  N   UNL     1      11.768   4.984   0.485  1.00  0.00    -0.248 NA
ATOM     51  C   UNL     1      12.793   6.116  -1.282  1.00  0.00     0.031 C 
ATOM     52  C   UNL     1      13.955   3.006   3.796  1.00  0.00     0.029 A 
ATOM     53  C   UNL     1      13.303   3.647   2.756  1.00  0.00     0.049 A 
ATOM     54  H   UNL     1      11.232   3.893   2.432  1.00  0.00     0.167 HD
ATOM     55  C   UNL     1      13.149   4.913   0.635  1.00  0.00     0.074 A 
ATOM     56  C   UNL     1      13.730   5.600  -0.499  1.00  0.00     0.031 C 
ATOM     57  C   UNL     1      13.871   4.328   1.622  1.00  0.00     0.031 A 
BRANCH  44  58
ATOM     58  C   UNL     1      10.400   1.827   6.070  1.00  0.00    -0.014 A 
ATOM     59  C   UNL     1       9.936   0.505   6.159  1.00  0.00     0.009 A 
ATOM     60  C   UNL     1      10.835   2.478   7.235  1.00  0.00     0.009 A 
ATOM     61  C   UNL     1       9.877  -0.138   7.397  1.00  0.00     0.001 A 
ATOM     62  C   UNL     1      10.801   1.823   8.466  1.00  0.00     0.001 A 
ATOM     63  C   UNL     1      10.313   0.519   8.547  1.00  0.00     0.000 A 
ENDBRANCH  44  58
BRANCH  45  64
ATOM     64  C   UNL     1      10.266   6.745  -2.586  1.00  0.00    -0.014 A 
ATOM     65  C   UNL     1      10.747   6.140  -3.758  1.00  0.00     0.009 A 
ATOM     66  C   UNL     1       9.841   8.082  -2.640  1.00  0.00     0.009 A 
ATOM     67  C   UNL     1      10.831   6.868  -4.948  1.00  0.00     0.001 A 
ATOM     68  C   UNL     1       9.898   8.798  -3.837  1.00  0.00     0.001 A 
ATOM     69  C   UNL     1      10.403   8.194  -4.987  1.00  0.00     0.000 A 
ENDBRANCH  45  64
BRANCH  57  70
ATOM     70  C   UNL     1      15.370   4.361   1.503  1.00  0.00    -0.014 A 
ATOM     71  C   UNL     1      16.097   5.544   1.704  1.00  0.00     0.009 A 
ATOM     72  C   UNL     1      16.070   3.172   1.239  1.00  0.00     0.009 A 
ATOM     73  C   UNL     1      17.491   5.542   1.612  1.00  0.00     0.001 A 
ATOM     74  C   UNL     1      17.465   3.166   1.177  1.00  0.00     0.001 A 
ATOM     75  C   UNL     1      18.173   4.353   1.355  1.00  0.00     0.000 A 
ENDBRANCH  57  70
ENDBRANCH  31  32
ENDBRANCH  24  26
ENDBRANCH  23  24
ENDBRANCH  22  23
ENDBRANCH  21  22
ENDBRANCH  20  21
ENDBRANCH  19  20
ENDBRANCH   1  19
TORSDOF 22
