REMARK SMILES Cc1occc1-c1nnnn1C[C@@H](CC(C)C)C(=O)OCCOCCOCCOC(=O)c1ccc(-c2c3nc(c(-c4ccccc4)c4ccc([nH]4)c(-c4ccccc4)c4nc(c(-c5ccccc5)c5ccc2[nH]5)C=C4)C=C3)cc1
REMARK SMILES IDX 24 1 23 2 22 3 21 4 20 5 18 6 19 7 13 8 12 9 11 10 7 11 8 12
REMARK SMILES IDX 9 13 10 14 6 15 1 16 2 17 3 18 4 19 5 20 14 21 15 22 16 23
REMARK SMILES IDX 17 24 25 25 26 26 27 27 28 28 29 29 30 30 31 31 32 32 33 33
REMARK SMILES IDX 79 34 34 35 78 36 35 37 36 38 37 39 72 40 38 41 77 42 71 43
REMARK SMILES IDX 73 44 39 45 76 46 70 47 69 48 40 50 62 51 47 52 61 53 48 54
REMARK SMILES IDX 51 55 60 56 74 57 49 58 50 59 59 61 75 62 52 63 41 64 42 65
REMARK SMILES IDX 46 66 43 67 45 68 44 69 63 70 64 71 68 72 65 73 67 74 66 75
REMARK SMILES IDX 53 76 54 77 58 78 55 79 57 80 56 81
REMARK H PARENT 73 49 51 60
REMARK Flexibility Score: inf
ROOT
ATOM      1  C   UNL     1       0.988  -0.371   5.470  1.00  0.00     0.188 C 
ENDROOT
BRANCH   1   2
ATOM      2  O   UNL     1       1.931  -0.190   6.508  1.00  0.00    -0.376 OA
BRANCH   2   3
ATOM      3  C   UNL     1       2.875  -1.237   6.739  1.00  0.00     0.202 C 
BRANCH   3   4
ATOM      4  C   UNL     1       2.490  -2.710   6.492  1.00  0.00     0.261 C 
BRANCH   4   5
ATOM      5  O   UNL     1       2.358  -3.090   5.097  1.00  0.00    -0.463 OA
BRANCH   5   6
ATOM      6  C   UNL     1       1.190  -3.656   4.714  1.00  0.00     0.310 C 
ATOM      7  O   UNL     1       0.226  -3.795   5.463  1.00  0.00    -0.252 OA
BRANCH   6   8
ATOM      8  C   UNL     1       1.171  -4.231   3.300  1.00  0.00     0.121 C 
BRANCH   8   9
ATOM      9  C   UNL     1       1.775  -3.404   2.146  1.00  0.00     0.164 C 
BRANCH   9  10
ATOM     10  N   UNL     1       1.199  -3.746   0.847  1.00  0.00    -0.224 N 
ATOM     11  C   UNL     1       0.234  -3.090   0.115  1.00  0.00     0.185 A 
ATOM     12  N   UNL     1      -0.402  -4.001  -0.599  1.00  0.00    -0.108 NA
ATOM     13  N   UNL     1       0.303  -5.166  -0.454  1.00  0.00    -0.023 NA
ATOM     14  N   UNL     1       1.309  -5.008   0.390  1.00  0.00    -0.045 NA
BRANCH  11  15
ATOM     15  C   UNL     1      -0.113  -1.650   0.049  1.00  0.00     0.062 A 
ATOM     16  C   UNL     1       2.220  -0.414   0.125  1.00  0.00     0.088 C 
ATOM     17  C   UNL     1       0.752  -0.576   0.088  1.00  0.00     0.111 A 
ATOM     18  O   UNL     1       0.050   0.586  -0.063  1.00  0.00    -0.469 OA
ATOM     19  C   UNL     1      -1.249   0.251  -0.266  1.00  0.00     0.196 A 
ATOM     20  C   UNL     1      -1.397  -1.115  -0.238  1.00  0.00     0.054 A 
ENDBRANCH  11  15
ENDBRANCH   9  10
ENDBRANCH   8   9
BRANCH   8  21
ATOM     21  C   UNL     1       1.603  -5.711   3.374  1.00  0.00     0.020 C 
BRANCH  21  22
ATOM     22  C   UNL     1       3.093  -6.046   3.162  1.00  0.00    -0.017 C 
ATOM     23  C   UNL     1       4.016  -5.422   4.205  1.00  0.00     0.007 C 
ATOM     24  C   UNL     1       3.260  -7.568   3.176  1.00  0.00     0.007 C 
ENDBRANCH  21  22
ENDBRANCH   8  21
ENDBRANCH   6   8
ENDBRANCH   5   6
ENDBRANCH   4   5
ENDBRANCH   3   4
ENDBRANCH   2   3
ENDBRANCH   1   2
BRANCH   1  25
ATOM     25  C   UNL     1       1.530  -0.358   4.038  1.00  0.00     0.188 C 
BRANCH  25  26
ATOM     26  O   UNL     1       2.800  -0.958   3.862  1.00  0.00    -0.376 OA
BRANCH  26  27
ATOM     27  C   UNL     1       4.016  -0.234   3.699  1.00  0.00     0.202 C 
BRANCH  27  28
ATOM     28  C   UNL     1       4.287   1.131   4.342  1.00  0.00     0.261 C 
BRANCH  28  29
ATOM     29  O   UNL     1       3.176   2.003   4.342  1.00  0.00    -0.460 OA
BRANCH  29  30
ATOM     30  C   UNL     1       2.766   2.420   3.134  1.00  0.00     0.338 C 
ATOM     31  O   UNL     1       3.308   2.216   2.052  1.00  0.00    -0.246 OA
BRANCH  30  32
ATOM     32  C   UNL     1       1.456   3.050   3.325  1.00  0.00     0.060 A 
ATOM     33  C   UNL     1       0.620   3.173   2.213  1.00  0.00     0.016 A 
ATOM     34  C   UNL     1       1.100   3.567   4.583  1.00  0.00     0.016 A 
ATOM     35  C   UNL     1      -0.457   4.025   2.296  1.00  0.00     0.010 A 
ATOM     36  C   UNL     1       0.038   4.432   4.665  1.00  0.00     0.010 A 
ATOM     37  C   UNL     1      -0.631   4.741   3.483  1.00  0.00    -0.014 A 
BRANCH  37  38
ATOM     38  C   UNL     1      -1.228   6.054   3.355  1.00  0.00     0.031 A 
ATOM     39  C   UNL     1      -2.670   6.165   3.592  1.00  0.00     0.074 A 
ATOM     40  C   UNL     1      -0.418   7.104   3.103  1.00  0.00     0.049 A 
ATOM     41  N   UNL     1      -3.575   6.535   2.750  1.00  0.00    -0.248 NA
ATOM     42  C   UNL     1      -3.181   5.743   4.902  1.00  0.00     0.031 C 
ATOM     43  C   UNL     1       1.053   7.105   3.140  1.00  0.00     0.029 A 
ATOM     44  N   UNL     1      -0.726   8.410   2.876  1.00  0.00    -0.354 N 
ATOM     45  C   UNL     1      -4.754   6.577   3.478  1.00  0.00     0.074 A 
ATOM     46  C   UNL     1      -4.490   5.923   4.736  1.00  0.00     0.031 C 
ATOM     47  C   UNL     1       1.497   8.378   3.158  1.00  0.00     0.029 A 
ATOM     48  C   UNL     1       0.357   9.264   3.008  1.00  0.00     0.049 A 
ATOM     49  H   UNL     1      -1.631   8.718   2.640  1.00  0.00     0.167 HD
ATOM     50  C   UNL     1      -5.779   7.391   3.116  1.00  0.00     0.031 A 
ATOM     51  C   UNL     1       0.332  10.614   3.053  1.00  0.00     0.031 A 
ATOM     52  C   UNL     1      -5.651   7.869   1.766  1.00  0.00     0.049 A 
ATOM     53  C   UNL     1      -0.955  11.074   2.495  1.00  0.00     0.074 A 
ATOM     54  C   UNL     1      -5.723   7.311   0.508  1.00  0.00     0.029 A 
ATOM     55  N   UNL     1      -5.073   9.105   1.626  1.00  0.00    -0.354 N 
ATOM     56  N   UNL     1      -1.264  10.990   1.234  1.00  0.00    -0.248 NA
ATOM     57  C   UNL     1      -2.074  11.335   3.392  1.00  0.00     0.031 C 
ATOM     58  C   UNL     1      -4.917   8.134  -0.331  1.00  0.00     0.029 A 
ATOM     59  C   UNL     1      -4.378   9.160   0.446  1.00  0.00     0.049 A 
ATOM     60  H   UNL     1      -5.146   9.842   2.276  1.00  0.00     0.167 HD
ATOM     61  C   UNL     1      -2.630  10.759   1.224  1.00  0.00     0.074 A 
ATOM     62  C   UNL     1      -3.092  11.163   2.544  1.00  0.00     0.031 C 
ATOM     63  C   UNL     1      -3.196   9.978   0.260  1.00  0.00     0.031 A 
BRANCH  50  64
ATOM     64  C   UNL     1      -6.651   8.095   4.123  1.00  0.00    -0.014 A 
ATOM     65  C   UNL     1      -7.761   8.822   3.665  1.00  0.00     0.009 A 
ATOM     66  C   UNL     1      -6.269   8.299   5.465  1.00  0.00     0.009 A 
ATOM     67  C   UNL     1      -8.427   9.731   4.496  1.00  0.00     0.001 A 
ATOM     68  C   UNL     1      -6.959   9.169   6.310  1.00  0.00     0.001 A 
ATOM     69  C   UNL     1      -8.026   9.904   5.818  1.00  0.00     0.000 A 
ENDBRANCH  50  64
BRANCH  51  70
ATOM     70  C   UNL     1       1.291  11.515   3.718  1.00  0.00    -0.014 A 
ATOM     71  C   UNL     1       1.417  12.853   3.325  1.00  0.00     0.009 A 
ATOM     72  C   UNL     1       1.936  11.110   4.903  1.00  0.00     0.009 A 
ATOM     73  C   UNL     1       2.143  13.761   4.106  1.00  0.00     0.001 A 
ATOM     74  C   UNL     1       2.667  12.014   5.678  1.00  0.00     0.001 A 
ATOM     75  C   UNL     1       2.758  13.344   5.285  1.00  0.00     0.000 A 
ENDBRANCH  51  70
BRANCH  63  76
ATOM     76  C   UNL     1      -2.385   9.741  -0.986  1.00  0.00    -0.014 A 
ATOM     77  C   UNL     1      -1.177   9.021  -0.978  1.00  0.00     0.009 A 
ATOM     78  C   UNL     1      -2.896  10.178  -2.216  1.00  0.00     0.009 A 
ATOM     79  C   UNL     1      -0.482   8.781  -2.166  1.00  0.00     0.001 A 
ATOM     80  C   UNL     1      -2.211   9.918  -3.406  1.00  0.00     0.001 A 
ATOM     81  C   UNL     1      -1.001   9.227  -3.379  1.00  0.00     0.000 A 
ENDBRANCH  63  76
ENDBRANCH  37  38
ENDBRANCH  30  32
ENDBRANCH  29  30
ENDBRANCH  28  29
ENDBRANCH  27  28
ENDBRANCH  26  27
ENDBRANCH  25  26
ENDBRANCH   1  25
TORSDOF 22
