REMARK SMILES CC(=O)N[C@@H](CS[C@@H]1CC(=O)N(c2cccc3ccccc23)C1=O)C(=O)OCCOCCOCCOC(=O)c1ccc(-c2c3nc(c(-c4ccccc4)c4ccc([nH]4)c(-c4ccccc4)c4nc(c(-c5ccccc5)c5ccc2[nH]5)C=C4)C=C3)cc1
REMARK SMILES IDX 31 1 30 2 29 3 28 4 27 5 25 6 26 7 5 8 4 9 1 10 2 11 3 12
REMARK SMILES IDX 6 14 7 15 8 16 9 17 23 18 10 19 12 20 24 21 11 22 13 23
REMARK SMILES IDX 14 24 22 25 15 26 17 27 21 28 16 29 18 30 20 31 19 32 32 33
REMARK SMILES IDX 33 34 34 35 35 36 36 37 37 38 38 39 39 40 40 41 86 42 41 43
REMARK SMILES IDX 85 44 42 45 43 46 44 47 79 48 45 49 84 50 78 51 80 52 46 53
REMARK SMILES IDX 83 54 77 55 76 56 47 58 69 59 54 60 68 61 55 62 58 63 67 64
REMARK SMILES IDX 81 65 56 66 57 67 66 69 82 70 59 71 48 72 49 73 53 74 50 75
REMARK SMILES IDX 52 76 51 77 70 78 71 79 75 80 72 81 74 82 73 83 60 84 61 85
REMARK SMILES IDX 65 86 62 87 64 88 63 89
REMARK H PARENT 4 13 80 57 58 68
REMARK Flexibility Score: inf
ROOT
ATOM      1  C   UNL     1      -0.832   2.535  -3.430  1.00  0.00     0.188 C 
ENDROOT
BRANCH   1   2
ATOM      2  O   UNL     1      -1.113   3.129  -4.691  1.00  0.00    -0.376 OA
BRANCH   2   3
ATOM      3  C   UNL     1      -0.812   2.379  -5.870  1.00  0.00     0.202 C 
BRANCH   3   4
ATOM      4  C   UNL     1       0.580   1.734  -5.993  1.00  0.00     0.261 C 
BRANCH   4   5
ATOM      5  O   UNL     1       0.922   0.863  -4.897  1.00  0.00    -0.462 OA
BRANCH   5   6
ATOM      6  C   UNL     1       2.204   0.879  -4.460  1.00  0.00     0.329 C 
ATOM      7  O   UNL     1       3.095   1.573  -4.941  1.00  0.00    -0.250 OA
BRANCH   6   8
ATOM      8  C   UNL     1       2.445  -0.049  -3.248  1.00  0.00     0.202 C 
BRANCH   8   9
ATOM      9  N   UNL     1       1.293  -0.755  -2.685  1.00  0.00    -0.342 N 
ATOM     10  C   UNL     1       1.702  -0.239  -0.307  1.00  0.00     0.114 C 
ATOM     11  C   UNL     1       0.985  -1.011  -1.380  1.00  0.00     0.217 C 
ATOM     12  O   UNL     1       0.103  -1.823  -1.109  1.00  0.00    -0.275 OA
ATOM     13  H   UNL     1       0.646  -1.095  -3.344  1.00  0.00     0.164 HD
ENDBRANCH   8   9
BRANCH   8  14
ATOM     14  C   UNL     1       3.565  -1.054  -3.572  1.00  0.00     0.107 C 
BRANCH  14  15
ATOM     15  S   UNL     1       3.324  -2.247  -4.967  1.00  0.00    -0.145 SA
BRANCH  15  16
ATOM     16  C   UNL     1       1.897  -3.261  -4.400  1.00  0.00     0.146 C 
ATOM     17  C   UNL     1       2.043  -4.737  -4.724  1.00  0.00     0.125 C 
ATOM     18  C   UNL     1       0.673  -2.852  -5.184  1.00  0.00     0.247 C 
ATOM     19  C   UNL     1       0.964  -5.025  -5.730  1.00  0.00     0.235 C 
ATOM     20  N   UNL     1       0.311  -3.861  -6.033  1.00  0.00    -0.249 N 
ATOM     21  O   UNL     1       0.100  -1.786  -5.003  1.00  0.00    -0.273 OA
ATOM     22  O   UNL     1       0.751  -6.149  -6.163  1.00  0.00    -0.274 OA
BRANCH  20  23
ATOM     23  C   UNL     1      -0.750  -3.753  -6.971  1.00  0.00     0.060 A 
ATOM     24  C   UNL     1      -1.789  -4.697  -6.914  1.00  0.00     0.027 A 
ATOM     25  C   UNL     1      -0.765  -2.738  -7.982  1.00  0.00     0.006 A 
ATOM     26  C   UNL     1      -2.860  -4.632  -7.801  1.00  0.00     0.003 A 
ATOM     27  C   UNL     1      -1.852  -2.711  -8.896  1.00  0.00    -0.016 A 
ATOM     28  C   UNL     1       0.268  -1.788  -8.193  1.00  0.00     0.011 A 
ATOM     29  C   UNL     1      -2.890  -3.646  -8.782  1.00  0.00     0.009 A 
ATOM     30  C   UNL     1      -1.886  -1.768  -9.938  1.00  0.00     0.009 A 
ATOM     31  C   UNL     1       0.224  -0.860  -9.238  1.00  0.00     0.001 A 
ATOM     32  C   UNL     1      -0.854  -0.849 -10.110  1.00  0.00     0.001 A 
ENDBRANCH  20  23
ENDBRANCH  15  16
ENDBRANCH  14  15
ENDBRANCH   8  14
ENDBRANCH   6   8
ENDBRANCH   5   6
ENDBRANCH   4   5
ENDBRANCH   3   4
ENDBRANCH   2   3
ENDBRANCH   1   2
BRANCH   1  33
ATOM     33  C   UNL     1      -1.342   1.115  -3.157  1.00  0.00     0.188 C 
BRANCH  33  34
ATOM     34  O   UNL     1      -1.846   0.436  -4.272  1.00  0.00    -0.376 OA
BRANCH  34  35
ATOM     35  C   UNL     1      -3.223   0.125  -4.347  1.00  0.00     0.202 C 
BRANCH  35  36
ATOM     36  C   UNL     1      -4.322   1.052  -3.781  1.00  0.00     0.261 C 
BRANCH  36  37
ATOM     37  O   UNL     1      -3.970   1.922  -2.693  1.00  0.00    -0.460 OA
BRANCH  37  38
ATOM     38  C   UNL     1      -4.091   1.406  -1.442  1.00  0.00     0.338 C 
ATOM     39  O   UNL     1      -4.533   0.321  -1.135  1.00  0.00    -0.246 OA
BRANCH  38  40
ATOM     40  C   UNL     1      -3.357   2.296  -0.505  1.00  0.00     0.060 A 
ATOM     41  C   UNL     1      -2.244   1.774   0.173  1.00  0.00     0.016 A 
ATOM     42  C   UNL     1      -3.759   3.614  -0.287  1.00  0.00     0.016 A 
ATOM     43  C   UNL     1      -1.559   2.552   1.106  1.00  0.00     0.010 A 
ATOM     44  C   UNL     1      -3.092   4.383   0.675  1.00  0.00     0.010 A 
ATOM     45  C   UNL     1      -2.019   3.839   1.407  1.00  0.00    -0.014 A 
BRANCH  45  46
ATOM     46  C   UNL     1      -1.554   4.491   2.658  1.00  0.00     0.031 A 
ATOM     47  C   UNL     1      -2.417   4.354   3.886  1.00  0.00     0.074 A 
ATOM     48  C   UNL     1      -0.375   5.132   2.736  1.00  0.00     0.049 A 
ATOM     49  N   UNL     1      -2.234   4.832   5.091  1.00  0.00    -0.248 NA
ATOM     50  C   UNL     1      -3.653   3.570   3.730  1.00  0.00     0.031 C 
ATOM     51  C   UNL     1       0.585   5.285   1.645  1.00  0.00     0.029 A 
ATOM     52  N   UNL     1       0.214   5.775   3.798  1.00  0.00    -0.354 N 
ATOM     53  C   UNL     1      -3.338   4.419   5.828  1.00  0.00     0.074 A 
ATOM     54  C   UNL     1      -4.198   3.681   4.930  1.00  0.00     0.031 C 
ATOM     55  C   UNL     1       1.645   5.982   2.095  1.00  0.00     0.029 A 
ATOM     56  C   UNL     1       1.422   6.352   3.492  1.00  0.00     0.049 A 
ATOM     57  H   UNL     1      -0.191   5.817   4.694  1.00  0.00     0.167 HD
ATOM     58  C   UNL     1      -3.614   4.627   7.138  1.00  0.00     0.031 A 
ATOM     59  C   UNL     1       2.243   7.108   4.248  1.00  0.00     0.031 A 
ATOM     60  C   UNL     1      -2.770   5.371   8.033  1.00  0.00     0.049 A 
ATOM     61  C   UNL     1       1.876   7.396   5.683  1.00  0.00     0.074 A 
ATOM     62  C   UNL     1      -2.959   5.632   9.379  1.00  0.00     0.029 A 
ATOM     63  N   UNL     1      -1.579   5.981   7.670  1.00  0.00    -0.354 N 
ATOM     64  N   UNL     1       0.838   6.989   6.373  1.00  0.00    -0.248 NA
ATOM     65  C   UNL     1       2.809   8.239   6.446  1.00  0.00     0.031 C 
ATOM     66  C   UNL     1      -1.916   6.455   9.814  1.00  0.00     0.029 A 
ATOM     67  C   UNL     1      -1.036   6.641   8.760  1.00  0.00     0.049 A 
ATOM     68  H   UNL     1      -1.179   5.950   6.771  1.00  0.00     0.167 HD
ATOM     69  C   UNL     1       1.011   7.495   7.657  1.00  0.00     0.074 A 
ATOM     70  C   UNL     1       2.263   8.222   7.653  1.00  0.00     0.031 C 
ATOM     71  C   UNL     1       0.209   7.366   8.744  1.00  0.00     0.031 A 
BRANCH  58  72
ATOM     72  C   UNL     1      -4.914   4.080   7.662  1.00  0.00    -0.014 A 
ATOM     73  C   UNL     1      -5.131   2.699   7.799  1.00  0.00     0.009 A 
ATOM     74  C   UNL     1      -5.936   4.966   8.034  1.00  0.00     0.009 A 
ATOM     75  C   UNL     1      -6.359   2.218   8.258  1.00  0.00     0.001 A 
ATOM     76  C   UNL     1      -7.151   4.484   8.525  1.00  0.00     0.001 A 
ATOM     77  C   UNL     1      -7.365   3.111   8.626  1.00  0.00     0.000 A 
ENDBRANCH  58  72
BRANCH  59  78
ATOM     78  C   UNL     1       3.491   7.671   3.666  1.00  0.00    -0.014 A 
ATOM     79  C   UNL     1       4.752   7.244   4.112  1.00  0.00     0.009 A 
ATOM     80  C   UNL     1       3.426   8.670   2.682  1.00  0.00     0.009 A 
ATOM     81  C   UNL     1       5.918   7.827   3.607  1.00  0.00     0.001 A 
ATOM     82  C   UNL     1       4.593   9.227   2.154  1.00  0.00     0.001 A 
ATOM     83  C   UNL     1       5.838   8.813   2.625  1.00  0.00     0.000 A 
ENDBRANCH  59  78
BRANCH  71  84
ATOM     84  C   UNL     1       0.688   7.981  10.033  1.00  0.00    -0.014 A 
ATOM     85  C   UNL     1       0.768   9.372  10.206  1.00  0.00     0.009 A 
ATOM     86  C   UNL     1       1.049   7.146  11.103  1.00  0.00     0.009 A 
ATOM     87  C   UNL     1       1.251   9.910  11.401  1.00  0.00     0.001 A 
ATOM     88  C   UNL     1       1.495   7.686  12.310  1.00  0.00     0.001 A 
ATOM     89  C   UNL     1       1.611   9.068  12.453  1.00  0.00     0.000 A 
ENDBRANCH  71  84
ENDBRANCH  45  46
ENDBRANCH  38  40
ENDBRANCH  37  38
ENDBRANCH  36  37
ENDBRANCH  35  36
ENDBRANCH  34  35
ENDBRANCH  33  34
ENDBRANCH   1  33
TORSDOF 22
