REMARK SMILES COc1cc([C@@H]2CC(=O)Nc3c(C(=O)OCCOCCOCCOC(=O)c4ccc(-c5c6nc(c(-c7ccccc7)c7ccc([nH]7)c(-c7ccccc7)c7nc(c(-c8ccccc8)c8ccc5[nH]8)C=C7)C=C6)cc4)cn(-c4ccc(F)cc4)c32)c(OC)c2c1OCO2
REMARK SMILES IDX 19 1 18 2 17 3 16 4 15 5 13 6 14 7 12 8 6 9 7 10 84 11 8 12
REMARK SMILES IDX 11 13 76 14 9 15 10 16 75 17 5 19 3 20 4 21 89 22 88 23
REMARK SMILES IDX 90 24 85 25 92 26 91 27 2 28 1 29 86 30 87 31 77 32 78 33
REMARK SMILES IDX 83 34 79 35 82 36 80 37 81 38 20 39 21 40 22 41 23 42 24 43
REMARK SMILES IDX 25 44 26 45 27 46 28 47 74 48 29 49 73 50 30 51 31 52 32 53
REMARK SMILES IDX 67 54 33 55 72 56 66 57 68 58 34 59 71 60 65 61 64 62 35 64
REMARK SMILES IDX 57 65 42 66 56 67 43 68 46 69 55 70 69 71 44 72 45 73 54 75
REMARK SMILES IDX 70 76 47 77 36 78 37 79 41 80 38 81 40 82 39 83 58 84 59 85
REMARK SMILES IDX 63 86 60 87 62 88 61 89 48 90 49 91 53 92 50 93 52 94 51 95
REMARK H PARENT 10 18 68 63 46 74
REMARK Flexibility Score: inf
ROOT
ATOM      1  C   UNL     1      -0.218   7.750   8.879  1.00  0.00     0.188 C 
ENDROOT
BRANCH   1   2
ATOM      2  O   UNL     1       0.672   8.145   9.900  1.00  0.00    -0.376 OA
BRANCH   2   3
ATOM      3  C   UNL     1       2.076   8.127   9.695  1.00  0.00     0.202 C 
BRANCH   3   4
ATOM      4  C   UNL     1       2.817   7.155   8.749  1.00  0.00     0.261 C 
BRANCH   4   5
ATOM      5  O   UNL     1       2.146   6.783   7.542  1.00  0.00    -0.460 OA
BRANCH   5   6
ATOM      6  C   UNL     1       1.515   5.576   7.571  1.00  0.00     0.341 C 
ATOM      7  O   UNL     1       1.618   4.765   8.489  1.00  0.00    -0.246 OA
BRANCH   6   8
ATOM      8  C   UNL     1       0.578   5.401   6.474  1.00  0.00     0.102 A 
ATOM      9  C   UNL     1      -0.179   5.084   2.930  1.00  0.00     0.082 C 
ATOM     10  C   UNL     1       0.267   6.457   2.396  1.00  0.00     0.115 C 
ATOM     11  C   UNL     1      -0.259   5.161   4.414  1.00  0.00     0.055 A 
ATOM     12  C   UNL     1       1.370   7.121   3.216  1.00  0.00     0.225 C 
ATOM     13  C   UNL     1       0.580   5.945   5.169  1.00  0.00     0.078 A 
ATOM     14  N   UNL     1      -1.101   4.500   5.273  1.00  0.00    -0.317 N 
ATOM     15  O   UNL     1       2.179   7.892   2.697  1.00  0.00    -0.275 OA
ATOM     16  N   UNL     1       1.379   6.898   4.574  1.00  0.00    -0.324 N 
ATOM     17  C   UNL     1      -0.581   4.634   6.542  1.00  0.00     0.109 A 
ATOM     18  H   UNL     1       1.977   7.437   5.141  1.00  0.00     0.170 HD
BRANCH   9  19
ATOM     19  C   UNL     1       0.758   3.963   2.433  1.00  0.00     0.012 A 
ATOM     20  C   UNL     1       1.073   2.136   0.811  1.00  0.00     0.165 A 
ATOM     21  C   UNL     1       0.289   3.154   1.367  1.00  0.00     0.059 A 
ATOM     22  C   UNL     1       2.366   1.990   1.278  1.00  0.00     0.211 A 
ATOM     23  C   UNL     1       2.842   2.759   2.317  1.00  0.00     0.211 A 
ATOM     24  O   UNL     1       3.316   1.128   0.816  1.00  0.00    -0.449 OA
ATOM     25  C   UNL     1       2.066   3.726   2.933  1.00  0.00     0.168 A 
ATOM     26  O   UNL     1       4.125   2.430   2.646  1.00  0.00    -0.449 OA
ATOM     27  C   UNL     1       4.460   1.528   1.587  1.00  0.00     0.468 C 
BRANCH  20  28
ATOM     28  O   UNL     1       0.482   1.409  -0.181  1.00  0.00    -0.493 OA
ATOM     29  C   UNL     1       0.867   0.038  -0.224  1.00  0.00     0.278 C 
ENDBRANCH  20  28
BRANCH  25  30
ATOM     30  O   UNL     1       2.470   4.402   4.039  1.00  0.00    -0.492 OA
ATOM     31  C   UNL     1       3.851   4.663   4.238  1.00  0.00     0.278 C 
ENDBRANCH  25  30
ENDBRANCH   9  19
BRANCH  14  32
ATOM     32  C   UNL     1      -2.270   3.787   4.950  1.00  0.00     0.046 A 
ATOM     33  C   UNL     1      -2.184   2.674   4.110  1.00  0.00     0.029 A 
ATOM     34  C   UNL     1      -3.502   4.214   5.464  1.00  0.00     0.029 A 
ATOM     35  C   UNL     1      -3.347   1.991   3.763  1.00  0.00     0.041 A 
ATOM     36  C   UNL     1      -4.664   3.538   5.089  1.00  0.00     0.041 A 
ATOM     37  C   UNL     1      -4.576   2.433   4.245  1.00  0.00     0.123 A 
ATOM     38  F   UNL     1      -5.692   1.784   3.890  1.00  0.00    -0.207 F 
ENDBRANCH  14  32
ENDBRANCH   6   8
ENDBRANCH   5   6
ENDBRANCH   4   5
ENDBRANCH   3   4
ENDBRANCH   2   3
ENDBRANCH   1   2
BRANCH   1  39
ATOM     39  C   UNL     1      -0.235   8.477   7.514  1.00  0.00     0.188 C 
BRANCH  39  40
ATOM     40  O   UNL     1       0.920   9.156   7.074  1.00  0.00    -0.376 OA
BRANCH  40  41
ATOM     41  C   UNL     1       1.262  10.480   7.457  1.00  0.00     0.202 C 
BRANCH  41  42
ATOM     42  C   UNL     1       0.450  11.400   8.372  1.00  0.00     0.261 C 
BRANCH  42  43
ATOM     43  O   UNL     1      -0.561  10.751   9.104  1.00  0.00    -0.460 OA
BRANCH  43  44
ATOM     44  C   UNL     1      -1.760  10.778   8.488  1.00  0.00     0.338 C 
ATOM     45  O   UNL     1      -2.044  11.323   7.437  1.00  0.00    -0.246 OA
BRANCH  44  46
ATOM     46  C   UNL     1      -2.705   9.977   9.285  1.00  0.00     0.060 A 
ATOM     47  C   UNL     1      -3.960   9.833   8.695  1.00  0.00     0.016 A 
ATOM     48  C   UNL     1      -2.512  10.014  10.666  1.00  0.00     0.016 A 
ATOM     49  C   UNL     1      -5.018  10.292   9.428  1.00  0.00     0.010 A 
ATOM     50  C   UNL     1      -3.561  10.480  11.395  1.00  0.00     0.010 A 
ATOM     51  C   UNL     1      -4.740  10.767  10.709  1.00  0.00    -0.014 A 
BRANCH  51  52
ATOM     52  C   UNL     1      -5.692  11.638  11.343  1.00  0.00     0.031 A 
ATOM     53  C   UNL     1      -6.682  10.870  12.108  1.00  0.00     0.074 A 
ATOM     54  C   UNL     1      -5.547  12.976  11.316  1.00  0.00     0.049 A 
ATOM     55  N   UNL     1      -7.892  10.590  11.758  1.00  0.00    -0.248 NA
ATOM     56  C   UNL     1      -6.178  10.092  13.254  1.00  0.00     0.031 C 
ATOM     57  C   UNL     1      -4.429  13.783  10.809  1.00  0.00     0.029 A 
ATOM     58  N   UNL     1      -6.363  13.911  11.858  1.00  0.00    -0.354 N 
ATOM     59  C   UNL     1      -8.357   9.766  12.771  1.00  0.00     0.074 A 
ATOM     60  C   UNL     1      -7.196   9.257  13.448  1.00  0.00     0.031 C 
ATOM     61  C   UNL     1      -4.537  15.047  11.292  1.00  0.00     0.029 A 
ATOM     62  C   UNL     1      -5.788  15.163  12.022  1.00  0.00     0.049 A 
ATOM     63  H   UNL     1      -7.293  13.717  12.116  1.00  0.00     0.167 HD
ATOM     64  C   UNL     1      -9.632   9.863  13.232  1.00  0.00     0.031 A 
ATOM     65  C   UNL     1      -6.296  16.171  12.777  1.00  0.00     0.031 A 
ATOM     66  C   UNL     1     -10.463  10.618  12.331  1.00  0.00     0.049 A 
ATOM     67  C   UNL     1      -7.724  15.851  13.026  1.00  0.00     0.074 A 
ATOM     68  C   UNL     1     -10.909  10.451  11.037  1.00  0.00     0.029 A 
ATOM     69  N   UNL     1     -10.610  11.955  12.624  1.00  0.00    -0.354 N 
ATOM     70  N   UNL     1      -8.623  15.827  12.084  1.00  0.00    -0.248 NA
ATOM     71  C   UNL     1      -8.058  15.087  14.220  1.00  0.00     0.031 C 
ATOM     72  C   UNL     1     -10.916  11.760  10.472  1.00  0.00     0.029 A 
ATOM     73  C   UNL     1     -10.533  12.672  11.458  1.00  0.00     0.049 A 
ATOM     74  H   UNL     1     -10.747  12.333  13.522  1.00  0.00     0.167 HD
ATOM     75  C   UNL     1      -9.416  14.723  12.371  1.00  0.00     0.074 A 
ATOM     76  C   UNL     1      -9.088  14.373  13.753  1.00  0.00     0.031 C 
ATOM     77  C   UNL     1     -10.029  14.027  11.369  1.00  0.00     0.031 A 
BRANCH  64  78
ATOM     78  C   UNL     1      -9.973   9.693  14.691  1.00  0.00    -0.014 A 
ATOM     79  C   UNL     1     -11.323   9.700  15.066  1.00  0.00     0.009 A 
ATOM     80  C   UNL     1      -9.027   9.784  15.735  1.00  0.00     0.009 A 
ATOM     81  C   UNL     1     -11.700   9.841  16.407  1.00  0.00     0.001 A 
ATOM     82  C   UNL     1      -9.396   9.879  17.076  1.00  0.00     0.001 A 
ATOM     83  C   UNL     1     -10.738   9.933  17.409  1.00  0.00     0.000 A 
ENDBRANCH  64  78
BRANCH  65  84
ATOM     84  C   UNL     1      -5.573  17.181  13.583  1.00  0.00    -0.014 A 
ATOM     85  C   UNL     1      -6.202  18.364  14.003  1.00  0.00     0.009 A 
ATOM     86  C   UNL     1      -4.345  16.847  14.184  1.00  0.00     0.009 A 
ATOM     87  C   UNL     1      -5.636  19.166  15.007  1.00  0.00     0.001 A 
ATOM     88  C   UNL     1      -3.783  17.644  15.188  1.00  0.00     0.001 A 
ATOM     89  C   UNL     1      -4.434  18.799  15.608  1.00  0.00     0.000 A 
ENDBRANCH  65  84
BRANCH  77  90
ATOM     90  C   UNL     1      -9.978  14.631   9.984  1.00  0.00    -0.014 A 
ATOM     91  C   UNL     1      -8.790  14.737   9.234  1.00  0.00     0.009 A 
ATOM     92  C   UNL     1     -11.187  14.967   9.363  1.00  0.00     0.009 A 
ATOM     93  C   UNL     1      -8.816  15.188   7.909  1.00  0.00     0.001 A 
ATOM     94  C   UNL     1     -11.214  15.399   8.034  1.00  0.00     0.001 A 
ATOM     95  C   UNL     1     -10.030  15.513   7.309  1.00  0.00     0.000 A 
ENDBRANCH  77  90
ENDBRANCH  51  52
ENDBRANCH  44  46
ENDBRANCH  43  44
ENDBRANCH  42  43
ENDBRANCH  41  42
ENDBRANCH  40  41
ENDBRANCH  39  40
ENDBRANCH   1  39
TORSDOF 21
