REMARK SMILES Cc1nnc(S[C@@H](C)CCO)c(C(=O)OCCOCCOCCOC(=O)c2ccc(-c3c4nc(c(-c5ccccc5)c5ccc([nH]5)c(-c5ccccc5)c5nc(c(-c6ccccc6)c6ccc3[nH]6)C=C5)C=C4)cc2)c1C
REMARK SMILES IDX 18 1 17 2 16 3 15 4 13 5 14 6 12 7 1 8 2 9 3 10 75 11 4 12
REMARK SMILES IDX 76 13 5 14 6 15 7 16 8 17 9 18 10 19 11 20 19 22 20 23 21 24
REMARK SMILES IDX 22 25 23 26 24 27 25 28 26 29 27 30 28 31 74 32 29 33 73 34
REMARK SMILES IDX 30 35 31 36 32 37 67 38 33 39 72 40 66 41 68 42 34 43 71 44
REMARK SMILES IDX 65 45 64 46 35 48 57 49 42 50 56 51 43 52 46 53 55 54 69 55
REMARK SMILES IDX 44 56 45 57 54 59 70 60 47 61 36 62 37 63 41 64 38 65 40 66
REMARK SMILES IDX 39 67 58 68 59 69 63 70 60 71 62 72 61 73 48 74 49 75 53 76
REMARK SMILES IDX 50 77 52 78 51 79
REMARK H PARENT 11 21 68 47 46 58
REMARK Flexibility Score: inf
ROOT
ATOM      1  O   UNL     1      -1.827  -1.752  -6.234  1.00  0.00    -0.376 OA
ENDROOT
BRANCH   1   2
ATOM      2  C   UNL     1      -3.127  -2.040  -5.750  1.00  0.00     0.202 C 
BRANCH   2   3
ATOM      3  C   UNL     1      -3.483  -1.177  -4.548  1.00  0.00     0.261 C 
BRANCH   3   4
ATOM      4  O   UNL     1      -2.523  -1.377  -3.498  1.00  0.00    -0.460 OA
BRANCH   4   5
ATOM      5  C   UNL     1      -2.774  -2.274  -2.519  1.00  0.00     0.341 C 
ATOM      6  O   UNL     1      -3.809  -2.886  -2.357  1.00  0.00    -0.246 OA
BRANCH   5   7
ATOM      7  C   UNL     1      -1.531  -2.397  -1.729  1.00  0.00     0.098 A 
ATOM      8  C   UNL     1       1.061  -0.053  -0.108  1.00  0.00     0.069 C 
ATOM      9  C   UNL     1       0.309  -1.244  -0.621  1.00  0.00     0.064 A 
ATOM     10  N   UNL     1       0.877  -2.430  -0.392  1.00  0.00    -0.155 NA
ATOM     11  C   UNL     1      -0.918  -1.172  -1.276  1.00  0.00    -0.011 A 
ATOM     12  N   UNL     1       0.259  -3.593  -0.807  1.00  0.00    -0.143 NA
ATOM     13  C   UNL     1      -1.510   0.194  -1.553  1.00  0.00     0.047 C 
ATOM     14  C   UNL     1      -0.926  -3.631  -1.467  1.00  0.00     0.134 A 
BRANCH  14  15
ATOM     15  S   UNL     1      -1.238  -5.358  -1.758  1.00  0.00    -0.100 SA
BRANCH  15  16
ATOM     16  C   UNL     1      -2.567  -5.795  -2.955  1.00  0.00     0.052 C 
ATOM     17  C   UNL     1      -3.957  -5.704  -2.327  1.00  0.00     0.020 C 
BRANCH  16  18
ATOM     18  C   UNL     1      -2.456  -5.158  -4.333  1.00  0.00     0.043 C 
BRANCH  18  19
ATOM     19  C   UNL     1      -1.402  -5.752  -5.256  1.00  0.00     0.157 C 
BRANCH  19  20
ATOM     20  O   UNL     1      -1.879  -6.971  -5.804  1.00  0.00    -0.396 OA
ATOM     21  H   UNL     1      -2.065  -7.597  -5.087  1.00  0.00     0.210 HD
ENDBRANCH  19  20
ENDBRANCH  18  19
ENDBRANCH  16  18
ENDBRANCH  15  16
ENDBRANCH  14  15
ENDBRANCH   5   7
ENDBRANCH   4   5
ENDBRANCH   3   4
ENDBRANCH   2   3
ENDBRANCH   1   2
BRANCH   1  22
ATOM     22  C   UNL     1      -0.692  -2.217  -5.516  1.00  0.00     0.188 C 
BRANCH  22  23
ATOM     23  C   UNL     1       0.402  -1.145  -5.446  1.00  0.00     0.188 C 
BRANCH  23  24
ATOM     24  O   UNL     1       0.540  -0.241  -6.536  1.00  0.00    -0.376 OA
BRANCH  24  25
ATOM     25  C   UNL     1       0.238  -0.684  -7.853  1.00  0.00     0.202 C 
BRANCH  25  26
ATOM     26  C   UNL     1       1.178  -1.726  -8.467  1.00  0.00     0.261 C 
BRANCH  26  27
ATOM     27  O   UNL     1       1.131  -3.032  -7.855  1.00  0.00    -0.460 OA
BRANCH  27  28
ATOM     28  C   UNL     1       2.238  -3.398  -7.163  1.00  0.00     0.338 C 
ATOM     29  O   UNL     1       3.222  -2.714  -6.938  1.00  0.00    -0.246 OA
BRANCH  28  30
ATOM     30  C   UNL     1       2.092  -4.766  -6.612  1.00  0.00     0.060 A 
ATOM     31  C   UNL     1       2.360  -4.976  -5.253  1.00  0.00     0.016 A 
ATOM     32  C   UNL     1       1.825  -5.856  -7.446  1.00  0.00     0.016 A 
ATOM     33  C   UNL     1       2.396  -6.277  -4.732  1.00  0.00     0.010 A 
ATOM     34  C   UNL     1       1.881  -7.159  -6.926  1.00  0.00     0.010 A 
ATOM     35  C   UNL     1       2.195  -7.382  -5.573  1.00  0.00    -0.014 A 
BRANCH  35  36
ATOM     36  C   UNL     1       2.474  -8.764  -5.093  1.00  0.00     0.031 A 
ATOM     37  C   UNL     1       3.881  -9.291  -5.166  1.00  0.00     0.074 A 
ATOM     38  C   UNL     1       1.506  -9.569  -4.617  1.00  0.00     0.049 A 
ATOM     39  N   UNL     1       4.338 -10.466  -4.814  1.00  0.00    -0.248 NA
ATOM     40  C   UNL     1       4.907  -8.373  -5.685  1.00  0.00     0.031 C 
ATOM     41  C   UNL     1       0.118  -9.184  -4.411  1.00  0.00     0.029 A 
ATOM     42  N   UNL     1       1.542 -10.888  -4.230  1.00  0.00    -0.354 N 
ATOM     43  C   UNL     1       5.707 -10.414  -5.026  1.00  0.00     0.074 A 
ATOM     44  C   UNL     1       6.004  -9.112  -5.583  1.00  0.00     0.031 C 
ATOM     45  C   UNL     1      -0.585 -10.249  -3.994  1.00  0.00     0.029 A 
ATOM     46  C   UNL     1       0.313 -11.395  -3.882  1.00  0.00     0.049 A 
ATOM     47  H   UNL     1       2.371 -11.419  -4.204  1.00  0.00     0.167 HD
ATOM     48  C   UNL     1       6.640 -11.358  -4.763  1.00  0.00     0.031 A 
ATOM     49  C   UNL     1      -0.059 -12.636  -3.510  1.00  0.00     0.031 A 
ATOM     50  C   UNL     1       6.360 -12.670  -4.251  1.00  0.00     0.049 A 
ATOM     51  C   UNL     1       0.975 -13.716  -3.364  1.00  0.00     0.074 A 
ATOM     52  C   UNL     1       7.257 -13.681  -3.952  1.00  0.00     0.029 A 
ATOM     53  N   UNL     1       5.094 -13.161  -3.982  1.00  0.00    -0.354 N 
ATOM     54  N   UNL     1       2.272 -13.636  -3.529  1.00  0.00    -0.248 NA
ATOM     55  C   UNL     1       0.501 -15.050  -2.962  1.00  0.00     0.031 C 
ATOM     56  C   UNL     1       6.530 -14.804  -3.550  1.00  0.00     0.029 A 
ATOM     57  C   UNL     1       5.184 -14.474  -3.554  1.00  0.00     0.049 A 
ATOM     58  H   UNL     1       4.257 -12.653  -4.080  1.00  0.00     0.167 HD
ATOM     59  C   UNL     1       2.772 -14.892  -3.213  1.00  0.00     0.074 A 
ATOM     60  C   UNL     1       1.641 -15.723  -2.861  1.00  0.00     0.031 C 
ATOM     61  C   UNL     1       4.061 -15.303  -3.204  1.00  0.00     0.031 A 
BRANCH  48  62
ATOM     62  C   UNL     1       8.072 -11.004  -5.023  1.00  0.00    -0.014 A 
ATOM     63  C   UNL     1       8.778 -10.192  -4.122  1.00  0.00     0.009 A 
ATOM     64  C   UNL     1       8.742 -11.550  -6.127  1.00  0.00     0.009 A 
ATOM     65  C   UNL     1      10.131  -9.925  -4.329  1.00  0.00     0.001 A 
ATOM     66  C   UNL     1      10.100 -11.295  -6.321  1.00  0.00     0.001 A 
ATOM     67  C   UNL     1      10.792 -10.481  -5.424  1.00  0.00     0.000 A 
ENDBRANCH  48  62
BRANCH  49  68
ATOM     68  C   UNL     1      -1.488 -12.916  -3.224  1.00  0.00    -0.014 A 
ATOM     69  C   UNL     1      -1.940 -13.023  -1.901  1.00  0.00     0.009 A 
ATOM     70  C   UNL     1      -2.412 -13.052  -4.273  1.00  0.00     0.009 A 
ATOM     71  C   UNL     1      -3.289 -13.269  -1.633  1.00  0.00     0.001 A 
ATOM     72  C   UNL     1      -3.762 -13.282  -4.001  1.00  0.00     0.001 A 
ATOM     73  C   UNL     1      -4.199 -13.393  -2.682  1.00  0.00     0.000 A 
ENDBRANCH  49  68
BRANCH  61  74
ATOM     74  C   UNL     1       4.360 -16.712  -2.784  1.00  0.00    -0.014 A 
ATOM     75  C   UNL     1       4.191 -17.780  -3.677  1.00  0.00     0.009 A 
ATOM     76  C   UNL     1       4.954 -16.952  -1.534  1.00  0.00     0.009 A 
ATOM     77  C   UNL     1       4.620 -19.062  -3.327  1.00  0.00     0.001 A 
ATOM     78  C   UNL     1       5.398 -18.230  -1.196  1.00  0.00     0.001 A 
ATOM     79  C   UNL     1       5.233 -19.284  -2.094  1.00  0.00     0.000 A 
ENDBRANCH  61  74
ENDBRANCH  35  36
ENDBRANCH  28  30
ENDBRANCH  27  28
ENDBRANCH  26  27
ENDBRANCH  25  26
ENDBRANCH  24  25
ENDBRANCH  23  24
ENDBRANCH  22  23
ENDBRANCH   1  22
TORSDOF 22
