REMARK SMILES CC[NH2+][C@@]1(C(=O)OCCOCCOCCOC(=O)c2ccc(-c3c4nc(c(-c5ccccc5)c5ccc([nH]5)c(-c5ccccc5)c5nc(c(-c6ccccc6)c6ccc3[nH]6)C=C5)C=C4)cc2)CC[C@H]([NH+]2CCC(C[NH+](C)C)CC2)C1
REMARK SMILES IDX 11 1 10 2 9 3 8 4 7 5 5 6 6 7 4 8 67 9 80 10 68 11 69 12
REMARK SMILES IDX 3 13 2 16 1 17 70 18 71 19 79 20 72 22 78 23 73 24 74 25
REMARK SMILES IDX 75 26 76 27 77 28 12 30 13 31 14 32 15 33 16 34 17 35 18 36
REMARK SMILES IDX 19 37 20 38 66 39 21 40 65 41 22 42 23 43 24 44 59 45 25 46
REMARK SMILES IDX 64 47 58 48 60 49 26 50 63 51 57 52 56 53 27 55 49 56 34 57
REMARK SMILES IDX 48 58 35 59 38 60 47 61 61 62 36 63 37 64 46 66 62 67 39 68
REMARK SMILES IDX 28 69 29 70 33 71 30 72 32 73 31 74 50 75 51 76 55 77 52 78
REMARK SMILES IDX 54 79 53 80 40 81 41 82 45 83 42 84 44 85 43 86
REMARK H PARENT 3 14 3 15 70 21 75 29 60 54 38 65
REMARK Flexibility Score: inf
ROOT
ATOM      1  C   UNL     1      -2.965  -1.921  -0.036  1.00  0.00     0.188 C 
ENDROOT
BRANCH   1   2
ATOM      2  O   UNL     1      -4.079  -1.660  -0.884  1.00  0.00    -0.376 OA
BRANCH   2   3
ATOM      3  C   UNL     1      -4.121  -2.400  -2.109  1.00  0.00     0.202 C 
BRANCH   3   4
ATOM      4  C   UNL     1      -2.821  -2.415  -2.925  1.00  0.00     0.261 C 
BRANCH   4   5
ATOM      5  O   UNL     1      -1.752  -3.086  -2.225  1.00  0.00    -0.459 OA
BRANCH   5   6
ATOM      6  C   UNL     1      -0.493  -2.801  -2.655  1.00  0.00     0.368 C 
ATOM      7  O   UNL     1      -0.261  -2.134  -3.660  1.00  0.00    -0.245 OA
BRANCH   6   8
ATOM      8  C   UNL     1       0.616  -3.295  -1.671  1.00  0.00     0.200 C 
ATOM      9  C   UNL     1       1.922  -3.581  -2.432  1.00  0.00     0.087 C 
ATOM     10  C   UNL     1       0.344  -4.663  -1.012  1.00  0.00     0.146 C 
ATOM     11  C   UNL     1       1.768  -5.008  -2.957  1.00  0.00     0.072 C 
ATOM     12  C   UNL     1       0.850  -5.754  -1.975  1.00  0.00     0.191 C 
BRANCH   8  13
ATOM     13  N   UNL     1       0.821  -2.293  -0.582  1.00  0.00    -0.332 N 
ATOM     14  H   UNL     1       0.046  -2.378   0.076  1.00  0.00     0.347 HD
ATOM     15  H   UNL     1       1.728  -2.503  -0.166  1.00  0.00     0.347 HD
BRANCH  13  16
ATOM     16  C   UNL     1       0.886  -0.901  -1.032  1.00  0.00     0.257 C 
ATOM     17  C   UNL     1       1.344  -0.019   0.121  1.00  0.00     0.071 C 
ENDBRANCH  13  16
ENDBRANCH   8  13
BRANCH  12  18
ATOM     18  N   UNL     1      -0.172  -6.696  -2.461  1.00  0.00    -0.332 N 
ATOM     19  C   UNL     1       0.298  -7.780  -3.314  1.00  0.00     0.262 C 
ATOM     20  C   UNL     1      -1.430  -6.194  -2.998  1.00  0.00     0.262 C 
ATOM     21  H   UNL     1      -0.401  -7.052  -1.533  1.00  0.00     0.348 HD
ATOM     22  C   UNL     1       0.529  -7.381  -4.771  1.00  0.00     0.071 C 
ATOM     23  C   UNL     1      -1.283  -5.582  -4.379  1.00  0.00     0.071 C 
ATOM     24  C   UNL     1      -0.516  -6.440  -5.412  1.00  0.00     0.055 C 
BRANCH  24  25
ATOM     25  C   UNL     1       0.092  -5.435  -6.443  1.00  0.00     0.265 C 
BRANCH  25  26
ATOM     26  N   UNL     1       0.707  -5.896  -7.701  1.00  0.00    -0.340 N 
ATOM     27  C   UNL     1       1.197  -4.708  -8.425  1.00  0.00     0.332 C 
ATOM     28  C   UNL     1       1.828  -6.814  -7.518  1.00  0.00     0.332 C 
ATOM     29  H   UNL     1      -0.010  -6.410  -8.212  1.00  0.00     0.347 HD
ENDBRANCH  25  26
ENDBRANCH  24  25
ENDBRANCH  12  18
ENDBRANCH   6   8
ENDBRANCH   5   6
ENDBRANCH   4   5
ENDBRANCH   3   4
ENDBRANCH   2   3
ENDBRANCH   1   2
BRANCH   1  30
ATOM     30  C   UNL     1      -2.852  -3.345   0.522  1.00  0.00     0.188 C 
BRANCH  30  31
ATOM     31  O   UNL     1      -3.589  -4.327  -0.190  1.00  0.00    -0.376 OA
BRANCH  31  32
ATOM     32  C   UNL     1      -3.944  -5.513   0.520  1.00  0.00     0.202 C 
BRANCH  32  33
ATOM     33  C   UNL     1      -5.009  -5.302   1.617  1.00  0.00     0.261 C 
BRANCH  33  34
ATOM     34  O   UNL     1      -4.593  -4.460   2.710  1.00  0.00    -0.460 OA
BRANCH  34  35
ATOM     35  C   UNL     1      -3.480  -4.846   3.378  1.00  0.00     0.338 C 
ATOM     36  O   UNL     1      -2.977  -5.957   3.366  1.00  0.00    -0.246 OA
BRANCH  35  37
ATOM     37  C   UNL     1      -2.801  -3.629   3.903  1.00  0.00     0.060 A 
ATOM     38  C   UNL     1      -1.402  -3.572   3.816  1.00  0.00     0.016 A 
ATOM     39  C   UNL     1      -3.515  -2.518   4.369  1.00  0.00     0.016 A 
ATOM     40  C   UNL     1      -0.713  -2.453   4.284  1.00  0.00     0.010 A 
ATOM     41  C   UNL     1      -2.825  -1.396   4.842  1.00  0.00     0.010 A 
ATOM     42  C   UNL     1      -1.419  -1.389   4.862  1.00  0.00    -0.014 A 
BRANCH  42  43
ATOM     43  C   UNL     1      -0.699  -0.471   5.779  1.00  0.00     0.031 A 
ATOM     44  C   UNL     1      -0.683  -0.839   7.241  1.00  0.00     0.074 A 
ATOM     45  C   UNL     1      -0.044   0.624   5.358  1.00  0.00     0.049 A 
ATOM     46  N   UNL     1      -0.102  -0.241   8.249  1.00  0.00    -0.248 NA
ATOM     47  C   UNL     1      -1.437  -2.049   7.612  1.00  0.00     0.031 C 
ATOM     48  C   UNL     1       0.041   1.089   3.977  1.00  0.00     0.029 A 
ATOM     49  N   UNL     1       0.678   1.548   6.074  1.00  0.00    -0.354 N 
ATOM     50  C   UNL     1      -0.425  -1.001   9.367  1.00  0.00     0.074 A 
ATOM     51  C   UNL     1      -1.288  -2.071   8.924  1.00  0.00     0.031 C 
ATOM     52  C   UNL     1       0.774   2.218   3.945  1.00  0.00     0.029 A 
ATOM     53  C   UNL     1       1.192   2.562   5.304  1.00  0.00     0.049 A 
ATOM     54  H   UNL     1       0.815   1.489   7.047  1.00  0.00     0.167 HD
ATOM     55  C   UNL     1      -0.035  -0.837  10.652  1.00  0.00     0.031 A 
ATOM     56  C   UNL     1       1.911   3.645   5.661  1.00  0.00     0.031 A 
ATOM     57  C   UNL     1       0.798   0.238  11.110  1.00  0.00     0.049 A 
ATOM     58  C   UNL     1       2.299   3.843   7.104  1.00  0.00     0.074 A 
ATOM     59  C   UNL     1       1.259   0.490  12.389  1.00  0.00     0.029 A 
ATOM     60  N   UNL     1       1.283   1.253  10.299  1.00  0.00    -0.354 N 
ATOM     61  N   UNL     1       2.028   3.092   8.146  1.00  0.00    -0.248 NA
ATOM     62  C   UNL     1       3.111   5.029   7.416  1.00  0.00     0.031 C 
ATOM     63  C   UNL     1       1.980   1.689  12.362  1.00  0.00     0.029 A 
ATOM     64  C   UNL     1       2.020   2.147  11.054  1.00  0.00     0.049 A 
ATOM     65  H   UNL     1       1.125   1.326   9.330  1.00  0.00     0.167 HD
ATOM     66  C   UNL     1       2.660   3.698   9.228  1.00  0.00     0.074 A 
ATOM     67  C   UNL     1       3.337   4.870   8.713  1.00  0.00     0.031 C 
ATOM     68  C   UNL     1       2.683   3.314  10.529  1.00  0.00     0.031 A 
BRANCH  55  69
ATOM     69  C   UNL     1      -0.563  -1.832  11.647  1.00  0.00    -0.014 A 
ATOM     70  C   UNL     1      -0.143  -3.173  11.636  1.00  0.00     0.009 A 
ATOM     71  C   UNL     1      -1.531  -1.431  12.580  1.00  0.00     0.009 A 
ATOM     72  C   UNL     1      -0.723  -4.103  12.501  1.00  0.00     0.001 A 
ATOM     73  C   UNL     1      -2.085  -2.356  13.466  1.00  0.00     0.001 A 
ATOM     74  C   UNL     1      -1.692  -3.693  13.415  1.00  0.00     0.000 A 
ENDBRANCH  55  69
BRANCH  56  75
ATOM     75  C   UNL     1       2.314   4.636   4.628  1.00  0.00    -0.014 A 
ATOM     76  C   UNL     1       3.652   4.747   4.217  1.00  0.00     0.009 A 
ATOM     77  C   UNL     1       1.355   5.481   4.047  1.00  0.00     0.009 A 
ATOM     78  C   UNL     1       4.022   5.694   3.259  1.00  0.00     0.001 A 
ATOM     79  C   UNL     1       1.724   6.409   3.071  1.00  0.00     0.001 A 
ATOM     80  C   UNL     1       3.057   6.519   2.682  1.00  0.00     0.000 A 
ENDBRANCH  56  75
BRANCH  68  81
ATOM     81  C   UNL     1       3.499   4.143  11.483  1.00  0.00    -0.014 A 
ATOM     82  C   UNL     1       3.091   5.426  11.878  1.00  0.00     0.009 A 
ATOM     83  C   UNL     1       4.677   3.607  12.030  1.00  0.00     0.009 A 
ATOM     84  C   UNL     1       3.866   6.170  12.771  1.00  0.00     0.001 A 
ATOM     85  C   UNL     1       5.433   4.341  12.945  1.00  0.00     0.001 A 
ATOM     86  C   UNL     1       5.033   5.626  13.307  1.00  0.00     0.000 A 
ENDBRANCH  68  81
ENDBRANCH  42  43
ENDBRANCH  35  37
ENDBRANCH  34  35
ENDBRANCH  33  34
ENDBRANCH  32  33
ENDBRANCH  31  32
ENDBRANCH  30  31
ENDBRANCH   1  30
TORSDOF 22
