REMARK SMILES [NH3+][C@H](/C=C\c1ccccc1)C(=O)OCCOCCOCCOC(=O)c1ccc(-c2c3nc(c(-c4ccccc4)c4ccc([nH]4)c(-c4ccccc4)c4nc(c(-c5ccccc5)c5ccc2[nH]5)C=C4)C=C3)cc1
REMARK SMILES IDX 17 1 16 2 15 3 14 4 13 5 11 6 12 7 2 8 1 9 3 13 4 14 5 15
REMARK SMILES IDX 6 16 10 17 7 18 9 19 8 20 18 21 19 22 20 23 21 24 22 25
REMARK SMILES IDX 23 26 24 27 25 28 26 29 72 30 27 31 71 32 28 33 29 34 30 35
REMARK SMILES IDX 65 36 31 37 70 38 64 39 66 40 32 41 69 42 63 43 62 44 33 46
REMARK SMILES IDX 55 47 40 48 54 49 41 50 44 51 53 52 67 53 42 54 43 55 52 57
REMARK SMILES IDX 68 58 45 59 34 60 35 61 39 62 36 63 38 64 37 65 56 66 57 67
REMARK SMILES IDX 61 68 58 69 60 70 59 71 46 72 47 73 51 74 48 75 50 76 49 77
REMARK H PARENT 1 10 1 11 1 12 66 45 44 56
REMARK Flexibility Score: inf
ROOT
ATOM      1  C   UNL     1      -2.387  -0.598   1.908  1.00  0.00     0.188 C 
ENDROOT
BRANCH   1   2
ATOM      2  O   UNL     1      -3.736  -0.195   1.740  1.00  0.00    -0.376 OA
BRANCH   2   3
ATOM      3  C   UNL     1      -4.070   0.619   0.618  1.00  0.00     0.202 C 
BRANCH   3   4
ATOM      4  C   UNL     1      -3.239   1.879   0.308  1.00  0.00     0.261 C 
BRANCH   4   5
ATOM      5  O   UNL     1      -1.828   1.663   0.095  1.00  0.00    -0.459 OA
BRANCH   5   6
ATOM      6  C   UNL     1      -1.007   2.234   1.018  1.00  0.00     0.369 C 
ATOM      7  O   UNL     1      -1.418   2.861   1.994  1.00  0.00    -0.245 OA
BRANCH   6   8
ATOM      8  C   UNL     1       0.518   1.963   0.790  1.00  0.00     0.315 C 
BRANCH   8   9
ATOM      9  N   UNL     1       1.181   3.269   0.818  1.00  0.00    -0.343 N 
ATOM     10  H   UNL     1       0.817   3.818   1.597  1.00  0.00     0.345 HD
ATOM     11  H   UNL     1       1.000   3.760  -0.057  1.00  0.00     0.345 HD
ATOM     12  H   UNL     1       2.185   3.138   0.934  1.00  0.00     0.345 HD
ENDBRANCH   8   9
BRANCH   8  13
ATOM     13  C   UNL     1       0.961   1.029  -0.325  1.00  0.00     0.049 C 
ATOM     14  C   UNL     1       2.030   1.009  -1.144  1.00  0.00     0.010 C 
BRANCH  14  15
ATOM     15  C   UNL     1       3.018   2.073  -1.262  1.00  0.00    -0.026 A 
ATOM     16  C   UNL     1       2.894   2.930  -2.360  1.00  0.00     0.008 A 
ATOM     17  C   UNL     1       3.946   2.352  -0.255  1.00  0.00     0.008 A 
ATOM     18  C   UNL     1       3.611   4.120  -2.397  1.00  0.00     0.001 A 
ATOM     19  C   UNL     1       4.645   3.559  -0.283  1.00  0.00     0.001 A 
ATOM     20  C   UNL     1       4.460   4.450  -1.342  1.00  0.00     0.000 A 
ENDBRANCH  14  15
ENDBRANCH   8  13
ENDBRANCH   6   8
ENDBRANCH   5   6
ENDBRANCH   4   5
ENDBRANCH   3   4
ENDBRANCH   2   3
ENDBRANCH   1   2
BRANCH   1  21
ATOM     21  C   UNL     1      -1.672  -1.266   0.731  1.00  0.00     0.188 C 
BRANCH  21  22
ATOM     22  O   UNL     1      -2.230  -1.006  -0.535  1.00  0.00    -0.376 OA
BRANCH  22  23
ATOM     23  C   UNL     1      -2.626  -2.091  -1.369  1.00  0.00     0.202 C 
BRANCH  23  24
ATOM     24  C   UNL     1      -3.427  -3.291  -0.807  1.00  0.00     0.261 C 
BRANCH  24  25
ATOM     25  O   UNL     1      -2.973  -3.880   0.426  1.00  0.00    -0.460 OA
BRANCH  25  26
ATOM     26  C   UNL     1      -1.783  -4.529   0.401  1.00  0.00     0.338 C 
ATOM     27  O   UNL     1      -1.109  -4.772  -0.589  1.00  0.00    -0.246 OA
BRANCH  26  28
ATOM     28  C   UNL     1      -1.278  -4.618   1.799  1.00  0.00     0.060 A 
ATOM     29  C   UNL     1      -0.014  -4.075   2.081  1.00  0.00     0.016 A 
ATOM     30  C   UNL     1      -2.049  -5.155   2.832  1.00  0.00     0.016 A 
ATOM     31  C   UNL     1       0.500  -4.112   3.379  1.00  0.00     0.010 A 
ATOM     32  C   UNL     1      -1.521  -5.215   4.130  1.00  0.00     0.010 A 
ATOM     33  C   UNL     1      -0.228  -4.729   4.404  1.00  0.00    -0.014 A 
BRANCH  33  34
ATOM     34  C   UNL     1       0.452  -5.059   5.686  1.00  0.00     0.031 A 
ATOM     35  C   UNL     1       0.984  -6.459   5.869  1.00  0.00     0.074 A 
ATOM     36  C   UNL     1       0.653  -4.143   6.651  1.00  0.00     0.049 A 
ATOM     37  N   UNL     1       1.607  -6.987   6.892  1.00  0.00    -0.248 NA
ATOM     38  C   UNL     1       0.787  -7.384   4.740  1.00  0.00     0.031 C 
ATOM     39  C   UNL     1       0.241  -2.742   6.594  1.00  0.00     0.029 A 
ATOM     40  N   UNL     1       1.264  -4.265   7.877  1.00  0.00    -0.354 N 
ATOM     41  C   UNL     1       1.877  -8.302   6.529  1.00  0.00     0.074 A 
ATOM     42  C   UNL     1       1.312  -8.504   5.213  1.00  0.00     0.031 C 
ATOM     43  C   UNL     1       0.602  -2.136   7.740  1.00  0.00     0.029 A 
ATOM     44  C   UNL     1       1.244  -3.110   8.623  1.00  0.00     0.049 A 
ATOM     45  H   UNL     1       1.677  -5.101   8.192  1.00  0.00     0.167 HD
ATOM     46  C   UNL     1       2.546  -9.257   7.218  1.00  0.00     0.031 A 
ATOM     47  C   UNL     1       1.673  -2.873   9.879  1.00  0.00     0.031 A 
ATOM     48  C   UNL     1       3.090  -9.077   8.537  1.00  0.00     0.049 A 
ATOM     49  C   UNL     1       2.331  -3.981  10.665  1.00  0.00     0.074 A 
ATOM     50  C   UNL     1       3.774  -9.992   9.319  1.00  0.00     0.029 A 
ATOM     51  N   UNL     1       3.007  -7.906   9.273  1.00  0.00    -0.354 N 
ATOM     52  N   UNL     1       2.596  -5.213  10.302  1.00  0.00    -0.248 NA
ATOM     53  C   UNL     1       2.761  -3.655  12.034  1.00  0.00     0.031 C 
ATOM     54  C   UNL     1       4.054  -9.393  10.551  1.00  0.00     0.029 A 
ATOM     55  C   UNL     1       3.608  -8.082  10.508  1.00  0.00     0.049 A 
ATOM     56  H   UNL     1       2.583  -7.073   8.964  1.00  0.00     0.167 HD
ATOM     57  C   UNL     1       3.251  -5.795  11.383  1.00  0.00     0.074 A 
ATOM     58  C   UNL     1       3.365  -4.776  12.403  1.00  0.00     0.031 C 
ATOM     59  C   UNL     1       3.718  -7.062  11.519  1.00  0.00     0.031 A 
BRANCH  46  60
ATOM     60  C   UNL     1       2.705 -10.599   6.557  1.00  0.00    -0.014 A 
ATOM     61  C   UNL     1       3.551 -10.768   5.449  1.00  0.00     0.009 A 
ATOM     62  C   UNL     1       2.027 -11.715   7.070  1.00  0.00     0.009 A 
ATOM     63  C   UNL     1       3.688 -12.022   4.849  1.00  0.00     0.001 A 
ATOM     64  C   UNL     1       2.191 -12.973   6.488  1.00  0.00     0.001 A 
ATOM     65  C   UNL     1       3.013 -13.124   5.373  1.00  0.00     0.000 A 
ENDBRANCH  46  60
BRANCH  47  66
ATOM     66  C   UNL     1       1.472  -1.536  10.504  1.00  0.00    -0.014 A 
ATOM     67  C   UNL     1       2.565  -0.723  10.846  1.00  0.00     0.009 A 
ATOM     68  C   UNL     1       0.177  -1.091  10.819  1.00  0.00     0.009 A 
ATOM     69  C   UNL     1       2.368   0.485  11.522  1.00  0.00     0.001 A 
ATOM     70  C   UNL     1      -0.019   0.134  11.461  1.00  0.00     0.001 A 
ATOM     71  C   UNL     1       1.076   0.914  11.825  1.00  0.00     0.000 A 
ENDBRANCH  47  66
BRANCH  59  72
ATOM     72  C   UNL     1       4.437  -7.403  12.797  1.00  0.00    -0.014 A 
ATOM     73  C   UNL     1       3.760  -7.485  14.024  1.00  0.00     0.009 A 
ATOM     74  C   UNL     1       5.815  -7.670  12.767  1.00  0.00     0.009 A 
ATOM     75  C   UNL     1       4.456  -7.778  15.200  1.00  0.00     0.001 A 
ATOM     76  C   UNL     1       6.503  -7.998  13.937  1.00  0.00     0.001 A 
ATOM     77  C   UNL     1       5.826  -8.038  15.154  1.00  0.00     0.000 A 
ENDBRANCH  59  72
ENDBRANCH  33  34
ENDBRANCH  26  28
ENDBRANCH  25  26
ENDBRANCH  24  25
ENDBRANCH  23  24
ENDBRANCH  22  23
ENDBRANCH  21  22
ENDBRANCH   1  21
TORSDOF 20
