REMARK SMILES Cc1cc(/C=C2/C(=O)NC(=S)N=C2OCCOCCOCCOC(=O)c2ccc(-c3c4nc(c(-c5ccccc5)c5ccc([nH]5)c(-c5ccccc5)c5nc(c(-c6ccccc6)c6ccc3[nH]6)C=C5)C=C4)cc2)c(C)n1-c1cccc(C(=O)[O-])c1
REMARK SMILES IDX 18 1 17 2 16 3 15 4 14 5 13 6 5 7 6 8 7 9 8 10 9 11 12 12
REMARK SMILES IDX 10 13 11 15 4 16 1 17 2 18 3 19 76 20 74 21 75 22 77 23
REMARK SMILES IDX 78 24 85 25 79 26 81 27 80 28 82 29 83 30 84 31 19 32 20 33
REMARK SMILES IDX 21 34 22 35 23 36 24 37 25 38 26 39 27 40 73 41 28 42 72 43
REMARK SMILES IDX 29 44 30 45 31 46 66 47 32 48 71 49 65 50 67 51 33 52 70 53
REMARK SMILES IDX 64 54 63 55 34 57 56 58 41 59 55 60 42 61 45 62 54 63 68 64
REMARK SMILES IDX 43 65 44 66 53 68 69 69 46 70 35 71 36 72 40 73 37 74 39 75
REMARK SMILES IDX 38 76 57 77 58 78 62 79 59 80 61 81 60 82 47 83 48 84 52 85
REMARK SMILES IDX 49 86 51 87 50 88
REMARK H PARENT 9 14 67 56 45 67
REMARK Flexibility Score: inf
ROOT
ATOM      1  C   UNL     1       1.234   2.325  -8.160  1.00  0.00     0.188 C 
ENDROOT
BRANCH   1   2
ATOM      2  O   UNL     1       1.446   3.678  -7.793  1.00  0.00    -0.376 OA
BRANCH   2   3
ATOM      3  C   UNL     1       1.224   4.152  -6.471  1.00  0.00     0.201 C 
BRANCH   3   4
ATOM      4  C   UNL     1      -0.152   3.957  -5.841  1.00  0.00     0.260 C 
BRANCH   4   5
ATOM      5  O   UNL     1      -0.346   2.599  -5.387  1.00  0.00    -0.475 OA
BRANCH   5   6
ATOM      6  C   UNL     1      -1.239   1.831  -6.047  1.00  0.00     0.229 C 
ATOM      7  C   UNL     1      -0.939  -0.176  -4.446  1.00  0.00     0.029 C 
ATOM      8  C   UNL     1      -1.262   0.421  -5.614  1.00  0.00     0.103 C 
ATOM      9  C   UNL     1      -1.733  -0.502  -6.690  1.00  0.00     0.262 C 
ATOM     10  O   UNL     1      -1.635  -1.723  -6.647  1.00  0.00    -0.269 OA
ATOM     11  N   UNL     1      -2.301   0.117  -7.769  1.00  0.00    -0.297 N 
ATOM     12  N   UNL     1      -1.874   2.310  -7.060  1.00  0.00    -0.184 NA
ATOM     13  C   UNL     1      -2.463   1.463  -7.946  1.00  0.00     0.203 C 
ATOM     14  H   UNL     1      -2.626  -0.466  -8.493  1.00  0.00     0.172 HD
ATOM     15  S   UNL     1      -3.239   1.990  -9.334  1.00  0.00    -0.038 S 
BRANCH   7  16
ATOM     16  C   UNL     1      -0.448   0.292  -3.181  1.00  0.00    -0.003 A 
ATOM     17  C   UNL     1       1.265  -0.276   0.083  1.00  0.00     0.065 C 
ATOM     18  C   UNL     1       0.627   0.192  -1.181  1.00  0.00     0.020 A 
ATOM     19  C   UNL     1       0.268  -0.550  -2.287  1.00  0.00     0.031 A 
ATOM     20  N   UNL     1       0.254   1.506  -1.430  1.00  0.00    -0.318 N 
ATOM     21  C   UNL     1      -0.650   1.489  -2.508  1.00  0.00     0.027 A 
ATOM     22  C   UNL     1      -1.541   2.635  -2.837  1.00  0.00     0.065 C 
BRANCH  20  23
ATOM     23  C   UNL     1       0.830   2.674  -0.835  1.00  0.00     0.046 A 
ATOM     24  C   UNL     1       0.053   3.807  -0.574  1.00  0.00     0.026 A 
ATOM     25  C   UNL     1       2.225   2.746  -0.678  1.00  0.00     0.036 A 
ATOM     26  C   UNL     1       0.653   5.033  -0.297  1.00  0.00     0.003 A 
ATOM     27  C   UNL     1       2.825   3.975  -0.369  1.00  0.00    -0.001 A 
ATOM     28  C   UNL     1       2.040   5.124  -0.221  1.00  0.00     0.010 A 
BRANCH  27  29
ATOM     29  C   UNL     1       4.303   4.152  -0.225  1.00  0.00     0.072 C 
ATOM     30  O   UNL     1       4.876   5.180  -0.102  1.00  0.00    -0.545 OA
ATOM     31  O   UNL     1       4.953   2.962  -0.207  1.00  0.00    -0.545 OA
ENDBRANCH  27  29
ENDBRANCH  20  23
ENDBRANCH   7  16
ENDBRANCH   5   6
ENDBRANCH   4   5
ENDBRANCH   3   4
ENDBRANCH   2   3
ENDBRANCH   1   2
BRANCH   1  32
ATOM     32  C   UNL     1       1.921   1.165  -7.428  1.00  0.00     0.188 C 
BRANCH  32  33
ATOM     33  O   UNL     1       3.116   1.419  -6.733  1.00  0.00    -0.376 OA
BRANCH  33  34
ATOM     34  C   UNL     1       4.059   2.240  -7.391  1.00  0.00     0.202 C 
BRANCH  34  35
ATOM     35  C   UNL     1       4.640   1.892  -8.819  1.00  0.00     0.261 C 
BRANCH  35  36
ATOM     36  O   UNL     1       3.921   1.759 -10.138  1.00  0.00    -0.460 OA
BRANCH  36  37
ATOM     37  C   UNL     1       3.723   0.521 -10.773  1.00  0.00     0.338 C 
ATOM     38  O   UNL     1       3.581  -0.505 -10.118  1.00  0.00    -0.246 OA
BRANCH  37  39
ATOM     39  C   UNL     1       3.760   0.451 -12.373  1.00  0.00     0.060 A 
ATOM     40  C   UNL     1       3.060  -0.384 -13.310  1.00  0.00     0.016 A 
ATOM     41  C   UNL     1       4.635   1.215 -13.068  1.00  0.00     0.016 A 
ATOM     42  C   UNL     1       3.193  -0.391 -14.914  1.00  0.00     0.010 A 
ATOM     43  C   UNL     1       4.697   1.149 -14.562  1.00  0.00     0.010 A 
ATOM     44  C   UNL     1       4.085   0.396 -15.694  1.00  0.00    -0.014 A 
BRANCH  44  45
ATOM     45  C   UNL     1       3.812   1.100 -17.415  1.00  0.00     0.031 A 
ATOM     46  C   UNL     1       2.809   2.134 -17.007  1.00  0.00     0.074 A 
ATOM     47  C   UNL     1       4.383   1.506 -18.803  1.00  0.00     0.049 A 
ATOM     48  N   UNL     1       3.085   2.610 -15.813  1.00  0.00    -0.248 NA
ATOM     49  C   UNL     1       2.234   3.177 -17.826  1.00  0.00     0.031 C 
ATOM     50  C   UNL     1       5.740   1.256 -19.397  1.00  0.00     0.029 A 
ATOM     51  N   UNL     1       3.918   2.429 -20.030  1.00  0.00    -0.354 N 
ATOM     52  C   UNL     1       3.824   3.690 -16.186  1.00  0.00     0.074 A 
ATOM     53  C   UNL     1       2.817   4.201 -17.169  1.00  0.00     0.031 C 
ATOM     54  C   UNL     1       6.057   2.033 -20.481  1.00  0.00     0.029 A 
ATOM     55  C   UNL     1       4.963   2.922 -21.004  1.00  0.00     0.049 A 
ATOM     56  H   UNL     1       2.971   2.670 -20.146  1.00  0.00     0.167 HD
ATOM     57  C   UNL     1       5.237   3.818 -16.197  1.00  0.00     0.031 A 
ATOM     58  C   UNL     1       5.257   3.707 -22.228  1.00  0.00     0.031 A 
ATOM     59  C   UNL     1       5.650   5.151 -16.529  1.00  0.00     0.049 A 
ATOM     60  C   UNL     1       6.144   4.721 -21.547  1.00  0.00     0.074 A 
ATOM     61  C   UNL     1       4.958   6.143 -17.183  1.00  0.00     0.029 A 
ATOM     62  N   UNL     1       6.950   5.368 -16.968  1.00  0.00    -0.354 N 
ATOM     63  N   UNL     1       7.435   4.770 -21.436  1.00  0.00    -0.248 NA
ATOM     64  C   UNL     1       5.446   5.962 -21.112  1.00  0.00     0.031 C 
ATOM     65  C   UNL     1       5.394   5.648 -18.412  1.00  0.00     0.029 A 
ATOM     66  C   UNL     1       6.785   5.524 -18.319  1.00  0.00     0.049 A 
ATOM     67  H   UNL     1       7.781   5.401 -16.441  1.00  0.00     0.167 HD
ATOM     68  C   UNL     1       7.579   5.793 -20.507  1.00  0.00     0.074 A 
ATOM     69  C   UNL     1       6.473   6.707 -20.710  1.00  0.00     0.031 C 
ATOM     70  C   UNL     1       7.872   5.360 -19.247  1.00  0.00     0.031 A 
BRANCH  57  71
ATOM     71  C   UNL     1       6.520   2.780 -15.932  1.00  0.00    -0.014 A 
ATOM     72  C   UNL     1       6.734   1.462 -16.435  1.00  0.00     0.009 A 
ATOM     73  C   UNL     1       7.470   3.128 -14.963  1.00  0.00     0.009 A 
ATOM     74  C   UNL     1       7.670   0.523 -15.943  1.00  0.00     0.001 A 
ATOM     75  C   UNL     1       8.457   2.223 -14.496  1.00  0.00     0.001 A 
ATOM     76  C   UNL     1       8.530   0.908 -14.947  1.00  0.00     0.000 A 
ENDBRANCH  57  71
BRANCH  58  77
ATOM     77  C   UNL     1       5.091   4.661 -23.689  1.00  0.00    -0.014 A 
ATOM     78  C   UNL     1       5.306   4.130 -24.982  1.00  0.00     0.009 A 
ATOM     79  C   UNL     1       5.245   6.118 -23.792  1.00  0.00     0.009 A 
ATOM     80  C   UNL     1       5.548   4.953 -26.172  1.00  0.00     0.001 A 
ATOM     81  C   UNL     1       5.511   6.933 -24.928  1.00  0.00     0.001 A 
ATOM     82  C   UNL     1       5.643   6.345 -26.148  1.00  0.00     0.000 A 
ENDBRANCH  58  77
BRANCH  70  83
ATOM     83  C   UNL     1       8.998   4.379 -19.217  1.00  0.00    -0.014 A 
ATOM     84  C   UNL     1      10.209   4.718 -19.846  1.00  0.00     0.009 A 
ATOM     85  C   UNL     1       8.847   3.071 -18.754  1.00  0.00     0.009 A 
ATOM     86  C   UNL     1      11.212   3.769 -20.041  1.00  0.00     0.001 A 
ATOM     87  C   UNL     1       9.853   2.116 -18.938  1.00  0.00     0.001 A 
ATOM     88  C   UNL     1      11.032   2.465 -19.591  1.00  0.00     0.000 A 
ENDBRANCH  70  83
ENDBRANCH  44  45
ENDBRANCH  37  39
ENDBRANCH  36  37
ENDBRANCH  35  36
ENDBRANCH  34  35
ENDBRANCH  33  34
ENDBRANCH  32  33
ENDBRANCH   1  32
TORSDOF 19
