REMARK SMILES C[C@@H](C(=O)OCCOCCOCCOC(=O)c1ccc(-c2c3nc(c(-c4ccccc4)c4ccc([nH]4)c(-c4ccccc4)c4nc(c(-c5ccccc5)c5ccc2[nH]5)C=C4)C=C3)cc1)c1ccc(C[C@H]2CCCC2=O)c(-c2ccccc2)c1
REMARK SMILES IDX 9 1 8 2 7 3 6 4 5 5 3 6 4 7 2 8 1 9 65 10 66 11 83 12 67 13
REMARK SMILES IDX 76 14 68 15 77 16 78 17 82 18 79 19 81 20 80 21 69 22 70 23
REMARK SMILES IDX 71 24 74 25 72 26 73 27 75 28 10 29 11 30 12 31 13 32 14 33
REMARK SMILES IDX 15 34 16 35 17 36 18 37 64 38 19 39 63 40 20 41 21 42 22 43
REMARK SMILES IDX 57 44 23 45 62 46 56 47 58 48 24 49 61 50 55 51 54 52 25 54
REMARK SMILES IDX 47 55 32 56 46 57 33 58 36 59 45 60 59 61 34 62 35 63 44 65
REMARK SMILES IDX 60 66 37 67 26 68 27 69 31 70 28 71 30 72 29 73 48 74 49 75
REMARK SMILES IDX 53 76 50 77 52 78 51 79 38 80 39 81 43 82 40 83 42 84 41 85
REMARK H PARENT 58 53 36 64
REMARK Flexibility Score: inf
ROOT
ATOM      1  C   UNL     1       0.563   3.742  -0.524  1.00  0.00     0.188 C 
ENDROOT
BRANCH   1   2
ATOM      2  O   UNL     1       1.371   4.868  -0.244  1.00  0.00    -0.376 OA
BRANCH   2   3
ATOM      3  C   UNL     1       2.539   4.685   0.550  1.00  0.00     0.202 C 
BRANCH   3   4
ATOM      4  C   UNL     1       2.546   3.726   1.757  1.00  0.00     0.261 C 
BRANCH   4   5
ATOM      5  O   UNL     1       2.071   2.391   1.484  1.00  0.00    -0.463 OA
BRANCH   5   6
ATOM      6  C   UNL     1       1.312   1.809   2.453  1.00  0.00     0.313 C 
ATOM      7  O   UNL     1       1.089   2.330   3.542  1.00  0.00    -0.252 OA
BRANCH   6   8
ATOM      8  C   UNL     1       0.660   0.476   2.038  1.00  0.00     0.126 C 
ATOM      9  C   UNL     1       1.402  -0.333   0.965  1.00  0.00     0.025 C 
BRANCH   8  10
ATOM     10  C   UNL     1      -0.847   0.569   1.772  1.00  0.00    -0.033 A 
ATOM     11  C   UNL     1      -1.525   1.784   1.710  1.00  0.00     0.005 A 
ATOM     12  C   UNL     1      -1.622  -0.599   1.653  1.00  0.00     0.013 A 
ATOM     13  C   UNL     1      -2.903   1.839   1.530  1.00  0.00     0.004 A 
ATOM     14  C   UNL     1      -3.041  -0.577   1.588  1.00  0.00    -0.015 A 
ATOM     15  C   UNL     1      -3.689   0.679   1.563  1.00  0.00    -0.039 A 
BRANCH  14  16
ATOM     16  C   UNL     1      -3.764  -1.865   1.655  1.00  0.00    -0.018 A 
ATOM     17  C   UNL     1      -4.691  -2.260   0.678  1.00  0.00     0.009 A 
ATOM     18  C   UNL     1      -3.540  -2.735   2.737  1.00  0.00     0.009 A 
ATOM     19  C   UNL     1      -5.409  -3.454   0.810  1.00  0.00     0.001 A 
ATOM     20  C   UNL     1      -4.242  -3.935   2.861  1.00  0.00     0.001 A 
ATOM     21  C   UNL     1      -5.187  -4.288   1.904  1.00  0.00     0.000 A 
ENDBRANCH  14  16
BRANCH  15  22
ATOM     22  C   UNL     1      -5.189   0.881   1.689  1.00  0.00     0.047 C 
BRANCH  22  23
ATOM     23  C   UNL     1      -5.694   1.425   3.040  1.00  0.00     0.060 C 
ATOM     24  C   UNL     1      -5.402   0.536   4.255  1.00  0.00     0.012 C 
ATOM     25  C   UNL     1      -5.084   2.741   3.483  1.00  0.00     0.136 C 
ATOM     26  C   UNL     1      -4.178   1.134   4.939  1.00  0.00     0.009 C 
ATOM     27  C   UNL     1      -4.317   2.635   4.768  1.00  0.00     0.076 C 
ATOM     28  O   UNL     1      -5.200   3.804   2.888  1.00  0.00    -0.299 OA
ENDBRANCH  22  23
ENDBRANCH  15  22
ENDBRANCH   8  10
ENDBRANCH   6   8
ENDBRANCH   5   6
ENDBRANCH   4   5
ENDBRANCH   3   4
ENDBRANCH   2   3
ENDBRANCH   1   2
BRANCH   1  29
ATOM     29  C   UNL     1       1.190   2.514  -1.195  1.00  0.00     0.188 C 
BRANCH  29  30
ATOM     30  O   UNL     1       2.560   2.542  -1.500  1.00  0.00    -0.376 OA
BRANCH  30  31
ATOM     31  C   UNL     1       3.027   3.291  -2.606  1.00  0.00     0.202 C 
BRANCH  31  32
ATOM     32  C   UNL     1       2.145   3.977  -3.672  1.00  0.00     0.261 C 
BRANCH  32  33
ATOM     33  O   UNL     1       0.724   3.982  -3.501  1.00  0.00    -0.460 OA
BRANCH  33  34
ATOM     34  C   UNL     1       0.042   3.004  -4.141  1.00  0.00     0.338 C 
ATOM     35  O   UNL     1       0.508   2.101  -4.823  1.00  0.00    -0.246 OA
BRANCH  34  36
ATOM     36  C   UNL     1      -1.377   3.076  -3.737  1.00  0.00     0.060 A 
ATOM     37  C   UNL     1      -1.934   2.033  -2.983  1.00  0.00     0.016 A 
ATOM     38  C   UNL     1      -2.164   4.158  -4.132  1.00  0.00     0.016 A 
ATOM     39  C   UNL     1      -3.289   2.056  -2.646  1.00  0.00     0.010 A 
ATOM     40  C   UNL     1      -3.526   4.166  -3.819  1.00  0.00     0.010 A 
ATOM     41  C   UNL     1      -4.102   3.101  -3.104  1.00  0.00    -0.014 A 
BRANCH  41  42
ATOM     42  C   UNL     1      -5.578   3.014  -2.975  1.00  0.00     0.031 A 
ATOM     43  C   UNL     1      -6.382   2.513  -4.138  1.00  0.00     0.074 A 
ATOM     44  C   UNL     1      -6.210   3.429  -1.865  1.00  0.00     0.049 A 
ATOM     45  N   UNL     1      -7.681   2.413  -4.261  1.00  0.00    -0.248 NA
ATOM     46  C   UNL     1      -5.625   2.113  -5.333  1.00  0.00     0.031 C 
ATOM     47  C   UNL     1      -5.553   4.004  -0.700  1.00  0.00     0.029 A 
ATOM     48  N   UNL     1      -7.548   3.443  -1.545  1.00  0.00    -0.354 N 
ATOM     49  C   UNL     1      -7.901   1.992  -5.565  1.00  0.00     0.074 A 
ATOM     50  C   UNL     1      -6.602   1.851  -6.189  1.00  0.00     0.031 C 
ATOM     51  C   UNL     1      -6.490   4.294   0.217  1.00  0.00     0.029 A 
ATOM     52  C   UNL     1      -7.805   3.918  -0.281  1.00  0.00     0.049 A 
ATOM     53  H   UNL     1      -8.253   3.143  -2.162  1.00  0.00     0.167 HD
ATOM     54  C   UNL     1      -9.079   1.767  -6.193  1.00  0.00     0.031 A 
ATOM     55  C   UNL     1      -8.963   4.033   0.401  1.00  0.00     0.031 A 
ATOM     56  C   UNL     1     -10.372   1.929  -5.583  1.00  0.00     0.049 A 
ATOM     57  C   UNL     1     -10.257   3.720  -0.303  1.00  0.00     0.074 A 
ATOM     58  C   UNL     1     -11.619   1.700  -6.139  1.00  0.00     0.029 A 
ATOM     59  N   UNL     1     -10.589   2.369  -4.287  1.00  0.00    -0.354 N 
ATOM     60  N   UNL     1     -10.450   3.272  -1.519  1.00  0.00    -0.248 NA
ATOM     61  C   UNL     1     -11.496   3.965   0.450  1.00  0.00     0.031 C 
ATOM     62  C   UNL     1     -12.591   2.058  -5.201  1.00  0.00     0.029 A 
ATOM     63  C   UNL     1     -11.950   2.439  -4.034  1.00  0.00     0.049 A 
ATOM     64  H   UNL     1      -9.882   2.599  -3.642  1.00  0.00     0.167 HD
ATOM     65  C   UNL     1     -11.827   3.188  -1.678  1.00  0.00     0.074 A 
ATOM     66  C   UNL     1     -12.421   3.580  -0.418  1.00  0.00     0.031 C 
ATOM     67  C   UNL     1     -12.535   2.838  -2.779  1.00  0.00     0.031 A 
BRANCH  54  68
ATOM     68  C   UNL     1      -9.018   1.376  -7.642  1.00  0.00    -0.014 A 
ATOM     69  C   UNL     1      -8.535   0.121  -8.044  1.00  0.00     0.009 A 
ATOM     70  C   UNL     1      -9.477   2.273  -8.620  1.00  0.00     0.009 A 
ATOM     71  C   UNL     1      -8.479  -0.212  -9.399  1.00  0.00     0.001 A 
ATOM     72  C   UNL     1      -9.451   1.925  -9.970  1.00  0.00     0.001 A 
ATOM     73  C   UNL     1      -8.942   0.687 -10.359  1.00  0.00     0.000 A 
ENDBRANCH  54  68
BRANCH  55  74
ATOM     74  C   UNL     1      -8.975   4.449   1.834  1.00  0.00    -0.014 A 
ATOM     75  C   UNL     1      -9.425   3.556   2.823  1.00  0.00     0.009 A 
ATOM     76  C   UNL     1      -8.569   5.732   2.227  1.00  0.00     0.009 A 
ATOM     77  C   UNL     1      -9.495   3.947   4.162  1.00  0.00     0.001 A 
ATOM     78  C   UNL     1      -8.598   6.107   3.573  1.00  0.00     0.001 A 
ATOM     79  C   UNL     1      -9.072   5.221   4.538  1.00  0.00     0.000 A 
ENDBRANCH  55  74
BRANCH  67  80
ATOM     80  C   UNL     1     -14.036   2.844  -2.665  1.00  0.00    -0.014 A 
ATOM     81  C   UNL     1     -14.757   4.044  -2.553  1.00  0.00     0.009 A 
ATOM     82  C   UNL     1     -14.741   1.631  -2.704  1.00  0.00     0.009 A 
ATOM     83  C   UNL     1     -16.149   4.025  -2.444  1.00  0.00     0.001 A 
ATOM     84  C   UNL     1     -16.134   1.617  -2.628  1.00  0.00     0.001 A 
ATOM     85  C   UNL     1     -16.836   2.813  -2.487  1.00  0.00     0.000 A 
ENDBRANCH  67  80
ENDBRANCH  41  42
ENDBRANCH  34  36
ENDBRANCH  33  34
ENDBRANCH  32  33
ENDBRANCH  31  32
ENDBRANCH  30  31
ENDBRANCH  29  30
ENDBRANCH   1  29
TORSDOF 21
