REMARK SMILES CS(=O)(=O)c1ccc(C(=O)N2C[C@@H](C(=O)OCCOCCOCCOC(=O)c3ccc(-c4c5nc(c(-c6ccccc6)c6ccc([nH]6)c(-c6ccccc6)c6nc(c(-c7ccccc7)c7ccc4[nH]7)C=C6)C=C5)cc3)[C@H](c3ccncc3)C2)cc1
REMARK SMILES IDX 20 1 19 2 18 3 17 4 16 5 14 6 15 7 13 8 11 9 12 10 83 11
REMARK SMILES IDX 76 12 9 13 10 14 8 15 5 16 6 17 85 18 7 19 84 20 2 21 1 22
REMARK SMILES IDX 3 23 4 24 77 25 78 26 82 27 79 28 81 29 80 30 21 31 22 32
REMARK SMILES IDX 23 33 24 34 25 35 26 36 27 37 28 38 29 39 75 40 30 41 74 42
REMARK SMILES IDX 31 43 32 44 33 45 68 46 34 47 73 48 67 49 69 50 35 51 72 52
REMARK SMILES IDX 66 53 65 54 36 56 58 57 43 58 57 59 44 60 47 61 56 62 70 63
REMARK SMILES IDX 45 64 46 65 55 67 71 68 48 69 37 70 38 71 42 72 39 73 41 74
REMARK SMILES IDX 40 75 59 76 60 77 64 78 61 79 63 80 62 81 49 82 50 83 54 84
REMARK SMILES IDX 51 85 53 86 52 87
REMARK H PARENT 69 55 47 66
REMARK Flexibility Score: inf
ROOT
ATOM      1  C   UNL     1       0.125   9.399   0.853  1.00  0.00     0.188 C 
ENDROOT
BRANCH   1   2
ATOM      2  O   UNL     1      -0.580  10.611   1.095  1.00  0.00    -0.376 OA
BRANCH   2   3
ATOM      3  C   UNL     1      -1.995  10.635   1.084  1.00  0.00     0.202 C 
BRANCH   3   4
ATOM      4  C   UNL     1      -2.707  10.338  -0.240  1.00  0.00     0.261 C 
BRANCH   4   5
ATOM      5  O   UNL     1      -2.160   9.270  -1.030  1.00  0.00    -0.463 OA
BRANCH   5   6
ATOM      6  C   UNL     1      -1.212   9.623  -1.941  1.00  0.00     0.311 C 
ATOM      7  O   UNL     1      -0.767  10.753  -2.085  1.00  0.00    -0.252 OA
BRANCH   6   8
ATOM      8  C   UNL     1      -0.807   8.431  -2.780  1.00  0.00     0.128 C 
ATOM      9  N   UNL     1       0.947   7.096  -3.492  1.00  0.00    -0.337 N 
ATOM     10  C   UNL     1       0.457   7.739  -2.296  1.00  0.00     0.135 C 
ATOM     11  C   UNL     1       0.745   7.988  -4.617  1.00  0.00     0.129 C 
ATOM     12  C   UNL     1      -0.469   8.872  -4.235  1.00  0.00     0.055 C 
BRANCH   9  13
ATOM     13  C   UNL     1       1.875   6.073  -3.564  1.00  0.00     0.253 C 
ATOM     14  O   UNL     1       2.864   6.160  -4.289  1.00  0.00    -0.269 OA
BRANCH  13  15
ATOM     15  C   UNL     1       1.584   4.762  -2.891  1.00  0.00     0.040 A 
ATOM     16  C   UNL     1       1.001   2.141  -2.051  1.00  0.00     0.067 A 
ATOM     17  C   UNL     1       2.252   2.427  -2.599  1.00  0.00     0.021 A 
ATOM     18  C   UNL     1       0.046   3.150  -1.906  1.00  0.00     0.021 A 
ATOM     19  C   UNL     1       2.543   3.737  -3.002  1.00  0.00     0.015 A 
ATOM     20  C   UNL     1       0.334   4.450  -2.340  1.00  0.00     0.015 A 
BRANCH  16  21
ATOM     21  S   UNL     1       0.549   0.454  -1.700  1.00  0.00     0.175 S 
ATOM     22  C   UNL     1       1.130   0.185  -0.050  1.00  0.00     0.163 C 
ATOM     23  O   UNL     1       1.316  -0.395  -2.595  1.00  0.00    -0.224 OA
ATOM     24  O   UNL     1      -0.899   0.390  -1.680  1.00  0.00    -0.224 OA
ENDBRANCH  16  21
ENDBRANCH  13  15
ENDBRANCH   9  13
BRANCH  12  25
ATOM     25  C   UNL     1      -1.720   8.844  -5.103  1.00  0.00    -0.039 A 
ATOM     26  C   UNL     1      -2.850   9.582  -4.707  1.00  0.00     0.024 A 
ATOM     27  C   UNL     1      -1.817   8.140  -6.303  1.00  0.00     0.024 A 
ATOM     28  C   UNL     1      -4.007   9.537  -5.468  1.00  0.00     0.111 A 
ATOM     29  C   UNL     1      -3.014   8.168  -7.008  1.00  0.00     0.111 A 
ATOM     30  N   UNL     1      -4.115   8.838  -6.611  1.00  0.00    -0.265 NA
ENDBRANCH  12  25
ENDBRANCH   6   8
ENDBRANCH   5   6
ENDBRANCH   4   5
ENDBRANCH   3   4
ENDBRANCH   2   3
ENDBRANCH   1   2
BRANCH   1  31
ATOM     31  C   UNL     1      -0.544   8.026   1.077  1.00  0.00     0.188 C 
BRANCH  31  32
ATOM     32  O   UNL     1      -1.566   8.072   2.042  1.00  0.00    -0.376 OA
BRANCH  32  33
ATOM     33  C   UNL     1      -1.315   7.570   3.334  1.00  0.00     0.202 C 
BRANCH  33  34
ATOM     34  C   UNL     1      -0.039   7.943   4.114  1.00  0.00     0.261 C 
BRANCH  34  35
ATOM     35  O   UNL     1       1.154   8.257   3.377  1.00  0.00    -0.460 OA
BRANCH  35  36
ATOM     36  C   UNL     1       1.943   7.230   2.981  1.00  0.00     0.338 C 
ATOM     37  O   UNL     1       1.725   6.047   3.140  1.00  0.00    -0.246 OA
BRANCH  36  38
ATOM     38  C   UNL     1       3.042   7.764   2.128  1.00  0.00     0.060 A 
ATOM     39  C   UNL     1       3.193   7.250   0.833  1.00  0.00     0.016 A 
ATOM     40  C   UNL     1       3.935   8.730   2.601  1.00  0.00     0.016 A 
ATOM     41  C   UNL     1       4.271   7.650   0.035  1.00  0.00     0.010 A 
ATOM     42  C   UNL     1       5.024   9.121   1.804  1.00  0.00     0.010 A 
ATOM     43  C   UNL     1       5.226   8.548   0.534  1.00  0.00    -0.014 A 
BRANCH  43  44
ATOM     44  C   UNL     1       6.513   8.733  -0.195  1.00  0.00     0.031 A 
ATOM     45  C   UNL     1       7.731   7.975   0.271  1.00  0.00     0.074 A 
ATOM     46  C   UNL     1       6.604   9.508  -1.292  1.00  0.00     0.049 A 
ATOM     47  N   UNL     1       8.934   7.924  -0.249  1.00  0.00    -0.248 NA
ATOM     48  C   UNL     1       7.568   7.162   1.486  1.00  0.00     0.031 C 
ATOM     49  C   UNL     1       5.507  10.265  -1.887  1.00  0.00     0.029 A 
ATOM     50  N   UNL     1       7.678   9.770  -2.109  1.00  0.00    -0.354 N 
ATOM     51  C   UNL     1       9.665   7.072   0.570  1.00  0.00     0.074 A 
ATOM     52  C   UNL     1       8.787   6.669   1.647  1.00  0.00     0.031 C 
ATOM     53  C   UNL     1       5.959  10.894  -2.987  1.00  0.00     0.029 A 
ATOM     54  C   UNL     1       7.383  10.606  -3.158  1.00  0.00     0.049 A 
ATOM     55  H   UNL     1       8.575   9.393  -1.957  1.00  0.00     0.167 HD
ATOM     56  C   UNL     1      10.947   6.648   0.440  1.00  0.00     0.031 A 
ATOM     57  C   UNL     1       8.167  11.085  -4.145  1.00  0.00     0.031 A 
ATOM     58  C   UNL     1      11.843   7.069  -0.606  1.00  0.00     0.049 A 
ATOM     59  C   UNL     1       9.617  10.678  -4.217  1.00  0.00     0.074 A 
ATOM     60  C   UNL     1      13.158   6.692  -0.820  1.00  0.00     0.029 A 
ATOM     61  N   UNL     1      11.521   7.974  -1.606  1.00  0.00    -0.354 N 
ATOM     62  N   UNL     1      10.287   9.849  -3.453  1.00  0.00    -0.248 NA
ATOM     63  C   UNL     1      10.414  11.266  -5.306  1.00  0.00     0.031 C 
ATOM     64  C   UNL     1      13.653   7.420  -1.907  1.00  0.00     0.029 A 
ATOM     65  C   UNL     1      12.622   8.190  -2.420  1.00  0.00     0.049 A 
ATOM     66  H   UNL     1      10.641   8.400  -1.721  1.00  0.00     0.167 HD
ATOM     67  C   UNL     1      11.568   9.783  -3.993  1.00  0.00     0.074 A 
ATOM     68  C   UNL     1      11.578  10.650  -5.153  1.00  0.00     0.031 C 
ATOM     69  C   UNL     1      12.634   9.059  -3.571  1.00  0.00     0.031 A 
BRANCH  56  70
ATOM     70  C   UNL     1      11.465   5.704   1.494  1.00  0.00    -0.014 A 
ATOM     71  C   UNL     1      10.975   4.392   1.608  1.00  0.00     0.009 A 
ATOM     72  C   UNL     1      12.461   6.133   2.385  1.00  0.00     0.009 A 
ATOM     73  C   UNL     1      11.433   3.550   2.624  1.00  0.00     0.001 A 
ATOM     74  C   UNL     1      12.942   5.278   3.378  1.00  0.00     0.001 A 
ATOM     75  C   UNL     1      12.418   3.993   3.506  1.00  0.00     0.000 A 
ENDBRANCH  56  70
BRANCH  57  76
ATOM     76  C   UNL     1       7.597  12.004  -5.168  1.00  0.00    -0.014 A 
ATOM     77  C   UNL     1       7.451  11.589  -6.501  1.00  0.00     0.009 A 
ATOM     78  C   UNL     1       7.213  13.309  -4.820  1.00  0.00     0.009 A 
ATOM     79  C   UNL     1       6.953  12.468  -7.467  1.00  0.00     0.001 A 
ATOM     80  C   UNL     1       6.686  14.174  -5.781  1.00  0.00     0.001 A 
ATOM     81  C   UNL     1       6.565  13.757  -7.105  1.00  0.00     0.000 A 
ENDBRANCH  57  76
BRANCH  69  82
ATOM     82  C   UNL     1      13.893   9.128  -4.397  1.00  0.00    -0.014 A 
ATOM     83  C   UNL     1      14.671  10.294  -4.469  1.00  0.00     0.009 A 
ATOM     84  C   UNL     1      14.321   7.989  -5.099  1.00  0.00     0.009 A 
ATOM     85  C   UNL     1      15.821  10.332  -5.263  1.00  0.00     0.001 A 
ATOM     86  C   UNL     1      15.489   8.018  -5.863  1.00  0.00     0.001 A 
ATOM     87  C   UNL     1      16.231   9.193  -5.956  1.00  0.00     0.000 A 
ENDBRANCH  69  82
ENDBRANCH  43  44
ENDBRANCH  36  38
ENDBRANCH  35  36
ENDBRANCH  34  35
ENDBRANCH  33  34
ENDBRANCH  32  33
ENDBRANCH  31  32
ENDBRANCH   1  31
TORSDOF 21
