REMARK SMILES Cn1cc(-c2cc(C(F)(F)F)c3c(C4CC4)nn(CC(=O)OCCOCCOCCOC(=O)c4ccc(-c5c6nc(c(-c7ccccc7)c7ccc([nH]7)c(-c7ccccc7)c7nc(c(-c8ccccc8)c8ccc5[nH]8)C=C7)C=C6)cc4)c3n2)cn1
REMARK SMILES IDX 26 1 25 2 24 3 23 4 22 5 20 6 21 7 19 8 18 9 5 10 6 11 83 12
REMARK SMILES IDX 7 13 82 14 12 15 13 16 17 17 4 18 1 19 2 20 3 21 85 22 84 23
REMARK SMILES IDX 8 24 9 25 10 26 11 27 14 28 15 29 16 30 27 31 28 32 29 33
REMARK SMILES IDX 30 34 31 35 32 36 33 37 34 38 35 39 81 40 36 41 80 42 37 43
REMARK SMILES IDX 38 44 39 45 74 46 40 47 79 48 73 49 75 50 41 51 78 52 72 53
REMARK SMILES IDX 71 54 42 56 64 57 49 58 63 59 50 60 53 61 62 62 76 63 51 64
REMARK SMILES IDX 52 65 61 67 77 68 54 69 43 70 44 71 48 72 45 73 47 74 46 75
REMARK SMILES IDX 65 76 66 77 70 78 67 79 69 80 68 81 55 82 56 83 60 84 57 85
REMARK SMILES IDX 59 86 58 87
REMARK H PARENT 75 55 53 66
REMARK Flexibility Score: inf
ROOT
ATOM      1  C   UNL     1      -4.992  -0.677  -0.088  1.00  0.00     0.188 C 
ENDROOT
BRANCH   1   2
ATOM      2  O   UNL     1      -6.023  -0.266  -0.989  1.00  0.00    -0.376 OA
BRANCH   2   3
ATOM      3  C   UNL     1      -6.197  -1.046  -2.172  1.00  0.00     0.202 C 
BRANCH   3   4
ATOM      4  C   UNL     1      -5.078  -0.977  -3.232  1.00  0.00     0.261 C 
BRANCH   4   5
ATOM      5  O   UNL     1      -3.744  -1.353  -2.809  1.00  0.00    -0.462 OA
BRANCH   5   6
ATOM      6  C   UNL     1      -2.912  -0.328  -2.521  1.00  0.00     0.327 C 
ATOM      7  O   UNL     1      -3.240   0.856  -2.624  1.00  0.00    -0.250 OA
BRANCH   6   8
ATOM      8  C   UNL     1      -1.505  -0.668  -2.158  1.00  0.00     0.269 C 
BRANCH   8   9
ATOM      9  N   UNL     1      -1.101  -1.938  -1.551  1.00  0.00    -0.236 N 
ATOM     10  C   UNL     1       2.113  -1.357  -0.558  1.00  0.00     0.077 A 
ATOM     11  C   UNL     1       2.523  -2.598  -0.076  1.00  0.00     0.043 A 
ATOM     12  N   UNL     1       1.229  -1.292  -1.587  1.00  0.00    -0.228 NA
ATOM     13  C   UNL     1       1.704  -3.717  -0.339  1.00  0.00     0.071 A 
ATOM     14  C   UNL     1       0.245  -2.192  -1.384  1.00  0.00     0.159 A 
ATOM     15  C   UNL     1       0.378  -3.350  -0.638  1.00  0.00     0.055 A 
ATOM     16  C   UNL     1      -0.897  -3.412  -0.010  1.00  0.00     0.076 A 
ATOM     17  N   UNL     1      -1.806  -2.598  -0.596  1.00  0.00    -0.174 NA
BRANCH  10  18
ATOM     18  C   UNL     1       1.786  -0.265   0.388  1.00  0.00     0.038 A 
ATOM     19  C   UNL     1      -1.361   0.880   1.565  1.00  0.00     0.173 C 
ATOM     20  N   UNL     1       0.061   0.755   1.318  1.00  0.00    -0.275 N 
ATOM     21  C   UNL     1       0.751  -0.427   1.304  1.00  0.00     0.118 A 
ATOM     22  N   UNL     1       0.745   1.758   0.741  1.00  0.00    -0.181 NA
ATOM     23  C   UNL     1       1.744   1.125   0.109  1.00  0.00     0.145 A 
ENDBRANCH  10  18
BRANCH  13  24
ATOM     24  C   UNL     1       2.251  -5.098  -0.565  1.00  0.00     0.417 C 
ATOM     25  F   UNL     1       1.857  -6.038   0.327  1.00  0.00    -0.166 F 
ATOM     26  F   UNL     1       1.888  -5.586  -1.787  1.00  0.00    -0.166 F 
ATOM     27  F   UNL     1       3.613  -5.135  -0.552  1.00  0.00    -0.166 F 
ENDBRANCH  13  24
BRANCH  16  28
ATOM     28  C   UNL     1      -1.252  -4.060   1.334  1.00  0.00     0.041 C 
ATOM     29  C   UNL     1      -0.437  -5.124   2.026  1.00  0.00     0.011 C 
ATOM     30  C   UNL     1      -0.470  -3.759   2.607  1.00  0.00     0.011 C 
ENDBRANCH  16  28
ENDBRANCH   8   9
ENDBRANCH   6   8
ENDBRANCH   5   6
ENDBRANCH   4   5
ENDBRANCH   3   4
ENDBRANCH   2   3
ENDBRANCH   1   2
BRANCH   1  31
ATOM     31  C   UNL     1      -4.948  -2.178   0.210  1.00  0.00     0.188 C 
BRANCH  31  32
ATOM     32  O   UNL     1      -4.782  -2.938  -0.980  1.00  0.00    -0.376 OA
BRANCH  32  33
ATOM     33  C   UNL     1      -4.717  -4.356  -0.970  1.00  0.00     0.202 C 
BRANCH  33  34
ATOM     34  C   UNL     1      -5.831  -5.111  -0.245  1.00  0.00     0.261 C 
BRANCH  34  35
ATOM     35  O   UNL     1      -6.072  -4.593   1.050  1.00  0.00    -0.460 OA
BRANCH  35  36
ATOM     36  C   UNL     1      -5.026  -4.687   1.895  1.00  0.00     0.338 C 
ATOM     37  O   UNL     1      -4.049  -5.394   1.779  1.00  0.00    -0.246 OA
BRANCH  36  38
ATOM     38  C   UNL     1      -5.298  -3.799   3.039  1.00  0.00     0.060 A 
ATOM     39  C   UNL     1      -4.247  -3.598   3.933  1.00  0.00     0.016 A 
ATOM     40  C   UNL     1      -6.635  -3.682   3.410  1.00  0.00     0.016 A 
ATOM     41  C   UNL     1      -4.529  -3.729   5.267  1.00  0.00     0.010 A 
ATOM     42  C   UNL     1      -6.914  -3.890   4.726  1.00  0.00     0.010 A 
ATOM     43  C   UNL     1      -5.845  -4.037   5.607  1.00  0.00    -0.014 A 
BRANCH  43  44
ATOM     44  C   UNL     1      -6.114  -4.550   6.924  1.00  0.00     0.031 A 
ATOM     45  C   UNL     1      -6.439  -3.481   7.880  1.00  0.00     0.074 A 
ATOM     46  C   UNL     1      -6.178  -5.873   7.162  1.00  0.00     0.049 A 
ATOM     47  N   UNL     1      -5.691  -3.031   8.829  1.00  0.00    -0.248 NA
ATOM     48  C   UNL     1      -7.641  -2.671   7.611  1.00  0.00     0.031 C 
ATOM     49  C   UNL     1      -6.161  -6.986   6.206  1.00  0.00     0.029 A 
ATOM     50  N   UNL     1      -6.396  -6.498   8.343  1.00  0.00    -0.354 N 
ATOM     51  C   UNL     1      -6.429  -2.007   9.401  1.00  0.00     0.074 A 
ATOM     52  C   UNL     1      -7.467  -1.667   8.465  1.00  0.00     0.031 C 
ATOM     53  C   UNL     1      -6.611  -8.107   6.823  1.00  0.00     0.029 A 
ATOM     54  C   UNL     1      -6.820  -7.816   8.233  1.00  0.00     0.049 A 
ATOM     55  H   UNL     1      -6.265  -6.053   9.212  1.00  0.00     0.167 HD
ATOM     56  C   UNL     1      -6.361  -1.736  10.729  1.00  0.00     0.031 A 
ATOM     57  C   UNL     1      -7.385  -8.544   9.230  1.00  0.00     0.031 A 
ATOM     58  C   UNL     1      -5.215  -2.342  11.349  1.00  0.00     0.049 A 
ATOM     59  C   UNL     1      -7.050  -7.860  10.505  1.00  0.00     0.074 A 
ATOM     60  C   UNL     1      -3.850  -2.231  11.174  1.00  0.00     0.029 A 
ATOM     61  N   UNL     1      -5.423  -3.529  12.012  1.00  0.00    -0.354 N 
ATOM     62  N   UNL     1      -5.841  -7.772  10.981  1.00  0.00    -0.248 NA
ATOM     63  C   UNL     1      -7.995  -6.876  11.015  1.00  0.00     0.031 C 
ATOM     64  C   UNL     1      -3.347  -3.554  11.334  1.00  0.00     0.029 A 
ATOM     65  C   UNL     1      -4.418  -4.391  11.656  1.00  0.00     0.049 A 
ATOM     66  H   UNL     1      -6.162  -3.724  12.633  1.00  0.00     0.167 HD
ATOM     67  C   UNL     1      -5.759  -6.491  11.507  1.00  0.00     0.074 A 
ATOM     68  C   UNL     1      -7.140  -6.018  11.579  1.00  0.00     0.031 C 
ATOM     69  C   UNL     1      -4.569  -5.826  11.554  1.00  0.00     0.031 A 
BRANCH  56  70
ATOM     70  C   UNL     1      -7.565  -1.283  11.502  1.00  0.00    -0.014 A 
ATOM     71  C   UNL     1      -7.397  -0.767  12.791  1.00  0.00     0.009 A 
ATOM     72  C   UNL     1      -8.887  -1.561  11.089  1.00  0.00     0.009 A 
ATOM     73  C   UNL     1      -8.499  -0.545  13.624  1.00  0.00     0.001 A 
ATOM     74  C   UNL     1      -9.991  -1.294  11.896  1.00  0.00     0.001 A 
ATOM     75  C   UNL     1      -9.794  -0.801  13.174  1.00  0.00     0.000 A 
ENDBRANCH  56  70
BRANCH  57  76
ATOM     76  C   UNL     1      -8.491  -9.533   9.157  1.00  0.00    -0.014 A 
ATOM     77  C   UNL     1      -8.859 -10.259  10.305  1.00  0.00     0.009 A 
ATOM     78  C   UNL     1      -9.383  -9.547   8.070  1.00  0.00     0.009 A 
ATOM     79  C   UNL     1     -10.100 -10.906  10.389  1.00  0.00     0.001 A 
ATOM     80  C   UNL     1     -10.618 -10.201   8.150  1.00  0.00     0.001 A 
ATOM     81  C   UNL     1     -10.987 -10.860   9.318  1.00  0.00     0.000 A 
ENDBRANCH  57  76
BRANCH  69  82
ATOM     82  C   UNL     1      -3.315  -6.597  11.221  1.00  0.00    -0.014 A 
ATOM     83  C   UNL     1      -3.024  -7.064   9.926  1.00  0.00     0.009 A 
ATOM     84  C   UNL     1      -2.313  -6.672  12.198  1.00  0.00     0.009 A 
ATOM     85  C   UNL     1      -1.761  -7.587   9.622  1.00  0.00     0.001 A 
ATOM     86  C   UNL     1      -1.049  -7.178  11.890  1.00  0.00     0.001 A 
ATOM     87  C   UNL     1      -0.772  -7.632  10.602  1.00  0.00     0.000 A 
ENDBRANCH  69  82
ENDBRANCH  43  44
ENDBRANCH  36  38
ENDBRANCH  35  36
ENDBRANCH  34  35
ENDBRANCH  33  34
ENDBRANCH  32  33
ENDBRANCH  31  32
ENDBRANCH   1  31
TORSDOF 21
