REMARK SMILES O=C(CCCN1C(=O)c2ccc3c4c(ccc(c24)C1=O)C(=O)NC3=O)OCCOCCOCCOC(=O)c1ccc(-c2c3nc(c(-c4ccccc4)c4ccc([nH]4)c(-c4ccccc4)c4nc(c(-c5ccccc5)c5ccc2[nH]5)C=C4)C=C3)cc1
REMARK SMILES IDX 30 1 29 2 28 3 27 4 26 5 2 6 1 7 3 8 4 9 5 10 6 11 19 12
REMARK SMILES IDX 7 13 20 14 17 15 9 16 8 17 16 18 18 19 10 20 15 21 13 22
REMARK SMILES IDX 11 23 14 24 12 25 21 26 24 27 23 28 22 29 25 30 31 32 32 33
REMARK SMILES IDX 33 34 34 35 35 36 36 37 37 38 38 39 39 40 85 41 40 42 84 43
REMARK SMILES IDX 41 44 42 45 43 46 78 47 44 48 83 49 77 50 79 51 45 52 82 53
REMARK SMILES IDX 76 54 75 55 46 57 68 58 53 59 67 60 54 61 57 62 66 63 80 64
REMARK SMILES IDX 55 65 56 66 65 68 81 69 58 70 47 71 48 72 52 73 49 74 51 75
REMARK SMILES IDX 50 76 69 77 70 78 74 79 71 80 73 81 72 82 59 83 60 84 64 85
REMARK SMILES IDX 61 86 63 87 62 88
REMARK H PARENT 23 31 79 56 57 67
REMARK Flexibility Score: inf
ROOT
ATOM      1  C   UNL     1       1.482   0.810   1.489  1.00  0.00     0.188 C 
ENDROOT
BRANCH   1   2
ATOM      2  O   UNL     1       2.657  -0.001   1.529  1.00  0.00    -0.376 OA
BRANCH   2   3
ATOM      3  C   UNL     1       3.800   0.533   0.864  1.00  0.00     0.202 C 
BRANCH   3   4
ATOM      4  C   UNL     1       3.573   1.020  -0.565  1.00  0.00     0.261 C 
BRANCH   4   5
ATOM      5  O   UNL     1       2.950   0.127  -1.515  1.00  0.00    -0.463 OA
BRANCH   5   6
ATOM      6  C   UNL     1       2.620  -1.164  -1.340  1.00  0.00     0.305 C 
ATOM      7  O   UNL     1       1.538  -1.577  -1.753  1.00  0.00    -0.252 OA
BRANCH   6   8
ATOM      8  C   UNL     1       3.651  -2.117  -0.785  1.00  0.00     0.124 C 
BRANCH   8   9
ATOM      9  C   UNL     1       4.864  -2.360  -1.677  1.00  0.00     0.034 C 
BRANCH   9  10
ATOM     10  C   UNL     1       5.971  -1.291  -1.727  1.00  0.00     0.130 C 
BRANCH  10  11
ATOM     11  N   UNL     1       6.603  -0.862  -0.469  1.00  0.00    -0.274 N 
ATOM     12  C   UNL     1       6.986   0.481  -0.389  1.00  0.00     0.261 C 
ATOM     13  C   UNL     1       7.045  -1.815   0.447  1.00  0.00     0.261 C 
ATOM     14  O   UNL     1       6.941   1.271  -1.327  1.00  0.00    -0.269 OA
ATOM     15  C   UNL     1       7.457   0.977   0.923  1.00  0.00     0.049 A 
ATOM     16  C   UNL     1       7.605  -1.312   1.730  1.00  0.00     0.049 A 
ATOM     17  O   UNL     1       7.011  -3.026   0.257  1.00  0.00    -0.269 OA
ATOM     18  C   UNL     1       7.582   2.357   1.142  1.00  0.00     0.015 A 
ATOM     19  C   UNL     1       7.752   0.064   1.936  1.00  0.00     0.009 A 
ATOM     20  C   UNL     1       7.950  -2.218   2.742  1.00  0.00     0.015 A 
ATOM     21  C   UNL     1       8.002   2.834   2.382  1.00  0.00     0.015 A 
ATOM     22  C   UNL     1       8.214   0.543   3.189  1.00  0.00     0.009 A 
ATOM     23  C   UNL     1       8.431  -1.754   3.967  1.00  0.00     0.015 A 
ATOM     24  C   UNL     1       8.318   1.929   3.399  1.00  0.00     0.048 A 
ATOM     25  C   UNL     1       8.553  -0.379   4.190  1.00  0.00     0.048 A 
ATOM     26  C   UNL     1       8.750   2.431   4.723  1.00  0.00     0.258 C 
ATOM     27  C   UNL     1       9.048   0.114   5.499  1.00  0.00     0.258 C 
ATOM     28  N   UNL     1       9.101   1.482   5.649  1.00  0.00    -0.288 N 
ATOM     29  O   UNL     1       8.771   3.632   4.974  1.00  0.00    -0.269 OA
ATOM     30  O   UNL     1       9.376  -0.651   6.388  1.00  0.00    -0.269 OA
ATOM     31  H   UNL     1       9.427   1.816   6.516  1.00  0.00     0.173 HD
ENDBRANCH  10  11
ENDBRANCH   9  10
ENDBRANCH   8   9
ENDBRANCH   6   8
ENDBRANCH   5   6
ENDBRANCH   4   5
ENDBRANCH   3   4
ENDBRANCH   2   3
ENDBRANCH   1   2
BRANCH   1  32
ATOM     32  C   UNL     1       1.564   2.107   2.303  1.00  0.00     0.188 C 
BRANCH  32  33
ATOM     33  O   UNL     1       2.766   2.834   2.047  1.00  0.00    -0.376 OA
BRANCH  33  34
ATOM     34  C   UNL     1       3.350   3.389   3.229  1.00  0.00     0.202 C 
BRANCH  34  35
ATOM     35  C   UNL     1       4.283   2.435   4.005  1.00  0.00     0.261 C 
BRANCH  35  36
ATOM     36  O   UNL     1       3.823   1.081   4.173  1.00  0.00    -0.460 OA
BRANCH  36  37
ATOM     37  C   UNL     1       2.926   0.881   5.160  1.00  0.00     0.338 C 
ATOM     38  O   UNL     1       2.433   1.740   5.879  1.00  0.00    -0.246 OA
BRANCH  37  39
ATOM     39  C   UNL     1       2.537  -0.541   5.222  1.00  0.00     0.060 A 
ATOM     40  C   UNL     1       1.223  -0.893   4.895  1.00  0.00     0.016 A 
ATOM     41  C   UNL     1       3.408  -1.491   5.764  1.00  0.00     0.016 A 
ATOM     42  C   UNL     1       0.757  -2.182   5.165  1.00  0.00     0.010 A 
ATOM     43  C   UNL     1       2.935  -2.780   6.045  1.00  0.00     0.010 A 
ATOM     44  C   UNL     1       1.592  -3.114   5.796  1.00  0.00    -0.014 A 
BRANCH  44  45
ATOM     45  C   UNL     1       0.988  -4.332   6.397  1.00  0.00     0.031 A 
ATOM     46  C   UNL     1       0.547  -4.277   7.838  1.00  0.00     0.074 A 
ATOM     47  C   UNL     1       0.778  -5.449   5.679  1.00  0.00     0.049 A 
ATOM     48  N   UNL     1      -0.070  -5.181   8.556  1.00  0.00    -0.248 NA
ATOM     49  C   UNL     1       0.837  -3.028   8.562  1.00  0.00     0.031 C 
ATOM     50  C   UNL     1       1.114  -5.625   4.268  1.00  0.00     0.029 A 
ATOM     51  N   UNL     1       0.216  -6.647   6.046  1.00  0.00    -0.354 N 
ATOM     52  C   UNL     1      -0.245  -4.610   9.812  1.00  0.00     0.074 A 
ATOM     53  C   UNL     1       0.360  -3.296   9.768  1.00  0.00     0.031 C 
ATOM     54  C   UNL     1       0.744  -6.861   3.885  1.00  0.00     0.029 A 
ATOM     55  C   UNL     1       0.164  -7.566   5.027  1.00  0.00     0.049 A 
ATOM     56  H   UNL     1      -0.117  -6.830   6.954  1.00  0.00     0.167 HD
ATOM     57  C   UNL     1      -0.858  -5.124  10.905  1.00  0.00     0.031 A 
ATOM     58  C   UNL     1      -0.301  -8.831   5.018  1.00  0.00     0.031 A 
ATOM     59  C   UNL     1      -1.436  -6.439  10.968  1.00  0.00     0.049 A 
ATOM     60  C   UNL     1      -0.909  -9.411   6.269  1.00  0.00     0.074 A 
ATOM     61  C   UNL     1      -2.086  -7.048  12.028  1.00  0.00     0.029 A 
ATOM     62  N   UNL     1      -1.419  -7.356   9.929  1.00  0.00    -0.354 N 
ATOM     63  N   UNL     1      -1.107  -8.845   7.435  1.00  0.00    -0.248 NA
ATOM     64  C   UNL     1      -1.373 -10.805   6.193  1.00  0.00     0.031 C 
ATOM     65  C   UNL     1      -2.414  -8.354  11.647  1.00  0.00     0.029 A 
ATOM     66  C   UNL     1      -2.023  -8.536  10.330  1.00  0.00     0.049 A 
ATOM     67  H   UNL     1      -1.034  -7.193   9.037  1.00  0.00     0.167 HD
ATOM     68  C   UNL     1      -1.756  -9.796   8.215  1.00  0.00     0.074 A 
ATOM     69  C   UNL     1      -1.920 -10.974   7.389  1.00  0.00     0.031 C 
ATOM     70  C   UNL     1      -2.185  -9.699   9.497  1.00  0.00     0.031 A 
BRANCH  57  71
ATOM     71  C   UNL     1      -0.889  -4.266  12.139  1.00  0.00    -0.014 A 
ATOM     72  C   UNL     1      -1.701  -3.123  12.215  1.00  0.00     0.009 A 
ATOM     73  C   UNL     1      -0.095  -4.609  13.244  1.00  0.00     0.009 A 
ATOM     74  C   UNL     1      -1.684  -2.318  13.357  1.00  0.00     0.001 A 
ATOM     75  C   UNL     1      -0.101  -3.818  14.395  1.00  0.00     0.001 A 
ATOM     76  C   UNL     1      -0.886  -2.668  14.445  1.00  0.00     0.000 A 
ENDBRANCH  57  71
BRANCH  58  77
ATOM     77  C   UNL     1      -0.227  -9.645   3.776  1.00  0.00    -0.014 A 
ATOM     78  C   UNL     1      -1.393  -9.980   3.070  1.00  0.00     0.009 A 
ATOM     79  C   UNL     1       1.009 -10.114   3.305  1.00  0.00     0.009 A 
ATOM     80  C   UNL     1      -1.325 -10.788   1.932  1.00  0.00     0.001 A 
ATOM     81  C   UNL     1       1.077 -10.900   2.152  1.00  0.00     0.001 A 
ATOM     82  C   UNL     1      -0.091 -11.243   1.472  1.00  0.00     0.000 A 
ENDBRANCH  58  77
BRANCH  70  83
ATOM     83  C   UNL     1      -2.925 -10.877  10.071  1.00  0.00    -0.014 A 
ATOM     84  C   UNL     1      -2.266 -12.072  10.398  1.00  0.00     0.009 A 
ATOM     85  C   UNL     1      -4.303 -10.771  10.321  1.00  0.00     0.009 A 
ATOM     86  C   UNL     1      -2.980 -13.150  10.927  1.00  0.00     0.001 A 
ATOM     87  C   UNL     1      -5.008 -11.838  10.878  1.00  0.00     0.001 A 
ATOM     88  C   UNL     1      -4.349 -13.031  11.170  1.00  0.00     0.000 A 
ENDBRANCH  70  83
ENDBRANCH  44  45
ENDBRANCH  37  39
ENDBRANCH  36  37
ENDBRANCH  35  36
ENDBRANCH  34  35
ENDBRANCH  33  34
ENDBRANCH  32  33
ENDBRANCH   1  32
TORSDOF 20
