REMARK SMILES CC[C@H](C)c1ccccc1Oc1cccc(F)c1C(=O)OCCOCCOCCOC(=O)c1ccc(-c2c3nc(c(-c4ccccc4)c4ccc([nH]4)c(-c4ccccc4)c4nc(c(-c5ccccc5)c5ccc2[nH]5)C=C4)C=C3)cc1
REMARK SMILES IDX 25 1 24 2 23 3 22 4 21 5 19 6 20 7 18 8 12 9 13 10 14 11
REMARK SMILES IDX 16 12 15 13 17 14 11 15 10 16 5 17 6 18 7 19 9 20 8 21 3 22
REMARK SMILES IDX 4 23 2 24 1 25 26 26 27 27 28 28 29 29 30 30 31 31 32 32
REMARK SMILES IDX 33 33 34 34 80 35 35 36 79 37 36 38 37 39 38 40 73 41 39 42
REMARK SMILES IDX 78 43 72 44 74 45 40 46 77 47 71 48 70 49 41 51 63 52 48 53
REMARK SMILES IDX 62 54 49 55 52 56 61 57 75 58 50 59 51 60 60 62 76 63 53 64
REMARK SMILES IDX 42 65 43 66 47 67 44 68 46 69 45 70 64 71 65 72 69 73 66 74
REMARK SMILES IDX 68 75 67 76 54 77 55 78 59 79 56 80 58 81 57 82
REMARK H PARENT 74 50 52 61
REMARK Flexibility Score: inf
ROOT
ATOM      1  C   UNL     1      -0.274  -4.455   4.565  1.00  0.00     0.188 C 
ENDROOT
BRANCH   1   2
ATOM      2  O   UNL     1      -1.436  -5.195   4.234  1.00  0.00    -0.376 OA
BRANCH   2   3
ATOM      3  C   UNL     1      -1.939  -4.982   2.924  1.00  0.00     0.202 C 
BRANCH   3   4
ATOM      4  C   UNL     1      -1.070  -5.460   1.740  1.00  0.00     0.261 C 
BRANCH   4   5
ATOM      5  O   UNL     1       0.324  -5.071   1.693  1.00  0.00    -0.459 OA
BRANCH   5   6
ATOM      6  C   UNL     1       0.543  -3.736   1.705  1.00  0.00     0.345 C 
ATOM      7  O   UNL     1      -0.361  -2.925   1.835  1.00  0.00    -0.246 OA
BRANCH   6   8
ATOM      8  C   UNL     1       2.002  -3.373   1.696  1.00  0.00     0.138 A 
ATOM      9  C   UNL     1       2.900  -3.619   0.650  1.00  0.00     0.144 A 
ATOM     10  C   UNL     1       4.246  -3.212   0.756  1.00  0.00     0.048 A 
ATOM     11  C   UNL     1       4.683  -2.441   1.827  1.00  0.00     0.007 A 
ATOM     12  C   UNL     1       2.463  -2.564   2.751  1.00  0.00     0.141 A 
ATOM     13  C   UNL     1       3.776  -2.092   2.816  1.00  0.00     0.040 A 
ATOM     14  F   UNL     1       1.636  -2.189   3.738  1.00  0.00    -0.206 F 
BRANCH   9  15
ATOM     15  O   UNL     1       2.637  -4.143  -0.591  1.00  0.00    -0.456 OA
BRANCH  15  16
ATOM     16  C   UNL     1       1.351  -4.125  -1.060  1.00  0.00     0.130 A 
ATOM     17  C   UNL     1       0.545  -2.968  -1.203  1.00  0.00    -0.002 A 
ATOM     18  C   UNL     1      -0.786  -3.206  -1.596  1.00  0.00     0.008 A 
ATOM     19  C   UNL     1      -1.254  -4.498  -1.902  1.00  0.00     0.001 A 
ATOM     20  C   UNL     1       0.891  -5.413  -1.392  1.00  0.00     0.047 A 
ATOM     21  C   UNL     1      -0.413  -5.601  -1.815  1.00  0.00     0.004 A 
BRANCH  17  22
ATOM     22  C   UNL     1       1.053  -1.519  -0.987  1.00  0.00     0.019 C 
ATOM     23  C   UNL     1       0.692  -0.643  -2.189  1.00  0.00     0.013 C 
BRANCH  22  24
ATOM     24  C   UNL     1       0.555  -0.785   0.288  1.00  0.00     0.005 C 
ATOM     25  C   UNL     1       1.210   0.544   0.636  1.00  0.00     0.004 C 
ENDBRANCH  22  24
ENDBRANCH  17  22
ENDBRANCH  15  16
ENDBRANCH   9  15
ENDBRANCH   6   8
ENDBRANCH   5   6
ENDBRANCH   4   5
ENDBRANCH   3   4
ENDBRANCH   2   3
ENDBRANCH   1   2
BRANCH   1  26
ATOM     26  C   UNL     1       1.047  -5.253   4.441  1.00  0.00     0.188 C 
BRANCH  26  27
ATOM     27  O   UNL     1       1.036  -6.629   4.112  1.00  0.00    -0.376 OA
BRANCH  27  28
ATOM     28  C   UNL     1       0.066  -7.446   4.740  1.00  0.00     0.202 C 
BRANCH  28  29
ATOM     29  C   UNL     1      -0.090  -7.388   6.275  1.00  0.00     0.261 C 
BRANCH  29  30
ATOM     30  O   UNL     1      -0.055  -6.081   6.892  1.00  0.00    -0.460 OA
BRANCH  30  31
ATOM     31  C   UNL     1       1.092  -5.739   7.532  1.00  0.00     0.338 C 
ATOM     32  O   UNL     1       2.066  -6.461   7.719  1.00  0.00    -0.246 OA
BRANCH  31  33
ATOM     33  C   UNL     1       1.143  -4.275   7.794  1.00  0.00     0.060 A 
ATOM     34  C   UNL     1       2.187  -3.524   7.222  1.00  0.00     0.016 A 
ATOM     35  C   UNL     1       0.226  -3.648   8.637  1.00  0.00     0.016 A 
ATOM     36  C   UNL     1       2.351  -2.173   7.527  1.00  0.00     0.010 A 
ATOM     37  C   UNL     1       0.419  -2.301   8.985  1.00  0.00     0.010 A 
ATOM     38  C   UNL     1       1.515  -1.576   8.475  1.00  0.00    -0.014 A 
BRANCH  38  39
ATOM     39  C   UNL     1       1.990  -0.342   9.155  1.00  0.00     0.031 A 
ATOM     40  C   UNL     1       2.763  -0.508  10.441  1.00  0.00     0.074 A 
ATOM     41  C   UNL     1       1.829   0.886   8.634  1.00  0.00     0.049 A 
ATOM     42  N   UNL     1       3.302   0.396  11.219  1.00  0.00    -0.248 NA
ATOM     43  C   UNL     1       2.953  -1.892  10.906  1.00  0.00     0.031 C 
ATOM     44  C   UNL     1       1.184   1.192   7.360  1.00  0.00     0.029 A 
ATOM     45  N   UNL     1       2.213   2.111   9.124  1.00  0.00    -0.354 N 
ATOM     46  C   UNL     1       3.882  -0.310  12.267  1.00  0.00     0.074 A 
ATOM     47  C   UNL     1       3.594  -1.709  12.047  1.00  0.00     0.031 C 
ATOM     48  C   UNL     1       1.220   2.524   7.167  1.00  0.00     0.029 A 
ATOM     49  C   UNL     1       1.862   3.163   8.315  1.00  0.00     0.049 A 
ATOM     50  H   UNL     1       2.695   2.223   9.975  1.00  0.00     0.167 HD
ATOM     51  C   UNL     1       4.598   0.155  13.320  1.00  0.00     0.031 A 
ATOM     52  C   UNL     1       2.034   4.489   8.488  1.00  0.00     0.031 A 
ATOM     53  C   UNL     1       4.861   1.548  13.566  1.00  0.00     0.049 A 
ATOM     54  C   UNL     1       2.731   4.997   9.725  1.00  0.00     0.074 A 
ATOM     55  C   UNL     1       5.564   2.123  14.609  1.00  0.00     0.029 A 
ATOM     56  N   UNL     1       4.415   2.586  12.763  1.00  0.00    -0.354 N 
ATOM     57  N   UNL     1       3.278   4.324  10.708  1.00  0.00    -0.248 NA
ATOM     58  C   UNL     1       2.846   6.457   9.861  1.00  0.00     0.031 C 
ATOM     59  C   UNL     1       5.487   3.514  14.472  1.00  0.00     0.029 A 
ATOM     60  C   UNL     1       4.805   3.802  13.300  1.00  0.00     0.049 A 
ATOM     61  H   UNL     1       3.897   2.476  11.932  1.00  0.00     0.167 HD
ATOM     62  C   UNL     1       3.841   5.273  11.555  1.00  0.00     0.074 A 
ATOM     63  C   UNL     1       3.573   6.569  10.964  1.00  0.00     0.031 C 
ATOM     64  C   UNL     1       4.530   5.088  12.709  1.00  0.00     0.031 A 
BRANCH  51  65
ATOM     65  C   UNL     1       5.087  -0.868  14.311  1.00  0.00    -0.014 A 
ATOM     66  C   UNL     1       6.059  -1.823  13.967  1.00  0.00     0.009 A 
ATOM     67  C   UNL     1       4.535  -0.902  15.601  1.00  0.00     0.009 A 
ATOM     68  C   UNL     1       6.420  -2.825  14.871  1.00  0.00     0.001 A 
ATOM     69  C   UNL     1       4.926  -1.880  16.516  1.00  0.00     0.001 A 
ATOM     70  C   UNL     1       5.853  -2.852  16.145  1.00  0.00     0.000 A 
ENDBRANCH  51  65
BRANCH  52  71
ATOM     71  C   UNL     1       1.552   5.443   7.453  1.00  0.00    -0.014 A 
ATOM     72  C   UNL     1       2.466   6.170   6.675  1.00  0.00     0.009 A 
ATOM     73  C   UNL     1       0.178   5.645   7.248  1.00  0.00     0.009 A 
ATOM     74  C   UNL     1       2.015   7.090   5.725  1.00  0.00     0.001 A 
ATOM     75  C   UNL     1      -0.270   6.545   6.279  1.00  0.00     0.001 A 
ATOM     76  C   UNL     1       0.648   7.272   5.523  1.00  0.00     0.000 A 
ENDBRANCH  52  71
BRANCH  64  77
ATOM     77  C   UNL     1       5.101   6.311  13.380  1.00  0.00    -0.014 A 
ATOM     78  C   UNL     1       4.283   7.281  13.980  1.00  0.00     0.009 A 
ATOM     79  C   UNL     1       6.495   6.483  13.425  1.00  0.00     0.009 A 
ATOM     80  C   UNL     1       4.846   8.420  14.563  1.00  0.00     0.001 A 
ATOM     81  C   UNL     1       7.057   7.602  14.041  1.00  0.00     0.001 A 
ATOM     82  C   UNL     1       6.232   8.578  14.596  1.00  0.00     0.000 A 
ENDBRANCH  64  77
ENDBRANCH  38  39
ENDBRANCH  31  33
ENDBRANCH  30  31
ENDBRANCH  29  30
ENDBRANCH  28  29
ENDBRANCH  27  28
ENDBRANCH  26  27
ENDBRANCH   1  26
TORSDOF 21
