REMARK SMILES Cc1ccc(-c2nc(C)cc(N3CCCC[C@H]3C(=O)OCCOCCOCCOC(=O)c3ccc(-c4c5nc(c(-c6ccccc6)c6ccc([nH]6)c(-c6ccccc6)c6nc(c(-c7ccccc7)c7ccc4[nH]7)C=C6)C=C5)cc3)n2)cc1
REMARK SMILES IDX 24 1 23 2 22 3 21 4 20 5 18 6 19 7 17 8 12 9 13 10 14 11
REMARK SMILES IDX 16 12 15 13 11 14 6 15 7 16 80 17 8 18 9 19 10 20 5 21 1 22
REMARK SMILES IDX 2 23 3 24 82 25 4 26 81 27 25 28 26 29 27 30 28 31 29 32
REMARK SMILES IDX 30 33 31 34 32 35 33 36 79 37 34 38 78 39 35 40 36 41 37 42
REMARK SMILES IDX 72 43 38 44 77 45 71 46 73 47 39 48 76 49 70 50 69 51 40 53
REMARK SMILES IDX 62 54 47 55 61 56 48 57 51 58 60 59 74 60 49 61 50 62 59 64
REMARK SMILES IDX 75 65 52 66 41 67 42 68 46 69 43 70 45 71 44 72 63 73 64 74
REMARK SMILES IDX 68 75 65 76 67 77 66 78 53 79 54 80 58 81 55 82 57 83 56 84
REMARK H PARENT 73 52 51 63
REMARK Flexibility Score: inf
ROOT
ATOM      1  C   UNL     1      -9.027   1.227  -7.075  1.00  0.00     0.188 C 
ENDROOT
BRANCH   1   2
ATOM      2  O   UNL     1      -9.562   2.557  -7.067  1.00  0.00    -0.376 OA
BRANCH   2   3
ATOM      3  C   UNL     1      -9.424   3.100  -5.718  1.00  0.00     0.202 C 
BRANCH   3   4
ATOM      4  C   UNL     1      -7.957   3.669  -5.488  1.00  0.00     0.261 C 
BRANCH   4   5
ATOM      5  O   UNL     1      -6.923   3.553  -4.143  1.00  0.00    -0.462 OA
BRANCH   5   6
ATOM      6  C   UNL     1      -6.681   3.341  -2.772  1.00  0.00     0.328 C 
ATOM      7  O   UNL     1      -7.460   3.069  -1.859  1.00  0.00    -0.250 OA
BRANCH   6   8
ATOM      8  C   UNL     1      -5.266   3.455  -2.295  1.00  0.00     0.193 C 
ATOM      9  N   UNL     1      -4.685   2.129  -2.148  1.00  0.00    -0.343 N 
ATOM     10  C   UNL     1      -4.053   1.464  -3.273  1.00  0.00     0.119 C 
ATOM     11  C   UNL     1      -3.571   2.382  -4.396  1.00  0.00     0.022 C 
ATOM     12  C   UNL     1      -4.458   4.390  -3.159  1.00  0.00     0.037 C 
ATOM     13  C   UNL     1      -4.158   3.777  -4.511  1.00  0.00     0.005 C 
BRANCH   9  14
ATOM     14  C   UNL     1      -4.505   1.515  -0.926  1.00  0.00     0.133 A 
ATOM     15  C   UNL     1      -2.897   0.527   0.391  1.00  0.00     0.161 A 
ATOM     16  N   UNL     1      -3.759  -0.097   1.192  1.00  0.00    -0.233 NA
ATOM     17  N   UNL     1      -3.224   1.334  -0.624  1.00  0.00    -0.211 NA
ATOM     18  C   UNL     1      -5.061   0.170   0.959  1.00  0.00     0.043 A 
ATOM     19  C   UNL     1      -5.998  -0.521   1.906  1.00  0.00     0.067 C 
ATOM     20  C   UNL     1      -5.488   0.973  -0.109  1.00  0.00     0.070 A 
BRANCH  15  21
ATOM     21  C   UNL     1      -1.467   0.284   0.482  1.00  0.00     0.019 A 
ATOM     22  C   UNL     1       2.771  -0.284  -0.040  1.00  0.00     0.044 C 
ATOM     23  C   UNL     1       1.304  -0.086   0.190  1.00  0.00    -0.051 A 
ATOM     24  C   UNL     1       0.451  -1.190   0.336  1.00  0.00     0.004 A 
ATOM     25  C   UNL     1       0.773   1.203   0.225  1.00  0.00     0.004 A 
ATOM     26  C   UNL     1      -0.926  -1.007   0.490  1.00  0.00     0.012 A 
ATOM     27  C   UNL     1      -0.596   1.382   0.372  1.00  0.00     0.012 A 
ENDBRANCH  15  21
ENDBRANCH   9  14
ENDBRANCH   6   8
ENDBRANCH   5   6
ENDBRANCH   4   5
ENDBRANCH   3   4
ENDBRANCH   2   3
ENDBRANCH   1   2
BRANCH   1  28
ATOM     28  C   UNL     1      -8.697   0.630  -8.437  1.00  0.00     0.188 C 
BRANCH  28  29
ATOM     29  O   UNL     1      -9.600  -0.313  -9.006  1.00  0.00    -0.376 OA
BRANCH  29  30
ATOM     30  C   UNL     1     -10.284  -1.212  -8.135  1.00  0.00     0.202 C 
BRANCH  30  31
ATOM     31  C   UNL     1      -9.454  -2.250  -7.344  1.00  0.00     0.261 C 
BRANCH  31  32
ATOM     32  O   UNL     1      -8.389  -1.640  -6.606  1.00  0.00    -0.460 OA
BRANCH  32  33
ATOM     33  C   UNL     1      -7.881  -2.360  -5.553  1.00  0.00     0.338 C 
ATOM     34  O   UNL     1      -7.930  -3.546  -5.380  1.00  0.00    -0.246 OA
BRANCH  33  35
ATOM     35  C   UNL     1      -7.600  -1.322  -4.528  1.00  0.00     0.060 A 
ATOM     36  C   UNL     1      -8.286  -1.314  -3.333  1.00  0.00     0.016 A 
ATOM     37  C   UNL     1      -7.006  -0.159  -4.897  1.00  0.00     0.016 A 
ATOM     38  C   UNL     1      -8.631  -0.082  -2.709  1.00  0.00     0.010 A 
ATOM     39  C   UNL     1      -7.485   1.031  -4.311  1.00  0.00     0.010 A 
ATOM     40  C   UNL     1      -8.480   1.172  -3.313  1.00  0.00    -0.014 A 
BRANCH  40  41
ATOM     41  C   UNL     1      -9.545   2.442  -2.915  1.00  0.00     0.031 A 
ATOM     42  C   UNL     1      -9.427   4.144  -2.702  1.00  0.00     0.074 A 
ATOM     43  C   UNL     1     -10.800   1.989  -2.649  1.00  0.00     0.049 A 
ATOM     44  N   UNL     1     -10.098   4.801  -1.768  1.00  0.00    -0.248 NA
ATOM     45  C   UNL     1      -8.519   5.192  -3.311  1.00  0.00     0.031 C 
ATOM     46  C   UNL     1     -12.014   2.737  -2.356  1.00  0.00     0.029 A 
ATOM     47  N   UNL     1     -11.174   0.667  -2.383  1.00  0.00    -0.354 N 
ATOM     48  C   UNL     1      -9.766   6.163  -1.866  1.00  0.00     0.074 A 
ATOM     49  C   UNL     1      -8.534   6.231  -2.501  1.00  0.00     0.031 C 
ATOM     50  C   UNL     1     -12.849   1.933  -1.669  1.00  0.00     0.029 A 
ATOM     51  C   UNL     1     -12.139   0.696  -1.382  1.00  0.00     0.049 A 
ATOM     52  H   UNL     1     -10.818  -0.138  -2.824  1.00  0.00     0.167 HD
ATOM     53  C   UNL     1     -10.622   7.201  -1.689  1.00  0.00     0.031 A 
ATOM     54  C   UNL     1     -11.853   0.203  -0.138  1.00  0.00     0.031 A 
ATOM     55  C   UNL     1     -11.718   6.731  -0.900  1.00  0.00     0.049 A 
ATOM     56  C   UNL     1     -11.950   1.260   0.951  1.00  0.00     0.074 A 
ATOM     57  C   UNL     1     -12.998   6.322  -1.198  1.00  0.00     0.029 A 
ATOM     58  N   UNL     1     -11.386   6.194   0.329  1.00  0.00    -0.354 N 
ATOM     59  N   UNL     1     -12.033   2.546   0.732  1.00  0.00    -0.248 NA
ATOM     60  C   UNL     1     -11.953   0.949   2.378  1.00  0.00     0.031 C 
ATOM     61  C   UNL     1     -13.369   5.380  -0.192  1.00  0.00     0.029 A 
ATOM     62  C   UNL     1     -12.349   5.302   0.742  1.00  0.00     0.049 A 
ATOM     63  H   UNL     1     -10.574   6.417   0.838  1.00  0.00     0.167 HD
ATOM     64  C   UNL     1     -12.076   3.224   1.922  1.00  0.00     0.074 A 
ATOM     65  C   UNL     1     -12.046   2.175   2.923  1.00  0.00     0.031 C 
ATOM     66  C   UNL     1     -12.111   4.589   1.990  1.00  0.00     0.031 A 
BRANCH  53  67
ATOM     67  C   UNL     1     -10.524   8.549  -2.426  1.00  0.00    -0.014 A 
ATOM     68  C   UNL     1     -11.557   9.486  -2.270  1.00  0.00     0.009 A 
ATOM     69  C   UNL     1      -9.545   8.915  -3.388  1.00  0.00     0.009 A 
ATOM     70  C   UNL     1     -11.624  10.669  -3.036  1.00  0.00     0.001 A 
ATOM     71  C   UNL     1      -9.585  10.106  -4.134  1.00  0.00     0.001 A 
ATOM     72  C   UNL     1     -10.640  10.980  -3.969  1.00  0.00     0.000 A 
ENDBRANCH  53  67
BRANCH  54  73
ATOM     73  C   UNL     1     -10.998  -1.039  -0.085  1.00  0.00    -0.014 A 
ATOM     74  C   UNL     1     -11.383  -2.160  -0.859  1.00  0.00     0.009 A 
ATOM     75  C   UNL     1      -9.719  -1.079   0.494  1.00  0.00     0.009 A 
ATOM     76  C   UNL     1     -10.511  -3.230  -1.111  1.00  0.00     0.001 A 
ATOM     77  C   UNL     1      -8.843  -2.155   0.235  1.00  0.00     0.001 A 
ATOM     78  C   UNL     1      -9.232  -3.221  -0.573  1.00  0.00     0.000 A 
ENDBRANCH  54  73
BRANCH  66  79
ATOM     79  C   UNL     1     -11.877   5.437   3.229  1.00  0.00    -0.014 A 
ATOM     80  C   UNL     1     -11.263   4.984   4.401  1.00  0.00     0.009 A 
ATOM     81  C   UNL     1     -12.139   6.830   3.162  1.00  0.00     0.009 A 
ATOM     82  C   UNL     1     -10.962   5.862   5.454  1.00  0.00     0.001 A 
ATOM     83  C   UNL     1     -11.770   7.719   4.172  1.00  0.00     0.001 A 
ATOM     84  C   UNL     1     -11.195   7.228   5.331  1.00  0.00     0.000 A 
ENDBRANCH  66  79
ENDBRANCH  40  41
ENDBRANCH  33  35
ENDBRANCH  32  33
ENDBRANCH  31  32
ENDBRANCH  30  31
ENDBRANCH  29  30
ENDBRANCH  28  29
ENDBRANCH   1  28
TORSDOF 19
