REMARK SMILES CCC(CC)(NC(=O)C[C@@H]1CCC[NH2+]C1)C(=O)OCCOCCOCCOC(=O)c1ccc(-c2c3nc(c(-c4ccccc4)c4ccc([nH]4)c(-c4ccccc4)c4nc(c(-c5ccccc5)c5ccc2[nH]5)C=C4)C=C3)cc1
REMARK SMILES IDX 22 1 21 2 20 3 19 4 18 5 16 6 17 7 3 8 2 9 1 10 4 11 5 12
REMARK SMILES IDX 6 13 7 14 8 16 9 17 10 18 11 19 15 20 12 21 14 22 13 23
REMARK SMILES IDX 23 26 24 27 25 28 26 29 27 30 28 31 29 32 30 33 31 34 77 35
REMARK SMILES IDX 32 36 76 37 33 38 34 39 35 40 70 41 36 42 75 43 69 44 71 45
REMARK SMILES IDX 37 46 74 47 68 48 67 49 38 51 60 52 45 53 59 54 46 55 49 56
REMARK SMILES IDX 58 57 72 58 47 59 48 60 57 62 73 63 50 64 39 65 40 66 44 67
REMARK SMILES IDX 41 68 43 69 42 70 61 71 62 72 66 73 63 74 65 75 64 76 51 77
REMARK SMILES IDX 52 78 56 79 53 80 55 81 54 82
REMARK H PARENT 6 15 14 24 14 25 71 50 49 61
REMARK Flexibility Score: inf
ROOT
ATOM      1  C   UNL     1       5.642   3.886  -0.716  1.00  0.00     0.188 C 
ENDROOT
BRANCH   1   2
ATOM      2  O   UNL     1       5.096   2.799  -1.488  1.00  0.00    -0.376 OA
BRANCH   2   3
ATOM      3  C   UNL     1       4.950   2.957  -2.903  1.00  0.00     0.202 C 
BRANCH   3   4
ATOM      4  C   UNL     1       4.160   1.746  -3.546  1.00  0.00     0.261 C 
BRANCH   4   5
ATOM      5  O   UNL     1       2.689   1.857  -3.442  1.00  0.00    -0.461 OA
BRANCH   5   6
ATOM      6  C   UNL     1       1.894   0.771  -3.139  1.00  0.00     0.331 C 
ATOM      7  O   UNL     1       2.316  -0.380  -3.083  1.00  0.00    -0.249 OA
BRANCH   6   8
ATOM      8  C   UNL     1       0.363   1.145  -2.878  1.00  0.00     0.137 C 
BRANCH   8   9
ATOM      9  C   UNL     1      -0.218   0.676  -1.514  1.00  0.00     0.037 C 
ATOM     10  C   UNL     1      -0.434  -0.797  -1.219  1.00  0.00     0.007 C 
ENDBRANCH   8   9
BRANCH   8  11
ATOM     11  C   UNL     1      -0.459   0.503  -4.038  1.00  0.00     0.037 C 
ATOM     12  C   UNL     1      -1.986   0.641  -3.937  1.00  0.00     0.007 C 
ENDBRANCH   8  11
BRANCH   8  13
ATOM     13  N   UNL     1       0.134   2.608  -2.903  1.00  0.00    -0.340 N 
ATOM     14  C   UNL     1       0.505   3.526  -1.973  1.00  0.00     0.221 C 
ATOM     15  H   UNL     1      -0.346   2.958  -3.688  1.00  0.00     0.164 HD
ATOM     16  O   UNL     1      -0.272   4.465  -1.778  1.00  0.00    -0.275 OA
BRANCH  14  17
ATOM     17  C   UNL     1       1.875   3.522  -1.321  1.00  0.00     0.109 C 
BRANCH  17  18
ATOM     18  C   UNL     1       2.336   2.668  -0.115  1.00  0.00     0.054 C 
ATOM     19  C   UNL     1       3.111   1.333  -0.242  1.00  0.00     0.016 C 
ATOM     20  C   UNL     1       1.324   2.721   1.006  1.00  0.00     0.264 C 
ATOM     21  C   UNL     1       2.670   0.125   0.567  1.00  0.00     0.062 C 
ATOM     22  N   UNL     1       1.678   1.813   2.085  1.00  0.00    -0.346 N 
ATOM     23  C   UNL     1       1.647   0.425   1.643  1.00  0.00     0.260 C 
ATOM     24  H   UNL     1       2.618   2.036   2.413  1.00  0.00     0.346 HD
ATOM     25  H   UNL     1       0.997   1.926   2.836  1.00  0.00     0.346 HD
ENDBRANCH  17  18
ENDBRANCH  14  17
ENDBRANCH   8  13
ENDBRANCH   6   8
ENDBRANCH   5   6
ENDBRANCH   4   5
ENDBRANCH   3   4
ENDBRANCH   2   3
ENDBRANCH   1   2
BRANCH   1  26
ATOM     26  C   UNL     1       4.731   5.123  -0.605  1.00  0.00     0.188 C 
BRANCH  26  27
ATOM     27  O   UNL     1       5.330   6.375  -0.911  1.00  0.00    -0.376 OA
BRANCH  27  28
ATOM     28  C   UNL     1       6.337   6.837  -0.021  1.00  0.00     0.202 C 
BRANCH  28  29
ATOM     29  C   UNL     1       5.852   7.411   1.318  1.00  0.00     0.261 C 
BRANCH  29  30
ATOM     30  O   UNL     1       5.259   6.423   2.189  1.00  0.00    -0.460 OA
BRANCH  30  31
ATOM     31  C   UNL     1       3.974   6.687   2.555  1.00  0.00     0.338 C 
ATOM     32  O   UNL     1       3.301   7.634   2.199  1.00  0.00    -0.246 OA
BRANCH  31  33
ATOM     33  C   UNL     1       3.411   5.622   3.424  1.00  0.00     0.060 A 
ATOM     34  C   UNL     1       2.059   5.307   3.247  1.00  0.00     0.016 A 
ATOM     35  C   UNL     1       4.122   5.032   4.472  1.00  0.00     0.016 A 
ATOM     36  C   UNL     1       1.410   4.416   4.110  1.00  0.00     0.010 A 
ATOM     37  C   UNL     1       3.463   4.162   5.360  1.00  0.00     0.010 A 
ATOM     38  C   UNL     1       2.095   3.869   5.200  1.00  0.00    -0.014 A 
BRANCH  38  39
ATOM     39  C   UNL     1       1.314   3.285   6.326  1.00  0.00     0.031 A 
ATOM     40  C   UNL     1       0.772   4.248   7.351  1.00  0.00     0.074 A 
ATOM     41  C   UNL     1       1.061   1.969   6.457  1.00  0.00     0.049 A 
ATOM     42  N   UNL     1       0.111   4.011   8.456  1.00  0.00    -0.248 NA
ATOM     43  C   UNL     1       1.019   5.676   7.091  1.00  0.00     0.031 C 
ATOM     44  C   UNL     1       1.462   0.925   5.521  1.00  0.00     0.029 A 
ATOM     45  N   UNL     1       0.396   1.286   7.449  1.00  0.00    -0.354 N 
ATOM     46  C   UNL     1      -0.121   5.257   9.025  1.00  0.00     0.074 A 
ATOM     47  C   UNL     1       0.477   6.244   8.155  1.00  0.00     0.031 C 
ATOM     48  C   UNL     1       1.022  -0.265   5.970  1.00  0.00     0.029 A 
ATOM     49  C   UNL     1       0.366  -0.077   7.263  1.00  0.00     0.049 A 
ATOM     50  H   UNL     1      -0.021   1.732   8.222  1.00  0.00     0.167 HD
ATOM     51  C   UNL     1      -0.763   5.563  10.177  1.00  0.00     0.031 A 
ATOM     52  C   UNL     1      -0.103  -1.058   8.061  1.00  0.00     0.031 A 
ATOM     53  C   UNL     1      -1.321   4.589  11.073  1.00  0.00     0.049 A 
ATOM     54  C   UNL     1      -0.714  -0.702   9.396  1.00  0.00     0.074 A 
ATOM     55  C   UNL     1      -1.976   4.799  12.274  1.00  0.00     0.029 A 
ATOM     56  N   UNL     1      -1.272   3.219  10.876  1.00  0.00    -0.354 N 
ATOM     57  N   UNL     1      -0.935   0.479   9.920  1.00  0.00    -0.248 NA
ATOM     58  C   UNL     1      -1.138  -1.823  10.251  1.00  0.00     0.031 C 
ATOM     59  C   UNL     1      -2.267   3.551  12.834  1.00  0.00     0.029 A 
ATOM     60  C   UNL     1      -1.859   2.568  11.947  1.00  0.00     0.049 A 
ATOM     61  H   UNL     1      -0.878   2.774  10.090  1.00  0.00     0.167 HD
ATOM     62  C   UNL     1      -1.559   0.245  11.142  1.00  0.00     0.074 A 
ATOM     63  C   UNL     1      -1.690  -1.190  11.276  1.00  0.00     0.031 C 
ATOM     64  C   UNL     1      -1.990   1.138  12.067  1.00  0.00     0.031 A 
BRANCH  51  65
ATOM     65  C   UNL     1      -0.822   7.016  10.556  1.00  0.00    -0.014 A 
ATOM     66  C   UNL     1      -1.610   7.931   9.838  1.00  0.00     0.009 A 
ATOM     67  C   UNL     1      -0.059   7.479  11.638  1.00  0.00     0.009 A 
ATOM     68  C   UNL     1      -1.594   9.288  10.170  1.00  0.00     0.001 A 
ATOM     69  C   UNL     1      -0.071   8.829  11.989  1.00  0.00     0.001 A 
ATOM     70  C   UNL     1      -0.828   9.734  11.247  1.00  0.00     0.000 A 
ENDBRANCH  51  65
BRANCH  52  71
ATOM     71  C   UNL     1       0.005  -2.489   7.655  1.00  0.00    -0.014 A 
ATOM     72  C   UNL     1      -1.149  -3.248   7.397  1.00  0.00     0.009 A 
ATOM     73  C   UNL     1       1.255  -3.123   7.579  1.00  0.00     0.009 A 
ATOM     74  C   UNL     1      -1.055  -4.611   7.101  1.00  0.00     0.001 A 
ATOM     75  C   UNL     1       1.349  -4.478   7.252  1.00  0.00     0.001 A 
ATOM     76  C   UNL     1       0.194  -5.224   7.023  1.00  0.00     0.000 A 
ENDBRANCH  52  71
BRANCH  64  77
ATOM     77  C   UNL     1      -2.699   0.598  13.280  1.00  0.00    -0.014 A 
ATOM     78  C   UNL     1      -2.018  -0.111  14.281  1.00  0.00     0.009 A 
ATOM     79  C   UNL     1      -4.073   0.845  13.440  1.00  0.00     0.009 A 
ATOM     80  C   UNL     1      -2.705  -0.595  15.397  1.00  0.00     0.001 A 
ATOM     81  C   UNL     1      -4.750   0.390  14.572  1.00  0.00     0.001 A 
ATOM     82  C   UNL     1      -4.069  -0.340  15.544  1.00  0.00     0.000 A 
ENDBRANCH  64  77
ENDBRANCH  38  39
ENDBRANCH  31  33
ENDBRANCH  30  31
ENDBRANCH  29  30
ENDBRANCH  28  29
ENDBRANCH  27  28
ENDBRANCH  26  27
ENDBRANCH   1  26
TORSDOF 22
