REMARK SMILES Cc1ccccc1-c1nc(CC(=O)OCCOCCOCCOC(=O)c2ccc(-c3c4nc(c(-c5ccccc5)c5ccc([nH]5)c(-c5ccccc5)c5nc(c(-c6ccccc6)c6ccc3[nH]6)C=C5)C=C4)cc2)cs1
REMARK SMILES IDX 18 1 17 2 16 3 15 4 14 5 12 6 13 7 11 8 10 9 8 10 9 11 75 12
REMARK SMILES IDX 74 13 7 14 1 15 2 16 3 17 4 18 6 19 5 20 19 21 20 22 21 23
REMARK SMILES IDX 22 24 23 25 24 26 25 27 26 28 27 29 73 30 28 31 72 32 29 33
REMARK SMILES IDX 30 34 31 35 66 36 32 37 71 38 65 39 67 40 33 41 70 42 64 43
REMARK SMILES IDX 63 44 34 46 56 47 41 48 55 49 42 50 45 51 54 52 68 53 43 54
REMARK SMILES IDX 44 55 53 57 69 58 46 59 35 60 36 61 40 62 37 63 39 64 38 65
REMARK SMILES IDX 57 66 58 67 62 68 59 69 61 70 60 71 47 72 48 73 52 74 49 75
REMARK SMILES IDX 51 76 50 77
REMARK H PARENT 67 45 45 56
REMARK Flexibility Score: inf
ROOT
ATOM      1  C   UNL     1       0.951   9.399  -1.638  1.00  0.00     0.188 C 
ENDROOT
BRANCH   1   2
ATOM      2  O   UNL     1       0.444   9.296  -2.969  1.00  0.00    -0.376 OA
BRANCH   2   3
ATOM      3  C   UNL     1      -0.702   8.492  -3.264  1.00  0.00     0.202 C 
BRANCH   3   4
ATOM      4  C   UNL     1      -0.512   7.123  -3.980  1.00  0.00     0.261 C 
BRANCH   4   5
ATOM      5  O   UNL     1      -0.004   5.979  -3.226  1.00  0.00    -0.463 OA
BRANCH   5   6
ATOM      6  C   UNL     1      -0.610   4.894  -2.612  1.00  0.00     0.311 C 
ATOM      7  O   UNL     1      -1.827   4.786  -2.510  1.00  0.00    -0.252 OA
BRANCH   6   8
ATOM      8  C   UNL     1       0.458   3.786  -2.291  1.00  0.00     0.179 C 
BRANCH   8   9
ATOM      9  C   UNL     1       0.696   3.180  -0.962  1.00  0.00     0.063 A 
ATOM     10  C   UNL     1       0.330   1.450   0.276  1.00  0.00     0.123 A 
ATOM     11  N   UNL     1      -0.241   2.307  -0.538  1.00  0.00    -0.240 NA
ATOM     12  S   UNL     1       1.734   2.018   1.061  1.00  0.00    -0.122 S 
ATOM     13  C   UNL     1       1.895   3.118  -0.245  1.00  0.00     0.091 A 
BRANCH  10  14
ATOM     14  C   UNL     1      -0.212   0.114   0.385  1.00  0.00     0.013 A 
ATOM     15  C   UNL     1       2.025  -1.132  -0.004  1.00  0.00     0.045 C 
ATOM     16  C   UNL     1       0.533  -1.068   0.212  1.00  0.00    -0.041 A 
ATOM     17  C   UNL     1      -0.172  -2.280   0.161  1.00  0.00     0.004 A 
ATOM     18  C   UNL     1      -1.570  -2.307   0.174  1.00  0.00     0.000 A 
ATOM     19  C   UNL     1      -1.620   0.069   0.383  1.00  0.00     0.011 A 
ATOM     20  C   UNL     1      -2.298  -1.129   0.260  1.00  0.00     0.001 A 
ENDBRANCH  10  14
ENDBRANCH   8   9
ENDBRANCH   6   8
ENDBRANCH   5   6
ENDBRANCH   4   5
ENDBRANCH   3   4
ENDBRANCH   2   3
ENDBRANCH   1   2
BRANCH   1  21
ATOM     21  C   UNL     1      -0.000   9.508  -0.449  1.00  0.00     0.188 C 
BRANCH  21  22
ATOM     22  O   UNL     1      -0.710   8.281  -0.337  1.00  0.00    -0.376 OA
BRANCH  22  23
ATOM     23  C   UNL     1      -1.691   8.217   0.687  1.00  0.00     0.202 C 
BRANCH  23  24
ATOM     24  C   UNL     1      -1.099   8.212   2.111  1.00  0.00     0.261 C 
BRANCH  24  25
ATOM     25  O   UNL     1      -0.224   7.067   2.303  1.00  0.00    -0.460 OA
BRANCH  25  26
ATOM     26  C   UNL     1       1.129   7.279   2.363  1.00  0.00     0.338 C 
ATOM     27  O   UNL     1       1.676   8.110   3.073  1.00  0.00    -0.246 OA
BRANCH  26  28
ATOM     28  C   UNL     1       1.822   6.532   1.250  1.00  0.00     0.060 A 
ATOM     29  C   UNL     1       3.181   6.615   0.895  1.00  0.00     0.016 A 
ATOM     30  C   UNL     1       0.995   6.061   0.283  1.00  0.00     0.016 A 
ATOM     31  C   UNL     1       3.641   6.325  -0.462  1.00  0.00     0.010 A 
ATOM     32  C   UNL     1       1.455   6.168  -1.023  1.00  0.00     0.010 A 
ATOM     33  C   UNL     1       2.748   6.121  -1.524  1.00  0.00    -0.014 A 
BRANCH  33  34
ATOM     34  C   UNL     1       2.966   6.283  -3.056  1.00  0.00     0.031 A 
ATOM     35  C   UNL     1       2.798   5.311  -4.293  1.00  0.00     0.074 A 
ATOM     36  C   UNL     1       3.296   7.534  -3.425  1.00  0.00     0.049 A 
ATOM     37  N   UNL     1       3.667   5.094  -5.263  1.00  0.00    -0.248 NA
ATOM     38  C   UNL     1       1.646   4.451  -4.601  1.00  0.00     0.031 C 
ATOM     39  C   UNL     1       3.239   8.133  -4.745  1.00  0.00     0.029 A 
ATOM     40  N   UNL     1       3.882   8.506  -2.646  1.00  0.00    -0.354 N 
ATOM     41  C   UNL     1       2.979   4.286  -6.207  1.00  0.00     0.074 A 
ATOM     42  C   UNL     1       2.091   3.512  -5.423  1.00  0.00     0.031 C 
ATOM     43  C   UNL     1       3.947   9.276  -4.724  1.00  0.00     0.029 A 
ATOM     44  C   UNL     1       4.629   9.357  -3.443  1.00  0.00     0.049 A 
ATOM     45  H   UNL     1       3.785   8.584  -1.670  1.00  0.00     0.167 HD
ATOM     46  C   UNL     1       2.718   4.655  -7.514  1.00  0.00     0.031 A 
ATOM     47  C   UNL     1       5.975   9.424  -3.215  1.00  0.00     0.031 A 
ATOM     48  C   UNL     1       3.434   5.873  -7.843  1.00  0.00     0.049 A 
ATOM     49  C   UNL     1       6.763   8.826  -4.371  1.00  0.00     0.074 A 
ATOM     50  C   UNL     1       3.119   7.154  -8.261  1.00  0.00     0.029 A 
ATOM     51  N   UNL     1       4.755   5.917  -7.474  1.00  0.00    -0.354 N 
ATOM     52  N   UNL     1       6.220   8.468  -5.505  1.00  0.00    -0.248 NA
ATOM     53  C   UNL     1       8.191   8.514  -4.346  1.00  0.00     0.031 C 
ATOM     54  C   UNL     1       4.308   7.949  -8.165  1.00  0.00     0.029 A 
ATOM     55  C   UNL     1       5.331   7.131  -7.727  1.00  0.00     0.049 A 
ATOM     56  H   UNL     1       5.235   5.157  -7.072  1.00  0.00     0.167 HD
ATOM     57  C   UNL     1       7.122   7.804  -6.284  1.00  0.00     0.074 A 
ATOM     58  C   UNL     1       8.358   7.887  -5.527  1.00  0.00     0.031 C 
ATOM     59  C   UNL     1       6.753   7.187  -7.448  1.00  0.00     0.031 A 
BRANCH  46  60
ATOM     60  C   UNL     1       1.603   4.076  -8.444  1.00  0.00    -0.014 A 
ATOM     61  C   UNL     1       1.311   4.717  -9.667  1.00  0.00     0.009 A 
ATOM     62  C   UNL     1       0.803   2.933  -8.208  1.00  0.00     0.009 A 
ATOM     63  C   UNL     1       0.267   4.309 -10.527  1.00  0.00     0.001 A 
ATOM     64  C   UNL     1      -0.270   2.539  -9.037  1.00  0.00     0.001 A 
ATOM     65  C   UNL     1      -0.542   3.232 -10.200  1.00  0.00     0.000 A 
ENDBRANCH  46  60
BRANCH  47  66
ATOM     66  C   UNL     1       6.277   9.406  -1.737  1.00  0.00    -0.014 A 
ATOM     67  C   UNL     1       5.654  10.419  -0.960  1.00  0.00     0.009 A 
ATOM     68  C   UNL     1       6.771   8.287  -1.051  1.00  0.00     0.009 A 
ATOM     69  C   UNL     1       5.401  10.255   0.407  1.00  0.00     0.001 A 
ATOM     70  C   UNL     1       6.561   8.150   0.338  1.00  0.00     0.001 A 
ATOM     71  C   UNL     1       5.842   9.110   1.054  1.00  0.00     0.000 A 
ENDBRANCH  47  66
BRANCH  59  72
ATOM     72  C   UNL     1       7.664   6.368  -8.336  1.00  0.00    -0.014 A 
ATOM     73  C   UNL     1       9.023   6.639  -8.482  1.00  0.00     0.009 A 
ATOM     74  C   UNL     1       7.148   5.307  -9.126  1.00  0.00     0.009 A 
ATOM     75  C   UNL     1       9.842   5.814  -9.264  1.00  0.00     0.001 A 
ATOM     76  C   UNL     1       7.955   4.485  -9.908  1.00  0.00     0.001 A 
ATOM     77  C   UNL     1       9.314   4.727  -9.957  1.00  0.00     0.000 A 
ENDBRANCH  59  72
ENDBRANCH  33  34
ENDBRANCH  26  28
ENDBRANCH  25  26
ENDBRANCH  24  25
ENDBRANCH  23  24
ENDBRANCH  22  23
ENDBRANCH  21  22
ENDBRANCH   1  21
TORSDOF 19
