REMARK SMILES O=C(OCCOCCOCCOC(=O)c1cccc([C@@H]2CCC[N@@H+](Cc3cccc(OCCO)c3)C2)c1)c1ccc(-c2c3nc(c(-c4ccccc4)c4ccc([nH]4)c(-c4ccccc4)c4nc(c(-c5ccccc5)c5ccc2[nH]5)C=C4)C=C3)cc1
REMARK SMILES IDX 10 1 9 2 8 3 7 4 6 5 5 6 4 7 3 8 2 9 1 10 38 11 39 12 85 13
REMARK SMILES IDX 40 14 84 15 41 16 42 17 43 18 78 19 44 20 83 21 77 22 79 23
REMARK SMILES IDX 45 24 82 25 76 26 75 27 46 29 68 30 53 31 67 32 54 33 57 34
REMARK SMILES IDX 66 35 80 36 55 37 56 38 65 40 81 41 58 42 47 43 48 44 52 45
REMARK SMILES IDX 49 46 51 47 50 48 69 49 70 50 74 51 71 52 73 53 72 54 59 55
REMARK SMILES IDX 60 56 64 57 61 58 63 59 62 60 11 61 12 62 13 63 14 64 15 65
REMARK SMILES IDX 16 66 37 67 17 68 19 69 18 70 20 71 21 72 36 73 22 74 24 75
REMARK SMILES IDX 23 76 25 78 26 79 27 80 35 81 28 82 30 83 29 84 31 85 32 86
REMARK SMILES IDX 33 87 34 88
REMARK H PARENT 79 28 57 39 24 77 34 89
REMARK Flexibility Score: inf
ROOT
ATOM      1  C   UNL     1       4.098   4.220  -1.360  1.00  0.00     0.202 C 
ENDROOT
BRANCH   1   2
ATOM      2  O   UNL     1       2.773   4.040  -1.846  1.00  0.00    -0.376 OA
BRANCH   2   3
ATOM      3  C   UNL     1       2.002   2.957  -1.328  1.00  0.00     0.188 C 
BRANCH   3   4
ATOM      4  C   UNL     1       2.607   1.560  -1.443  1.00  0.00     0.188 C 
BRANCH   4   5
ATOM      5  O   UNL     1       3.787   1.402  -0.641  1.00  0.00    -0.376 OA
BRANCH   5   6
ATOM      6  C   UNL     1       4.795   0.621  -1.289  1.00  0.00     0.202 C 
BRANCH   6   7
ATOM      7  C   UNL     1       4.566  -0.895  -1.225  1.00  0.00     0.261 C 
BRANCH   7   8
ATOM      8  O   UNL     1       3.187  -1.244  -1.013  1.00  0.00    -0.460 OA
BRANCH   8   9
ATOM      9  C   UNL     1       2.542  -1.413   0.169  1.00  0.00     0.338 C 
ATOM     10  O   UNL     1       1.331  -1.625   0.164  1.00  0.00    -0.246 OA
BRANCH   9  11
ATOM     11  C   UNL     1       3.253  -1.466   1.479  1.00  0.00     0.060 A 
ATOM     12  C   UNL     1       4.351  -0.678   1.827  1.00  0.00     0.016 A 
ATOM     13  C   UNL     1       2.732  -2.341   2.447  1.00  0.00     0.016 A 
ATOM     14  C   UNL     1       5.017  -0.873   3.038  1.00  0.00     0.010 A 
ATOM     15  C   UNL     1       3.349  -2.484   3.694  1.00  0.00     0.010 A 
ATOM     16  C   UNL     1       4.535  -1.794   3.973  1.00  0.00    -0.014 A 
BRANCH  16  17
ATOM     17  C   UNL     1       5.327  -2.086   5.196  1.00  0.00     0.031 A 
ATOM     18  C   UNL     1       6.067  -3.384   5.282  1.00  0.00     0.074 A 
ATOM     19  C   UNL     1       5.438  -1.167   6.173  1.00  0.00     0.049 A 
ATOM     20  N   UNL     1       6.895  -3.798   6.204  1.00  0.00    -0.248 NA
ATOM     21  C   UNL     1       5.863  -4.338   4.178  1.00  0.00     0.031 C 
ATOM     22  C   UNL     1       4.804   0.138   6.115  1.00  0.00     0.029 A 
ATOM     23  N   UNL     1       6.129  -1.146   7.365  1.00  0.00    -0.354 N 
ATOM     24  C   UNL     1       7.295  -5.064   5.801  1.00  0.00     0.074 A 
ATOM     25  C   UNL     1       6.606  -5.362   4.566  1.00  0.00     0.031 C 
ATOM     26  C   UNL     1       5.193   0.846   7.182  1.00  0.00     0.029 A 
ATOM     27  C   UNL     1       6.072   0.071   8.033  1.00  0.00     0.049 A 
ATOM     28  H   UNL     1       6.620  -1.925   7.713  1.00  0.00     0.167 HD
ATOM     29  C   UNL     1       8.167  -5.901   6.407  1.00  0.00     0.031 A 
ATOM     30  C   UNL     1       6.679   0.471   9.178  1.00  0.00     0.031 A 
ATOM     31  C   UNL     1       8.849  -5.596   7.632  1.00  0.00     0.049 A 
ATOM     32  C   UNL     1       7.433  -0.640   9.886  1.00  0.00     0.074 A 
ATOM     33  C   UNL     1       9.726  -6.382   8.356  1.00  0.00     0.029 A 
ATOM     34  N   UNL     1       8.714  -4.400   8.321  1.00  0.00    -0.354 N 
ATOM     35  N   UNL     1       7.997  -1.722   9.398  1.00  0.00    -0.248 NA
ATOM     36  C   UNL     1       7.601  -0.496  11.334  1.00  0.00     0.031 C 
ATOM     37  C   UNL     1      10.089  -5.675   9.509  1.00  0.00     0.029 A 
ATOM     38  C   UNL     1       9.451  -4.444   9.491  1.00  0.00     0.049 A 
ATOM     39  H   UNL     1       8.174  -3.633   8.022  1.00  0.00     0.167 HD
ATOM     40  C   UNL     1       8.726  -2.272  10.448  1.00  0.00     0.074 A 
ATOM     41  C   UNL     1       8.548  -1.387  11.579  1.00  0.00     0.031 C 
ATOM     42  C   UNL     1       9.447  -3.421  10.502  1.00  0.00     0.031 A 
BRANCH  29  43
ATOM     43  C   UNL     1       8.368  -7.238   5.761  1.00  0.00    -0.014 A 
ATOM     44  C   UNL     1       9.140  -7.375   4.597  1.00  0.00     0.009 A 
ATOM     45  C   UNL     1       7.734  -8.367   6.299  1.00  0.00     0.009 A 
ATOM     46  C   UNL     1       9.244  -8.615   3.964  1.00  0.00     0.001 A 
ATOM     47  C   UNL     1       7.857  -9.609   5.675  1.00  0.00     0.001 A 
ATOM     48  C   UNL     1       8.604  -9.730   4.503  1.00  0.00     0.000 A 
ENDBRANCH  29  43
BRANCH  30  49
ATOM     49  C   UNL     1       6.673   1.885   9.777  1.00  0.00    -0.014 A 
ATOM     50  C   UNL     1       7.958   2.367  10.982  1.00  0.00     0.009 A 
ATOM     51  C   UNL     1       5.374   3.108   9.418  1.00  0.00     0.009 A 
ATOM     52  C   UNL     1       7.966   3.999  11.766  1.00  0.00     0.001 A 
ATOM     53  C   UNL     1       5.420   4.780  10.135  1.00  0.00     0.001 A 
ATOM     54  C   UNL     1       6.685   5.197  11.349  1.00  0.00     0.000 A 
ENDBRANCH  30  49
BRANCH  42  55
ATOM     55  C   UNL     1      10.300  -3.627  11.724  1.00  0.00    -0.014 A 
ATOM     56  C   UNL     1       9.743  -3.875  12.988  1.00  0.00     0.009 A 
ATOM     57  C   UNL     1      11.695  -3.531  11.604  1.00  0.00     0.009 A 
ATOM     58  C   UNL     1      10.559  -3.932  14.119  1.00  0.00     0.001 A 
ATOM     59  C   UNL     1      12.513  -3.636  12.730  1.00  0.00     0.001 A 
ATOM     60  C   UNL     1      11.942  -3.811  13.989  1.00  0.00     0.000 A 
ENDBRANCH  42  55
ENDBRANCH  16  17
ENDBRANCH   9  11
ENDBRANCH   8   9
ENDBRANCH   7   8
ENDBRANCH   6   7
ENDBRANCH   5   6
ENDBRANCH   4   5
ENDBRANCH   3   4
ENDBRANCH   2   3
ENDBRANCH   1   2
BRANCH   1  61
ATOM     61  C   UNL     1       4.273   4.722   0.075  1.00  0.00     0.261 C 
BRANCH  61  62
ATOM     62  O   UNL     1       3.652   3.916   1.080  1.00  0.00    -0.460 OA
BRANCH  62  63
ATOM     63  C   UNL     1       2.449   4.383   1.493  1.00  0.00     0.338 C 
ATOM     64  O   UNL     1       1.772   5.270   1.003  1.00  0.00    -0.246 OA
BRANCH  63  65
ATOM     65  C   UNL     1       2.147   3.799   2.794  1.00  0.00     0.060 A 
ATOM     66  C   UNL     1       1.180   2.829   3.025  1.00  0.00     0.016 A 
ATOM     67  C   UNL     1       2.800   4.426   3.842  1.00  0.00     0.020 A 
ATOM     68  C   UNL     1       0.874   2.498   4.348  1.00  0.00     0.001 A 
ATOM     69  C   UNL     1       2.469   4.153   5.160  1.00  0.00    -0.038 A 
ATOM     70  C   UNL     1       1.505   3.164   5.411  1.00  0.00     0.004 A 
BRANCH  69  71
ATOM     71  C   UNL     1       3.196   4.889   6.262  1.00  0.00     0.074 C 
ATOM     72  C   UNL     1       3.050   6.421   6.249  1.00  0.00     0.020 C 
ATOM     73  C   UNL     1       4.681   4.511   6.255  1.00  0.00     0.270 C 
ATOM     74  C   UNL     1       4.056   7.154   5.348  1.00  0.00     0.062 C 
ATOM     75  N   UNL     1       5.532   5.176   5.259  1.00  0.00    -0.331 N 
ATOM     76  C   UNL     1       5.496   6.624   5.457  1.00  0.00     0.262 C 
ATOM     77  H   UNL     1       5.146   4.991   4.333  1.00  0.00     0.348 HD
BRANCH  75  78
ATOM     78  C   UNL     1       6.902   4.601   5.178  1.00  0.00     0.299 C 
BRANCH  78  79
ATOM     79  C   UNL     1       7.727   4.643   6.451  1.00  0.00     0.010 A 
ATOM     80  C   UNL     1       8.868   5.430   6.579  1.00  0.00     0.010 A 
ATOM     81  C   UNL     1       7.291   3.913   7.568  1.00  0.00     0.056 A 
ATOM     82  C   UNL     1       9.472   5.555   7.828  1.00  0.00     0.004 A 
ATOM     83  C   UNL     1       7.723   4.184   8.858  1.00  0.00     0.119 A 
ATOM     84  C   UNL     1       8.874   4.982   8.959  1.00  0.00     0.046 A 
BRANCH  83  85
ATOM     85  O   UNL     1       7.084   3.805  10.062  1.00  0.00    -0.491 OA
BRANCH  85  86
ATOM     86  C   UNL     1       5.875   3.090  11.495  1.00  0.00     0.257 C 
BRANCH  86  87
ATOM     87  C   UNL     1       4.338   3.533  11.944  1.00  0.00     0.197 C 
BRANCH  87  88
ATOM     88  O   UNL     1       3.275   3.028  11.130  1.00  0.00    -0.393 OA
ATOM     89  H   UNL     1       3.359   3.383  10.231  1.00  0.00     0.210 HD
ENDBRANCH  87  88
ENDBRANCH  86  87
ENDBRANCH  85  86
ENDBRANCH  83  85
ENDBRANCH  78  79
ENDBRANCH  75  78
ENDBRANCH  69  71
ENDBRANCH  63  65
ENDBRANCH  62  63
ENDBRANCH  61  62
ENDBRANCH   1  61
TORSDOF 24
