REMARK SMILES CC1(C)CCC[C@@]1(CC(=O)OCCOCCOCCOC(=O)c1ccc(-c2c3nc(c(-c4ccccc4)c4ccc([nH]4)c(-c4ccccc4)c4nc(c(-c5ccccc5)c5ccc2[nH]5)C=C4)C=C3)cc1)[NH+]1CCCCC1
REMARK SMILES IDX 15 1 14 2 13 3 12 4 11 5 9 6 10 7 8 8 7 9 1 10 2 11 3 12
REMARK SMILES IDX 4 13 5 14 6 15 71 16 72 17 76 18 73 20 75 21 74 22 16 23
REMARK SMILES IDX 17 24 18 25 19 26 20 27 21 28 22 29 23 30 24 31 70 32 25 33
REMARK SMILES IDX 69 34 26 35 27 36 28 37 63 38 29 39 68 40 62 41 64 42 30 43
REMARK SMILES IDX 67 44 61 45 60 46 31 48 53 49 38 50 52 51 39 52 42 53 51 54
REMARK SMILES IDX 65 55 40 56 41 57 50 59 66 60 43 61 32 62 33 63 37 64 34 65
REMARK SMILES IDX 36 66 35 67 54 68 55 69 59 70 56 71 58 72 57 73 44 74 45 75
REMARK SMILES IDX 49 76 46 77 48 78 47 79
REMARK H PARENT 71 19 64 47 42 58
REMARK Flexibility Score: inf
ROOT
ATOM      1  C   UNL     1      -2.639   4.936  -0.792  1.00  0.00     0.188 C 
ENDROOT
BRANCH   1   2
ATOM      2  O   UNL     1      -2.849   5.283  -2.160  1.00  0.00    -0.376 OA
BRANCH   2   3
ATOM      3  C   UNL     1      -2.791   4.229  -3.121  1.00  0.00     0.202 C 
BRANCH   3   4
ATOM      4  C   UNL     1      -1.403   3.604  -3.281  1.00  0.00     0.261 C 
BRANCH   4   5
ATOM      5  O   UNL     1      -1.080   2.863  -2.092  1.00  0.00    -0.463 OA
BRANCH   5   6
ATOM      6  C   UNL     1       0.219   2.504  -1.942  1.00  0.00     0.312 C 
ATOM      7  O   UNL     1       1.073   2.636  -2.807  1.00  0.00    -0.252 OA
BRANCH   6   8
ATOM      8  C   UNL     1       0.492   2.094  -0.502  1.00  0.00     0.191 C 
BRANCH   8   9
ATOM      9  C   UNL     1       0.003   0.703   0.065  1.00  0.00     0.113 C 
ATOM     10  C   UNL     1       2.340  -0.535   0.207  1.00  0.00     0.018 C 
ATOM     11  C   UNL     1       0.971  -0.455  -0.493  1.00  0.00     0.020 C 
ATOM     12  C   UNL     1       1.300  -0.332  -2.008  1.00  0.00     0.018 C 
ATOM     13  C   UNL     1       0.135  -1.745  -0.366  1.00  0.00     0.013 C 
ATOM     14  C   UNL     1      -1.304  -1.314  -0.627  1.00  0.00     0.007 C 
ATOM     15  C   UNL     1      -1.359   0.214  -0.499  1.00  0.00     0.070 C 
BRANCH   9  16
ATOM     16  N   UNL     1      -0.067   0.827   1.576  1.00  0.00    -0.329 N 
ATOM     17  C   UNL     1      -0.049  -0.318   2.491  1.00  0.00     0.262 C 
ATOM     18  C   UNL     1      -0.864   1.908   2.182  1.00  0.00     0.262 C 
ATOM     19  H   UNL     1       0.916   1.090   1.495  1.00  0.00     0.348 HD
ATOM     20  C   UNL     1      -1.422  -0.811   2.952  1.00  0.00     0.062 C 
ATOM     21  C   UNL     1      -2.248   1.518   2.719  1.00  0.00     0.062 C 
ATOM     22  C   UNL     1      -2.201   0.304   3.624  1.00  0.00     0.012 C 
ENDBRANCH   9  16
ENDBRANCH   8   9
ENDBRANCH   6   8
ENDBRANCH   5   6
ENDBRANCH   4   5
ENDBRANCH   3   4
ENDBRANCH   2   3
ENDBRANCH   1   2
BRANCH   1  23
ATOM     23  C   UNL     1      -3.331   3.670  -0.271  1.00  0.00     0.188 C 
BRANCH  23  24
ATOM     24  O   UNL     1      -4.707   3.629  -0.633  1.00  0.00    -0.376 OA
BRANCH  24  25
ATOM     25  C   UNL     1      -5.553   3.193   0.432  1.00  0.00     0.202 C 
BRANCH  25  26
ATOM     26  C   UNL     1      -6.101   4.417   1.163  1.00  0.00     0.261 C 
BRANCH  26  27
ATOM     27  O   UNL     1      -5.049   5.141   1.833  1.00  0.00    -0.460 OA
BRANCH  27  28
ATOM     28  C   UNL     1      -4.777   4.733   3.088  1.00  0.00     0.338 C 
ATOM     29  O   UNL     1      -5.316   3.832   3.710  1.00  0.00    -0.246 OA
BRANCH  28  30
ATOM     30  C   UNL     1      -3.652   5.519   3.614  1.00  0.00     0.060 A 
ATOM     31  C   UNL     1      -2.349   5.165   3.259  1.00  0.00     0.016 A 
ATOM     32  C   UNL     1      -3.878   6.521   4.553  1.00  0.00     0.016 A 
ATOM     33  C   UNL     1      -1.261   5.750   3.900  1.00  0.00     0.010 A 
ATOM     34  C   UNL     1      -2.784   7.157   5.147  1.00  0.00     0.010 A 
ATOM     35  C   UNL     1      -1.467   6.752   4.854  1.00  0.00    -0.014 A 
BRANCH  35  36
ATOM     36  C   UNL     1      -0.327   7.319   5.619  1.00  0.00     0.031 A 
ATOM     37  C   UNL     1      -0.278   7.128   7.110  1.00  0.00     0.074 A 
ATOM     38  C   UNL     1       0.669   7.986   5.005  1.00  0.00     0.049 A 
ATOM     39  N   UNL     1       0.451   7.750   8.001  1.00  0.00    -0.248 NA
ATOM     40  C   UNL     1      -1.177   6.106   7.671  1.00  0.00     0.031 C 
ATOM     41  C   UNL     1       0.818   8.161   3.560  1.00  0.00     0.029 A 
ATOM     42  N   UNL     1       1.749   8.649   5.535  1.00  0.00    -0.354 N 
ATOM     43  C   UNL     1       0.052   7.242   9.231  1.00  0.00     0.074 A 
ATOM     44  C   UNL     1      -0.970   6.251   8.972  1.00  0.00     0.031 C 
ATOM     45  C   UNL     1       1.932   8.872   3.318  1.00  0.00     0.029 A 
ATOM     46  C   UNL     1       2.521   9.277   4.590  1.00  0.00     0.049 A 
ATOM     47  H   UNL     1       1.950   8.671   6.498  1.00  0.00     0.167 HD
ATOM     48  C   UNL     1       0.488   7.587  10.466  1.00  0.00     0.031 A 
ATOM     49  C   UNL     1       3.550  10.135   4.731  1.00  0.00     0.031 A 
ATOM     50  C   UNL     1       1.528   8.546  10.718  1.00  0.00     0.049 A 
ATOM     51  C   UNL     1       3.974  10.555   6.110  1.00  0.00     0.074 A 
ATOM     52  C   UNL     1       2.018   8.992  11.933  1.00  0.00     0.029 A 
ATOM     53  N   UNL     1       2.256   9.190   9.731  1.00  0.00    -0.354 N 
ATOM     54  N   UNL     1       3.513  10.163   7.272  1.00  0.00    -0.248 NA
ATOM     55  C   UNL     1       5.044  11.561   6.193  1.00  0.00     0.031 C 
ATOM     56  C   UNL     1       3.027   9.928  11.679  1.00  0.00     0.029 A 
ATOM     57  C   UNL     1       3.189  10.033  10.307  1.00  0.00     0.049 A 
ATOM     58  H   UNL     1       2.127   9.066   8.762  1.00  0.00     0.167 HD
ATOM     59  C   UNL     1       4.237  10.870   8.223  1.00  0.00     0.074 A 
ATOM     60  C   UNL     1       5.184  11.697   7.504  1.00  0.00     0.031 C 
ATOM     61  C   UNL     1       4.121  10.845   9.573  1.00  0.00     0.031 A 
BRANCH  48  62
ATOM     62  C   UNL     1      -0.206   6.960  11.639  1.00  0.00    -0.014 A 
ATOM     63  C   UNL     1       0.051   5.637  12.024  1.00  0.00     0.009 A 
ATOM     64  C   UNL     1      -1.118   7.724  12.385  1.00  0.00     0.009 A 
ATOM     65  C   UNL     1      -0.614   5.081  13.120  1.00  0.00     0.001 A 
ATOM     66  C   UNL     1      -1.764   7.173  13.492  1.00  0.00     0.001 A 
ATOM     67  C   UNL     1      -1.518   5.850  13.855  1.00  0.00     0.000 A 
ENDBRANCH  48  62
BRANCH  49  68
ATOM     68  C   UNL     1       4.197  10.726   3.531  1.00  0.00    -0.014 A 
ATOM     69  C   UNL     1       5.508  10.374   3.180  1.00  0.00     0.009 A 
ATOM     70  C   UNL     1       3.508  11.660   2.740  1.00  0.00     0.009 A 
ATOM     71  C   UNL     1       6.123  10.961   2.071  1.00  0.00     0.001 A 
ATOM     72  C   UNL     1       4.115  12.223   1.617  1.00  0.00     0.001 A 
ATOM     73  C   UNL     1       5.425  11.880   1.288  1.00  0.00     0.000 A 
ENDBRANCH  49  68
BRANCH  61  74
ATOM     74  C   UNL     1       5.061  11.715  10.353  1.00  0.00    -0.014 A 
ATOM     75  C   UNL     1       4.854  13.099  10.448  1.00  0.00     0.009 A 
ATOM     76  C   UNL     1       6.148  11.137  11.026  1.00  0.00     0.009 A 
ATOM     77  C   UNL     1       5.736  13.894  11.183  1.00  0.00     0.001 A 
ATOM     78  C   UNL     1       7.016  11.931  11.777  1.00  0.00     0.001 A 
ATOM     79  C   UNL     1       6.813  13.309  11.848  1.00  0.00     0.000 A 
ENDBRANCH  61  74
ENDBRANCH  35  36
ENDBRANCH  28  30
ENDBRANCH  27  28
ENDBRANCH  26  27
ENDBRANCH  25  26
ENDBRANCH  24  25
ENDBRANCH  23  24
ENDBRANCH   1  23
TORSDOF 19
