REMARK SMILES C[C@@H](CC(=O)OCCOCCOCCOC(=O)c1ccc(-c2c3nc(c(-c4ccccc4)c4ccc([nH]4)c(-c4ccccc4)c4nc(c(-c5ccccc5)c5ccc2[nH]5)C=C4)C=C3)cc1)NC(=O)/C=C/c1cccnc1
REMARK SMILES IDX 10 1 9 2 8 3 7 4 6 5 4 6 5 7 3 8 2 9 1 10 66 11 67 12 68 14
REMARK SMILES IDX 69 15 70 16 71 17 72 18 76 19 73 20 75 21 74 22 11 23 12 24
REMARK SMILES IDX 13 25 14 26 15 27 16 28 17 29 18 30 19 31 65 32 20 33 64 34
REMARK SMILES IDX 21 35 22 36 23 37 58 38 24 39 63 40 57 41 59 42 25 43 62 44
REMARK SMILES IDX 56 45 55 46 26 48 48 49 33 50 47 51 34 52 37 53 46 54 60 55
REMARK SMILES IDX 35 56 36 57 45 59 61 60 38 61 27 62 28 63 32 64 29 65 31 66
REMARK SMILES IDX 30 67 49 68 50 69 54 70 51 71 53 72 52 73 39 74 40 75 44 76
REMARK SMILES IDX 41 77 43 78 42 79
REMARK H PARENT 66 13 59 47 37 58
REMARK Flexibility Score: inf
ROOT
ATOM      1  C   UNL     1      -1.223   2.741   3.385  1.00  0.00     0.188 C 
ENDROOT
BRANCH   1   2
ATOM      2  O   UNL     1      -1.054   4.131   3.109  1.00  0.00    -0.376 OA
BRANCH   2   3
ATOM      3  C   UNL     1      -0.208   4.465   1.999  1.00  0.00     0.202 C 
BRANCH   3   4
ATOM      4  C   UNL     1       1.175   3.796   2.003  1.00  0.00     0.261 C 
BRANCH   4   5
ATOM      5  O   UNL     1       1.087   2.390   1.666  1.00  0.00    -0.463 OA
BRANCH   5   6
ATOM      6  C   UNL     1       1.930   1.556   2.319  1.00  0.00     0.307 C 
ATOM      7  O   UNL     1       2.804   1.928   3.095  1.00  0.00    -0.252 OA
BRANCH   6   8
ATOM      8  C   UNL     1       1.591   0.088   2.147  1.00  0.00     0.147 C 
BRANCH   8   9
ATOM      9  C   UNL     1       1.227  -0.482   0.768  1.00  0.00     0.090 C 
ATOM     10  C   UNL     1       1.546   0.394  -0.439  1.00  0.00     0.031 C 
BRANCH   9  11
ATOM     11  N   UNL     1      -0.180  -0.878   0.724  1.00  0.00    -0.350 N 
ATOM     12  C   UNL     1      -0.811  -2.075   0.709  1.00  0.00     0.244 C 
ATOM     13  H   UNL     1      -0.799  -0.113   0.699  1.00  0.00     0.164 HD
ATOM     14  O   UNL     1      -2.015  -2.095   0.455  1.00  0.00    -0.270 OA
BRANCH  12  15
ATOM     15  C   UNL     1      -0.154  -3.385   0.916  1.00  0.00     0.072 C 
ATOM     16  C   UNL     1       0.992  -3.706   1.533  1.00  0.00     0.015 C 
BRANCH  16  17
ATOM     17  C   UNL     1       1.534  -5.078   1.592  1.00  0.00    -0.007 A 
ATOM     18  C   UNL     1       1.117  -6.116   0.749  1.00  0.00     0.011 A 
ATOM     19  C   UNL     1       2.586  -5.375   2.459  1.00  0.00     0.119 A 
ATOM     20  C   UNL     1       1.742  -7.362   0.800  1.00  0.00     0.021 A 
ATOM     21  N   UNL     1       3.217  -6.574   2.530  1.00  0.00    -0.264 NA
ATOM     22  C   UNL     1       2.782  -7.538   1.694  1.00  0.00     0.111 A 
ENDBRANCH  16  17
ENDBRANCH  12  15
ENDBRANCH   9  11
ENDBRANCH   8   9
ENDBRANCH   6   8
ENDBRANCH   5   6
ENDBRANCH   4   5
ENDBRANCH   3   4
ENDBRANCH   2   3
ENDBRANCH   1   2
BRANCH   1  23
ATOM     23  C   UNL     1      -2.016   1.964   2.327  1.00  0.00     0.188 C 
BRANCH  23  24
ATOM     24  O   UNL     1      -1.593   2.250   1.001  1.00  0.00    -0.376 OA
BRANCH  24  25
ATOM     25  C   UNL     1      -2.501   2.013  -0.076  1.00  0.00     0.202 C 
BRANCH  25  26
ATOM     26  C   UNL     1      -3.925   2.579   0.082  1.00  0.00     0.261 C 
BRANCH  26  27
ATOM     27  O   UNL     1      -4.696   1.924   1.110  1.00  0.00    -0.460 OA
BRANCH  27  28
ATOM     28  C   UNL     1      -4.802   0.582   1.004  1.00  0.00     0.338 C 
ATOM     29  O   UNL     1      -4.613  -0.086   0.003  1.00  0.00    -0.246 OA
BRANCH  28  30
ATOM     30  C   UNL     1      -4.949   0.034   2.370  1.00  0.00     0.060 A 
ATOM     31  C   UNL     1      -4.073  -0.976   2.780  1.00  0.00     0.016 A 
ATOM     32  C   UNL     1      -5.924   0.511   3.247  1.00  0.00     0.016 A 
ATOM     33  C   UNL     1      -4.211  -1.574   4.029  1.00  0.00     0.010 A 
ATOM     34  C   UNL     1      -6.073  -0.092   4.500  1.00  0.00     0.010 A 
ATOM     35  C   UNL     1      -5.252  -1.174   4.872  1.00  0.00    -0.014 A 
BRANCH  35  36
ATOM     36  C   UNL     1      -5.641  -2.059   5.995  1.00  0.00     0.031 A 
ATOM     37  C   UNL     1      -6.793  -3.004   5.775  1.00  0.00     0.074 A 
ATOM     38  C   UNL     1      -4.960  -2.084   7.154  1.00  0.00     0.049 A 
ATOM     39  N   UNL     1      -7.342  -3.855   6.603  1.00  0.00    -0.248 NA
ATOM     40  C   UNL     1      -7.410  -2.983   4.436  1.00  0.00     0.031 C 
ATOM     41  C   UNL     1      -3.787  -1.273   7.472  1.00  0.00     0.029 A 
ATOM     42  N   UNL     1      -5.166  -2.837   8.283  1.00  0.00    -0.354 N 
ATOM     43  C   UNL     1      -8.377  -4.452   5.893  1.00  0.00     0.074 A 
ATOM     44  C   UNL     1      -8.400  -3.849   4.580  1.00  0.00     0.031 C 
ATOM     45  C   UNL     1      -3.376  -1.573   8.718  1.00  0.00     0.029 A 
ATOM     46  C   UNL     1      -4.275  -2.572   9.292  1.00  0.00     0.049 A 
ATOM     47  H   UNL     1      -5.886  -3.505   8.361  1.00  0.00     0.167 HD
ATOM     48  C   UNL     1      -9.231  -5.423   6.292  1.00  0.00     0.031 A 
ATOM     49  C   UNL     1      -4.204  -3.073  10.541  1.00  0.00     0.031 A 
ATOM     50  C   UNL     1      -9.210  -6.034   7.591  1.00  0.00     0.049 A 
ATOM     51  C   UNL     1      -5.203  -4.113  10.981  1.00  0.00     0.074 A 
ATOM     52  C   UNL     1     -10.036  -7.024   8.092  1.00  0.00     0.029 A 
ATOM     53  N   UNL     1      -8.309  -5.715   8.594  1.00  0.00    -0.354 N 
ATOM     54  N   UNL     1      -6.180  -4.665  10.303  1.00  0.00    -0.248 NA
ATOM     55  C   UNL     1      -5.075  -4.608  12.360  1.00  0.00     0.031 C 
ATOM     56  C   UNL     1      -9.661  -7.275   9.415  1.00  0.00     0.029 A 
ATOM     57  C   UNL     1      -8.566  -6.481   9.717  1.00  0.00     0.049 A 
ATOM     58  H   UNL     1      -7.593  -5.044   8.518  1.00  0.00     0.167 HD
ATOM     59  C   UNL     1      -6.758  -5.596  11.159  1.00  0.00     0.074 A 
ATOM     60  C   UNL     1      -6.014  -5.543  12.400  1.00  0.00     0.031 C 
ATOM     61  C   UNL     1      -7.808  -6.424  10.939  1.00  0.00     0.031 A 
BRANCH  48  62
ATOM     62  C   UNL     1     -10.284  -5.853   5.312  1.00  0.00    -0.014 A 
ATOM     63  C   UNL     1      -9.962  -6.620   4.181  1.00  0.00     0.009 A 
ATOM     64  C   UNL     1     -11.622  -5.489   5.531  1.00  0.00     0.009 A 
ATOM     65  C   UNL     1     -10.956  -6.986   3.271  1.00  0.00     0.001 A 
ATOM     66  C   UNL     1     -12.617  -5.881   4.635  1.00  0.00     0.001 A 
ATOM     67  C   UNL     1     -12.283  -6.621   3.502  1.00  0.00     0.000 A 
ENDBRANCH  48  62
BRANCH  49  68
ATOM     68  C   UNL     1      -3.162  -2.592  11.486  1.00  0.00    -0.014 A 
ATOM     69  C   UNL     1      -2.125  -3.441  11.905  1.00  0.00     0.009 A 
ATOM     70  C   UNL     1      -3.229  -1.294  12.016  1.00  0.00     0.009 A 
ATOM     71  C   UNL     1      -1.199  -3.012  12.859  1.00  0.00     0.001 A 
ATOM     72  C   UNL     1      -2.285  -0.858  12.947  1.00  0.00     0.001 A 
ATOM     73  C   UNL     1      -1.279  -1.720  13.377  1.00  0.00     0.000 A 
ENDBRANCH  49  68
BRANCH  61  74
ATOM     74  C   UNL     1      -8.176  -7.380  12.039  1.00  0.00    -0.014 A 
ATOM     75  C   UNL     1      -8.787  -6.939  13.223  1.00  0.00     0.009 A 
ATOM     76  C   UNL     1      -7.933  -8.753  11.870  1.00  0.00     0.009 A 
ATOM     77  C   UNL     1      -9.106  -7.849  14.233  1.00  0.00     0.001 A 
ATOM     78  C   UNL     1      -8.281  -9.663  12.868  1.00  0.00     0.001 A 
ATOM     79  C   UNL     1      -8.856  -9.210  14.053  1.00  0.00     0.000 A 
ENDBRANCH  61  74
ENDBRANCH  35  36
ENDBRANCH  28  30
ENDBRANCH  27  28
ENDBRANCH  26  27
ENDBRANCH  25  26
ENDBRANCH  24  25
ENDBRANCH  23  24
ENDBRANCH   1  23
TORSDOF 21
