REMARK SMILES Cn1ncc2c(NCCC3=CCCCC3)c(C(=O)OCCOCCOCCOC(=O)c3ccc(-c4c5nc(c(-c6ccccc6)c6ccc([nH]6)c(-c6ccccc6)c6nc(c(-c7ccccc7)c7ccc4[nH]7)C=C6)C=C5)cc3)cnc21
REMARK SMILES IDX 23 1 22 2 21 3 20 4 19 5 17 6 18 7 16 8 1 9 2 10 3 11 81 12
REMARK SMILES IDX 4 13 5 14 80 15 6 16 79 17 7 18 8 20 9 21 10 22 11 23 15 24
REMARK SMILES IDX 12 25 14 26 13 27 24 28 25 29 26 30 27 31 28 32 29 33 30 34
REMARK SMILES IDX 31 35 32 36 78 37 33 38 77 39 34 40 35 41 36 42 71 43 37 44
REMARK SMILES IDX 76 45 70 46 72 47 38 48 75 49 69 50 68 51 39 53 61 54 46 55
REMARK SMILES IDX 60 56 47 57 50 58 59 59 73 60 48 61 49 62 58 64 74 65 51 66
REMARK SMILES IDX 40 67 41 68 45 69 42 70 44 71 43 72 62 73 63 74 67 75 64 76
REMARK SMILES IDX 66 77 65 78 52 79 53 80 57 81 54 82 56 83 55 84
REMARK H PARENT 7 19 72 52 50 63
REMARK Flexibility Score: inf
ROOT
ATOM      1  C   UNL     1      -4.188  -4.985  -3.987  1.00  0.00     0.188 C 
ENDROOT
BRANCH   1   2
ATOM      2  O   UNL     1      -5.583  -5.154  -4.170  1.00  0.00    -0.376 OA
BRANCH   2   3
ATOM      3  C   UNL     1      -6.352  -5.136  -2.972  1.00  0.00     0.202 C 
BRANCH   3   4
ATOM      4  C   UNL     1      -6.444  -3.775  -2.260  1.00  0.00     0.261 C 
BRANCH   4   5
ATOM      5  O   UNL     1      -5.186  -3.143  -1.955  1.00  0.00    -0.460 OA
BRANCH   5   6
ATOM      6  C   UNL     1      -4.458  -3.663  -0.946  1.00  0.00     0.341 C 
ATOM      7  O   UNL     1      -4.790  -4.627  -0.259  1.00  0.00    -0.246 OA
BRANCH   6   8
ATOM      8  C   UNL     1      -3.134  -3.005  -0.865  1.00  0.00     0.102 A 
ATOM      9  C   UNL     1       0.740   0.301  -0.274  1.00  0.00     0.176 C 
ATOM     10  N   UNL     1       0.380  -1.091  -0.362  1.00  0.00    -0.250 N 
ATOM     11  N   UNL     1       1.321  -2.041  -0.206  1.00  0.00    -0.179 NA
ATOM     12  C   UNL     1      -0.879  -1.590  -0.565  1.00  0.00     0.159 A 
ATOM     13  C   UNL     1       0.626  -3.176  -0.340  1.00  0.00     0.147 A 
ATOM     14  C   UNL     1      -0.763  -2.981  -0.554  1.00  0.00     0.063 A 
ATOM     15  N   UNL     1      -1.995  -0.855  -0.740  1.00  0.00    -0.236 NA
ATOM     16  C   UNL     1      -1.931  -3.766  -0.744  1.00  0.00     0.063 A 
ATOM     17  C   UNL     1      -3.102  -1.613  -0.883  1.00  0.00     0.131 A 
BRANCH  16  18
ATOM     18  N   UNL     1      -1.981  -5.146  -0.892  1.00  0.00    -0.383 N 
ATOM     19  H   UNL     1      -2.849  -5.499  -1.192  1.00  0.00     0.160 HD
BRANCH  18  20
ATOM     20  C   UNL     1      -0.955  -6.154  -0.673  1.00  0.00     0.117 C 
BRANCH  20  21
ATOM     21  C   UNL     1      -1.397  -7.129   0.438  1.00  0.00     0.052 C 
BRANCH  21  22
ATOM     22  C   UNL     1      -2.392  -8.179  -0.027  1.00  0.00    -0.072 C 
ATOM     23  C   UNL     1      -3.686  -7.896  -0.261  1.00  0.00    -0.028 C 
ATOM     24  C   UNL     1      -1.859  -9.583  -0.182  1.00  0.00     0.031 C 
ATOM     25  C   UNL     1      -4.687  -8.880  -0.779  1.00  0.00     0.027 C 
ATOM     26  C   UNL     1      -2.798 -10.532  -0.933  1.00  0.00     0.005 C 
ATOM     27  C   UNL     1      -4.258 -10.322  -0.545  1.00  0.00     0.004 C 
ENDBRANCH  21  22
ENDBRANCH  20  21
ENDBRANCH  18  20
ENDBRANCH  16  18
ENDBRANCH   6   8
ENDBRANCH   5   6
ENDBRANCH   4   5
ENDBRANCH   3   4
ENDBRANCH   2   3
ENDBRANCH   1   2
BRANCH   1  28
ATOM     28  C   UNL     1      -3.626  -3.611  -4.412  1.00  0.00     0.188 C 
BRANCH  28  29
ATOM     29  O   UNL     1      -4.428  -2.602  -5.018  1.00  0.00    -0.376 OA
BRANCH  29  30
ATOM     30  C   UNL     1      -5.551  -2.905  -5.833  1.00  0.00     0.202 C 
BRANCH  30  31
ATOM     31  C   UNL     1      -5.339  -3.650  -7.148  1.00  0.00     0.261 C 
BRANCH  31  32
ATOM     32  O   UNL     1      -4.546  -4.816  -6.998  1.00  0.00    -0.460 OA
BRANCH  32  33
ATOM     33  C   UNL     1      -3.239  -4.586  -7.208  1.00  0.00     0.338 C 
ATOM     34  O   UNL     1      -2.710  -3.523  -7.528  1.00  0.00    -0.246 OA
BRANCH  33  35
ATOM     35  C   UNL     1      -2.474  -5.819  -7.027  1.00  0.00     0.060 A 
ATOM     36  C   UNL     1      -1.090  -5.660  -6.931  1.00  0.00     0.016 A 
ATOM     37  C   UNL     1      -3.073  -7.044  -7.346  1.00  0.00     0.016 A 
ATOM     38  C   UNL     1      -0.303  -6.621  -7.510  1.00  0.00     0.010 A 
ATOM     39  C   UNL     1      -2.285  -8.004  -7.935  1.00  0.00     0.010 A 
ATOM     40  C   UNL     1      -0.941  -7.696  -8.136  1.00  0.00    -0.014 A 
BRANCH  40  41
ATOM     41  C   UNL     1      -0.208  -8.312  -9.217  1.00  0.00     0.031 A 
ATOM     42  C   UNL     1       0.760  -9.349  -8.849  1.00  0.00     0.074 A 
ATOM     43  C   UNL     1      -0.388  -7.927 -10.494  1.00  0.00     0.049 A 
ATOM     44  N   UNL     1       2.045  -9.299  -8.953  1.00  0.00    -0.248 NA
ATOM     45  C   UNL     1       0.227 -10.564  -8.229  1.00  0.00     0.031 C 
ATOM     46  C   UNL     1      -1.470  -7.125 -11.073  1.00  0.00     0.029 A 
ATOM     47  N   UNL     1       0.361  -8.271 -11.572  1.00  0.00    -0.354 N 
ATOM     48  C   UNL     1       2.498 -10.530  -8.509  1.00  0.00     0.074 A 
ATOM     49  C   UNL     1       1.350 -11.237  -7.990  1.00  0.00     0.031 C 
ATOM     50  C   UNL     1      -1.421  -7.232 -12.421  1.00  0.00     0.029 A 
ATOM     51  C   UNL     1      -0.232  -7.985 -12.787  1.00  0.00     0.049 A 
ATOM     52  H   UNL     1       1.250  -8.687 -11.495  1.00  0.00     0.167 HD
ATOM     53  C   UNL     1       3.765 -10.967  -8.720  1.00  0.00     0.031 A 
ATOM     54  C   UNL     1       0.200  -8.422 -13.992  1.00  0.00     0.031 A 
ATOM     55  C   UNL     1       4.665  -9.927  -9.127  1.00  0.00     0.049 A 
ATOM     56  C   UNL     1       1.632  -8.784 -13.851  1.00  0.00     0.074 A 
ATOM     57  C   UNL     1       5.166  -8.790  -8.526  1.00  0.00     0.029 A 
ATOM     58  N   UNL     1       4.921  -9.787 -10.470  1.00  0.00    -0.354 N 
ATOM     59  N   UNL     1       2.583  -7.918 -13.645  1.00  0.00    -0.248 NA
ATOM     60  C   UNL     1       1.981 -10.167 -13.559  1.00  0.00     0.031 C 
ATOM     61  C   UNL     1       5.300  -7.835  -9.576  1.00  0.00     0.029 A 
ATOM     62  C   UNL     1       4.868  -8.445 -10.755  1.00  0.00     0.049 A 
ATOM     63  H   UNL     1       5.108 -10.514 -11.107  1.00  0.00     0.167 HD
ATOM     64  C   UNL     1       3.500  -8.573 -12.835  1.00  0.00     0.074 A 
ATOM     65  C   UNL     1       3.140  -9.983 -12.921  1.00  0.00     0.031 C 
ATOM     66  C   UNL     1       4.289  -7.885 -11.959  1.00  0.00     0.031 A 
BRANCH  53  67
ATOM     67  C   UNL     1       4.106 -12.419  -8.786  1.00  0.00    -0.014 A 
ATOM     68  C   UNL     1       5.430 -12.838  -8.600  1.00  0.00     0.009 A 
ATOM     69  C   UNL     1       3.174 -13.382  -9.224  1.00  0.00     0.009 A 
ATOM     70  C   UNL     1       5.798 -14.169  -8.827  1.00  0.00     0.001 A 
ATOM     71  C   UNL     1       3.529 -14.717  -9.410  1.00  0.00     0.001 A 
ATOM     72  C   UNL     1       4.846 -15.108  -9.222  1.00  0.00     0.000 A 
ENDBRANCH  53  67
BRANCH  54  73
ATOM     73  C   UNL     1      -0.620  -8.815 -15.157  1.00  0.00    -0.014 A 
ATOM     74  C   UNL     1      -0.020  -9.049 -16.403  1.00  0.00     0.009 A 
ATOM     75  C   UNL     1      -1.960  -9.213 -14.992  1.00  0.00     0.009 A 
ATOM     76  C   UNL     1      -0.722  -9.694 -17.429  1.00  0.00     0.001 A 
ATOM     77  C   UNL     1      -2.665  -9.847 -16.019  1.00  0.00     0.001 A 
ATOM     78  C   UNL     1      -2.039 -10.102 -17.233  1.00  0.00     0.000 A 
ENDBRANCH  54  73
BRANCH  66  79
ATOM     79  C   UNL     1       4.282  -6.378 -12.054  1.00  0.00    -0.014 A 
ATOM     80  C   UNL     1       3.133  -5.624 -11.756  1.00  0.00     0.009 A 
ATOM     81  C   UNL     1       5.488  -5.696 -12.275  1.00  0.00     0.009 A 
ATOM     82  C   UNL     1       3.183  -4.228 -11.700  1.00  0.00     0.001 A 
ATOM     83  C   UNL     1       5.541  -4.301 -12.203  1.00  0.00     0.001 A 
ATOM     84  C   UNL     1       4.390  -3.568 -11.918  1.00  0.00     0.000 A 
ENDBRANCH  66  79
ENDBRANCH  40  41
ENDBRANCH  33  35
ENDBRANCH  32  33
ENDBRANCH  31  32
ENDBRANCH  30  31
ENDBRANCH  29  30
ENDBRANCH  28  29
ENDBRANCH   1  28
TORSDOF 21
