REMARK SMILES CC(C)c1ccc(NC(=O)C[C@H]2SC[C@@H](C(=O)OCCOCCOCCOC(=O)c3ccc(-c4c5nc(c(-c6ccccc6)c6ccc([nH]6)c(-c6ccccc6)c6nc(c(-c7ccccc7)c7ccc4[nH]7)C=C6)C=C5)cc3)NC2=O)cc1
REMARK SMILES IDX 22 1 21 2 20 3 19 4 18 5 16 6 17 7 15 8 12 9 13 10 79 11
REMARK SMILES IDX 14 12 78 13 80 14 11 16 9 17 8 18 10 20 7 21 4 22 5 23 82 24
REMARK SMILES IDX 6 25 81 26 2 27 1 28 3 29 23 30 24 31 25 32 26 33 27 34
REMARK SMILES IDX 28 35 29 36 30 37 31 38 77 39 32 40 76 41 33 42 34 43 35 44
REMARK SMILES IDX 70 45 36 46 75 47 69 48 71 49 37 50 74 51 68 52 67 53 38 55
REMARK SMILES IDX 60 56 45 57 59 58 46 59 49 60 58 61 72 62 47 63 48 64 57 66
REMARK SMILES IDX 73 67 50 68 39 69 40 70 44 71 41 72 43 73 42 74 61 75 62 76
REMARK SMILES IDX 66 77 63 78 65 79 64 80 51 81 52 82 56 83 53 84 55 85 54 86
REMARK H PARENT 78 15 8 19 71 54 49 65
REMARK Flexibility Score: inf
ROOT
ATOM      1  C   UNL     1      -0.545   5.019   3.612  1.00  0.00     0.188 C 
ENDROOT
BRANCH   1   2
ATOM      2  O   UNL     1       0.352   4.695   4.647  1.00  0.00    -0.376 OA
BRANCH   2   3
ATOM      3  C   UNL     1       1.206   3.575   4.497  1.00  0.00     0.202 C 
BRANCH   3   4
ATOM      4  C   UNL     1       1.094   2.507   3.385  1.00  0.00     0.261 C 
BRANCH   4   5
ATOM      5  O   UNL     1       0.221   2.761   2.264  1.00  0.00    -0.462 OA
BRANCH   5   6
ATOM      6  C   UNL     1      -0.707   1.807   2.034  1.00  0.00     0.329 C 
ATOM      7  O   UNL     1      -0.763   0.764   2.686  1.00  0.00    -0.250 OA
BRANCH   6   8
ATOM      8  C   UNL     1      -1.651   2.032   0.815  1.00  0.00     0.202 C 
ATOM      9  C   UNL     1      -4.271   3.064   2.091  1.00  0.00     0.145 C 
ATOM     10  S   UNL     1      -3.175   4.370   1.368  1.00  0.00    -0.145 SA
ATOM     11  C   UNL     1      -3.590   1.699   2.210  1.00  0.00     0.234 C 
ATOM     12  C   UNL     1      -2.082   3.390   0.286  1.00  0.00     0.107 C 
ATOM     13  N   UNL     1      -2.832   1.248   1.157  1.00  0.00    -0.341 N 
ATOM     14  O   UNL     1      -3.693   0.935   3.162  1.00  0.00    -0.274 OA
ATOM     15  H   UNL     1      -3.075   0.435   0.657  1.00  0.00     0.164 HD
BRANCH   9  16
ATOM     16  C   UNL     1      -4.900   3.647   3.374  1.00  0.00     0.124 C 
BRANCH  16  17
ATOM     17  C   UNL     1      -5.180   2.769   4.589  1.00  0.00     0.226 C 
ATOM     18  N   UNL     1      -5.960   1.650   4.542  1.00  0.00    -0.326 N 
ATOM     19  H   UNL     1      -6.124   1.204   5.404  1.00  0.00     0.169 HD
ATOM     20  O   UNL     1      -4.691   3.085   5.681  1.00  0.00    -0.275 OA
BRANCH  18  21
ATOM     21  C   UNL     1      -6.555   1.054   3.425  1.00  0.00     0.041 A 
ATOM     22  C   UNL     1      -7.188  -0.136   0.954  1.00  0.00    -0.045 A 
ATOM     23  C   UNL     1      -7.520   1.201   1.224  1.00  0.00     0.006 A 
ATOM     24  C   UNL     1      -6.606  -0.885   1.990  1.00  0.00     0.006 A 
ATOM     25  C   UNL     1      -7.218   1.789   2.454  1.00  0.00     0.026 A 
ATOM     26  C   UNL     1      -6.334  -0.309   3.231  1.00  0.00     0.026 A 
BRANCH  22  27
ATOM     27  C   UNL     1      -7.370  -0.756  -0.428  1.00  0.00     0.013 C 
ATOM     28  C   UNL     1      -7.969  -2.166  -0.356  1.00  0.00     0.012 C 
ATOM     29  C   UNL     1      -8.209   0.091  -1.395  1.00  0.00     0.012 C 
ENDBRANCH  22  27
ENDBRANCH  18  21
ENDBRANCH  16  17
ENDBRANCH   9  16
ENDBRANCH   6   8
ENDBRANCH   5   6
ENDBRANCH   4   5
ENDBRANCH   3   4
ENDBRANCH   2   3
ENDBRANCH   1   2
BRANCH   1  30
ATOM     30  C   UNL     1       0.069   5.529   2.295  1.00  0.00     0.188 C 
BRANCH  30  31
ATOM     31  O   UNL     1       1.459   5.438   2.088  1.00  0.00    -0.376 OA
BRANCH  31  32
ATOM     32  C   UNL     1       2.336   6.295   2.792  1.00  0.00     0.202 C 
BRANCH  32  33
ATOM     33  C   UNL     1       1.933   7.639   3.429  1.00  0.00     0.261 C 
BRANCH  33  34
ATOM     34  O   UNL     1       0.566   7.822   3.813  1.00  0.00    -0.460 OA
BRANCH  34  35
ATOM     35  C   UNL     1      -0.156   8.653   3.023  1.00  0.00     0.338 C 
ATOM     36  O   UNL     1       0.230   9.240   2.018  1.00  0.00    -0.246 OA
BRANCH  35  37
ATOM     37  C   UNL     1      -1.573   8.615   3.428  1.00  0.00     0.060 A 
ATOM     38  C   UNL     1      -2.516   8.081   2.539  1.00  0.00     0.016 A 
ATOM     39  C   UNL     1      -1.979   9.152   4.649  1.00  0.00     0.016 A 
ATOM     40  C   UNL     1      -3.872   8.089   2.866  1.00  0.00     0.010 A 
ATOM     41  C   UNL     1      -3.342   9.192   4.960  1.00  0.00     0.010 A 
ATOM     42  C   UNL     1      -4.297   8.681   4.061  1.00  0.00    -0.014 A 
BRANCH  42  43
ATOM     43  C   UNL     1      -5.742   8.928   4.287  1.00  0.00     0.031 A 
ATOM     44  C   UNL     1      -6.317  10.258   3.889  1.00  0.00     0.074 A 
ATOM     45  C   UNL     1      -6.543   7.984   4.812  1.00  0.00     0.049 A 
ATOM     46  N   UNL     1      -7.527  10.724   4.062  1.00  0.00    -0.248 NA
ATOM     47  C   UNL     1      -5.401  11.185   3.205  1.00  0.00     0.031 C 
ATOM     48  C   UNL     1      -6.128   6.638   5.192  1.00  0.00     0.029 A 
ATOM     49  N   UNL     1      -7.882   8.025   5.118  1.00  0.00    -0.354 N 
ATOM     50  C   UNL     1      -7.515  12.004   3.524  1.00  0.00     0.074 A 
ATOM     51  C   UNL     1      -6.176  12.246   3.031  1.00  0.00     0.031 C 
ATOM     52  C   UNL     1      -7.193   5.973   5.672  1.00  0.00     0.029 A 
ATOM     53  C   UNL     1      -8.351   6.867   5.689  1.00  0.00     0.049 A 
ATOM     54  H   UNL     1      -8.451   8.810   4.945  1.00  0.00     0.167 HD
ATOM     55  C   UNL     1      -8.525  12.903   3.452  1.00  0.00     0.031 A 
ATOM     56  C   UNL     1      -9.564   6.575   6.199  1.00  0.00     0.031 A 
ATOM     57  C   UNL     1      -9.848  12.683   3.974  1.00  0.00     0.049 A 
ATOM     58  C   UNL     1     -10.644   7.628   6.199  1.00  0.00     0.074 A 
ATOM     59  C   UNL     1     -10.928  13.549   3.977  1.00  0.00     0.029 A 
ATOM     60  N   UNL     1     -10.268  11.517   4.594  1.00  0.00    -0.354 N 
ATOM     61  N   UNL     1     -10.619   8.844   5.707  1.00  0.00    -0.248 NA
ATOM     62  C   UNL     1     -11.921   7.268   6.836  1.00  0.00     0.031 C 
ATOM     63  C   UNL     1     -11.985  12.928   4.649  1.00  0.00     0.029 A 
ATOM     64  C   UNL     1     -11.586  11.648   5.000  1.00  0.00     0.049 A 
ATOM     65  H   UNL     1      -9.713  10.715   4.726  1.00  0.00     0.167 HD
ATOM     66  C   UNL     1     -11.877   9.383   5.956  1.00  0.00     0.074 A 
ATOM     67  C   UNL     1     -12.649   8.355   6.622  1.00  0.00     0.031 C 
ATOM     68  C   UNL     1     -12.349  10.620   5.661  1.00  0.00     0.031 A 
BRANCH  55  69
ATOM     69  C   UNL     1      -8.215  14.234   2.827  1.00  0.00    -0.014 A 
ATOM     70  C   UNL     1      -7.994  14.359   1.447  1.00  0.00     0.009 A 
ATOM     71  C   UNL     1      -8.163  15.384   3.631  1.00  0.00     0.009 A 
ATOM     72  C   UNL     1      -7.692  15.604   0.890  1.00  0.00     0.001 A 
ATOM     73  C   UNL     1      -7.893  16.631   3.067  1.00  0.00     0.001 A 
ATOM     74  C   UNL     1      -7.647  16.739   1.699  1.00  0.00     0.000 A 
ENDBRANCH  55  69
BRANCH  56  75
ATOM     75  C   UNL     1      -9.820   5.239   6.802  1.00  0.00    -0.014 A 
ATOM     76  C   UNL     1     -10.735   4.350   6.215  1.00  0.00     0.009 A 
ATOM     77  C   UNL     1      -9.172   4.855   7.986  1.00  0.00     0.009 A 
ATOM     78  C   UNL     1     -11.010   3.118   6.813  1.00  0.00     0.001 A 
ATOM     79  C   UNL     1      -9.423   3.609   8.564  1.00  0.00     0.001 A 
ATOM     80  C   UNL     1     -10.350   2.746   7.983  1.00  0.00     0.000 A 
ENDBRANCH  56  75
BRANCH  68  81
ATOM     81  C   UNL     1     -13.781  10.924   6.013  1.00  0.00    -0.014 A 
ATOM     82  C   UNL     1     -14.193  11.088   7.345  1.00  0.00     0.009 A 
ATOM     83  C   UNL     1     -14.723  11.103   4.986  1.00  0.00     0.009 A 
ATOM     84  C   UNL     1     -15.525  11.392   7.641  1.00  0.00     0.001 A 
ATOM     85  C   UNL     1     -16.045  11.438   5.283  1.00  0.00     0.001 A 
ATOM     86  C   UNL     1     -16.448  11.572   6.610  1.00  0.00     0.000 A 
ENDBRANCH  68  81
ENDBRANCH  42  43
ENDBRANCH  35  37
ENDBRANCH  34  35
ENDBRANCH  33  34
ENDBRANCH  32  33
ENDBRANCH  31  32
ENDBRANCH  30  31
ENDBRANCH   1  30
TORSDOF 21
