REMARK SMILES CC[C@@H]1CCCC[C@@H]1OCC[C@@H]1CCC[C@]1([NH2+]C)C(=O)OCCOCCOCCOC(=O)c1ccc(-c2c3nc(c(-c4ccccc4)c4ccc([nH]4)c(-c4ccccc4)c4nc(c(-c5ccccc5)c5ccc2[nH]5)C=C4)C=C3)cc1
REMARK SMILES IDX 24 1 23 2 22 3 21 4 19 5 20 6 16 7 12 8 13 9 14 10 15 11
REMARK SMILES IDX 11 12 10 13 9 14 8 15 3 16 4 17 5 18 7 19 6 20 2 21 1 22
REMARK SMILES IDX 17 23 18 24 25 27 26 28 27 29 28 30 29 31 30 32 31 33 32 34
REMARK SMILES IDX 33 35 34 36 80 37 35 38 79 39 36 40 37 41 38 42 73 43 39 44
REMARK SMILES IDX 78 45 72 46 74 47 40 48 77 49 71 50 70 51 41 53 63 54 48 55
REMARK SMILES IDX 62 56 49 57 52 58 61 59 75 60 50 61 51 62 60 64 76 65 53 66
REMARK SMILES IDX 42 67 43 68 47 69 44 70 46 71 45 72 64 73 65 74 69 75 66 76
REMARK SMILES IDX 68 77 67 78 54 79 55 80 59 81 56 82 58 83 57 84
REMARK H PARENT 17 25 17 26 74 52 52 63
REMARK Flexibility Score: inf
ROOT
ATOM      1  O   UNL     1      -7.171   4.344   1.199  1.00  0.00    -0.376 OA
ENDROOT
BRANCH   1   2
ATOM      2  C   UNL     1      -6.867   3.512   2.306  1.00  0.00     0.202 C 
BRANCH   2   3
ATOM      3  C   UNL     1      -5.746   2.482   2.101  1.00  0.00     0.261 C 
BRANCH   3   4
ATOM      4  O   UNL     1      -4.497   2.970   1.573  1.00  0.00    -0.459 OA
BRANCH   4   5
ATOM      5  C   UNL     1      -4.420   3.007   0.214  1.00  0.00     0.368 C 
ATOM      6  O   UNL     1      -5.367   2.737  -0.522  1.00  0.00    -0.245 OA
BRANCH   5   7
ATOM      7  C   UNL     1      -2.974   3.239  -0.332  1.00  0.00     0.197 C 
ATOM      8  C   UNL     1      -2.081   4.362   0.281  1.00  0.00     0.065 C 
ATOM      9  C   UNL     1      -2.544   5.670  -0.349  1.00  0.00     0.011 C 
ATOM     10  C   UNL     1      -3.021   5.289  -1.741  1.00  0.00     0.008 C 
ATOM     11  C   UNL     1      -3.081   3.761  -1.796  1.00  0.00     0.081 C 
BRANCH   8  12
ATOM     12  C   UNL     1      -1.776   4.469   1.796  1.00  0.00     0.039 C 
BRANCH  12  13
ATOM     13  C   UNL     1      -0.959   3.346   2.461  1.00  0.00     0.161 C 
BRANCH  13  14
ATOM     14  O   UNL     1       0.463   3.399   2.258  1.00  0.00    -0.378 OA
BRANCH  14  15
ATOM     15  C   UNL     1       0.862   3.312   0.896  1.00  0.00     0.121 C 
ATOM     16  C   UNL     1       1.814   2.155   0.584  1.00  0.00     0.018 C 
ATOM     17  C   UNL     1       3.240   2.446   1.048  1.00  0.00     0.006 C 
ATOM     18  C   UNL     1       3.728   3.787   0.495  1.00  0.00     0.000 C 
ATOM     19  C   UNL     1       1.386   4.678   0.444  1.00  0.00     0.032 C 
ATOM     20  C   UNL     1       2.812   4.931   0.913  1.00  0.00     0.003 C 
BRANCH  16  21
ATOM     21  C   UNL     1       1.248   0.827   1.125  1.00  0.00     0.003 C 
ATOM     22  C   UNL     1       1.463  -0.322   0.151  1.00  0.00     0.004 C 
ENDBRANCH  16  21
ENDBRANCH  14  15
ENDBRANCH  13  14
ENDBRANCH  12  13
ENDBRANCH   8  12
BRANCH   7  23
ATOM     23  N   UNL     1      -2.233   1.944  -0.295  1.00  0.00    -0.334 N 
ATOM     24  C   UNL     1      -2.946   0.812  -0.879  1.00  0.00     0.331 C 
ATOM     25  H   UNL     1      -2.030   1.723   0.680  1.00  0.00     0.347 HD
ATOM     26  H   UNL     1      -1.395   2.078  -0.861  1.00  0.00     0.347 HD
ENDBRANCH   7  23
ENDBRANCH   5   7
ENDBRANCH   4   5
ENDBRANCH   3   4
ENDBRANCH   2   3
ENDBRANCH   1   2
BRANCH   1  27
ATOM     27  C   UNL     1      -6.375   5.497   0.940  1.00  0.00     0.188 C 
BRANCH  27  28
ATOM     28  C   UNL     1      -5.259   5.889   1.909  1.00  0.00     0.188 C 
BRANCH  28  29
ATOM     29  O   UNL     1      -5.677   5.952   3.260  1.00  0.00    -0.376 OA
BRANCH  29  30
ATOM     30  C   UNL     1      -5.355   7.171   3.911  1.00  0.00     0.202 C 
BRANCH  30  31
ATOM     31  C   UNL     1      -6.381   8.257   3.572  1.00  0.00     0.261 C 
BRANCH  31  32
ATOM     32  O   UNL     1      -6.540   8.532   2.161  1.00  0.00    -0.460 OA
BRANCH  32  33
ATOM     33  C   UNL     1      -5.528   9.169   1.538  1.00  0.00     0.338 C 
ATOM     34  O   UNL     1      -4.481   9.551   2.053  1.00  0.00    -0.246 OA
BRANCH  33  35
ATOM     35  C   UNL     1      -5.765   9.155   0.075  1.00  0.00     0.060 A 
ATOM     36  C   UNL     1      -4.777   8.618  -0.760  1.00  0.00     0.016 A 
ATOM     37  C   UNL     1      -6.927   9.690  -0.484  1.00  0.00     0.016 A 
ATOM     38  C   UNL     1      -4.940   8.614  -2.149  1.00  0.00     0.010 A 
ATOM     39  C   UNL     1      -7.075   9.717  -1.880  1.00  0.00     0.010 A 
ATOM     40  C   UNL     1      -6.075   9.196  -2.724  1.00  0.00    -0.014 A 
BRANCH  40  41
ATOM     41  C   UNL     1      -6.119   9.448  -4.191  1.00  0.00     0.031 A 
ATOM     42  C   UNL     1      -5.782  10.830  -4.687  1.00  0.00     0.074 A 
ATOM     43  C   UNL     1      -6.406   8.481  -5.082  1.00  0.00     0.049 A 
ATOM     44  N   UNL     1      -5.872  11.330  -5.893  1.00  0.00    -0.248 NA
ATOM     45  C   UNL     1      -5.268  11.772  -3.680  1.00  0.00     0.031 C 
ATOM     46  C   UNL     1      -6.643   7.074  -4.767  1.00  0.00     0.029 A 
ATOM     47  N   UNL     1      -6.548   8.548  -6.449  1.00  0.00    -0.354 N 
ATOM     48  C   UNL     1      -5.454  12.651  -5.785  1.00  0.00     0.074 A 
ATOM     49  C   UNL     1      -5.121  12.877  -4.395  1.00  0.00     0.031 C 
ATOM     50  C   UNL     1      -6.915   6.413  -5.907  1.00  0.00     0.029 A 
ATOM     51  C   UNL     1      -6.925   7.358  -7.024  1.00  0.00     0.049 A 
ATOM     52  H   UNL     1      -6.395   9.371  -6.967  1.00  0.00     0.167 HD
ATOM     53  C   UNL     1      -5.360  13.596  -6.750  1.00  0.00     0.031 A 
ATOM     54  C   UNL     1      -7.279   7.072  -8.294  1.00  0.00     0.031 A 
ATOM     55  C   UNL     1      -5.696  13.381  -8.132  1.00  0.00     0.049 A 
ATOM     56  C   UNL     1      -7.286   8.170  -9.331  1.00  0.00     0.074 A 
ATOM     57  C   UNL     1      -5.653  14.283  -9.181  1.00  0.00     0.029 A 
ATOM     58  N   UNL     1      -6.140  12.178  -8.658  1.00  0.00    -0.354 N 
ATOM     59  N   UNL     1      -6.927   9.425  -9.213  1.00  0.00    -0.248 NA
ATOM     60  C   UNL     1      -7.756   7.808 -10.678  1.00  0.00     0.031 C 
ATOM     61  C   UNL     1      -6.128  13.642 -10.329  1.00  0.00     0.029 A 
ATOM     62  C   UNL     1      -6.400  12.321 -10.010  1.00  0.00     0.049 A 
ATOM     63  H   UNL     1      -6.254  11.345  -8.145  1.00  0.00     0.167 HD
ATOM     64  C   UNL     1      -7.095   9.991 -10.473  1.00  0.00     0.074 A 
ATOM     65  C   UNL     1      -7.575   8.940 -11.344  1.00  0.00     0.031 C 
ATOM     66  C   UNL     1      -6.870  11.267 -10.872  1.00  0.00     0.031 A 
BRANCH  53  67
ATOM     67  C   UNL     1      -4.934  14.973  -6.324  1.00  0.00    -0.014 A 
ATOM     68  C   UNL     1      -3.616  15.247  -5.925  1.00  0.00     0.009 A 
ATOM     69  C   UNL     1      -5.871  16.018  -6.335  1.00  0.00     0.009 A 
ATOM     70  C   UNL     1      -3.258  16.531  -5.505  1.00  0.00     0.001 A 
ATOM     71  C   UNL     1      -5.503  17.307  -5.946  1.00  0.00     0.001 A 
ATOM     72  C   UNL     1      -4.200  17.559  -5.520  1.00  0.00     0.000 A 
ENDBRANCH  53  67
BRANCH  54  73
ATOM     73  C   UNL     1      -7.717   5.697  -8.666  1.00  0.00    -0.014 A 
ATOM     74  C   UNL     1      -6.966   4.919  -9.561  1.00  0.00     0.009 A 
ATOM     75  C   UNL     1      -8.921   5.176  -8.165  1.00  0.00     0.009 A 
ATOM     76  C   UNL     1      -7.425   3.662  -9.967  1.00  0.00     0.001 A 
ATOM     77  C   UNL     1      -9.360   3.906  -8.547  1.00  0.00     0.001 A 
ATOM     78  C   UNL     1      -8.618   3.155  -9.456  1.00  0.00     0.000 A 
ENDBRANCH  54  73
BRANCH  66  79
ATOM     79  C   UNL     1      -7.085  11.592 -12.326  1.00  0.00    -0.014 A 
ATOM     80  C   UNL     1      -8.370  11.655 -12.885  1.00  0.00     0.009 A 
ATOM     81  C   UNL     1      -5.978  11.892 -13.138  1.00  0.00     0.009 A 
ATOM     82  C   UNL     1      -8.540  11.977 -14.234  1.00  0.00     0.001 A 
ATOM     83  C   UNL     1      -6.152  12.245 -14.477  1.00  0.00     0.001 A 
ATOM     84  C   UNL     1      -7.432  12.278 -15.026  1.00  0.00     0.000 A 
ENDBRANCH  66  79
ENDBRANCH  40  41
ENDBRANCH  33  35
ENDBRANCH  32  33
ENDBRANCH  31  32
ENDBRANCH  30  31
ENDBRANCH  29  30
ENDBRANCH  28  29
ENDBRANCH  27  28
ENDBRANCH   1  27
TORSDOF 23
