REMARK SMILES CC[C@@H]1CCCN(S(=O)(=O)c2cc(C(=O)OCCOCCOCCOC(=O)c3ccc(-c4c5nc(c(-c6ccccc6)c6ccc([nH]6)c(-c6ccccc6)c6nc(c(-c7ccccc7)c7ccc4[nH]7)C=C6)C=C5)cc3)ccc2F)C1
REMARK SMILES IDX 20 1 19 2 18 3 17 4 16 5 14 6 15 7 13 8 11 9 12 10 78 11
REMARK SMILES IDX 77 12 79 13 76 14 8 15 9 16 10 17 7 18 3 19 4 20 80 21 5 22
REMARK SMILES IDX 6 23 2 24 1 25 21 26 22 27 23 28 24 29 25 30 26 31 27 32
REMARK SMILES IDX 28 33 29 34 75 35 30 36 74 37 31 38 32 39 33 40 68 41 34 42
REMARK SMILES IDX 73 43 67 44 69 45 35 46 72 47 66 48 65 49 36 51 58 52 43 53
REMARK SMILES IDX 57 54 44 55 47 56 56 57 70 58 45 59 46 60 55 62 71 63 48 64
REMARK SMILES IDX 37 65 38 66 42 67 39 68 41 69 40 70 59 71 60 72 64 73 61 74
REMARK SMILES IDX 63 75 62 76 49 77 50 78 54 79 51 80 53 81 52 82
REMARK H PARENT 69 50 47 61
REMARK Flexibility Score: inf
ROOT
ATOM      1  C   UNL     1      -5.975   7.635   3.865  1.00  0.00     0.188 C 
ENDROOT
BRANCH   1   2
ATOM      2  O   UNL     1      -7.197   7.321   4.509  1.00  0.00    -0.376 OA
BRANCH   2   3
ATOM      3  C   UNL     1      -7.212   6.950   5.879  1.00  0.00     0.202 C 
BRANCH   3   4
ATOM      4  C   UNL     1      -6.163   6.001   6.485  1.00  0.00     0.261 C 
BRANCH   4   5
ATOM      5  O   UNL     1      -4.804   6.248   6.100  1.00  0.00    -0.460 OA
BRANCH   5   6
ATOM      6  C   UNL     1      -4.211   5.271   5.369  1.00  0.00     0.338 C 
ATOM      7  O   UNL     1      -4.688   4.199   5.048  1.00  0.00    -0.246 OA
BRANCH   6   8
ATOM      8  C   UNL     1      -2.928   5.778   4.822  1.00  0.00     0.061 A 
ATOM      9  C   UNL     1      -1.459   5.999   2.911  1.00  0.00     0.119 A 
ATOM     10  C   UNL     1      -2.615   5.466   3.492  1.00  0.00     0.040 A 
ATOM     11  C   UNL     1      -0.641   6.851   3.644  1.00  0.00     0.143 A 
ATOM     12  C   UNL     1      -0.937   7.144   4.973  1.00  0.00     0.041 A 
ATOM     13  F   UNL     1       0.473   7.376   3.118  1.00  0.00    -0.206 F 
ATOM     14  C   UNL     1      -2.083   6.609   5.568  1.00  0.00     0.019 A 
BRANCH   9  15
ATOM     15  S   UNL     1      -1.106   5.669   1.214  1.00  0.00     0.246 S 
ATOM     16  O   UNL     1      -0.406   6.808   0.650  1.00  0.00    -0.207 OA
ATOM     17  O   UNL     1      -2.337   5.212   0.610  1.00  0.00    -0.207 OA
BRANCH  15  18
ATOM     18  N   UNL     1      -0.012   4.331   1.265  1.00  0.00    -0.197 NA
ATOM     19  C   UNL     1       1.091   2.517  -0.094  1.00  0.00     0.004 C 
ATOM     20  C   UNL     1       2.401   2.788   0.661  1.00  0.00     0.006 C 
ATOM     21  C   UNL     1       0.216   3.782  -0.112  1.00  0.00     0.106 C 
ATOM     22  C   UNL     1       2.147   3.387   2.039  1.00  0.00     0.017 C 
ATOM     23  C   UNL     1       1.282   4.635   1.944  1.00  0.00     0.102 C 
BRANCH  19  24
ATOM     24  C   UNL     1       0.330   1.294   0.458  1.00  0.00     0.001 C 
ATOM     25  C   UNL     1       0.932  -0.021  -0.028  1.00  0.00     0.004 C 
ENDBRANCH  19  24
ENDBRANCH  15  18
ENDBRANCH   9  15
ENDBRANCH   6   8
ENDBRANCH   5   6
ENDBRANCH   4   5
ENDBRANCH   3   4
ENDBRANCH   2   3
ENDBRANCH   1   2
BRANCH   1  26
ATOM     26  C   UNL     1      -5.038   8.706   4.458  1.00  0.00     0.188 C 
BRANCH  26  27
ATOM     27  O   UNL     1      -5.372   9.196   5.732  1.00  0.00    -0.376 OA
BRANCH  27  28
ATOM     28  C   UNL     1      -6.273  10.283   5.865  1.00  0.00     0.202 C 
BRANCH  28  29
ATOM     29  C   UNL     1      -7.089  10.941   4.731  1.00  0.00     0.261 C 
BRANCH  29  30
ATOM     30  O   UNL     1      -7.006  10.395   3.412  1.00  0.00    -0.460 OA
BRANCH  30  31
ATOM     31  C   UNL     1      -6.213  11.064   2.539  1.00  0.00     0.338 C 
ATOM     32  O   UNL     1      -5.527  12.045   2.763  1.00  0.00    -0.246 OA
BRANCH  31  33
ATOM     33  C   UNL     1      -6.168  10.304   1.276  1.00  0.00     0.060 A 
ATOM     34  C   UNL     1      -4.984   9.643   0.921  1.00  0.00     0.016 A 
ATOM     35  C   UNL     1      -7.282  10.264   0.438  1.00  0.00     0.016 A 
ATOM     36  C   UNL     1      -4.908   8.941  -0.283  1.00  0.00     0.010 A 
ATOM     37  C   UNL     1      -7.196   9.582  -0.780  1.00  0.00     0.010 A 
ATOM     38  C   UNL     1      -6.003   8.937  -1.157  1.00  0.00    -0.014 A 
BRANCH  38  39
ATOM     39  C   UNL     1      -5.862   8.393  -2.529  1.00  0.00     0.031 A 
ATOM     40  C   UNL     1      -5.641   9.352  -3.667  1.00  0.00     0.074 A 
ATOM     41  C   UNL     1      -5.940   7.072  -2.768  1.00  0.00     0.049 A 
ATOM     42  N   UNL     1      -5.574   9.116  -4.952  1.00  0.00    -0.248 NA
ATOM     43  C   UNL     1      -5.477  10.770  -3.305  1.00  0.00     0.031 C 
ATOM     44  C   UNL     1      -6.096   6.033  -1.751  1.00  0.00     0.029 A 
ATOM     45  N   UNL     1      -5.909   6.381  -3.955  1.00  0.00    -0.354 N 
ATOM     46  C   UNL     1      -5.382  10.355  -5.552  1.00  0.00     0.074 A 
ATOM     47  C   UNL     1      -5.362  11.341  -4.495  1.00  0.00     0.031 C 
ATOM     48  C   UNL     1      -6.160   4.835  -2.360  1.00  0.00     0.029 A 
ATOM     49  C   UNL     1      -6.091   5.027  -3.807  1.00  0.00     0.049 A 
ATOM     50  H   UNL     1      -5.770   6.814  -4.827  1.00  0.00     0.167 HD
ATOM     51  C   UNL     1      -5.237  10.643  -6.867  1.00  0.00     0.031 A 
ATOM     52  C   UNL     1      -6.215   4.059  -4.737  1.00  0.00     0.031 A 
ATOM     53  C   UNL     1      -5.261   9.662  -7.919  1.00  0.00     0.049 A 
ATOM     54  C   UNL     1      -6.137   4.423  -6.199  1.00  0.00     0.074 A 
ATOM     55  C   UNL     1      -5.086   9.855  -9.278  1.00  0.00     0.029 A 
ATOM     56  N   UNL     1      -5.484   8.308  -7.731  1.00  0.00    -0.354 N 
ATOM     57  N   UNL     1      -5.912   5.590  -6.753  1.00  0.00    -0.248 NA
ATOM     58  C   UNL     1      -6.325   3.329  -7.164  1.00  0.00     0.031 C 
ATOM     59  C   UNL     1      -5.279   8.629  -9.921  1.00  0.00     0.029 A 
ATOM     60  C   UNL     1      -5.496   7.660  -8.955  1.00  0.00     0.049 A 
ATOM     61  H   UNL     1      -5.615   7.872  -6.859  1.00  0.00     0.167 HD
ATOM     62  C   UNL     1      -5.894   5.362  -8.125  1.00  0.00     0.074 A 
ATOM     63  C   UNL     1      -6.114   3.945  -8.318  1.00  0.00     0.031 C 
ATOM     64  C   UNL     1      -5.708   6.247  -9.135  1.00  0.00     0.031 A 
BRANCH  51  65
ATOM     65  C   UNL     1      -5.087  12.089  -7.253  1.00  0.00    -0.014 A 
ATOM     66  C   UNL     1      -3.917  12.810  -6.971  1.00  0.00     0.009 A 
ATOM     67  C   UNL     1      -6.121  12.722  -7.962  1.00  0.00     0.009 A 
ATOM     68  C   UNL     1      -3.797  14.144  -7.369  1.00  0.00     0.001 A 
ATOM     69  C   UNL     1      -5.986  14.045  -8.385  1.00  0.00     0.001 A 
ATOM     70  C   UNL     1      -4.828  14.757  -8.081  1.00  0.00     0.000 A 
ENDBRANCH  51  65
BRANCH  52  71
ATOM     71  C   UNL     1      -6.463   2.648  -4.332  1.00  0.00    -0.014 A 
ATOM     72  C   UNL     1      -5.511   1.649  -4.593  1.00  0.00     0.009 A 
ATOM     73  C   UNL     1      -7.679   2.282  -3.735  1.00  0.00     0.009 A 
ATOM     74  C   UNL     1      -5.790   0.311  -4.303  1.00  0.00     0.001 A 
ATOM     75  C   UNL     1      -7.940   0.948  -3.413  1.00  0.00     0.001 A 
ATOM     76  C   UNL     1      -7.002  -0.038  -3.711  1.00  0.00     0.000 A 
ENDBRANCH  52  71
BRANCH  64  77
ATOM     77  C   UNL     1      -5.683   5.705 -10.539  1.00  0.00    -0.014 A 
ATOM     78  C   UNL     1      -6.844   5.219 -11.161  1.00  0.00     0.009 A 
ATOM     79  C   UNL     1      -4.482   5.723 -11.266  1.00  0.00     0.009 A 
ATOM     80  C   UNL     1      -6.792   4.727 -12.468  1.00  0.00     0.001 A 
ATOM     81  C   UNL     1      -4.440   5.265 -12.583  1.00  0.00     0.001 A 
ATOM     82  C   UNL     1      -5.593   4.757 -13.179  1.00  0.00     0.000 A 
ENDBRANCH  64  77
ENDBRANCH  38  39
ENDBRANCH  31  33
ENDBRANCH  30  31
ENDBRANCH  29  30
ENDBRANCH  28  29
ENDBRANCH  27  28
ENDBRANCH  26  27
ENDBRANCH   1  26
TORSDOF 20
