REMARK SMILES CC(=O)N1CCN(c2c(Cl)cccc2[C@@H]2C[C@H](C(=O)OCCOCCOCCOC(=O)c3ccc(-c4c5nc(c(-c6ccccc6)c6ccc([nH]6)c(-c6ccccc6)c6nc(c(-c7ccccc7)c7ccc4[nH]7)C=C6)C=C5)cc3)CC2=O)CC1
REMARK SMILES IDX 24 1 23 2 22 3 21 4 20 5 18 6 19 7 17 8 15 9 16 10 81 11
REMARK SMILES IDX 80 12 82 13 14 14 8 15 9 16 10 17 11 18 13 19 12 20 7 21
REMARK SMILES IDX 1 22 2 23 3 24 4 25 5 26 84 27 6 28 83 29 25 30 26 31 27 32
REMARK SMILES IDX 28 33 29 34 30 35 31 36 32 37 33 38 79 39 34 40 78 41 35 42
REMARK SMILES IDX 36 43 37 44 72 45 38 46 77 47 71 48 73 49 39 50 76 51 70 52
REMARK SMILES IDX 69 53 40 55 62 56 47 57 61 58 48 59 51 60 60 61 74 62 49 63
REMARK SMILES IDX 50 64 59 66 75 67 52 68 41 69 42 70 46 71 43 72 45 73 44 74
REMARK SMILES IDX 63 75 64 76 68 77 65 78 67 79 66 80 53 81 54 82 58 83 55 84
REMARK SMILES IDX 57 85 56 86
REMARK H PARENT 73 54 51 65
REMARK Flexibility Score: inf
ROOT
ATOM      1  C   UNL     1      -3.434  -6.492  -1.773  1.00  0.00     0.188 C 
ENDROOT
BRANCH   1   2
ATOM      2  O   UNL     1      -4.752  -6.515  -1.237  1.00  0.00    -0.376 OA
BRANCH   2   3
ATOM      3  C   UNL     1      -5.257  -5.332  -0.637  1.00  0.00     0.202 C 
BRANCH   3   4
ATOM      4  C   UNL     1      -4.444  -4.680   0.493  1.00  0.00     0.261 C 
BRANCH   4   5
ATOM      5  O   UNL     1      -3.007  -4.745   0.338  1.00  0.00    -0.463 OA
BRANCH   5   6
ATOM      6  C   UNL     1      -2.315  -5.273   1.375  1.00  0.00     0.309 C 
ATOM      7  O   UNL     1      -2.829  -5.573   2.448  1.00  0.00    -0.252 OA
BRANCH   6   8
ATOM      8  C   UNL     1      -0.805  -5.397   1.129  1.00  0.00     0.107 C 
ATOM      9  C   UNL     1       0.727  -7.397   1.182  1.00  0.00     0.089 C 
ATOM     10  C   UNL     1      -0.295  -6.568   1.975  1.00  0.00     0.032 C 
ATOM     11  C   UNL     1       0.708  -6.762  -0.173  1.00  0.00     0.141 C 
ATOM     12  C   UNL     1      -0.291  -5.651  -0.282  1.00  0.00     0.091 C 
ATOM     13  O   UNL     1       1.388  -7.126  -1.127  1.00  0.00    -0.299 OA
BRANCH   9  14
ATOM     14  C   UNL     1       0.300  -8.857   1.244  1.00  0.00    -0.013 A 
ATOM     15  C   UNL     1       0.887  -9.759   2.175  1.00  0.00     0.060 A 
ATOM     16  C   UNL     1       0.269 -11.023   2.344  1.00  0.00     0.064 A 
ATOM     17  Cl  UNL     1       0.825 -12.192   3.497  1.00  0.00    -0.082 Cl
ATOM     18  C   UNL     1      -0.908 -11.352   1.672  1.00  0.00     0.023 A 
ATOM     19  C   UNL     1      -0.843  -9.249   0.515  1.00  0.00     0.007 A 
ATOM     20  C   UNL     1      -1.467 -10.461   0.770  1.00  0.00     0.002 A 
BRANCH  15  21
ATOM     21  N   UNL     1       1.959  -9.358   2.956  1.00  0.00    -0.367 N 
ATOM     22  C   UNL     1       5.878  -9.411   6.136  1.00  0.00     0.114 C 
ATOM     23  C   UNL     1       4.492  -8.832   6.205  1.00  0.00     0.219 C 
ATOM     24  O   UNL     1       4.234  -7.947   7.021  1.00  0.00    -0.275 OA
ATOM     25  N   UNL     1       3.562  -9.311   5.307  1.00  0.00    -0.339 N 
ATOM     26  C   UNL     1       2.207  -8.761   5.335  1.00  0.00     0.141 C 
ATOM     27  C   UNL     1       3.759 -10.399   4.333  1.00  0.00     0.141 C 
ATOM     28  C   UNL     1       1.785  -8.293   3.947  1.00  0.00     0.138 C 
ATOM     29  C   UNL     1       3.259 -10.038   2.913  1.00  0.00     0.138 C 
ENDBRANCH  15  21
ENDBRANCH   9  14
ENDBRANCH   6   8
ENDBRANCH   5   6
ENDBRANCH   4   5
ENDBRANCH   3   4
ENDBRANCH   2   3
ENDBRANCH   1   2
BRANCH   1  30
ATOM     30  C   UNL     1      -2.906  -5.205  -2.458  1.00  0.00     0.188 C 
BRANCH  30  31
ATOM     31  O   UNL     1      -3.966  -4.366  -2.860  1.00  0.00    -0.376 OA
BRANCH  31  32
ATOM     32  C   UNL     1      -4.055  -4.066  -4.231  1.00  0.00     0.202 C 
BRANCH  32  33
ATOM     33  C   UNL     1      -4.330  -5.239  -5.185  1.00  0.00     0.261 C 
BRANCH  33  34
ATOM     34  O   UNL     1      -3.779  -6.526  -4.840  1.00  0.00    -0.460 OA
BRANCH  34  35
ATOM     35  C   UNL     1      -2.533  -6.812  -5.278  1.00  0.00     0.338 C 
ATOM     36  O   UNL     1      -1.776  -6.046  -5.864  1.00  0.00    -0.246 OA
BRANCH  35  37
ATOM     37  C   UNL     1      -2.149  -8.174  -4.836  1.00  0.00     0.060 A 
ATOM     38  C   UNL     1      -1.036  -8.350  -4.001  1.00  0.00     0.016 A 
ATOM     39  C   UNL     1      -2.854  -9.290  -5.297  1.00  0.00     0.016 A 
ATOM     40  C   UNL     1      -0.611  -9.642  -3.655  1.00  0.00     0.010 A 
ATOM     41  C   UNL     1      -2.413 -10.579  -4.969  1.00  0.00     0.010 A 
ATOM     42  C   UNL     1      -1.272 -10.769  -4.169  1.00  0.00    -0.014 A 
BRANCH  42  43
ATOM     43  C   UNL     1      -0.709 -12.137  -3.988  1.00  0.00     0.031 A 
ATOM     44  C   UNL     1       0.172 -12.718  -5.057  1.00  0.00     0.074 A 
ATOM     45  C   UNL     1      -1.010 -12.892  -2.915  1.00  0.00     0.049 A 
ATOM     46  N   UNL     1       0.706 -13.911  -5.128  1.00  0.00    -0.248 NA
ATOM     47  C   UNL     1       0.452 -11.857  -6.215  1.00  0.00     0.031 C 
ATOM     48  C   UNL     1      -1.904 -12.480  -1.846  1.00  0.00     0.029 A 
ATOM     49  N   UNL     1      -0.602 -14.152  -2.544  1.00  0.00    -0.354 N 
ATOM     50  C   UNL     1       1.343 -13.964  -6.360  1.00  0.00     0.074 A 
ATOM     51  C   UNL     1       1.137 -12.680  -6.997  1.00  0.00     0.031 C 
ATOM     52  C   UNL     1      -1.930 -13.438  -0.903  1.00  0.00     0.029 A 
ATOM     53  C   UNL     1      -1.088 -14.554  -1.320  1.00  0.00     0.049 A 
ATOM     54  H   UNL     1      -0.017 -14.715  -3.101  1.00  0.00     0.167 HD
ATOM     55  C   UNL     1       2.014 -14.998  -6.920  1.00  0.00     0.031 A 
ATOM     56  C   UNL     1      -0.891 -15.690  -0.619  1.00  0.00     0.031 A 
ATOM     57  C   UNL     1       2.207 -16.282  -6.299  1.00  0.00     0.049 A 
ATOM     58  C   UNL     1      -0.103 -16.809  -1.253  1.00  0.00     0.074 A 
ATOM     59  C   UNL     1       2.885 -17.383  -6.796  1.00  0.00     0.029 A 
ATOM     60  N   UNL     1       1.721 -16.643  -5.052  1.00  0.00    -0.354 N 
ATOM     61  N   UNL     1       0.519 -16.833  -2.407  1.00  0.00    -0.248 NA
ATOM     62  C   UNL     1      -0.025 -18.074  -0.505  1.00  0.00     0.031 C 
ATOM     63  C   UNL     1       2.759 -18.428  -5.877  1.00  0.00     0.029 A 
ATOM     64  C   UNL     1       2.066 -17.956  -4.774  1.00  0.00     0.049 A 
ATOM     65  H   UNL     1       1.207 -16.055  -4.454  1.00  0.00     0.167 HD
ATOM     66  C   UNL     1       1.058 -18.108  -2.521  1.00  0.00     0.074 A 
ATOM     67  C   UNL     1       0.733 -18.815  -1.301  1.00  0.00     0.031 C 
ATOM     68  C   UNL     1       1.741 -18.653  -3.557  1.00  0.00     0.031 A 
BRANCH  55  69
ATOM     69  C   UNL     1       2.545 -14.801  -8.312  1.00  0.00    -0.014 A 
ATOM     70  C   UNL     1       3.640 -13.962  -8.568  1.00  0.00     0.009 A 
ATOM     71  C   UNL     1       1.963 -15.506  -9.378  1.00  0.00     0.009 A 
ATOM     72  C   UNL     1       4.123 -13.812  -9.869  1.00  0.00     0.001 A 
ATOM     73  C   UNL     1       2.467 -15.378 -10.672  1.00  0.00     0.001 A 
ATOM     74  C   UNL     1       3.541 -14.524 -10.918  1.00  0.00     0.000 A 
ENDBRANCH  55  69
BRANCH  56  75
ATOM     75  C   UNL     1      -1.463 -15.870   0.748  1.00  0.00    -0.014 A 
ATOM     76  C   UNL     1      -0.616 -16.064   1.854  1.00  0.00     0.009 A 
ATOM     77  C   UNL     1      -2.850 -15.915   0.956  1.00  0.00     0.009 A 
ATOM     78  C   UNL     1      -1.142 -16.338   3.119  1.00  0.00     0.001 A 
ATOM     79  C   UNL     1      -3.375 -16.143   2.231  1.00  0.00     0.001 A 
ATOM     80  C   UNL     1      -2.522 -16.371   3.308  1.00  0.00     0.000 A 
ENDBRANCH  56  75
BRANCH  68  81
ATOM     81  C   UNL     1       2.212 -20.074  -3.406  1.00  0.00    -0.014 A 
ATOM     82  C   UNL     1       1.310 -21.150  -3.418  1.00  0.00     0.009 A 
ATOM     83  C   UNL     1       3.585 -20.342  -3.292  1.00  0.00     0.009 A 
ATOM     84  C   UNL     1       1.772 -22.462  -3.283  1.00  0.00     0.001 A 
ATOM     85  C   UNL     1       4.047 -21.655  -3.189  1.00  0.00     0.001 A 
ATOM     86  C   UNL     1       3.140 -22.713  -3.174  1.00  0.00     0.000 A 
ENDBRANCH  68  81
ENDBRANCH  42  43
ENDBRANCH  35  37
ENDBRANCH  34  35
ENDBRANCH  33  34
ENDBRANCH  32  33
ENDBRANCH  31  32
ENDBRANCH  30  31
ENDBRANCH   1  30
TORSDOF 19
