REMARK SMILES CC(=O)NS(=O)(=O)c1ccc(-c2ccn(C(F)F)c(=O)c2)cc1C(=O)OCCOCCOCCOC(=O)c1ccc(-c2c3nc(c(-c4ccccc4)c4ccc([nH]4)c(-c4ccccc4)c4nc(c(-c5ccccc5)c5ccc2[nH]5)C=C4)C=C3)cc1
REMARK SMILES IDX 30 1 29 2 28 3 27 4 26 5 24 6 25 7 23 8 8 9 9 10 10 11 22 12
REMARK SMILES IDX 11 13 5 14 6 15 7 16 4 17 1 18 2 19 3 20 12 22 13 23 21 24
REMARK SMILES IDX 14 25 19 26 15 27 20 28 16 29 17 30 18 31 31 32 32 33 33 34
REMARK SMILES IDX 34 35 35 36 36 37 37 38 38 39 39 40 85 41 40 42 84 43 41 44
REMARK SMILES IDX 42 45 43 46 78 47 44 48 83 49 77 50 79 51 45 52 82 53 76 54
REMARK SMILES IDX 75 55 46 57 68 58 53 59 67 60 54 61 57 62 66 63 80 64 55 65
REMARK SMILES IDX 56 66 65 68 81 69 58 70 47 71 48 72 52 73 49 74 51 75 50 76
REMARK SMILES IDX 69 77 70 78 74 79 71 80 73 81 72 82 59 83 60 84 64 85 61 86
REMARK SMILES IDX 63 87 62 88
REMARK H PARENT 4 21 79 56 57 67
REMARK Flexibility Score: inf
ROOT
ATOM      1  C   UNL     1       0.923   6.114  -0.247  1.00  0.00     0.188 C 
ENDROOT
BRANCH   1   2
ATOM      2  O   UNL     1       1.174   6.832  -1.445  1.00  0.00    -0.376 OA
BRANCH   2   3
ATOM      3  C   UNL     1       2.529   6.881  -1.871  1.00  0.00     0.202 C 
BRANCH   3   4
ATOM      4  C   UNL     1       3.000   5.604  -2.572  1.00  0.00     0.261 C 
BRANCH   4   5
ATOM      5  O   UNL     1       2.861   4.418  -1.772  1.00  0.00    -0.460 OA
BRANCH   5   6
ATOM      6  C   UNL     1       3.801   4.175  -0.850  1.00  0.00     0.339 C 
ATOM      7  O   UNL     1       4.735   4.910  -0.574  1.00  0.00    -0.246 OA
BRANCH   6   8
ATOM      8  C   UNL     1       3.490   2.951  -0.063  1.00  0.00     0.081 A 
ATOM      9  C   UNL     1       3.114   1.704  -0.582  1.00  0.00     0.102 A 
ATOM     10  C   UNL     1       3.138   0.573   0.251  1.00  0.00     0.024 A 
ATOM     11  C   UNL     1       3.362   0.704   1.620  1.00  0.00     0.010 A 
ATOM     12  C   UNL     1       3.706   3.071   1.326  1.00  0.00     0.025 A 
ATOM     13  C   UNL     1       3.602   1.962   2.174  1.00  0.00    -0.017 A 
BRANCH   9  14
ATOM     14  S   UNL     1       2.474   1.521  -2.228  1.00  0.00     0.264 S 
ATOM     15  O   UNL     1       3.607   1.526  -3.123  1.00  0.00    -0.201 OA
ATOM     16  O   UNL     1       1.339   2.390  -2.394  1.00  0.00    -0.201 OA
BRANCH  14  17
ATOM     17  N   UNL     1       1.841  -0.036  -2.281  1.00  0.00    -0.249 N 
ATOM     18  C   UNL     1       0.026   0.007  -0.562  1.00  0.00     0.115 C 
ATOM     19  C   UNL     1       0.496  -0.325  -1.956  1.00  0.00     0.230 C 
ATOM     20  O   UNL     1      -0.167  -1.017  -2.717  1.00  0.00    -0.274 OA
ATOM     21  H   UNL     1       2.432  -0.777  -2.549  1.00  0.00     0.183 HD
ENDBRANCH  14  17
ENDBRANCH   9  14
BRANCH  13  22
ATOM     22  C   UNL     1       3.760   2.110   3.630  1.00  0.00    -0.011 A 
ATOM     23  C   UNL     1       2.761   2.736   4.475  1.00  0.00     0.027 A 
ATOM     24  C   UNL     1       4.883   1.627   4.188  1.00  0.00     0.080 A 
ATOM     25  C   UNL     1       2.963   2.848   5.794  1.00  0.00     0.095 A 
ATOM     26  C   UNL     1       5.117   1.735   5.653  1.00  0.00     0.255 A 
ATOM     27  N   UNL     1       4.118   2.363   6.380  1.00  0.00    -0.258 N 
ATOM     28  O   UNL     1       6.156   1.271   6.111  1.00  0.00    -0.269 OA
BRANCH  27  29
ATOM     29  C   UNL     1       4.336   2.503   7.797  1.00  0.00     0.451 C 
ATOM     30  F   UNL     1       4.502   1.292   8.385  1.00  0.00    -0.185 F 
ATOM     31  F   UNL     1       5.444   3.243   8.046  1.00  0.00    -0.185 F 
ENDBRANCH  27  29
ENDBRANCH  13  22
ENDBRANCH   6   8
ENDBRANCH   5   6
ENDBRANCH   4   5
ENDBRANCH   3   4
ENDBRANCH   2   3
ENDBRANCH   1   2
BRANCH   1  32
ATOM     32  C   UNL     1       0.118   4.813  -0.430  1.00  0.00     0.188 C 
BRANCH  32  33
ATOM     33  O   UNL     1      -0.803   4.623  -1.494  1.00  0.00    -0.376 OA
BRANCH  33  34
ATOM     34  C   UNL     1      -1.395   5.733  -2.144  1.00  0.00     0.202 C 
BRANCH  34  35
ATOM     35  C   UNL     1      -2.487   6.468  -1.366  1.00  0.00     0.261 C 
BRANCH  35  36
ATOM     36  O   UNL     1      -2.112   6.806  -0.023  1.00  0.00    -0.460 OA
BRANCH  36  37
ATOM     37  C   UNL     1      -2.624   5.991   0.929  1.00  0.00     0.338 C 
ATOM     38  O   UNL     1      -3.395   5.058   0.779  1.00  0.00    -0.246 OA
BRANCH  37  39
ATOM     39  C   UNL     1      -1.989   6.283   2.229  1.00  0.00     0.060 A 
ATOM     40  C   UNL     1      -1.492   5.198   2.964  1.00  0.00     0.016 A 
ATOM     41  C   UNL     1      -1.935   7.578   2.750  1.00  0.00     0.016 A 
ATOM     42  C   UNL     1      -0.973   5.398   4.239  1.00  0.00     0.010 A 
ATOM     43  C   UNL     1      -1.437   7.775   4.042  1.00  0.00     0.010 A 
ATOM     44  C   UNL     1      -0.987   6.680   4.801  1.00  0.00    -0.014 A 
BRANCH  44  45
ATOM     45  C   UNL     1      -0.721   6.822   6.250  1.00  0.00     0.031 A 
ATOM     46  C   UNL     1      -1.884   6.750   7.200  1.00  0.00     0.074 A 
ATOM     47  C   UNL     1       0.532   6.952   6.718  1.00  0.00     0.049 A 
ATOM     48  N   UNL     1      -1.891   6.812   8.506  1.00  0.00    -0.248 NA
ATOM     49  C   UNL     1      -3.215   6.570   6.595  1.00  0.00     0.031 C 
ATOM     50  C   UNL     1       1.745   6.990   5.904  1.00  0.00     0.029 A 
ATOM     51  N   UNL     1       0.984   7.080   8.007  1.00  0.00    -0.354 N 
ATOM     52  C   UNL     1      -3.222   6.674   8.880  1.00  0.00     0.074 A 
ATOM     53  C   UNL     1      -3.996   6.548   7.664  1.00  0.00     0.031 C 
ATOM     54  C   UNL     1       2.806   7.150   6.714  1.00  0.00     0.029 A 
ATOM     55  C   UNL     1       2.343   7.250   8.097  1.00  0.00     0.049 A 
ATOM     56  H   UNL     1       0.391   7.053   8.792  1.00  0.00     0.167 HD
ATOM     57  C   UNL     1      -3.755   6.648  10.123  1.00  0.00     0.031 A 
ATOM     58  C   UNL     1       3.118   7.482   9.174  1.00  0.00     0.031 A 
ATOM     59  C   UNL     1      -2.997   6.810  11.333  1.00  0.00     0.049 A 
ATOM     60  C   UNL     1       2.489   7.552  10.540  1.00  0.00     0.074 A 
ATOM     61  C   UNL     1      -3.446   6.798  12.641  1.00  0.00     0.029 A 
ATOM     62  N   UNL     1      -1.630   7.031  11.378  1.00  0.00    -0.354 N 
ATOM     63  N   UNL     1       1.235   7.381  10.882  1.00  0.00    -0.248 NA
ATOM     64  C   UNL     1       3.388   7.837  11.668  1.00  0.00     0.031 C 
ATOM     65  C   UNL     1      -2.355   7.060  13.478  1.00  0.00     0.029 A 
ATOM     66  C   UNL     1      -1.221   7.182  12.691  1.00  0.00     0.049 A 
ATOM     67  H   UNL     1      -1.038   7.074  10.593  1.00  0.00     0.167 HD
ATOM     68  C   UNL     1       1.198   7.513  12.265  1.00  0.00     0.074 A 
ATOM     69  C   UNL     1       2.557   7.763  12.699  1.00  0.00     0.031 C 
ATOM     70  C   UNL     1       0.136   7.429  13.104  1.00  0.00     0.031 A 
BRANCH  57  71
ATOM     71  C   UNL     1      -5.242   6.472  10.226  1.00  0.00    -0.014 A 
ATOM     72  C   UNL     1      -5.844   5.228   9.977  1.00  0.00     0.009 A 
ATOM     73  C   UNL     1      -6.050   7.560  10.587  1.00  0.00     0.009 A 
ATOM     74  C   UNL     1      -7.231   5.087  10.058  1.00  0.00     0.001 A 
ATOM     75  C   UNL     1      -7.434   7.410  10.690  1.00  0.00     0.001 A 
ATOM     76  C   UNL     1      -8.024   6.176  10.418  1.00  0.00     0.000 A 
ENDBRANCH  57  71
BRANCH  58  77
ATOM     77  C   UNL     1       4.578   7.692   9.008  1.00  0.00    -0.014 A 
ATOM     78  C   UNL     1       5.495   6.723   9.442  1.00  0.00     0.009 A 
ATOM     79  C   UNL     1       5.062   8.880   8.438  1.00  0.00     0.009 A 
ATOM     80  C   UNL     1       6.868   6.951   9.330  1.00  0.00     0.001 A 
ATOM     81  C   UNL     1       6.435   9.094   8.306  1.00  0.00     0.001 A 
ATOM     82  C   UNL     1       7.337   8.134   8.760  1.00  0.00     0.000 A 
ENDBRANCH  58  77
BRANCH  70  83
ATOM     83  C   UNL     1       0.406   7.569  14.575  1.00  0.00    -0.014 A 
ATOM     84  C   UNL     1       0.701   8.815  15.147  1.00  0.00     0.009 A 
ATOM     85  C   UNL     1       0.321   6.440  15.405  1.00  0.00     0.009 A 
ATOM     86  C   UNL     1       0.935   8.922  16.520  1.00  0.00     0.001 A 
ATOM     87  C   UNL     1       0.530   6.555  16.780  1.00  0.00     0.001 A 
ATOM     88  C   UNL     1       0.846   7.794  17.335  1.00  0.00     0.000 A 
ENDBRANCH  70  83
ENDBRANCH  44  45
ENDBRANCH  37  39
ENDBRANCH  36  37
ENDBRANCH  35  36
ENDBRANCH  34  35
ENDBRANCH  33  34
ENDBRANCH  32  33
ENDBRANCH   1  32
TORSDOF 21
