REMARK SMILES O=C(OCCOCCOCCOC(=O)c1cc2n[nH]cc2cc1[N+](=O)[O-])c1ccc(-c2c3nc(c(-c4ccccc4)c4ccc([nH]4)c(-c4ccccc4)c4nc(c(-c5ccccc5)c5ccc2[nH]5)C=C4)C=C3)cc1
REMARK SMILES IDX 7 1 6 2 5 3 4 4 3 5 2 6 1 7 27 8 28 9 74 10 29 11 73 12
REMARK SMILES IDX 30 13 31 14 32 15 67 16 33 17 72 18 66 19 68 20 34 21 71 22
REMARK SMILES IDX 65 23 64 24 35 26 57 27 42 28 56 29 43 30 46 31 55 32 69 33
REMARK SMILES IDX 44 34 45 35 54 37 70 38 47 39 36 40 37 41 41 42 38 43 40 44
REMARK SMILES IDX 39 45 58 46 59 47 63 48 60 49 62 50 61 51 48 52 49 53 53 54
REMARK SMILES IDX 50 55 52 56 51 57 8 58 9 59 10 60 11 61 12 62 13 63 14 64
REMARK SMILES IDX 15 65 16 66 23 67 17 68 22 69 18 70 21 71 19 72 20 73 24 75
REMARK SMILES IDX 25 76 26 77
REMARK H PARENT 68 25 46 36 19 74
REMARK Flexibility Score: inf
ROOT
ATOM      1  C   UNL     1       2.528   1.132   1.900  1.00  0.00     0.188 C 
ENDROOT
BRANCH   1   2
ATOM      2  O   UNL     1       3.807   0.563   1.585  1.00  0.00    -0.376 OA
BRANCH   2   3
ATOM      3  C   UNL     1       4.666   1.456   0.868  1.00  0.00     0.202 C 
BRANCH   3   4
ATOM      4  C   UNL     1       4.486   1.417  -0.655  1.00  0.00     0.261 C 
BRANCH   4   5
ATOM      5  O   UNL     1       3.121   1.178  -1.034  1.00  0.00    -0.460 OA
BRANCH   5   6
ATOM      6  C   UNL     1       2.535  -0.004  -1.353  1.00  0.00     0.338 C 
ATOM      7  O   UNL     1       1.358   0.006  -1.710  1.00  0.00    -0.246 OA
BRANCH   6   8
ATOM      8  C   UNL     1       3.250  -1.320  -1.346  1.00  0.00     0.060 A 
ATOM      9  C   UNL     1       4.372  -1.626  -0.575  1.00  0.00     0.016 A 
ATOM     10  C   UNL     1       2.711  -2.344  -2.146  1.00  0.00     0.016 A 
ATOM     11  C   UNL     1       5.019  -2.852  -0.688  1.00  0.00     0.010 A 
ATOM     12  C   UNL     1       3.316  -3.605  -2.215  1.00  0.00     0.010 A 
ATOM     13  C   UNL     1       4.501  -3.849  -1.513  1.00  0.00    -0.014 A 
BRANCH  13  14
ATOM     14  C   UNL     1       5.270  -5.099  -1.685  1.00  0.00     0.031 A 
ATOM     15  C   UNL     1       6.009  -5.329  -2.967  1.00  0.00     0.074 A 
ATOM     16  C   UNL     1       5.412  -5.954  -0.655  1.00  0.00     0.049 A 
ATOM     17  N   UNL     1       6.743  -6.351  -3.322  1.00  0.00    -0.248 NA
ATOM     18  C   UNL     1       5.938  -4.255  -3.972  1.00  0.00     0.031 C 
ATOM     19  C   UNL     1       4.857  -5.756   0.683  1.00  0.00     0.029 A 
ATOM     20  N   UNL     1       6.092  -7.140  -0.562  1.00  0.00    -0.354 N 
ATOM     21  C   UNL     1       7.222  -6.043  -4.587  1.00  0.00     0.074 A 
ATOM     22  C   UNL     1       6.678  -4.753  -4.951  1.00  0.00     0.031 C 
ATOM     23  C   UNL     1       5.231  -6.780   1.464  1.00  0.00     0.029 A 
ATOM     24  C   UNL     1       5.978  -7.739   0.667  1.00  0.00     0.049 A 
ATOM     25  H   UNL     1       6.611  -7.525  -1.305  1.00  0.00     0.167 HD
ATOM     26  C   UNL     1       8.048  -6.772  -5.372  1.00  0.00     0.031 A 
ATOM     27  C   UNL     1       6.394  -8.943   1.100  1.00  0.00     0.031 A 
ATOM     28  C   UNL     1       8.569  -8.060  -5.008  1.00  0.00     0.049 A 
ATOM     29  C   UNL     1       7.178  -9.802   0.156  1.00  0.00     0.074 A 
ATOM     30  C   UNL     1       9.371  -8.909  -5.749  1.00  0.00     0.029 A 
ATOM     31  N   UNL     1       8.333  -8.686  -3.793  1.00  0.00    -0.354 N 
ATOM     32  N   UNL     1       7.579  -9.525  -1.061  1.00  0.00    -0.248 NA
ATOM     33  C   UNL     1       7.569 -11.132   0.639  1.00  0.00     0.031 C 
ATOM     34  C   UNL     1       9.581 -10.071  -4.997  1.00  0.00     0.029 A 
ATOM     35  C   UNL     1       8.950  -9.924  -3.772  1.00  0.00     0.049 A 
ATOM     36  H   UNL     1       7.805  -8.305  -3.054  1.00  0.00     0.167 HD
ATOM     37  C   UNL     1       8.293 -10.635  -1.483  1.00  0.00     0.074 A 
ATOM     38  C   UNL     1       8.276 -11.585  -0.387  1.00  0.00     0.031 C 
ATOM     39  C   UNL     1       8.910 -10.849  -2.670  1.00  0.00     0.031 A 
BRANCH  26  40
ATOM     40  C   UNL     1       8.376  -6.205  -6.721  1.00  0.00    -0.014 A 
ATOM     41  C   UNL     1       9.282  -5.143  -6.867  1.00  0.00     0.009 A 
ATOM     42  C   UNL     1       7.753  -6.732  -7.862  1.00  0.00     0.009 A 
ATOM     43  C   UNL     1       9.535  -4.601  -8.129  1.00  0.00     0.001 A 
ATOM     44  C   UNL     1       8.023  -6.201  -9.124  1.00  0.00     0.001 A 
ATOM     45  C   UNL     1       8.906  -5.131  -9.255  1.00  0.00     0.000 A 
ENDBRANCH  26  40
BRANCH  27  46
ATOM     46  C   UNL     1       6.014  -9.426   2.454  1.00  0.00    -0.014 A 
ATOM     47  C   UNL     1       6.971  -9.596   3.463  1.00  0.00     0.009 A 
ATOM     48  C   UNL     1       4.671  -9.737   2.734  1.00  0.00     0.009 A 
ATOM     49  C   UNL     1       6.595 -10.088   4.717  1.00  0.00     0.001 A 
ATOM     50  C   UNL     1       4.295 -10.203   3.994  1.00  0.00     0.001 A 
ATOM     51  C   UNL     1       5.259 -10.387   4.982  1.00  0.00     0.000 A 
ENDBRANCH  27  46
BRANCH  39  52
ATOM     52  C   UNL     1       9.637 -12.150  -2.822  1.00  0.00    -0.014 A 
ATOM     53  C   UNL     1       8.938 -13.348  -3.028  1.00  0.00     0.009 A 
ATOM     54  C   UNL     1      11.039 -12.168  -2.784  1.00  0.00     0.009 A 
ATOM     55  C   UNL     1       9.633 -14.550  -3.164  1.00  0.00     0.001 A 
ATOM     56  C   UNL     1      11.731 -13.367  -2.947  1.00  0.00     0.001 A 
ATOM     57  C   UNL     1      11.028 -14.557  -3.128  1.00  0.00     0.000 A 
ENDBRANCH  39  52
ENDBRANCH  13  14
ENDBRANCH   6   8
ENDBRANCH   5   6
ENDBRANCH   4   5
ENDBRANCH   3   4
ENDBRANCH   2   3
ENDBRANCH   1   2
BRANCH   1  58
ATOM     58  C   UNL     1       2.008   0.611   3.243  1.00  0.00     0.188 C 
BRANCH  58  59
ATOM     59  O   UNL     1       2.689   1.113   4.394  1.00  0.00    -0.376 OA
BRANCH  59  60
ATOM     60  C   UNL     1       4.070   0.785   4.522  1.00  0.00     0.202 C 
BRANCH  60  61
ATOM     61  C   UNL     1       4.393  -0.649   4.951  1.00  0.00     0.261 C 
BRANCH  61  62
ATOM     62  O   UNL     1       3.868  -1.668   4.081  1.00  0.00    -0.459 OA
BRANCH  62  63
ATOM     63  C   UNL     1       2.964  -2.482   4.661  1.00  0.00     0.345 C 
ATOM     64  O   UNL     1       2.434  -2.371   5.768  1.00  0.00    -0.246 OA
BRANCH  63  65
ATOM     65  C   UNL     1       2.696  -3.661   3.836  1.00  0.00     0.139 A 
ATOM     66  C   UNL     1       1.806  -3.495   2.744  1.00  0.00     0.053 A 
ATOM     67  C   UNL     1       3.152  -4.944   4.299  1.00  0.00     0.284 A 
ATOM     68  C   UNL     1       1.389  -4.709   2.174  1.00  0.00     0.093 A 
ATOM     69  C   UNL     1       2.715  -6.181   3.761  1.00  0.00     0.098 A 
ATOM     70  N   UNL     1       0.565  -4.941   1.142  1.00  0.00    -0.176 NA
ATOM     71  C   UNL     1       1.842  -5.971   2.703  1.00  0.00     0.026 A 
ATOM     72  N   UNL     1       0.515  -6.283   1.027  1.00  0.00    -0.285 N 
ATOM     73  C   UNL     1       1.268  -6.954   1.948  1.00  0.00     0.114 A 
ATOM     74  H   UNL     1      -0.019  -6.741   0.338  1.00  0.00     0.189 HD
BRANCH  67  75
ATOM     75  N   UNL     1       4.188  -5.014   5.338  1.00  0.00     0.063 N 
ATOM     76  O   UNL     1       4.209  -6.028   6.050  1.00  0.00    -0.258 OA
ATOM     77  O   UNL     1       5.029  -4.108   5.380  1.00  0.00    -0.258 OA
ENDBRANCH  67  75
ENDBRANCH  63  65
ENDBRANCH  62  63
ENDBRANCH  61  62
ENDBRANCH  60  61
ENDBRANCH  59  60
ENDBRANCH  58  59
ENDBRANCH   1  58
TORSDOF 18
