REMARK SMILES Cc1[nH]c2ccccc2c1[C@H](C(=O)OCCOCCOCCOC(=O)c1ccc(-c2c3nc(c(-c4ccccc4)c4ccc([nH]4)c(-c4ccccc4)c4nc(c(-c5ccccc5)c5ccc2[nH]5)C=C4)C=C3)cc1)[NH+]1CCN(C(=O)c2ccco2)CC1
REMARK SMILES IDX 18 1 17 2 16 3 15 4 14 5 12 6 13 7 11 8 10 9 1 10 2 11 3 12
REMARK SMILES IDX 4 13 9 15 5 16 8 17 6 18 7 19 74 20 75 21 86 22 76 24 85 25
REMARK SMILES IDX 77 26 78 27 79 28 80 29 81 30 84 31 82 32 83 33 19 34 20 35
REMARK SMILES IDX 21 36 22 37 23 38 24 39 25 40 26 41 27 42 73 43 28 44 72 45
REMARK SMILES IDX 29 46 30 47 31 48 66 49 32 50 71 51 65 52 67 53 33 54 70 55
REMARK SMILES IDX 64 56 63 57 34 59 56 60 41 61 55 62 42 63 45 64 54 65 68 66
REMARK SMILES IDX 43 67 44 68 53 70 69 71 46 72 35 73 36 74 40 75 37 76 39 77
REMARK SMILES IDX 38 78 57 79 58 80 62 81 59 82 61 83 60 84 47 85 48 86 52 87
REMARK SMILES IDX 49 88 51 89 50 90
REMARK H PARENT 3 14 74 23 67 58 45 69
REMARK Flexibility Score: inf
ROOT
ATOM      1  C   UNL     1      -0.922   1.353  -1.398  1.00  0.00     0.188 C 
ENDROOT
BRANCH   1   2
ATOM      2  O   UNL     1       0.433   1.716  -1.197  1.00  0.00    -0.376 OA
BRANCH   2   3
ATOM      3  C   UNL     1       1.446   0.726  -1.103  1.00  0.00     0.202 C 
BRANCH   3   4
ATOM      4  C   UNL     1       1.412  -0.174   0.127  1.00  0.00     0.261 C 
BRANCH   4   5
ATOM      5  O   UNL     1       0.747  -1.427  -0.135  1.00  0.00    -0.459 OA
BRANCH   5   6
ATOM      6  C   UNL     1      -0.522  -1.565   0.310  1.00  0.00     0.370 C 
ATOM      7  O   UNL     1      -1.149  -0.669   0.872  1.00  0.00    -0.245 OA
BRANCH   6   8
ATOM      8  C   UNL     1      -1.084  -2.980   0.206  1.00  0.00     0.328 C 
BRANCH   8   9
ATOM      9  C   UNL     1      -0.762  -3.863  -1.028  1.00  0.00     0.049 A 
ATOM     10  C   UNL     1       0.751  -2.498  -2.770  1.00  0.00     0.065 C 
ATOM     11  C   UNL     1      -0.060  -3.607  -2.215  1.00  0.00     0.022 A 
ATOM     12  N   UNL     1      -0.210  -4.680  -3.055  1.00  0.00    -0.358 N 
ATOM     13  C   UNL     1      -0.933  -5.671  -2.471  1.00  0.00     0.046 A 
ATOM     14  H   UNL     1       0.159  -4.726  -3.966  1.00  0.00     0.166 HD
ATOM     15  C   UNL     1      -1.313  -5.207  -1.215  1.00  0.00     0.009 A 
ATOM     16  C   UNL     1      -1.272  -6.926  -2.987  1.00  0.00     0.027 A 
ATOM     17  C   UNL     1      -2.116  -6.071  -0.436  1.00  0.00     0.011 A 
ATOM     18  C   UNL     1      -2.035  -7.765  -2.181  1.00  0.00     0.002 A 
ATOM     19  C   UNL     1      -2.456  -7.343  -0.923  1.00  0.00     0.001 A 
ENDBRANCH   8   9
BRANCH   8  20
ATOM     20  N   UNL     1      -0.930  -3.718   1.497  1.00  0.00    -0.316 N 
ATOM     21  C   UNL     1       0.443  -3.951   1.950  1.00  0.00     0.285 C 
ATOM     22  C   UNL     1      -1.726  -3.178   2.614  1.00  0.00     0.285 C 
ATOM     23  H   UNL     1      -1.312  -4.626   1.234  1.00  0.00     0.349 HD
ATOM     24  C   UNL     1       1.145  -2.793   2.678  1.00  0.00     0.181 C 
ATOM     25  C   UNL     1      -1.132  -2.047   3.491  1.00  0.00     0.181 C 
ATOM     26  N   UNL     1       0.329  -1.951   3.555  1.00  0.00    -0.325 N 
ATOM     27  C   UNL     1       0.995  -0.841   4.126  1.00  0.00     0.289 C 
ATOM     28  O   UNL     1       2.151  -0.586   3.776  1.00  0.00    -0.265 OA
BRANCH  27  29
ATOM     29  C   UNL     1       0.324  -0.025   5.131  1.00  0.00     0.191 A 
ATOM     30  C   UNL     1      -0.546  -0.304   6.172  1.00  0.00     0.056 A 
ATOM     31  O   UNL     1       0.659   1.308   5.191  1.00  0.00    -0.459 OA
ATOM     32  C   UNL     1      -0.757   0.906   6.880  1.00  0.00     0.043 A 
ATOM     33  C   UNL     1       0.000   1.857   6.242  1.00  0.00     0.196 A 
ENDBRANCH  27  29
ENDBRANCH   8  20
ENDBRANCH   6   8
ENDBRANCH   5   6
ENDBRANCH   4   5
ENDBRANCH   3   4
ENDBRANCH   2   3
ENDBRANCH   1   2
BRANCH   1  34
ATOM     34  C   UNL     1      -1.319   0.339  -2.485  1.00  0.00     0.188 C 
BRANCH  34  35
ATOM     35  O   UNL     1      -0.614   0.248  -3.718  1.00  0.00    -0.376 OA
BRANCH  35  36
ATOM     36  C   UNL     1       0.083   1.374  -4.225  1.00  0.00     0.202 C 
BRANCH  36  37
ATOM     37  C   UNL     1      -0.750   2.497  -4.838  1.00  0.00     0.261 C 
BRANCH  37  38
ATOM     38  O   UNL     1      -1.732   3.018  -3.937  1.00  0.00    -0.460 OA
BRANCH  38  39
ATOM     39  C   UNL     1      -2.977   2.517  -4.112  1.00  0.00     0.338 C 
ATOM     40  O   UNL     1      -3.351   1.737  -4.966  1.00  0.00    -0.246 OA
BRANCH  39  41
ATOM     41  C   UNL     1      -3.835   2.946  -2.990  1.00  0.00     0.060 A 
ATOM     42  C   UNL     1      -4.688   1.993  -2.418  1.00  0.00     0.016 A 
ATOM     43  C   UNL     1      -3.847   4.272  -2.553  1.00  0.00     0.016 A 
ATOM     44  C   UNL     1      -5.621   2.382  -1.466  1.00  0.00     0.010 A 
ATOM     45  C   UNL     1      -4.792   4.666  -1.607  1.00  0.00     0.010 A 
ATOM     46  C   UNL     1      -5.718   3.733  -1.113  1.00  0.00    -0.014 A 
BRANCH  46  47
ATOM     47  C   UNL     1      -6.939   4.202  -0.427  1.00  0.00     0.031 A 
ATOM     48  C   UNL     1      -8.030   4.808  -1.265  1.00  0.00     0.074 A 
ATOM     49  C   UNL     1      -7.088   4.043   0.897  1.00  0.00     0.049 A 
ATOM     50  N   UNL     1      -9.181   5.307  -0.896  1.00  0.00    -0.248 NA
ATOM     51  C   UNL     1      -7.789   4.861  -2.718  1.00  0.00     0.031 C 
ATOM     52  C   UNL     1      -6.115   3.415   1.790  1.00  0.00     0.029 A 
ATOM     53  N   UNL     1      -8.124   4.400   1.718  1.00  0.00    -0.354 N 
ATOM     54  C   UNL     1      -9.792   5.742  -2.066  1.00  0.00     0.074 A 
ATOM     55  C   UNL     1      -8.875   5.482  -3.152  1.00  0.00     0.031 C 
ATOM     56  C   UNL     1      -6.603   3.434   3.042  1.00  0.00     0.029 A 
ATOM     57  C   UNL     1      -7.900   4.106   3.039  1.00  0.00     0.049 A 
ATOM     58  H   UNL     1      -8.949   4.827   1.392  1.00  0.00     0.167 HD
ATOM     59  C   UNL     1     -11.014   6.304  -2.222  1.00  0.00     0.031 A 
ATOM     60  C   UNL     1      -8.655   4.371   4.121  1.00  0.00     0.031 A 
ATOM     61  C   UNL     1     -11.911   6.573  -1.130  1.00  0.00     0.049 A 
ATOM     62  C   UNL     1      -9.975   5.070   3.931  1.00  0.00     0.074 A 
ATOM     63  C   UNL     1     -13.173   7.136  -1.168  1.00  0.00     0.029 A 
ATOM     64  N   UNL     1     -11.630   6.303   0.201  1.00  0.00    -0.354 N 
ATOM     65  N   UNL     1     -10.552   5.466   2.821  1.00  0.00    -0.248 NA
ATOM     66  C   UNL     1     -10.754   5.344   5.146  1.00  0.00     0.031 C 
ATOM     67  C   UNL     1     -13.630   7.264   0.148  1.00  0.00     0.029 A 
ATOM     68  C   UNL     1     -12.685   6.712   0.998  1.00  0.00     0.049 A 
ATOM     69  H   UNL     1     -10.803   5.881   0.530  1.00  0.00     0.167 HD
ATOM     70  C   UNL     1     -11.775   6.007   3.200  1.00  0.00     0.074 A 
ATOM     71  C   UNL     1     -11.861   5.867   4.640  1.00  0.00     0.031 C 
ATOM     72  C   UNL     1     -12.742   6.567   2.431  1.00  0.00     0.031 A 
BRANCH  59  73
ATOM     73  C   UNL     1     -11.422   6.702  -3.614  1.00  0.00    -0.014 A 
ATOM     74  C   UNL     1     -11.698   5.744  -4.603  1.00  0.00     0.009 A 
ATOM     75  C   UNL     1     -11.547   8.062  -3.937  1.00  0.00     0.009 A 
ATOM     76  C   UNL     1     -12.054   6.141  -5.895  1.00  0.00     0.001 A 
ATOM     77  C   UNL     1     -11.935   8.456  -5.219  1.00  0.00     0.001 A 
ATOM     78  C   UNL     1     -12.178   7.496  -6.200  1.00  0.00     0.000 A 
ENDBRANCH  59  73
BRANCH  60  79
ATOM     79  C   UNL     1      -8.177   3.990   5.476  1.00  0.00    -0.014 A 
ATOM     80  C   UNL     1      -8.837   2.999   6.218  1.00  0.00     0.009 A 
ATOM     81  C   UNL     1      -7.063   4.630   6.042  1.00  0.00     0.009 A 
ATOM     82  C   UNL     1      -8.409   2.678   7.509  1.00  0.00     0.001 A 
ATOM     83  C   UNL     1      -6.617   4.283   7.319  1.00  0.00     0.001 A 
ATOM     84  C   UNL     1      -7.297   3.316   8.056  1.00  0.00     0.000 A 
ENDBRANCH  60  79
BRANCH  72  85
ATOM     85  C   UNL     1     -13.991   7.026   3.134  1.00  0.00    -0.014 A 
ATOM     86  C   UNL     1     -13.985   8.130   4.000  1.00  0.00     0.009 A 
ATOM     87  C   UNL     1     -15.199   6.346   2.908  1.00  0.00     0.009 A 
ATOM     88  C   UNL     1     -15.151   8.510   4.667  1.00  0.00     0.001 A 
ATOM     89  C   UNL     1     -16.371   6.752   3.546  1.00  0.00     0.001 A 
ATOM     90  C   UNL     1     -16.343   7.824   4.437  1.00  0.00     0.000 A 
ENDBRANCH  72  85
ENDBRANCH  46  47
ENDBRANCH  39  41
ENDBRANCH  38  39
ENDBRANCH  37  38
ENDBRANCH  36  37
ENDBRANCH  35  36
ENDBRANCH  34  35
ENDBRANCH   1  34
TORSDOF 20
