REMARK SMILES O=C(CCC(=O)OCCOCCOCCOC(=O)c1ccc(-c2c3nc(c(-c4ccccc4)c4ccc([nH]4)c(-c4ccccc4)c4nc(c(-c5ccccc5)c5ccc2[nH]5)C=C4)C=C3)cc1)Nc1ccc(C(=O)N2CCOCC2)cc1
REMARK SMILES IDX 11 1 10 2 9 3 8 4 7 5 5 6 6 7 4 8 3 9 2 10 1 11 67 12 68 14
REMARK SMILES IDX 69 15 81 16 70 17 80 18 71 19 72 20 73 21 74 22 75 23 79 24
REMARK SMILES IDX 76 25 78 26 77 27 12 28 13 29 14 30 15 31 16 32 17 33 18 34
REMARK SMILES IDX 19 35 20 36 66 37 21 38 65 39 22 40 23 41 24 42 59 43 25 44
REMARK SMILES IDX 64 45 58 46 60 47 26 48 63 49 57 50 56 51 27 53 49 54 34 55
REMARK SMILES IDX 48 56 35 57 38 58 47 59 61 60 36 61 37 62 46 64 62 65 39 66
REMARK SMILES IDX 28 67 29 68 33 69 30 70 32 71 31 72 50 73 51 74 55 75 52 76
REMARK SMILES IDX 54 77 53 78 40 79 41 80 45 81 42 82 44 83 43 84
REMARK H PARENT 67 13 60 52 38 63
REMARK Flexibility Score: inf
ROOT
ATOM      1  C   UNL     1       6.912   0.472  -0.181  1.00  0.00     0.188 C 
ENDROOT
BRANCH   1   2
ATOM      2  O   UNL     1       7.666   0.955   0.925  1.00  0.00    -0.376 OA
BRANCH   2   3
ATOM      3  C   UNL     1       6.958   1.117   2.156  1.00  0.00     0.202 C 
BRANCH   3   4
ATOM      4  C   UNL     1       5.816   2.142   2.119  1.00  0.00     0.261 C 
BRANCH   4   5
ATOM      5  O   UNL     1       4.774   1.794   1.173  1.00  0.00    -0.463 OA
BRANCH   5   6
ATOM      6  C   UNL     1       4.350   2.798   0.358  1.00  0.00     0.306 C 
ATOM      7  O   UNL     1       4.723   3.962   0.449  1.00  0.00    -0.252 OA
BRANCH   6   8
ATOM      8  C   UNL     1       3.405   2.358  -0.747  1.00  0.00     0.132 C 
BRANCH   8   9
ATOM      9  C   UNL     1       2.967   0.904  -0.865  1.00  0.00     0.112 C 
BRANCH   9  10
ATOM     10  C   UNL     1       2.002   0.449   0.208  1.00  0.00     0.224 C 
ATOM     11  O   UNL     1       0.810   0.294  -0.038  1.00  0.00    -0.275 OA
ATOM     12  N   UNL     1       2.616   0.255   1.425  1.00  0.00    -0.326 N 
ATOM     13  H   UNL     1       3.574   0.474   1.476  1.00  0.00     0.169 HD
BRANCH  12  14
ATOM     14  C   UNL     1       2.021  -0.221   2.598  1.00  0.00     0.041 A 
ATOM     15  C   UNL     1       2.610   0.136   3.813  1.00  0.00     0.027 A 
ATOM     16  C   UNL     1       0.880  -1.013   2.590  1.00  0.00     0.027 A 
ATOM     17  C   UNL     1       2.015  -0.236   5.020  1.00  0.00     0.016 A 
ATOM     18  C   UNL     1       0.296  -1.399   3.795  1.00  0.00     0.016 A 
ATOM     19  C   UNL     1       0.844  -1.001   5.021  1.00  0.00     0.040 A 
BRANCH  19  20
ATOM     20  C   UNL     1       0.109  -1.171   6.310  1.00  0.00     0.254 C 
ATOM     21  O   UNL     1       0.428  -0.481   7.276  1.00  0.00    -0.269 OA
ATOM     22  N   UNL     1      -1.039  -1.937   6.301  1.00  0.00    -0.334 N 
ATOM     23  C   UNL     1      -1.104  -3.357   5.956  1.00  0.00     0.148 C 
ATOM     24  C   UNL     1      -2.249  -1.403   6.905  1.00  0.00     0.148 C 
ATOM     25  C   UNL     1      -2.373  -3.665   5.146  1.00  0.00     0.181 C 
ATOM     26  C   UNL     1      -3.422  -1.699   5.969  1.00  0.00     0.181 C 
ATOM     27  O   UNL     1      -3.552  -3.119   5.761  1.00  0.00    -0.378 OA
ENDBRANCH  19  20
ENDBRANCH  12  14
ENDBRANCH   9  10
ENDBRANCH   8   9
ENDBRANCH   6   8
ENDBRANCH   5   6
ENDBRANCH   4   5
ENDBRANCH   3   4
ENDBRANCH   2   3
ENDBRANCH   1   2
BRANCH   1  28
ATOM     28  C   UNL     1       6.331  -0.930  -0.010  1.00  0.00     0.188 C 
BRANCH  28  29
ATOM     29  O   UNL     1       5.567  -1.152   1.171  1.00  0.00    -0.376 OA
BRANCH  29  30
ATOM     30  C   UNL     1       5.099  -2.501   1.346  1.00  0.00     0.202 C 
BRANCH  30  31
ATOM     31  C   UNL     1       6.168  -3.620   1.304  1.00  0.00     0.261 C 
BRANCH  31  32
ATOM     32  O   UNL     1       6.891  -3.755   0.058  1.00  0.00    -0.460 OA
BRANCH  32  33
ATOM     33  C   UNL     1       6.174  -3.853  -1.085  1.00  0.00     0.338 C 
ATOM     34  O   UNL     1       4.983  -4.099  -1.173  1.00  0.00    -0.246 OA
BRANCH  33  35
ATOM     35  C   UNL     1       6.996  -3.317  -2.208  1.00  0.00     0.060 A 
ATOM     36  C   UNL     1       6.361  -2.503  -3.159  1.00  0.00     0.016 A 
ATOM     37  C   UNL     1       8.377  -3.524  -2.290  1.00  0.00     0.016 A 
ATOM     38  C   UNL     1       7.090  -1.929  -4.206  1.00  0.00     0.010 A 
ATOM     39  C   UNL     1       9.104  -2.964  -3.349  1.00  0.00     0.010 A 
ATOM     40  C   UNL     1       8.460  -2.188  -4.332  1.00  0.00    -0.014 A 
BRANCH  40  41
ATOM     41  C   UNL     1       9.170  -1.840  -5.591  1.00  0.00     0.031 A 
ATOM     42  C   UNL     1       9.326  -2.915  -6.636  1.00  0.00     0.074 A 
ATOM     43  C   UNL     1       9.658  -0.608  -5.830  1.00  0.00     0.049 A 
ATOM     44  N   UNL     1       9.944  -2.873  -7.789  1.00  0.00    -0.248 NA
ATOM     45  C   UNL     1       8.699  -4.213  -6.335  1.00  0.00     0.031 C 
ATOM     46  C   UNL     1       9.541   0.545  -4.940  1.00  0.00     0.029 A 
ATOM     47  N   UNL     1      10.365  -0.128  -6.909  1.00  0.00    -0.354 N 
ATOM     48  C   UNL     1       9.796  -4.141  -8.339  1.00  0.00     0.074 A 
ATOM     49  C   UNL     1       9.047  -4.933  -7.389  1.00  0.00     0.031 C 
ATOM     50  C   UNL     1      10.164   1.596  -5.504  1.00  0.00     0.029 A 
ATOM     51  C   UNL     1      10.755   1.183  -6.777  1.00  0.00     0.049 A 
ATOM     52  H   UNL     1      10.572  -0.673  -7.702  1.00  0.00     0.167 HD
ATOM     53  C   UNL     1      10.241  -4.609  -9.529  1.00  0.00     0.031 A 
ATOM     54  C   UNL     1      11.522   1.953  -7.577  1.00  0.00     0.031 A 
ATOM     55  C   UNL     1      10.989  -3.834 -10.480  1.00  0.00     0.049 A 
ATOM     56  C   UNL     1      12.077   1.381  -8.860  1.00  0.00     0.074 A 
ATOM     57  C   UNL     1      11.454  -4.220 -11.726  1.00  0.00     0.029 A 
ATOM     58  N   UNL     1      11.394  -2.524 -10.289  1.00  0.00    -0.354 N 
ATOM     59  N   UNL     1      11.893   0.195  -9.388  1.00  0.00    -0.248 NA
ATOM     60  C   UNL     1      12.945   2.261  -9.659  1.00  0.00     0.031 C 
ATOM     61  C   UNL     1      12.197  -3.164 -12.261  1.00  0.00     0.029 A 
ATOM     62  C   UNL     1      12.136  -2.098 -11.377  1.00  0.00     0.049 A 
ATOM     63  H   UNL     1      11.185  -1.978  -9.497  1.00  0.00     0.167 HD
ATOM     64  C   UNL     1      12.590   0.202 -10.592  1.00  0.00     0.074 A 
ATOM     65  C   UNL     1      13.190   1.511 -10.725  1.00  0.00     0.031 C 
ATOM     66  C   UNL     1      12.720  -0.790 -11.508  1.00  0.00     0.031 A 
BRANCH  53  67
ATOM     67  C   UNL     1       9.967  -6.050  -9.852  1.00  0.00    -0.014 A 
ATOM     68  C   UNL     1       8.679  -6.497 -10.182  1.00  0.00     0.009 A 
ATOM     69  C   UNL     1      11.031  -6.966  -9.869  1.00  0.00     0.009 A 
ATOM     70  C   UNL     1       8.457  -7.839 -10.495  1.00  0.00     0.001 A 
ATOM     71  C   UNL     1      10.812  -8.300 -10.210  1.00  0.00     0.001 A 
ATOM     72  C   UNL     1       9.524  -8.738 -10.515  1.00  0.00     0.000 A 
ENDBRANCH  53  67
BRANCH  54  73
ATOM     73  C   UNL     1      11.859   3.351  -7.187  1.00  0.00    -0.014 A 
ATOM     74  C   UNL     1      11.389   4.441  -7.937  1.00  0.00     0.009 A 
ATOM     75  C   UNL     1      12.713   3.598  -6.101  1.00  0.00     0.009 A 
ATOM     76  C   UNL     1      11.794   5.742  -7.629  1.00  0.00     0.001 A 
ATOM     77  C   UNL     1      13.090   4.903  -5.774  1.00  0.00     0.001 A 
ATOM     78  C   UNL     1      12.641   5.973  -6.546  1.00  0.00     0.000 A 
ENDBRANCH  54  73
BRANCH  66  79
ATOM     79  C   UNL     1      13.497  -0.490 -12.761  1.00  0.00    -0.014 A 
ATOM     80  C   UNL     1      14.893  -0.346 -12.743  1.00  0.00     0.009 A 
ATOM     81  C   UNL     1      12.822  -0.406 -13.990  1.00  0.00     0.009 A 
ATOM     82  C   UNL     1      15.592  -0.093 -13.926  1.00  0.00     0.001 A 
ATOM     83  C   UNL     1      13.527  -0.184 -15.174  1.00  0.00     0.001 A 
ATOM     84  C   UNL     1      14.910  -0.018 -15.140  1.00  0.00     0.000 A 
ENDBRANCH  66  79
ENDBRANCH  40  41
ENDBRANCH  33  35
ENDBRANCH  32  33
ENDBRANCH  31  32
ENDBRANCH  30  31
ENDBRANCH  29  30
ENDBRANCH  28  29
ENDBRANCH   1  28
TORSDOF 21
