REMARK SMILES Cc1cc(S(F)(F)(F)(F)F)cc2c1O[C@H](C(F)(F)F)C(C(=O)OCCOCCOCCOC(=O)c1ccc(-c3c4nc(c(-c5ccccc5)c5ccc([nH]5)c(-c5ccccc5)c5nc(c(-c6ccccc6)c6ccc3[nH]6)C=C5)C=C4)cc1)=C2
REMARK SMILES IDX 28 1 27 2 26 3 25 4 24 5 23 6 21 7 22 8 20 9 1 10 2 11 3 12
REMARK SMILES IDX 13 13 4 14 12 15 14 16 11 17 83 18 15 19 5 20 6 21 7 22 8 23
REMARK SMILES IDX 9 24 10 25 16 26 17 27 18 28 19 29 29 30 30 31 31 32 32 33
REMARK SMILES IDX 33 34 34 35 35 36 36 37 82 38 37 39 81 40 38 41 39 42 40 43
REMARK SMILES IDX 75 44 41 45 80 46 74 47 76 48 42 49 79 50 73 51 72 52 43 54
REMARK SMILES IDX 65 55 50 56 64 57 51 58 54 59 63 60 77 61 52 62 53 63 62 65
REMARK SMILES IDX 78 66 55 67 44 68 45 69 49 70 46 71 48 72 47 73 66 74 67 75
REMARK SMILES IDX 71 76 68 77 70 78 69 79 56 80 57 81 61 82 58 83 60 84 59 85
REMARK H PARENT 76 53 54 64
REMARK Flexibility Score: inf
ROOT
ATOM      1  C   UNL     1       1.348  -4.816   5.451  1.00  0.00     0.188 C 
ENDROOT
BRANCH   1   2
ATOM      2  C   UNL     1      -0.112  -4.748   5.870  1.00  0.00     0.188 C 
BRANCH   2   3
ATOM      3  O   UNL     1      -0.443  -5.906   6.622  1.00  0.00    -0.376 OA
BRANCH   3   4
ATOM      4  C   UNL     1      -0.232  -7.063   5.827  1.00  0.00     0.202 C 
BRANCH   4   5
ATOM      5  C   UNL     1      -1.112  -6.995   4.589  1.00  0.00     0.261 C 
BRANCH   5   6
ATOM      6  O   UNL     1      -0.781  -5.836   3.837  1.00  0.00    -0.460 OA
BRANCH   6   7
ATOM      7  C   UNL     1      -0.910  -4.549   4.422  1.00  0.00     0.338 C 
ATOM      8  O   UNL     1      -1.322  -4.433   5.619  1.00  0.00    -0.246 OA
BRANCH   7   9
ATOM      9  C   UNL     1      -0.556  -3.309   3.616  1.00  0.00     0.087 C 
ATOM     10  C   UNL     1       0.937  -0.047  -0.062  1.00  0.00     0.048 C 
ATOM     11  C   UNL     1       0.430   0.078   1.366  1.00  0.00    -0.007 A 
ATOM     12  C   UNL     1       0.300   1.319   1.950  1.00  0.00     0.031 A 
ATOM     13  C   UNL     1       0.106  -1.062   2.100  1.00  0.00     0.130 A 
ATOM     14  C   UNL     1      -0.146   1.443   3.260  1.00  0.00     0.108 A 
ATOM     15  C   UNL     1      -0.352  -0.931   3.430  1.00  0.00     0.019 A 
ATOM     16  O   UNL     1       0.224  -2.412   1.534  1.00  0.00    -0.475 OA
ATOM     17  C   UNL     1      -0.475   0.339   3.996  1.00  0.00     0.036 A 
ATOM     18  C   UNL     1      -0.684  -2.144   4.178  1.00  0.00     0.027 C 
ATOM     19  C   UNL     1      -0.107  -3.469   2.305  1.00  0.00     0.316 C 
BRANCH  14  20
ATOM     20  S   UNL     1      -0.292   3.087   4.001  1.00  0.00     0.310 S 
ATOM     21  F   UNL     1       1.081   2.842   4.757  1.00  0.00    -0.094 F 
ATOM     22  F   UNL     1      -1.015   2.475   5.260  1.00  0.00    -0.094 F 
ATOM     23  F   UNL     1      -0.320   4.505   4.640  1.00  0.00    -0.094 F 
ATOM     24  F   UNL     1       0.556   3.656   2.796  1.00  0.00    -0.094 F 
ATOM     25  F   UNL     1      -0.157   1.635   3.392  1.00  0.00    -0.094 F 
ENDBRANCH  14  20
BRANCH  19  26
ATOM     26  C   UNL     1      -1.344  -4.006   1.603  1.00  0.00     0.430 C 
ATOM     27  F   UNL     1      -1.050  -4.282   0.336  1.00  0.00    -0.167 F 
ATOM     28  F   UNL     1      -1.755  -5.113   2.214  1.00  0.00    -0.167 F 
ATOM     29  F   UNL     1      -2.309  -3.092   1.645  1.00  0.00    -0.167 F 
ENDBRANCH  19  26
ENDBRANCH   7   9
ENDBRANCH   6   7
ENDBRANCH   5   6
ENDBRANCH   4   5
ENDBRANCH   3   4
ENDBRANCH   2   3
ENDBRANCH   1   2
BRANCH   1  30
ATOM     30  O   UNL     1       1.558  -5.973   4.655  1.00  0.00    -0.376 OA
BRANCH  30  31
ATOM     31  C   UNL     1       1.228  -7.131   5.407  1.00  0.00     0.202 C 
BRANCH  31  32
ATOM     32  C   UNL     1       2.107  -7.200   6.645  1.00  0.00     0.261 C 
BRANCH  32  33
ATOM     33  O   UNL     1       1.897  -6.043   7.440  1.00  0.00    -0.460 OA
BRANCH  33  34
ATOM     34  C   UNL     1       2.160  -4.755   6.904  1.00  0.00     0.338 C 
ATOM     35  O   UNL     1       2.584  -4.638   5.711  1.00  0.00    -0.246 OA
BRANCH  34  36
ATOM     36  C   UNL     1       1.935  -3.516   7.755  1.00  0.00     0.060 A 
ATOM     37  C   UNL     1       1.170  -2.469   7.252  1.00  0.00     0.016 A 
ATOM     38  C   UNL     1       2.340  -3.450   9.005  1.00  0.00     0.016 A 
ATOM     39  C   UNL     1       0.468  -1.688   8.198  1.00  0.00     0.010 A 
ATOM     40  C   UNL     1       2.017  -2.348   9.805  1.00  0.00     0.010 A 
ATOM     41  C   UNL     1       1.103  -1.482   9.421  1.00  0.00    -0.014 A 
BRANCH  41  42
ATOM     42  C   UNL     1       0.748  -0.287  10.291  1.00  0.00     0.031 A 
ATOM     43  C   UNL     1       1.721   0.656  10.629  1.00  0.00     0.074 A 
ATOM     44  C   UNL     1      -0.600  -0.141  10.567  1.00  0.00     0.049 A 
ATOM     45  N   UNL     1       1.538   1.836  11.223  1.00  0.00    -0.248 NA
ATOM     46  C   UNL     1       3.158   0.487  10.367  1.00  0.00     0.031 C 
ATOM     47  C   UNL     1      -1.589  -1.083  10.222  1.00  0.00     0.029 A 
ATOM     48  N   UNL     1      -1.223   0.908  11.207  1.00  0.00    -0.354 N 
ATOM     49  C   UNL     1       2.706   2.467  11.364  1.00  0.00     0.074 A 
ATOM     50  C   UNL     1       3.765   1.606  10.821  1.00  0.00     0.031 C 
ATOM     51  C   UNL     1      -2.788  -0.616  10.658  1.00  0.00     0.029 A 
ATOM     52  C   UNL     1      -2.570   0.627  11.282  1.00  0.00     0.049 A 
ATOM     53  H   UNL     1      -0.782   1.718  11.552  1.00  0.00     0.167 HD
ATOM     54  C   UNL     1       2.928   3.727  11.921  1.00  0.00     0.031 A 
ATOM     55  C   UNL     1      -3.566   1.398  11.859  1.00  0.00     0.031 A 
ATOM     56  C   UNL     1       1.925   4.517  12.460  1.00  0.00     0.049 A 
ATOM     57  C   UNL     1      -3.336   2.633  12.470  1.00  0.00     0.074 A 
ATOM     58  C   UNL     1       2.131   5.793  13.019  1.00  0.00     0.029 A 
ATOM     59  N   UNL     1       0.582   4.226  12.556  1.00  0.00    -0.354 N 
ATOM     60  N   UNL     1      -2.174   3.281  12.575  1.00  0.00    -0.248 NA
ATOM     61  C   UNL     1      -4.378   3.443  13.113  1.00  0.00     0.031 C 
ATOM     62  C   UNL     1       0.931   6.261  13.455  1.00  0.00     0.029 A 
ATOM     63  C   UNL     1      -0.044   5.284  13.176  1.00  0.00     0.049 A 
ATOM     64  H   UNL     1       0.146   3.403  12.238  1.00  0.00     0.167 HD
ATOM     65  C   UNL     1      -2.352   4.443  13.206  1.00  0.00     0.074 A 
ATOM     66  C   UNL     1      -3.771   4.561  13.568  1.00  0.00     0.031 C 
ATOM     67  C   UNL     1      -1.388   5.412  13.492  1.00  0.00     0.031 A 
BRANCH  54  68
ATOM     68  C   UNL     1       4.351   4.263  11.939  1.00  0.00    -0.014 A 
ATOM     69  C   UNL     1       5.059   4.452  10.757  1.00  0.00     0.009 A 
ATOM     70  C   UNL     1       4.942   4.559  13.076  1.00  0.00     0.009 A 
ATOM     71  C   UNL     1       6.117   5.387  10.798  1.00  0.00     0.001 A 
ATOM     72  C   UNL     1       6.255   5.042  13.095  1.00  0.00     0.001 A 
ATOM     73  C   UNL     1       6.838   5.451  11.989  1.00  0.00     0.000 A 
ENDBRANCH  54  68
BRANCH  55  74
ATOM     74  C   UNL     1      -4.991   0.869  11.827  1.00  0.00    -0.014 A 
ATOM     75  C   UNL     1      -6.005   1.583  11.197  1.00  0.00     0.009 A 
ATOM     76  C   UNL     1      -5.295  -0.278  12.396  1.00  0.00     0.009 A 
ATOM     77  C   UNL     1      -7.128   0.840  10.769  1.00  0.00     0.001 A 
ATOM     78  C   UNL     1      -6.607  -0.762  12.376  1.00  0.00     0.001 A 
ATOM     79  C   UNL     1      -7.511  -0.224  11.583  1.00  0.00     0.000 A 
ENDBRANCH  55  74
BRANCH  67  80
ATOM     80  C   UNL     1      -1.840   6.683  14.192  1.00  0.00    -0.014 A 
ATOM     81  C   UNL     1      -2.311   6.693  15.500  1.00  0.00     0.009 A 
ATOM     82  C   UNL     1      -1.652   7.837  13.587  1.00  0.00     0.009 A 
ATOM     83  C   UNL     1      -2.079   7.870  16.246  1.00  0.00     0.001 A 
ATOM     84  C   UNL     1      -1.929   9.042  14.241  1.00  0.00     0.001 A 
ATOM     85  C   UNL     1      -2.138   9.070  15.540  1.00  0.00     0.000 A 
ENDBRANCH  67  80
ENDBRANCH  41  42
ENDBRANCH  34  36
ENDBRANCH  33  34
ENDBRANCH  32  33
ENDBRANCH  31  32
ENDBRANCH  30  31
ENDBRANCH   1  30
TORSDOF 19
