REMARK SMILES COc1ccc(-c2cnc(N)c(C(=O)OCCOCCOCCOC(=O)c3ccc(-c4c5nc(c(-c6ccccc6)c6ccc([nH]6)c(-c6ccccc6)c6nc(c(-c7ccccc7)c7ccc4[nH]7)C=C6)C=C5)cc3)c2)c(C)c1
REMARK SMILES IDX 19 1 18 2 17 3 16 4 15 5 13 6 14 7 12 8 7 9 8 10 75 11 9 12
REMARK SMILES IDX 10 13 6 14 3 15 4 16 78 17 5 18 76 19 77 20 2 21 1 22 11 23
REMARK SMILES IDX 20 26 21 27 22 28 23 29 24 30 25 31 26 32 27 33 28 34 74 35
REMARK SMILES IDX 29 36 73 37 30 38 31 39 32 40 67 41 33 42 72 43 66 44 68 45
REMARK SMILES IDX 34 46 71 47 65 48 64 49 35 51 57 52 42 53 56 54 43 55 46 56
REMARK SMILES IDX 55 57 69 58 44 59 45 60 54 62 70 63 47 64 36 65 37 66 41 67
REMARK SMILES IDX 38 68 40 69 39 70 58 71 59 72 63 73 60 74 62 75 61 76 48 77
REMARK SMILES IDX 49 78 53 79 50 80 52 81 51 82
REMARK H PARENT 11 24 11 25 68 50 46 61
REMARK Flexibility Score: inf
ROOT
ATOM      1  C   UNL     1      -1.909   0.710 -12.372  1.00  0.00     0.188 C 
ENDROOT
BRANCH   1   2
ATOM      2  O   UNL     1      -0.548   0.850 -12.842  1.00  0.00    -0.376 OA
BRANCH   2   3
ATOM      3  C   UNL     1       0.200  -0.190 -13.504  1.00  0.00     0.202 C 
BRANCH   3   4
ATOM      4  C   UNL     1       1.730  -0.569 -12.989  1.00  0.00     0.261 C 
BRANCH   4   5
ATOM      5  O   UNL     1       2.205  -1.423 -11.569  1.00  0.00    -0.460 OA
BRANCH   5   6
ATOM      6  C   UNL     1       2.850  -1.222 -10.302  1.00  0.00     0.342 C 
ATOM      7  O   UNL     1       3.688  -0.381  -9.993  1.00  0.00    -0.246 OA
BRANCH   6   8
ATOM      8  C   UNL     1       2.620  -2.056  -9.080  1.00  0.00     0.102 A 
ATOM      9  C   UNL     1       2.377  -2.141  -6.581  1.00  0.00     0.001 A 
ATOM     10  C   UNL     1       3.036  -3.360  -6.696  1.00  0.00     0.122 A 
ATOM     11  C   UNL     1       2.211  -1.474  -7.818  1.00  0.00     0.030 A 
ATOM     12  N   UNL     1       3.501  -3.914  -7.856  1.00  0.00    -0.238 NA
ATOM     13  C   UNL     1       3.314  -3.251  -9.021  1.00  0.00     0.138 A 
BRANCH   9  14
ATOM     14  C   UNL     1       1.919  -1.659  -5.229  1.00  0.00    -0.014 A 
ATOM     15  C   UNL     1       1.167  -1.101  -2.495  1.00  0.00     0.119 A 
ATOM     16  C   UNL     1       2.481  -0.937  -2.908  1.00  0.00     0.047 A 
ATOM     17  C   UNL     1       0.231  -1.516  -3.438  1.00  0.00     0.050 A 
ATOM     18  C   UNL     1       2.848  -1.216  -4.253  1.00  0.00     0.013 A 
ATOM     19  C   UNL     1       0.579  -1.777  -4.789  1.00  0.00    -0.040 A 
ATOM     20  C   UNL     1      -0.533  -2.287  -5.659  1.00  0.00     0.045 C 
BRANCH  15  21
ATOM     21  O   UNL     1       0.685  -0.992  -1.220  1.00  0.00    -0.497 OA
ATOM     22  C   UNL     1       1.299  -0.037  -0.364  1.00  0.00     0.278 C 
ENDBRANCH  15  21
ENDBRANCH   9  14
BRANCH  13  23
ATOM     23  N   UNL     1       4.022  -3.738 -10.100  1.00  0.00    -0.383 N 
ATOM     24  H   UNL     1       4.506  -4.592 -10.026  1.00  0.00     0.158 HD
ATOM     25  H   UNL     1       4.043  -3.232 -10.944  1.00  0.00     0.158 HD
ENDBRANCH  13  23
ENDBRANCH   6   8
ENDBRANCH   5   6
ENDBRANCH   4   5
ENDBRANCH   3   4
ENDBRANCH   2   3
ENDBRANCH   1   2
BRANCH   1  26
ATOM     26  C   UNL     1      -2.850  -0.390 -12.866  1.00  0.00     0.188 C 
BRANCH  26  27
ATOM     27  O   UNL     1      -2.177  -1.630 -12.796  1.00  0.00    -0.376 OA
BRANCH  27  28
ATOM     28  C   UNL     1      -2.912  -2.768 -13.204  1.00  0.00     0.202 C 
BRANCH  28  29
ATOM     29  C   UNL     1      -3.668  -3.396 -12.021  1.00  0.00     0.261 C 
BRANCH  29  30
ATOM     30  O   UNL     1      -2.778  -3.554 -10.886  1.00  0.00    -0.460 OA
BRANCH  30  31
ATOM     31  C   UNL     1      -2.978  -2.737  -9.802  1.00  0.00     0.338 C 
ATOM     32  O   UNL     1      -4.067  -2.517  -9.287  1.00  0.00    -0.246 OA
BRANCH  31  33
ATOM     33  C   UNL     1      -1.727  -1.961  -9.491  1.00  0.00     0.060 A 
ATOM     34  C   UNL     1      -1.639  -0.803  -8.705  1.00  0.00     0.016 A 
ATOM     35  C   UNL     1      -0.680  -2.164 -10.319  1.00  0.00     0.016 A 
ATOM     36  C   UNL     1      -0.585   0.201  -8.896  1.00  0.00     0.010 A 
ATOM     37  C   UNL     1       0.069  -1.026 -10.633  1.00  0.00     0.010 A 
ATOM     38  C   UNL     1       0.313   0.189  -9.974  1.00  0.00    -0.014 A 
BRANCH  38  39
ATOM     39  C   UNL     1       1.188   1.461 -10.538  1.00  0.00     0.031 A 
ATOM     40  C   UNL     1       2.783   1.748 -10.958  1.00  0.00     0.074 A 
ATOM     41  C   UNL     1       0.486   2.622 -10.609  1.00  0.00     0.049 A 
ATOM     42  N   UNL     1       3.478   2.800 -10.544  1.00  0.00    -0.248 NA
ATOM     43  C   UNL     1       3.701   0.996 -11.882  1.00  0.00     0.031 C 
ATOM     44  C   UNL     1       0.923   3.922 -11.115  1.00  0.00     0.029 A 
ATOM     45  N   UNL     1      -0.766   2.895 -10.046  1.00  0.00    -0.354 N 
ATOM     46  C   UNL     1       4.737   2.812 -11.177  1.00  0.00     0.074 A 
ATOM     47  C   UNL     1       4.849   1.634 -11.936  1.00  0.00     0.031 C 
ATOM     48  C   UNL     1       0.151   4.875 -10.568  1.00  0.00     0.029 A 
ATOM     49  C   UNL     1      -0.765   4.234  -9.643  1.00  0.00     0.049 A 
ATOM     50  H   UNL     1      -1.512   2.259  -9.952  1.00  0.00     0.167 HD
ATOM     51  C   UNL     1       5.653   3.816 -11.203  1.00  0.00     0.031 A 
ATOM     52  C   UNL     1      -1.005   4.575  -8.347  1.00  0.00     0.031 A 
ATOM     53  C   UNL     1       5.100   5.012 -10.658  1.00  0.00     0.049 A 
ATOM     54  C   UNL     1       0.156   5.297  -7.701  1.00  0.00     0.074 A 
ATOM     55  C   UNL     1       4.394   6.046 -11.241  1.00  0.00     0.029 A 
ATOM     56  N   UNL     1       4.852   5.046  -9.305  1.00  0.00    -0.354 N 
ATOM     57  N   UNL     1       1.301   5.522  -8.284  1.00  0.00    -0.248 NA
ATOM     58  C   UNL     1       0.144   5.763  -6.314  1.00  0.00     0.031 C 
ATOM     59  C   UNL     1       3.611   6.642 -10.220  1.00  0.00     0.029 A 
ATOM     60  C   UNL     1       3.914   6.016  -9.025  1.00  0.00     0.049 A 
ATOM     61  H   UNL     1       5.281   4.464  -8.637  1.00  0.00     0.167 HD
ATOM     62  C   UNL     1       2.187   6.023  -7.367  1.00  0.00     0.074 A 
ATOM     63  C   UNL     1       1.404   6.207  -6.164  1.00  0.00     0.031 C 
ATOM     64  C   UNL     1       3.509   6.196  -7.647  1.00  0.00     0.031 A 
BRANCH  51  65
ATOM     65  C   UNL     1       6.897   3.694 -12.062  1.00  0.00    -0.014 A 
ATOM     66  C   UNL     1       7.186   4.655 -13.040  1.00  0.00     0.009 A 
ATOM     67  C   UNL     1       7.738   2.556 -12.023  1.00  0.00     0.009 A 
ATOM     68  C   UNL     1       8.180   4.437 -14.009  1.00  0.00     0.001 A 
ATOM     69  C   UNL     1       8.698   2.313 -13.019  1.00  0.00     0.001 A 
ATOM     70  C   UNL     1       8.907   3.250 -14.024  1.00  0.00     0.000 A 
ENDBRANCH  51  65
BRANCH  52  71
ATOM     71  C   UNL     1      -1.996   3.695  -7.654  1.00  0.00    -0.014 A 
ATOM     72  C   UNL     1      -3.292   3.598  -8.211  1.00  0.00     0.009 A 
ATOM     73  C   UNL     1      -1.635   2.761  -6.673  1.00  0.00     0.009 A 
ATOM     74  C   UNL     1      -4.151   2.542  -7.889  1.00  0.00     0.001 A 
ATOM     75  C   UNL     1      -2.508   1.712  -6.336  1.00  0.00     0.001 A 
ATOM     76  C   UNL     1      -3.749   1.587  -6.964  1.00  0.00     0.000 A 
ENDBRANCH  52  71
BRANCH  64  77
ATOM     77  C   UNL     1       4.588   6.533  -6.654  1.00  0.00    -0.014 A 
ATOM     78  C   UNL     1       4.571   6.125  -5.317  1.00  0.00     0.009 A 
ATOM     79  C   UNL     1       5.777   7.133  -7.133  1.00  0.00     0.009 A 
ATOM     80  C   UNL     1       5.678   6.344  -4.486  1.00  0.00     0.001 A 
ATOM     81  C   UNL     1       6.898   7.304  -6.322  1.00  0.00     0.001 A 
ATOM     82  C   UNL     1       6.842   6.920  -4.991  1.00  0.00     0.000 A 
ENDBRANCH  64  77
ENDBRANCH  38  39
ENDBRANCH  31  33
ENDBRANCH  30  31
ENDBRANCH  29  30
ENDBRANCH  28  29
ENDBRANCH  27  28
ENDBRANCH  26  27
ENDBRANCH   1  26
TORSDOF 20
