REMARK SMILES CC[C@@](C)([NH2+]CC(=O)N[C@@H](C)c1ccc(F)cc1)C(=O)OCCOCCOCCOC(=O)c1ccc(-c2c3nc(c(-c4ccccc4)c4ccc([nH]4)c(-c4ccccc4)c4nc(c(-c5ccccc5)c5ccc2[nH]5)C=C4)C=C3)cc1
REMARK SMILES IDX 24 1 23 2 22 3 21 4 19 5 20 6 3 7 4 8 2 9 1 10 5 11 6 14
REMARK SMILES IDX 7 15 8 16 9 17 10 19 11 20 12 21 13 22 18 23 14 24 17 25
REMARK SMILES IDX 15 26 16 27 25 28 26 29 27 30 28 31 29 32 30 33 31 34 32 35
REMARK SMILES IDX 33 36 34 37 80 38 35 39 79 40 36 41 37 42 38 43 73 44 39 45
REMARK SMILES IDX 78 46 72 47 74 48 40 49 77 50 71 51 70 52 41 54 63 55 48 56
REMARK SMILES IDX 62 57 49 58 52 59 61 60 75 61 50 62 51 63 60 65 76 66 53 67
REMARK SMILES IDX 42 68 43 69 47 70 44 71 46 72 45 73 64 74 65 75 69 76 66 77
REMARK SMILES IDX 68 78 67 79 54 80 55 81 59 82 56 83 58 84 57 85
REMARK H PARENT 5 12 5 13 9 18 74 53 52 64
REMARK Flexibility Score: inf
ROOT
ATOM      1  O   UNL     1       5.263  -2.598  -1.362  1.00  0.00    -0.376 OA
ENDROOT
BRANCH   1   2
ATOM      2  C   UNL     1       5.367  -2.871   0.026  1.00  0.00     0.202 C 
BRANCH   2   3
ATOM      3  C   UNL     1       4.355  -2.202   0.961  1.00  0.00     0.261 C 
BRANCH   3   4
ATOM      4  O   UNL     1       3.001  -2.531   0.607  1.00  0.00    -0.459 OA
BRANCH   4   5
ATOM      5  C   UNL     1       2.001  -1.621   0.776  1.00  0.00     0.367 C 
ATOM      6  O   UNL     1       2.187  -0.479   1.182  1.00  0.00    -0.245 OA
BRANCH   5   7
ATOM      7  C   UNL     1       0.583  -2.219   0.429  1.00  0.00     0.191 C 
ATOM      8  C   UNL     1      -0.603  -1.763   1.293  1.00  0.00     0.092 C 
BRANCH   7   9
ATOM      9  C   UNL     1       0.285  -1.693  -1.015  1.00  0.00     0.077 C 
ATOM     10  C   UNL     1       0.354  -0.160  -1.146  1.00  0.00     0.011 C 
ENDBRANCH   7   9
BRANCH   7  11
ATOM     11  N   UNL     1       0.545  -3.714   0.481  1.00  0.00    -0.325 N 
ATOM     12  H   UNL     1       1.029  -4.051  -0.351  1.00  0.00     0.347 HD
ATOM     13  H   UNL     1      -0.450  -3.921   0.560  1.00  0.00     0.347 HD
BRANCH  11  14
ATOM     14  C   UNL     1       1.138  -4.433   1.645  1.00  0.00     0.362 C 
BRANCH  14  15
ATOM     15  C   UNL     1       0.412  -4.335   3.002  1.00  0.00     0.275 C 
ATOM     16  O   UNL     1      -0.592  -5.015   3.232  1.00  0.00    -0.268 OA
ATOM     17  N   UNL     1       0.897  -3.531   4.014  1.00  0.00    -0.345 N 
ATOM     18  H   UNL     1       0.696  -3.817   4.935  1.00  0.00     0.164 HD
BRANCH  17  19
ATOM     19  C   UNL     1       1.673  -2.308   3.871  1.00  0.00     0.109 C 
ATOM     20  C   UNL     1       0.851  -1.075   4.277  1.00  0.00     0.036 C 
BRANCH  19  21
ATOM     21  C   UNL     1       3.099  -2.306   4.391  1.00  0.00    -0.026 A 
ATOM     22  C   UNL     1       3.810  -1.085   4.457  1.00  0.00     0.009 A 
ATOM     23  C   UNL     1       3.809  -3.493   4.621  1.00  0.00     0.009 A 
ATOM     24  C   UNL     1       5.169  -1.048   4.765  1.00  0.00     0.039 A 
ATOM     25  C   UNL     1       5.175  -3.456   4.922  1.00  0.00     0.039 A 
ATOM     26  C   UNL     1       5.841  -2.237   4.993  1.00  0.00     0.123 A 
ATOM     27  F   UNL     1       7.154  -2.212   5.253  1.00  0.00    -0.207 F 
ENDBRANCH  19  21
ENDBRANCH  17  19
ENDBRANCH  14  15
ENDBRANCH  11  14
ENDBRANCH   7  11
ENDBRANCH   5   7
ENDBRANCH   4   5
ENDBRANCH   3   4
ENDBRANCH   2   3
ENDBRANCH   1   2
BRANCH   1  28
ATOM     28  C   UNL     1       3.990  -2.739  -1.972  1.00  0.00     0.188 C 
BRANCH  28  29
ATOM     29  C   UNL     1       3.184  -4.048  -1.792  1.00  0.00     0.188 C 
BRANCH  29  30
ATOM     30  O   UNL     1       3.779  -5.219  -1.279  1.00  0.00    -0.376 OA
BRANCH  30  31
ATOM     31  C   UNL     1       4.891  -5.778  -1.951  1.00  0.00     0.202 C 
BRANCH  31  32
ATOM     32  C   UNL     1       4.929  -5.880  -3.486  1.00  0.00     0.261 C 
BRANCH  32  33
ATOM     33  O   UNL     1       4.521  -4.699  -4.198  1.00  0.00    -0.460 OA
BRANCH  33  34
ATOM     34  C   UNL     1       3.373  -4.816  -4.933  1.00  0.00     0.338 C 
ATOM     35  O   UNL     1       2.707  -5.802  -5.104  1.00  0.00    -0.246 OA
BRANCH  34  36
ATOM     36  C   UNL     1       2.924  -3.451  -5.317  1.00  0.00     0.060 A 
ATOM     37  C   UNL     1       1.698  -2.978  -4.820  1.00  0.00     0.016 A 
ATOM     38  C   UNL     1       3.711  -2.641  -6.132  1.00  0.00     0.016 A 
ATOM     39  C   UNL     1       1.267  -1.683  -5.121  1.00  0.00     0.010 A 
ATOM     40  C   UNL     1       3.258  -1.360  -6.465  1.00  0.00     0.010 A 
ATOM     41  C   UNL     1       2.032  -0.876  -5.969  1.00  0.00    -0.014 A 
BRANCH  41  42
ATOM     42  C   UNL     1       1.509   0.419  -6.469  1.00  0.00     0.031 A 
ATOM     43  C   UNL     1       0.808   0.445  -7.799  1.00  0.00     0.074 A 
ATOM     44  C   UNL     1       1.698   1.564  -5.788  1.00  0.00     0.049 A 
ATOM     45  N   UNL     1       0.428   1.471  -8.516  1.00  0.00    -0.248 NA
ATOM     46  C   UNL     1       0.500  -0.862  -8.402  1.00  0.00     0.031 C 
ATOM     47  C   UNL     1       2.306   1.677  -4.463  1.00  0.00     0.029 A 
ATOM     48  N   UNL     1       1.420   2.863  -6.143  1.00  0.00    -0.354 N 
ATOM     49  C   UNL     1      -0.142   0.936  -9.663  1.00  0.00     0.074 A 
ATOM     50  C   UNL     1      -0.058  -0.504  -9.550  1.00  0.00     0.031 C 
ATOM     51  C   UNL     1       2.389   2.979  -4.133  1.00  0.00     0.029 A 
ATOM     52  C   UNL     1       1.887   3.790  -5.242  1.00  0.00     0.049 A 
ATOM     53  H   UNL     1       0.934   3.106  -6.964  1.00  0.00     0.167 HD
ATOM     54  C   UNL     1      -0.678   1.586 -10.722  1.00  0.00     0.031 A 
ATOM     55  C   UNL     1       1.949   5.135  -5.325  1.00  0.00     0.031 A 
ATOM     56  C   UNL     1      -0.752   3.017 -10.846  1.00  0.00     0.049 A 
ATOM     57  C   UNL     1       1.442   5.830  -6.566  1.00  0.00     0.074 A 
ATOM     58  C   UNL     1      -1.308   3.761 -11.872  1.00  0.00     0.029 A 
ATOM     59  N   UNL     1      -0.242   3.916  -9.927  1.00  0.00    -0.354 N 
ATOM     60  N   UNL     1       0.869   5.317  -7.628  1.00  0.00    -0.248 NA
ATOM     61  C   UNL     1       1.599   7.293  -6.621  1.00  0.00     0.031 C 
ATOM     62  C   UNL     1      -1.073   5.113 -11.606  1.00  0.00     0.029 A 
ATOM     63  C   UNL     1      -0.428   5.210 -10.384  1.00  0.00     0.049 A 
ATOM     64  H   UNL     1       0.188   3.673  -9.075  1.00  0.00     0.167 HD
ATOM     65  C   UNL     1       0.579   6.394  -8.461  1.00  0.00     0.074 A 
ATOM     66  C   UNL     1       1.017   7.588  -7.774  1.00  0.00     0.031 C 
ATOM     67  C   UNL     1       0.007   6.392  -9.690  1.00  0.00     0.031 A 
BRANCH  54  68
ATOM     68  C   UNL     1      -1.188   0.759 -11.866  1.00  0.00    -0.014 A 
ATOM     69  C   UNL     1      -2.394   0.049 -11.774  1.00  0.00     0.009 A 
ATOM     70  C   UNL     1      -0.485   0.757 -13.082  1.00  0.00     0.009 A 
ATOM     71  C   UNL     1      -2.878  -0.660 -12.876  1.00  0.00     0.001 A 
ATOM     72  C   UNL     1      -0.984   0.068 -14.187  1.00  0.00     0.001 A 
ATOM     73  C   UNL     1      -2.178  -0.643 -14.082  1.00  0.00     0.000 A 
ENDBRANCH  54  68
BRANCH  55  74
ATOM     74  C   UNL     1       2.585   5.934  -4.241  1.00  0.00    -0.014 A 
ATOM     75  C   UNL     1       1.831   6.841  -3.479  1.00  0.00     0.009 A 
ATOM     76  C   UNL     1       3.968   5.849  -4.016  1.00  0.00     0.009 A 
ATOM     77  C   UNL     1       2.456   7.672  -2.545  1.00  0.00     0.001 A 
ATOM     78  C   UNL     1       4.584   6.656  -3.057  1.00  0.00     0.001 A 
ATOM     79  C   UNL     1       3.830   7.577  -2.333  1.00  0.00     0.000 A 
ENDBRANCH  55  74
BRANCH  67  80
ATOM     80  C   UNL     1      -0.208   7.720 -10.362  1.00  0.00    -0.014 A 
ATOM     81  C   UNL     1       0.868   8.451 -10.889  1.00  0.00     0.009 A 
ATOM     82  C   UNL     1      -1.511   8.217 -10.524  1.00  0.00     0.009 A 
ATOM     83  C   UNL     1       0.645   9.667 -11.540  1.00  0.00     0.001 A 
ATOM     84  C   UNL     1      -1.734   9.417 -11.201  1.00  0.00     0.001 A 
ATOM     85  C   UNL     1      -0.655  10.145 -11.701  1.00  0.00     0.000 A 
ENDBRANCH  67  80
ENDBRANCH  41  42
ENDBRANCH  34  36
ENDBRANCH  33  34
ENDBRANCH  32  33
ENDBRANCH  31  32
ENDBRANCH  30  31
ENDBRANCH  29  30
ENDBRANCH  28  29
ENDBRANCH   1  28
TORSDOF 23
