REMARK SMILES COc1cc2[nH]nc(CC(=O)OCCOCCOCCOC(=O)c3ccc(-c4c5nc(c(-c6ccccc6)c6ccc([nH]6)c(-c6ccccc6)c6nc(c(-c7ccccc7)c7ccc4[nH]7)C=C6)C=C5)cc3)c2cc1OC(C)C
REMARK SMILES IDX 16 1 15 2 14 3 13 4 12 5 10 6 11 7 9 8 8 9 3 10 4 11 74 12
REMARK SMILES IDX 5 13 73 14 6 15 72 16 7 17 2 19 1 20 75 21 76 22 77 23 78 24
REMARK SMILES IDX 17 25 18 26 19 27 20 28 21 29 22 30 23 31 24 32 25 33 71 34
REMARK SMILES IDX 26 35 70 36 27 37 28 38 29 39 64 40 30 41 69 42 63 43 65 44
REMARK SMILES IDX 31 45 68 46 62 47 61 48 32 50 54 51 39 52 53 53 40 54 43 55
REMARK SMILES IDX 52 56 66 57 41 58 42 59 51 61 67 62 44 63 33 64 34 65 38 66
REMARK SMILES IDX 35 67 37 68 36 69 55 70 56 71 60 72 57 73 59 74 58 75 45 76
REMARK SMILES IDX 46 77 50 78 47 79 49 80 48 81
REMARK H PARENT 6 18 65 49 43 60
REMARK Flexibility Score: inf
ROOT
ATOM      1  C   UNL     1       3.078   9.998   1.937  1.00  0.00     0.188 C 
ENDROOT
BRANCH   1   2
ATOM      2  O   UNL     1       4.155  10.606   1.233  1.00  0.00    -0.376 OA
BRANCH   2   3
ATOM      3  C   UNL     1       4.529   9.998  -0.006  1.00  0.00     0.202 C 
BRANCH   3   4
ATOM      4  C   UNL     1       5.030   8.544   0.060  1.00  0.00     0.261 C 
BRANCH   4   5
ATOM      5  O   UNL     1       4.111   7.644   0.714  1.00  0.00    -0.463 OA
BRANCH   5   6
ATOM      6  C   UNL     1       4.647   6.838   1.673  1.00  0.00     0.312 C 
ATOM      7  O   UNL     1       5.853   6.703   1.863  1.00  0.00    -0.252 OA
BRANCH   6   8
ATOM      8  C   UNL     1       3.631   6.250   2.625  1.00  0.00     0.181 C 
BRANCH   8   9
ATOM      9  C   UNL     1       2.364   5.756   2.020  1.00  0.00     0.081 A 
ATOM     10  C   UNL     1       1.053   2.303   0.042  1.00  0.00     0.162 A 
ATOM     11  C   UNL     1       0.211   3.365   0.440  1.00  0.00     0.078 A 
ATOM     12  C   UNL     1       2.433   2.342   0.288  1.00  0.00     0.162 A 
ATOM     13  C   UNL     1       0.804   4.457   1.090  1.00  0.00     0.069 A 
ATOM     14  C   UNL     1       2.983   3.451   0.954  1.00  0.00     0.062 A 
ATOM     15  N   UNL     1       0.296   5.638   1.566  1.00  0.00    -0.277 N 
ATOM     16  C   UNL     1       2.165   4.520   1.351  1.00  0.00     0.027 A 
ATOM     17  N   UNL     1       1.207   6.417   2.188  1.00  0.00    -0.179 NA
ATOM     18  H   UNL     1      -0.648   5.895   1.464  1.00  0.00     0.190 HD
BRANCH  10  19
ATOM     19  O   UNL     1       0.523   1.313  -0.740  1.00  0.00    -0.493 OA
ATOM     20  C   UNL     1      -0.525   0.558  -0.140  1.00  0.00     0.278 C 
ENDBRANCH  10  19
BRANCH  12  21
ATOM     21  O   UNL     1       3.409   1.464  -0.089  1.00  0.00    -0.487 OA
BRANCH  21  22
ATOM     22  C   UNL     1       3.221   0.061  -0.254  1.00  0.00     0.167 C 
ATOM     23  C   UNL     1       2.496  -0.644   0.890  1.00  0.00     0.052 C 
ATOM     24  C   UNL     1       2.804  -0.313  -1.673  1.00  0.00     0.052 C 
ENDBRANCH  21  22
ENDBRANCH  12  21
ENDBRANCH   8   9
ENDBRANCH   6   8
ENDBRANCH   5   6
ENDBRANCH   4   5
ENDBRANCH   3   4
ENDBRANCH   2   3
ENDBRANCH   1   2
BRANCH   1  25
ATOM     25  C   UNL     1       1.735   9.903   1.208  1.00  0.00     0.188 C 
BRANCH  25  26
ATOM     26  O   UNL     1       1.796   9.433  -0.133  1.00  0.00    -0.376 OA
BRANCH  26  27
ATOM     27  C   UNL     1       0.540   9.154  -0.757  1.00  0.00     0.202 C 
BRANCH  27  28
ATOM     28  C   UNL     1      -0.481  10.306  -0.737  1.00  0.00     0.261 C 
BRANCH  28  29
ATOM     29  O   UNL     1      -0.934  10.677   0.582  1.00  0.00    -0.460 OA
BRANCH  29  30
ATOM     30  C   UNL     1      -1.453   9.700   1.360  1.00  0.00     0.338 C 
ATOM     31  O   UNL     1      -1.817   8.592   0.999  1.00  0.00    -0.246 OA
BRANCH  30  32
ATOM     32  C   UNL     1      -1.296  10.102   2.783  1.00  0.00     0.060 A 
ATOM     33  C   UNL     1      -0.997   9.101   3.717  1.00  0.00     0.016 A 
ATOM     34  C   UNL     1      -1.378  11.436   3.199  1.00  0.00     0.016 A 
ATOM     35  C   UNL     1      -0.855   9.416   5.069  1.00  0.00     0.010 A 
ATOM     36  C   UNL     1      -1.233  11.753   4.555  1.00  0.00     0.010 A 
ATOM     37  C   UNL     1      -1.019  10.738   5.503  1.00  0.00    -0.014 A 
BRANCH  37  38
ATOM     38  C   UNL     1      -1.179  11.010   6.955  1.00  0.00     0.031 A 
ATOM     39  C   UNL     1      -2.575  11.156   7.503  1.00  0.00     0.074 A 
ATOM     40  C   UNL     1      -0.127  11.063   7.791  1.00  0.00     0.049 A 
ATOM     41  N   UNL     1      -2.969  11.345   8.737  1.00  0.00    -0.248 NA
ATOM     42  C   UNL     1      -3.674  11.075   6.526  1.00  0.00     0.031 C 
ATOM     43  C   UNL     1       1.274  10.898   7.411  1.00  0.00     0.029 A 
ATOM     44  N   UNL     1      -0.086  11.266   9.150  1.00  0.00    -0.354 N 
ATOM     45  C   UNL     1      -4.356  11.402   8.683  1.00  0.00     0.074 A 
ATOM     46  C   UNL     1      -4.734  11.269   7.294  1.00  0.00     0.031 C 
ATOM     47  C   UNL     1       2.038  11.001   8.513  1.00  0.00     0.029 A 
ATOM     48  C   UNL     1       1.184  11.262   9.672  1.00  0.00     0.049 A 
ATOM     49  H   UNL     1      -0.893  11.402   9.698  1.00  0.00     0.167 HD
ATOM     50  C   UNL     1      -5.242  11.538   9.697  1.00  0.00     0.031 A 
ATOM     51  C   UNL     1       1.609  11.453  10.937  1.00  0.00     0.031 A 
ATOM     52  C   UNL     1      -4.883  11.687  11.080  1.00  0.00     0.049 A 
ATOM     53  C   UNL     1       0.606  11.688  12.037  1.00  0.00     0.074 A 
ATOM     54  C   UNL     1      -5.716  11.821  12.177  1.00  0.00     0.029 A 
ATOM     55  N   UNL     1      -3.583  11.733  11.556  1.00  0.00    -0.354 N 
ATOM     56  N   UNL     1      -0.704  11.701  11.978  1.00  0.00    -0.248 NA
ATOM     57  C   UNL     1       1.145  11.922  13.386  1.00  0.00     0.031 C 
ATOM     58  C   UNL     1      -4.919  12.005  13.311  1.00  0.00     0.029 A 
ATOM     59  C   UNL     1      -3.591  11.922  12.928  1.00  0.00     0.049 A 
ATOM     60  H   UNL     1      -2.774  11.644  11.002  1.00  0.00     0.167 HD
ATOM     61  C   UNL     1      -1.142  11.912  13.281  1.00  0.00     0.074 A 
ATOM     62  C   UNL     1       0.039  12.006  14.111  1.00  0.00     0.031 C 
ATOM     63  C   UNL     1      -2.411  12.015  13.748  1.00  0.00     0.031 A 
BRANCH  50  64
ATOM     64  C   UNL     1      -6.700  11.565   9.332  1.00  0.00    -0.014 A 
ATOM     65  C   UNL     1      -7.366  10.405   8.905  1.00  0.00     0.009 A 
ATOM     66  C   UNL     1      -7.420  12.764   9.439  1.00  0.00     0.009 A 
ATOM     67  C   UNL     1      -8.718  10.454   8.559  1.00  0.00     0.001 A 
ATOM     68  C   UNL     1      -8.778  12.804   9.121  1.00  0.00     0.001 A 
ATOM     69  C   UNL     1      -9.423  11.652   8.673  1.00  0.00     0.000 A 
ENDBRANCH  50  64
BRANCH  51  70
ATOM     70  C   UNL     1       3.064  11.446  11.247  1.00  0.00    -0.014 A 
ATOM     71  C   UNL     1       3.630  10.419  12.018  1.00  0.00     0.009 A 
ATOM     72  C   UNL     1       3.886  12.496  10.809  1.00  0.00     0.009 A 
ATOM     73  C   UNL     1       4.982  10.459  12.368  1.00  0.00     0.001 A 
ATOM     74  C   UNL     1       5.244  12.519  11.137  1.00  0.00     0.001 A 
ATOM     75  C   UNL     1       5.788  11.507  11.925  1.00  0.00     0.000 A 
ENDBRANCH  51  70
BRANCH  63  76
ATOM     76  C   UNL     1      -2.595  12.200  15.229  1.00  0.00    -0.014 A 
ATOM     77  C   UNL     1      -2.270  13.410  15.863  1.00  0.00     0.009 A 
ATOM     78  C   UNL     1      -3.141  11.159  15.996  1.00  0.00     0.009 A 
ATOM     79  C   UNL     1      -2.454  13.558  17.240  1.00  0.00     0.001 A 
ATOM     80  C   UNL     1      -3.353  11.320  17.367  1.00  0.00     0.001 A 
ATOM     81  C   UNL     1      -3.000  12.516  17.989  1.00  0.00     0.000 A 
ENDBRANCH  63  76
ENDBRANCH  37  38
ENDBRANCH  30  32
ENDBRANCH  29  30
ENDBRANCH  28  29
ENDBRANCH  27  28
ENDBRANCH  26  27
ENDBRANCH  25  26
ENDBRANCH   1  25
TORSDOF 21
