REMARK SMILES O=C1NC(=O)/C(=C/c2ccc(OCc3cn(-c4ccc(C(=O)OCCOCCOCCOC(=O)c5ccc(-c6c7nc(c(-c8ccccc8)c8ccc([nH]8)c(-c8ccccc8)c8nc(c(-c9ccccc9)c9ccc6[nH]9)C=C8)C=C7)cc5)cc4)nn3)cc2)S1
REMARK SMILES IDX 26 1 25 2 24 3 23 4 21 5 22 6 20 7 17 8 18 9 84 10 19 11
REMARK SMILES IDX 83 12 16 13 14 14 15 15 86 16 85 17 13 18 12 19 11 20 8 21
REMARK SMILES IDX 9 22 88 23 10 24 87 25 7 26 1 27 2 28 3 29 89 30 4 31 6 33
REMARK SMILES IDX 5 34 27 35 28 36 29 37 30 38 31 39 32 40 33 41 34 42 35 43
REMARK SMILES IDX 36 44 82 45 37 46 81 47 38 48 39 49 40 50 75 51 41 52 80 53
REMARK SMILES IDX 74 54 76 55 42 56 79 57 73 58 72 59 43 61 65 62 50 63 64 64
REMARK SMILES IDX 51 65 54 66 63 67 77 68 52 69 53 70 62 72 78 73 55 74 44 75
REMARK SMILES IDX 45 76 49 77 46 78 48 79 47 80 66 81 67 82 71 83 68 84 70 85
REMARK SMILES IDX 69 86 56 87 57 88 61 89 58 90 60 91 59 92
REMARK H PARENT 3 32 76 60 54 71
REMARK Flexibility Score: inf
ROOT
ATOM      1  O   UNL     1     -10.606   7.912   0.316  1.00  0.00    -0.376 OA
ENDROOT
BRANCH   1   2
ATOM      2  C   UNL     1     -10.762   9.319   0.402  1.00  0.00     0.202 C 
BRANCH   2   3
ATOM      3  C   UNL     1      -9.622  10.358   0.315  1.00  0.00     0.261 C 
BRANCH   3   4
ATOM      4  O   UNL     1      -8.277   9.886   0.229  1.00  0.00    -0.460 OA
BRANCH   4   5
ATOM      5  C   UNL     1      -7.570   9.908   1.382  1.00  0.00     0.338 C 
ATOM      6  O   UNL     1      -7.965  10.265   2.478  1.00  0.00    -0.246 OA
BRANCH   5   7
ATOM      7  C   UNL     1      -6.272   9.237   1.170  1.00  0.00     0.060 A 
ATOM      8  C   UNL     1      -3.782   8.012   0.955  1.00  0.00     0.066 A 
ATOM      9  C   UNL     1      -4.690   7.577   1.931  1.00  0.00     0.029 A 
ATOM     10  C   UNL     1      -4.155   8.996   0.028  1.00  0.00     0.029 A 
ATOM     11  C   UNL     1      -5.918   8.219   2.062  1.00  0.00     0.018 A 
ATOM     12  C   UNL     1      -5.418   9.590   0.119  1.00  0.00     0.018 A 
BRANCH   8  13
ATOM     13  N   UNL     1      -2.458   7.521   1.006  1.00  0.00    -0.220 N 
ATOM     14  C   UNL     1      -0.285   7.395   1.156  1.00  0.00     0.120 A 
ATOM     15  C   UNL     1      -1.300   8.165   0.627  1.00  0.00     0.144 A 
ATOM     16  N   UNL     1      -0.838   6.297   1.757  1.00  0.00    -0.131 NA
ATOM     17  N   UNL     1      -2.152   6.381   1.662  1.00  0.00    -0.062 NA
BRANCH  14  18
ATOM     18  C   UNL     1       1.182   7.657   1.260  1.00  0.00     0.289 C 
BRANCH  18  19
ATOM     19  O   UNL     1       1.994   6.994   0.279  1.00  0.00    -0.487 OA
BRANCH  19  20
ATOM     20  C   UNL     1       2.109   5.633   0.352  1.00  0.00     0.119 A 
ATOM     21  C   UNL     1       2.184   2.833   0.139  1.00  0.00    -0.024 A 
ATOM     22  C   UNL     1       2.676   3.629  -0.898  1.00  0.00     0.012 A 
ATOM     23  C   UNL     1       1.743   3.444   1.315  1.00  0.00     0.012 A 
ATOM     24  C   UNL     1       2.634   5.023  -0.789  1.00  0.00     0.047 A 
ATOM     25  C   UNL     1       1.727   4.835   1.428  1.00  0.00     0.047 A 
BRANCH  21  26
ATOM     26  C   UNL     1       2.133   1.375   0.005  1.00  0.00     0.029 C 
ATOM     27  O   UNL     1      -2.444  -0.732   0.032  1.00  0.00    -0.261 OA
ATOM     28  C   UNL     1      -1.256  -0.446  -0.003  1.00  0.00     0.290 C 
ATOM     29  N   UNL     1      -0.231  -1.331  -0.057  1.00  0.00    -0.282 N 
ATOM     30  S   UNL     1      -0.629   1.187   0.017  1.00  0.00    -0.022 SA
ATOM     31  C   UNL     1       1.041  -0.842  -0.081  1.00  0.00     0.265 C 
ATOM     32  H   UNL     1      -0.401  -2.301  -0.078  1.00  0.00     0.174 HD
ATOM     33  C   UNL     1       1.010   0.643  -0.024  1.00  0.00     0.083 C 
ATOM     34  O   UNL     1       2.050  -1.527  -0.125  1.00  0.00    -0.268 OA
ENDBRANCH  21  26
ENDBRANCH  19  20
ENDBRANCH  18  19
ENDBRANCH  14  18
ENDBRANCH   8  13
ENDBRANCH   5   7
ENDBRANCH   4   5
ENDBRANCH   3   4
ENDBRANCH   2   3
ENDBRANCH   1   2
BRANCH   1  35
ATOM     35  C   UNL     1      -9.374   7.312   0.642  1.00  0.00     0.188 C 
BRANCH  35  36
ATOM     36  C   UNL     1      -8.449   7.048  -0.563  1.00  0.00     0.188 C 
BRANCH  36  37
ATOM     37  O   UNL     1      -8.612   7.752  -1.783  1.00  0.00    -0.376 OA
BRANCH  37  38
ATOM     38  C   UNL     1      -9.853   7.805  -2.468  1.00  0.00     0.202 C 
BRANCH  38  39
ATOM     39  C   UNL     1     -10.825   6.630  -2.566  1.00  0.00     0.261 C 
BRANCH  39  40
ATOM     40  O   UNL     1     -10.862   5.742  -1.466  1.00  0.00    -0.460 OA
BRANCH  40  41
ATOM     41  C   UNL     1     -10.108   4.640  -1.650  1.00  0.00     0.338 C 
ATOM     42  O   UNL     1      -9.216   4.476  -2.465  1.00  0.00    -0.246 OA
BRANCH  41  43
ATOM     43  C   UNL     1     -10.626   3.570  -0.801  1.00  0.00     0.060 A 
ATOM     44  C   UNL     1      -9.793   2.472  -0.585  1.00  0.00     0.016 A 
ATOM     45  C   UNL     1     -11.998   3.542  -0.514  1.00  0.00     0.016 A 
ATOM     46  C   UNL     1     -10.378   1.271  -0.252  1.00  0.00     0.010 A 
ATOM     47  C   UNL     1     -12.582   2.338  -0.204  1.00  0.00     0.010 A 
ATOM     48  C   UNL     1     -11.774   1.204  -0.154  1.00  0.00    -0.014 A 
BRANCH  48  49
ATOM     49  C   UNL     1     -12.371  -0.082   0.130  1.00  0.00     0.031 A 
ATOM     50  C   UNL     1     -12.159  -0.503   1.527  1.00  0.00     0.074 A 
ATOM     51  C   UNL     1     -13.118  -0.759  -0.762  1.00  0.00     0.049 A 
ATOM     52  N   UNL     1     -11.424  -1.479   1.941  1.00  0.00    -0.248 NA
ATOM     53  C   UNL     1     -12.677   0.367   2.596  1.00  0.00     0.031 C 
ATOM     54  C   UNL     1     -13.590  -0.297  -2.070  1.00  0.00     0.029 A 
ATOM     55  N   UNL     1     -13.716  -1.975  -0.631  1.00  0.00    -0.354 N 
ATOM     56  C   UNL     1     -11.572  -1.485   3.321  1.00  0.00     0.074 A 
ATOM     57  C   UNL     1     -12.167  -0.223   3.677  1.00  0.00     0.031 C 
ATOM     58  C   UNL     1     -14.583  -1.111  -2.496  1.00  0.00     0.029 A 
ATOM     59  C   UNL     1     -14.725  -2.213  -1.557  1.00  0.00     0.049 A 
ATOM     60  H   UNL     1     -13.456  -2.629   0.058  1.00  0.00     0.167 HD
ATOM     61  C   UNL     1     -11.509  -2.653   4.013  1.00  0.00     0.031 A 
ATOM     62  C   UNL     1     -15.651  -3.203  -1.507  1.00  0.00     0.031 A 
ATOM     63  C   UNL     1     -10.855  -3.689   3.251  1.00  0.00     0.049 A 
ATOM     64  C   UNL     1     -15.145  -4.249  -0.592  1.00  0.00     0.074 A 
ATOM     65  C   UNL     1      -9.618  -3.831   2.654  1.00  0.00     0.029 A 
ATOM     66  N   UNL     1     -11.666  -4.639   2.681  1.00  0.00    -0.354 N 
ATOM     67  N   UNL     1     -14.141  -5.026  -0.873  1.00  0.00    -0.248 NA
ATOM     68  C   UNL     1     -15.491  -4.165   0.818  1.00  0.00     0.031 C 
ATOM     69  C   UNL     1      -9.864  -4.562   1.454  1.00  0.00     0.029 A 
ATOM     70  C   UNL     1     -11.220  -4.889   1.411  1.00  0.00     0.049 A 
ATOM     71  H   UNL     1     -12.439  -5.069   3.113  1.00  0.00     0.167 HD
ATOM     72  C   UNL     1     -13.444  -5.135   0.321  1.00  0.00     0.074 A 
ATOM     73  C   UNL     1     -14.390  -4.703   1.348  1.00  0.00     0.031 C 
ATOM     74  C   UNL     1     -12.086  -5.281   0.321  1.00  0.00     0.031 A 
BRANCH  61  75
ATOM     75  C   UNL     1     -12.483  -2.970   5.124  1.00  0.00    -0.014 A 
ATOM     76  C   UNL     1     -12.359  -4.199   5.792  1.00  0.00     0.009 A 
ATOM     77  C   UNL     1     -13.685  -2.260   5.326  1.00  0.00     0.009 A 
ATOM     78  C   UNL     1     -13.415  -4.723   6.548  1.00  0.00     0.001 A 
ATOM     79  C   UNL     1     -14.722  -2.758   6.116  1.00  0.00     0.001 A 
ATOM     80  C   UNL     1     -14.598  -4.006   6.702  1.00  0.00     0.000 A 
ENDBRANCH  61  75
BRANCH  62  81
ATOM     81  C   UNL     1     -17.055  -3.206  -1.976  1.00  0.00    -0.014 A 
ATOM     82  C   UNL     1     -17.774  -4.411  -2.061  1.00  0.00     0.009 A 
ATOM     83  C   UNL     1     -17.781  -2.006  -2.059  1.00  0.00     0.009 A 
ATOM     84  C   UNL     1     -19.171  -4.413  -2.168  1.00  0.00     0.001 A 
ATOM     85  C   UNL     1     -19.176  -2.007  -2.173  1.00  0.00     0.001 A 
ATOM     86  C   UNL     1     -19.872  -3.210  -2.208  1.00  0.00     0.000 A 
ENDBRANCH  62  81
BRANCH  74  87
ATOM     87  C   UNL     1     -11.421  -5.660  -0.981  1.00  0.00    -0.014 A 
ATOM     88  C   UNL     1     -11.528  -4.907  -2.165  1.00  0.00     0.009 A 
ATOM     89  C   UNL     1     -10.572  -6.776  -0.982  1.00  0.00     0.009 A 
ATOM     90  C   UNL     1     -10.849  -5.296  -3.325  1.00  0.00     0.001 A 
ATOM     91  C   UNL     1      -9.873  -7.149  -2.131  1.00  0.00     0.001 A 
ATOM     92  C   UNL     1     -10.021  -6.416  -3.306  1.00  0.00     0.000 A 
ENDBRANCH  74  87
ENDBRANCH  48  49
ENDBRANCH  41  43
ENDBRANCH  40  41
ENDBRANCH  39  40
ENDBRANCH  38  39
ENDBRANCH  37  38
ENDBRANCH  36  37
ENDBRANCH  35  36
ENDBRANCH   1  35
TORSDOF 22
