REMARK SMILES CC(C)N(CC1CC1)C(=O)N[C@@H]1C=C[C@H](C(=O)OCCOCCOCCOC(=O)c2ccc(-c3c4nc(c(-c5ccccc5)c5ccc([nH]5)c(-c5ccccc5)c5nc(c(-c6ccccc6)c6ccc3[nH]6)C=C5)C=C4)cc2)C1
REMARK SMILES IDX 22 1 21 2 20 3 19 4 18 5 16 6 17 7 15 8 12 9 13 10 78 11
REMARK SMILES IDX 14 12 11 13 9 14 10 15 4 17 2 18 1 19 3 20 5 21 6 22 7 23
REMARK SMILES IDX 8 24 23 25 24 26 25 27 26 28 27 29 28 30 29 31 30 32 31 33
REMARK SMILES IDX 77 34 32 35 76 36 33 37 34 38 35 39 70 40 36 41 75 42 69 43
REMARK SMILES IDX 71 44 37 45 74 46 68 47 67 48 38 50 60 51 45 52 59 53 46 54
REMARK SMILES IDX 49 55 58 56 72 57 47 58 48 59 57 61 73 62 50 63 39 64 40 65
REMARK SMILES IDX 44 66 41 67 43 68 42 69 61 70 62 71 66 72 63 73 65 74 64 75
REMARK SMILES IDX 51 76 52 77 56 78 53 79 55 80 54 81
REMARK H PARENT 11 16 71 49 49 60
REMARK Flexibility Score: inf
ROOT
ATOM      1  C   UNL     1      -5.853  -3.225   5.011  1.00  0.00     0.188 C 
ENDROOT
BRANCH   1   2
ATOM      2  O   UNL     1      -7.081  -3.811   5.393  1.00  0.00    -0.376 OA
BRANCH   2   3
ATOM      3  C   UNL     1      -7.922  -4.404   4.408  1.00  0.00     0.202 C 
BRANCH   3   4
ATOM      4  C   UNL     1      -7.786  -4.113   2.906  1.00  0.00     0.261 C 
BRANCH   4   5
ATOM      5  O   UNL     1      -6.436  -4.120   2.429  1.00  0.00    -0.463 OA
BRANCH   5   6
ATOM      6  C   UNL     1      -6.147  -3.163   1.497  1.00  0.00     0.312 C 
ATOM      7  O   UNL     1      -6.966  -2.407   0.990  1.00  0.00    -0.252 OA
BRANCH   6   8
ATOM      8  C   UNL     1      -4.644  -3.084   1.264  1.00  0.00     0.124 C 
ATOM      9  C   UNL     1      -3.764  -0.811   0.831  1.00  0.00     0.107 C 
ATOM     10  C   UNL     1      -3.874  -1.630  -0.414  1.00  0.00    -0.006 C 
ATOM     11  C   UNL     1      -4.060  -1.832   1.941  1.00  0.00     0.048 C 
ATOM     12  C   UNL     1      -4.333  -2.865  -0.182  1.00  0.00    -0.014 C 
BRANCH   9  13
ATOM     13  N   UNL     1      -4.759   0.239   0.772  1.00  0.00    -0.332 N 
ATOM     14  C   UNL     1      -4.867   1.563   0.970  1.00  0.00     0.318 C 
ATOM     15  O   UNL     1      -6.023   1.983   0.839  1.00  0.00    -0.249 OA
ATOM     16  H   UNL     1      -5.628  -0.135   0.501  1.00  0.00     0.165 HD
BRANCH  14  17
ATOM     17  N   UNL     1      -3.833   2.406   1.283  1.00  0.00    -0.322 N 
BRANCH  17  18
ATOM     18  C   UNL     1      -4.128   3.859   1.423  1.00  0.00     0.080 C 
ATOM     19  C   UNL     1      -4.646   4.487   0.124  1.00  0.00     0.031 C 
ATOM     20  C   UNL     1      -5.023   4.192   2.618  1.00  0.00     0.031 C 
ENDBRANCH  17  18
BRANCH  17  21
ATOM     21  C   UNL     1      -2.432   2.067   1.501  1.00  0.00     0.125 C 
BRANCH  21  22
ATOM     22  C   UNL     1      -2.112   1.927   2.963  1.00  0.00     0.009 C 
ATOM     23  C   UNL     1      -2.938   1.087   3.910  1.00  0.00     0.006 C 
ATOM     24  C   UNL     1      -1.564   0.630   3.514  1.00  0.00     0.006 C 
ENDBRANCH  21  22
ENDBRANCH  17  21
ENDBRANCH  14  17
ENDBRANCH   9  13
ENDBRANCH   6   8
ENDBRANCH   5   6
ENDBRANCH   4   5
ENDBRANCH   3   4
ENDBRANCH   2   3
ENDBRANCH   1   2
BRANCH   1  25
ATOM     25  C   UNL     1      -4.620  -4.137   4.845  1.00  0.00     0.188 C 
BRANCH  25  26
ATOM     26  O   UNL     1      -4.751  -5.529   4.648  1.00  0.00    -0.376 OA
BRANCH  26  27
ATOM     27  C   UNL     1      -5.391  -6.329   5.630  1.00  0.00     0.202 C 
BRANCH  27  28
ATOM     28  C   UNL     1      -5.211  -6.124   7.144  1.00  0.00     0.261 C 
BRANCH  28  29
ATOM     29  O   UNL     1      -5.073  -4.772   7.593  1.00  0.00    -0.460 OA
BRANCH  29  30
ATOM     30  C   UNL     1      -3.843  -4.455   8.063  1.00  0.00     0.338 C 
ATOM     31  O   UNL     1      -2.867  -5.177   8.148  1.00  0.00    -0.246 OA
BRANCH  30  32
ATOM     32  C   UNL     1      -3.780  -3.005   8.316  1.00  0.00     0.060 A 
ATOM     33  C   UNL     1      -2.882  -2.242   7.558  1.00  0.00     0.016 A 
ATOM     34  C   UNL     1      -4.533  -2.421   9.334  1.00  0.00     0.016 A 
ATOM     35  C   UNL     1      -2.715  -0.888   7.835  1.00  0.00     0.010 A 
ATOM     36  C   UNL     1      -4.347  -1.068   9.626  1.00  0.00     0.010 A 
ATOM     37  C   UNL     1      -3.416  -0.305   8.898  1.00  0.00    -0.014 A 
BRANCH  37  38
ATOM     38  C   UNL     1      -3.051   1.055   9.355  1.00  0.00     0.031 A 
ATOM     39  C   UNL     1      -2.087   1.198  10.500  1.00  0.00     0.074 A 
ATOM     40  C   UNL     1      -3.553   2.145   8.752  1.00  0.00     0.049 A 
ATOM     41  N   UNL     1      -1.650   2.283  11.085  1.00  0.00    -0.248 NA
ATOM     42  C   UNL     1      -1.544  -0.051  11.059  1.00  0.00     0.031 C 
ATOM     43  C   UNL     1      -4.454   2.139   7.601  1.00  0.00     0.029 A 
ATOM     44  N   UNL     1      -3.370   3.475   9.033  1.00  0.00    -0.354 N 
ATOM     45  C   UNL     1      -0.794   1.849  12.089  1.00  0.00     0.074 A 
ATOM     46  C   UNL     1      -0.786   0.403  12.046  1.00  0.00     0.031 C 
ATOM     47  C   UNL     1      -4.747   3.410   7.273  1.00  0.00     0.029 A 
ATOM     48  C   UNL     1      -4.087   4.312   8.215  1.00  0.00     0.049 A 
ATOM     49  H   UNL     1      -2.782   3.798   9.753  1.00  0.00     0.167 HD
ATOM     50  C   UNL     1      -0.079   2.588  12.970  1.00  0.00     0.031 A 
ATOM     51  C   UNL     1      -4.211   5.653   8.241  1.00  0.00     0.031 A 
ATOM     52  C   UNL     1      -0.098   4.024  13.025  1.00  0.00     0.049 A 
ATOM     53  C   UNL     1      -3.478   6.446   9.290  1.00  0.00     0.074 A 
ATOM     54  C   UNL     1       0.613   4.864  13.865  1.00  0.00     0.029 A 
ATOM     55  N   UNL     1      -0.879   4.833  12.216  1.00  0.00    -0.354 N 
ATOM     56  N   UNL     1      -2.645   6.028  10.213  1.00  0.00    -0.248 NA
ATOM     57  C   UNL     1      -3.705   7.899   9.299  1.00  0.00     0.031 C 
ATOM     58  C   UNL     1       0.216   6.180  13.603  1.00  0.00     0.029 A 
ATOM     59  C   UNL     1      -0.696   6.162  12.559  1.00  0.00     0.049 A 
ATOM     60  H   UNL     1      -1.476   4.511  11.502  1.00  0.00     0.167 HD
ATOM     61  C   UNL     1      -2.223   7.168  10.888  1.00  0.00     0.074 A 
ATOM     62  C   UNL     1      -2.886   8.294  10.264  1.00  0.00     0.031 C 
ATOM     63  C   UNL     1      -1.360   7.273  11.928  1.00  0.00     0.031 A 
BRANCH  50  64
ATOM     64  C   UNL     1       0.748   1.844  13.979  1.00  0.00    -0.014 A 
ATOM     65  C   UNL     1       1.921   1.167  13.611  1.00  0.00     0.009 A 
ATOM     66  C   UNL     1       0.355   1.838  15.327  1.00  0.00     0.009 A 
ATOM     67  C   UNL     1       2.664   0.470  14.567  1.00  0.00     0.001 A 
ATOM     68  C   UNL     1       1.113   1.164  16.284  1.00  0.00     0.001 A 
ATOM     69  C   UNL     1       2.262   0.472  15.902  1.00  0.00     0.000 A 
ENDBRANCH  50  64
BRANCH  51  70
ATOM     70  C   UNL     1      -5.080   6.340   7.250  1.00  0.00    -0.014 A 
ATOM     71  C   UNL     1      -4.519   7.149   6.251  1.00  0.00     0.009 A 
ATOM     72  C   UNL     1      -6.476   6.210   7.315  1.00  0.00     0.009 A 
ATOM     73  C   UNL     1      -5.340   7.832   5.351  1.00  0.00     0.001 A 
ATOM     74  C   UNL     1      -7.293   6.872   6.396  1.00  0.00     0.001 A 
ATOM     75  C   UNL     1      -6.725   7.690   5.421  1.00  0.00     0.000 A 
ENDBRANCH  51  70
BRANCH  63  76
ATOM     76  C   UNL     1      -1.045   8.655  12.429  1.00  0.00    -0.014 A 
ATOM     77  C   UNL     1      -1.980   9.397  13.167  1.00  0.00     0.009 A 
ATOM     78  C   UNL     1       0.227   9.203  12.195  1.00  0.00     0.009 A 
ATOM     79  C   UNL     1      -1.657  10.674  13.633  1.00  0.00     0.001 A 
ATOM     80  C   UNL     1       0.556  10.467  12.687  1.00  0.00     0.001 A 
ATOM     81  C   UNL     1      -0.389  11.205  13.397  1.00  0.00     0.000 A 
ENDBRANCH  63  76
ENDBRANCH  37  38
ENDBRANCH  30  32
ENDBRANCH  29  30
ENDBRANCH  28  29
ENDBRANCH  27  28
ENDBRANCH  26  27
ENDBRANCH  25  26
ENDBRANCH   1  25
TORSDOF 22
