REMARK SMILES COc1cc(-c2ccc(NC(=O)CCC(=O)OCCOCCOCCOC(=O)c3ccc(-c4c5nc(c(-c6ccccc6)c6ccc([nH]6)c(-c6ccccc6)c6nc(c(-c7ccccc7)c7ccc4[nH]7)C=C6)C=C5)cc3)c(OC)c2)ccc1N
REMARK SMILES IDX 20 1 19 2 18 3 17 4 15 5 16 6 14 7 13 8 11 9 10 10 12 12
REMARK SMILES IDX 9 13 6 14 7 15 80 16 8 17 77 18 5 19 3 20 4 21 83 22 82 23
REMARK SMILES IDX 81 24 2 25 1 26 84 27 78 30 79 31 21 32 22 33 23 34 24 35
REMARK SMILES IDX 25 36 26 37 27 38 28 39 29 40 30 41 76 42 31 43 75 44 32 45
REMARK SMILES IDX 33 46 34 47 69 48 35 49 74 50 68 51 70 52 36 53 73 54 67 55
REMARK SMILES IDX 66 56 37 58 59 59 44 60 58 61 45 62 48 63 57 64 71 65 46 66
REMARK SMILES IDX 47 67 56 69 72 70 49 71 38 72 39 73 43 74 40 75 42 76 41 77
REMARK SMILES IDX 60 78 61 79 65 80 62 81 64 82 63 83 50 84 51 85 55 86 52 87
REMARK SMILES IDX 54 88 53 89
REMARK H PARENT 10 11 84 28 84 29 70 57 48 68
REMARK Flexibility Score: inf
ROOT
ATOM      1  O   UNL     1      -1.024   6.373  -0.679  1.00  0.00    -0.376 OA
ENDROOT
BRANCH   1   2
ATOM      2  C   UNL     1      -1.655   6.721  -2.034  1.00  0.00     0.202 C 
BRANCH   2   3
ATOM      3  C   UNL     1      -2.834   5.480  -3.418  1.00  0.00     0.261 C 
BRANCH   3   4
ATOM      4  O   UNL     1      -4.083   4.294  -2.817  1.00  0.00    -0.463 OA
BRANCH   4   5
ATOM      5  C   UNL     1      -5.003   4.157  -1.704  1.00  0.00     0.306 C 
ATOM      6  O   UNL     1      -5.612   3.086  -1.591  1.00  0.00    -0.252 OA
BRANCH   5   7
ATOM      7  C   UNL     1      -5.280   5.369  -0.437  1.00  0.00     0.132 C 
BRANCH   7   8
ATOM      8  C   UNL     1      -5.225   7.116  -0.248  1.00  0.00     0.112 C 
BRANCH   8   9
ATOM      9  C   UNL     1      -4.673   8.579  -1.087  1.00  0.00     0.225 C 
ATOM     10  N   UNL     1      -3.926   8.716  -2.310  1.00  0.00    -0.323 N 
ATOM     11  H   UNL     1      -3.792   9.617  -2.682  1.00  0.00     0.170 HD
ATOM     12  O   UNL     1      -4.972   9.650  -0.530  1.00  0.00    -0.275 OA
BRANCH  10  13
ATOM     13  C   UNL     1      -3.377   7.605  -3.001  1.00  0.00     0.083 A 
ATOM     14  C   UNL     1      -1.056   4.789  -2.554  1.00  0.00    -0.014 A 
ATOM     15  C   UNL     1      -0.829   6.008  -3.872  1.00  0.00     0.011 A 
ATOM     16  C   UNL     1      -2.545   4.970  -1.533  1.00  0.00     0.057 A 
ATOM     17  C   UNL     1      -1.962   7.414  -4.045  1.00  0.00     0.031 A 
ATOM     18  C   UNL     1      -3.711   6.396  -1.893  1.00  0.00     0.142 A 
BRANCH  14  19
ATOM     19  C   UNL     1       0.064   3.942  -2.091  1.00  0.00    -0.014 A 
ATOM     20  C   UNL     1       1.032   1.825  -1.346  1.00  0.00     0.142 A 
ATOM     21  C   UNL     1      -0.042   2.561  -1.891  1.00  0.00     0.057 A 
ATOM     22  C   UNL     1       2.252   2.448  -1.025  1.00  0.00     0.074 A 
ATOM     23  C   UNL     1       2.329   3.834  -1.159  1.00  0.00     0.030 A 
ATOM     24  C   UNL     1       1.267   4.561  -1.709  1.00  0.00     0.011 A 
BRANCH  20  25
ATOM     25  O   UNL     1       0.846   0.465  -1.241  1.00  0.00    -0.495 OA
ATOM     26  C   UNL     1       0.942  -0.015   0.102  1.00  0.00     0.278 C 
ENDBRANCH  20  25
BRANCH  22  27
ATOM     27  N   UNL     1       3.337   1.762  -0.483  1.00  0.00    -0.396 N 
ATOM     28  H   UNL     1       3.299   0.783  -0.382  1.00  0.00     0.156 HD
ATOM     29  H   UNL     1       4.141   2.255  -0.202  1.00  0.00     0.156 HD
ENDBRANCH  22  27
ENDBRANCH  14  19
BRANCH  18  30
ATOM     30  O   UNL     1      -5.132   6.140  -2.625  1.00  0.00    -0.495 OA
ATOM     31  C   UNL     1      -6.223   7.024  -2.919  1.00  0.00     0.278 C 
ENDBRANCH  18  30
ENDBRANCH  10  13
ENDBRANCH   8   9
ENDBRANCH   7   8
ENDBRANCH   5   7
ENDBRANCH   4   5
ENDBRANCH   3   4
ENDBRANCH   2   3
ENDBRANCH   1   2
BRANCH   1  32
ATOM     32  C   UNL     1      -1.708   6.844   0.479  1.00  0.00     0.188 C 
BRANCH  32  33
ATOM     33  C   UNL     1      -1.857   8.361   0.725  1.00  0.00     0.188 C 
BRANCH  33  34
ATOM     34  O   UNL     1      -1.217   9.296  -0.121  1.00  0.00    -0.376 OA
BRANCH  34  35
ATOM     35  C   UNL     1       0.177   9.158  -0.348  1.00  0.00     0.202 C 
BRANCH  35  36
ATOM     36  C   UNL     1       1.125   8.982   0.844  1.00  0.00     0.261 C 
BRANCH  36  37
ATOM     37  O   UNL     1       0.832   7.837   1.666  1.00  0.00    -0.460 OA
BRANCH  37  38
ATOM     38  C   UNL     1       0.404   8.106   2.926  1.00  0.00     0.338 C 
ATOM     39  O   UNL     1       0.295   9.198   3.455  1.00  0.00    -0.246 OA
BRANCH  38  40
ATOM     40  C   UNL     1      -0.147   6.873   3.525  1.00  0.00     0.060 A 
ATOM     41  C   UNL     1      -1.521   6.818   3.825  1.00  0.00     0.016 A 
ATOM     42  C   UNL     1       0.683   5.786   3.792  1.00  0.00     0.016 A 
ATOM     43  C   UNL     1      -2.066   5.684   4.415  1.00  0.00     0.010 A 
ATOM     44  C   UNL     1       0.151   4.675   4.449  1.00  0.00     0.010 A 
ATOM     45  C   UNL     1      -1.212   4.648   4.804  1.00  0.00    -0.014 A 
BRANCH  45  46
ATOM     46  C   UNL     1      -1.666   3.744   5.882  1.00  0.00     0.031 A 
ATOM     47  C   UNL     1      -1.405   4.185   7.296  1.00  0.00     0.074 A 
ATOM     48  C   UNL     1      -2.304   2.593   5.627  1.00  0.00     0.049 A 
ATOM     49  N   UNL     1      -1.669   3.579   8.423  1.00  0.00    -0.248 NA
ATOM     50  C   UNL     1      -0.747   5.494   7.454  1.00  0.00     0.031 C 
ATOM     51  C   UNL     1      -2.657   2.092   4.302  1.00  0.00     0.029 A 
ATOM     52  N   UNL     1      -2.757   1.631   6.491  1.00  0.00    -0.354 N 
ATOM     53  C   UNL     1      -1.195   4.425   9.419  1.00  0.00     0.074 A 
ATOM     54  C   UNL     1      -0.603   5.569   8.765  1.00  0.00     0.031 C 
ATOM     55  C   UNL     1      -3.255   0.895   4.440  1.00  0.00     0.029 A 
ATOM     56  C   UNL     1      -3.294   0.539   5.859  1.00  0.00     0.049 A 
ATOM     57  H   UNL     1      -2.703   1.715   7.471  1.00  0.00     0.167 HD
ATOM     58  C   UNL     1      -1.243   4.263  10.761  1.00  0.00     0.031 A 
ATOM     59  C   UNL     1      -3.738  -0.624   6.372  1.00  0.00     0.031 A 
ATOM     60  C   UNL     1      -1.792   3.098  11.401  1.00  0.00     0.049 A 
ATOM     61  C   UNL     1      -3.719  -0.821   7.865  1.00  0.00     0.074 A 
ATOM     62  C   UNL     1      -1.902   2.826  12.752  1.00  0.00     0.029 A 
ATOM     63  N   UNL     1      -2.301   1.998  10.726  1.00  0.00    -0.354 N 
ATOM     64  N   UNL     1      -3.299  -0.007   8.805  1.00  0.00    -0.248 NA
ATOM     65  C   UNL     1      -4.257  -2.092   8.367  1.00  0.00     0.031 C 
ATOM     66  C   UNL     1      -2.405   1.527  12.892  1.00  0.00     0.029 A 
ATOM     67  C   UNL     1      -2.693   1.027  11.631  1.00  0.00     0.049 A 
ATOM     68  H   UNL     1      -2.373   1.920   9.747  1.00  0.00     0.167 HD
ATOM     69  C   UNL     1      -3.546  -0.654  10.011  1.00  0.00     0.074 A 
ATOM     70  C   UNL     1      -4.171  -1.919   9.678  1.00  0.00     0.031 C 
ATOM     71  C   UNL     1      -3.289  -0.239  11.278  1.00  0.00     0.031 A 
BRANCH  58  72
ATOM     72  C   UNL     1      -0.607   5.340  11.600  1.00  0.00    -0.014 A 
ATOM     73  C   UNL     1      -1.122   6.647  11.646  1.00  0.00     0.009 A 
ATOM     74  C   UNL     1       0.559   5.048  12.324  1.00  0.00     0.009 A 
ATOM     75  C   UNL     1      -0.448   7.650  12.348  1.00  0.00     0.001 A 
ATOM     76  C   UNL     1       1.208   6.042  13.059  1.00  0.00     0.001 A 
ATOM     77  C   UNL     1       0.714   7.346  13.055  1.00  0.00     0.000 A 
ENDBRANCH  58  72
BRANCH  59  78
ATOM     78  C   UNL     1      -4.215  -1.694   5.457  1.00  0.00    -0.014 A 
ATOM     79  C   UNL     1      -5.571  -2.044   5.396  1.00  0.00     0.009 A 
ATOM     80  C   UNL     1      -3.306  -2.357   4.615  1.00  0.00     0.009 A 
ATOM     81  C   UNL     1      -6.006  -3.043   4.521  1.00  0.00     0.001 A 
ATOM     82  C   UNL     1      -3.748  -3.332   3.719  1.00  0.00     0.001 A 
ATOM     83  C   UNL     1      -5.096  -3.679   3.677  1.00  0.00     0.000 A 
ENDBRANCH  59  78
BRANCH  71  84
ATOM     84  C   UNL     1      -3.721  -1.150  12.398  1.00  0.00    -0.014 A 
ATOM     85  C   UNL     1      -3.115  -2.398  12.614  1.00  0.00     0.009 A 
ATOM     86  C   UNL     1      -4.750  -0.741  13.262  1.00  0.00     0.009 A 
ATOM     87  C   UNL     1      -3.571  -3.240  13.631  1.00  0.00     0.001 A 
ATOM     88  C   UNL     1      -5.176  -1.566  14.304  1.00  0.00     0.001 A 
ATOM     89  C   UNL     1      -4.599  -2.822  14.476  1.00  0.00     0.000 A 
ENDBRANCH  71  84
ENDBRANCH  45  46
ENDBRANCH  38  40
ENDBRANCH  37  38
ENDBRANCH  36  37
ENDBRANCH  35  36
ENDBRANCH  34  35
ENDBRANCH  33  34
ENDBRANCH  32  33
ENDBRANCH   1  32
TORSDOF 24
