REMARK SMILES O=C(OCCOCCOCCOC(=O)c1cn(-c2ccnc3ccc(Cl)cc23)cn1)c1ccc(-c2c3nc(c(-c4ccccc4)c4ccc([nH]4)c(-c4ccccc4)c4nc(c(-c5ccccc5)c5ccc2[nH]5)C=C4)C=C3)cc1
REMARK SMILES IDX 7 1 6 2 5 3 4 4 3 5 2 6 1 7 31 8 32 9 78 10 33 11 77 12
REMARK SMILES IDX 34 13 35 14 36 15 71 16 37 17 76 18 70 19 72 20 38 21 75 22
REMARK SMILES IDX 69 23 68 24 39 26 61 27 46 28 60 29 47 30 50 31 59 32 73 33
REMARK SMILES IDX 48 34 49 35 58 37 74 38 51 39 40 40 41 41 45 42 42 43 44 44
REMARK SMILES IDX 43 45 62 46 63 47 67 48 64 49 66 50 65 51 52 52 53 53 57 54
REMARK SMILES IDX 54 55 56 56 55 57 8 58 9 59 10 60 11 61 12 62 13 63 14 64
REMARK SMILES IDX 15 65 16 66 30 67 17 68 29 69 18 70 19 71 28 72 20 73 22 74
REMARK SMILES IDX 27 75 21 76 23 77 25 78 24 79 26 80
REMARK H PARENT 72 25 50 36
REMARK Flexibility Score: inf
ROOT
ATOM      1  C   UNL     1       3.365   0.029  -1.601  1.00  0.00     0.188 C 
ENDROOT
BRANCH   1   2
ATOM      2  O   UNL     1       4.722  -0.337  -1.491  1.00  0.00    -0.376 OA
BRANCH   2   3
ATOM      3  C   UNL     1       5.378  -0.410  -0.243  1.00  0.00     0.202 C 
BRANCH   3   4
ATOM      4  C   UNL     1       4.692  -0.892   1.042  1.00  0.00     0.261 C 
BRANCH   4   5
ATOM      5  O   UNL     1       3.288  -1.128   0.968  1.00  0.00    -0.460 OA
BRANCH   5   6
ATOM      6  C   UNL     1       2.244  -0.354   1.314  1.00  0.00     0.338 C 
ATOM      7  O   UNL     1       1.127  -0.869   1.352  1.00  0.00    -0.246 OA
BRANCH   6   8
ATOM      8  C   UNL     1       2.319   1.113   1.584  1.00  0.00     0.060 A 
ATOM      9  C   UNL     1       3.462   1.865   1.863  1.00  0.00     0.016 A 
ATOM     10  C   UNL     1       1.068   1.760   1.608  1.00  0.00     0.016 A 
ATOM     11  C   UNL     1       3.333   3.124   2.428  1.00  0.00     0.010 A 
ATOM     12  C   UNL     1       0.932   3.023   2.142  1.00  0.00     0.010 A 
ATOM     13  C   UNL     1       2.059   3.644   2.654  1.00  0.00    -0.014 A 
BRANCH  13  14
ATOM     14  C   UNL     1       1.934   4.922   3.327  1.00  0.00     0.031 A 
ATOM     15  C   UNL     1       2.456   6.040   2.507  1.00  0.00     0.074 A 
ATOM     16  C   UNL     1       1.319   5.045   4.522  1.00  0.00     0.049 A 
ATOM     17  N   UNL     1       3.533   6.719   2.715  1.00  0.00    -0.248 NA
ATOM     18  C   UNL     1       1.835   6.289   1.193  1.00  0.00     0.031 C 
ATOM     19  C   UNL     1       0.584   4.017   5.267  1.00  0.00     0.029 A 
ATOM     20  N   UNL     1       1.135   6.149   5.295  1.00  0.00    -0.354 N 
ATOM     21  C   UNL     1       3.573   7.665   1.696  1.00  0.00     0.074 A 
ATOM     22  C   UNL     1       2.660   7.204   0.683  1.00  0.00     0.031 C 
ATOM     23  C   UNL     1      -0.170   4.606   6.226  1.00  0.00     0.029 A 
ATOM     24  C   UNL     1       0.132   6.027   6.255  1.00  0.00     0.049 A 
ATOM     25  H   UNL     1       1.669   6.969   5.186  1.00  0.00     0.167 HD
ATOM     26  C   UNL     1       4.065   8.910   1.943  1.00  0.00     0.031 A 
ATOM     27  C   UNL     1      -0.439   7.031   6.974  1.00  0.00     0.031 A 
ATOM     28  C   UNL     1       4.898   8.917   3.123  1.00  0.00     0.049 A 
ATOM     29  C   UNL     1       0.472   8.197   6.905  1.00  0.00     0.074 A 
ATOM     30  C   UNL     1       6.028   8.230   3.523  1.00  0.00     0.029 A 
ATOM     31  N   UNL     1       4.338   9.426   4.270  1.00  0.00    -0.354 N 
ATOM     32  N   UNL     1       1.639   8.220   7.480  1.00  0.00    -0.248 NA
ATOM     33  C   UNL     1       0.301   9.118   5.793  1.00  0.00     0.031 C 
ATOM     34  C   UNL     1       5.825   7.963   4.909  1.00  0.00     0.029 A 
ATOM     35  C   UNL     1       4.641   8.586   5.307  1.00  0.00     0.049 A 
ATOM     36  H   UNL     1       3.810  10.254   4.335  1.00  0.00     0.167 HD
ATOM     37  C   UNL     1       2.480   8.777   6.528  1.00  0.00     0.074 A 
ATOM     38  C   UNL     1       1.586   9.388   5.542  1.00  0.00     0.031 C 
ATOM     39  C   UNL     1       3.798   8.421   6.468  1.00  0.00     0.031 A 
BRANCH  26  40
ATOM     40  C   UNL     1       3.357  10.161   1.460  1.00  0.00    -0.014 A 
ATOM     41  C   UNL     1       3.875  11.409   1.846  1.00  0.00     0.009 A 
ATOM     42  C   UNL     1       2.051  10.162   0.929  1.00  0.00     0.009 A 
ATOM     43  C   UNL     1       3.089  12.567   1.811  1.00  0.00     0.001 A 
ATOM     44  C   UNL     1       1.278  11.322   0.853  1.00  0.00     0.001 A 
ATOM     45  C   UNL     1       1.786  12.520   1.327  1.00  0.00     0.000 A 
ENDBRANCH  26  40
BRANCH  27  46
ATOM     46  C   UNL     1      -1.839   7.177   7.445  1.00  0.00    -0.014 A 
ATOM     47  C   UNL     1      -2.191   8.176   8.373  1.00  0.00     0.009 A 
ATOM     48  C   UNL     1      -2.887   6.531   6.764  1.00  0.00     0.009 A 
ATOM     49  C   UNL     1      -3.531   8.541   8.575  1.00  0.00     0.001 A 
ATOM     50  C   UNL     1      -4.224   6.894   6.967  1.00  0.00     0.001 A 
ATOM     51  C   UNL     1      -4.546   7.910   7.860  1.00  0.00     0.000 A 
ENDBRANCH  27  46
BRANCH  39  52
ATOM     52  C   UNL     1       4.369   7.617   7.609  1.00  0.00    -0.014 A 
ATOM     53  C   UNL     1       3.911   6.338   7.978  1.00  0.00     0.009 A 
ATOM     54  C   UNL     1       5.509   8.124   8.249  1.00  0.00     0.009 A 
ATOM     55  C   UNL     1       4.560   5.610   8.983  1.00  0.00     0.001 A 
ATOM     56  C   UNL     1       6.167   7.389   9.236  1.00  0.00     0.001 A 
ATOM     57  C   UNL     1       5.689   6.136   9.608  1.00  0.00     0.000 A 
ENDBRANCH  39  52
ENDBRANCH  13  14
ENDBRANCH   6   8
ENDBRANCH   5   6
ENDBRANCH   4   5
ENDBRANCH   3   4
ENDBRANCH   2   3
ENDBRANCH   1   2
BRANCH   1  58
ATOM     58  C   UNL     1       2.388  -1.109  -2.001  1.00  0.00     0.188 C 
BRANCH  58  59
ATOM     59  O   UNL     1       2.820  -2.460  -2.138  1.00  0.00    -0.376 OA
BRANCH  59  60
ATOM     60  C   UNL     1       4.126  -2.752  -2.605  1.00  0.00     0.202 C 
BRANCH  60  61
ATOM     61  C   UNL     1       4.571  -2.205  -3.970  1.00  0.00     0.261 C 
BRANCH  61  62
ATOM     62  O   UNL     1       4.230  -0.832  -4.192  1.00  0.00    -0.458 OA
BRANCH  62  63
ATOM     63  C   UNL     1       3.252  -0.576  -5.093  1.00  0.00     0.358 C 
ATOM     64  O   UNL     1       2.756  -1.409  -5.865  1.00  0.00    -0.244 OA
BRANCH  63  65
ATOM     65  C   UNL     1       2.834   0.817  -5.071  1.00  0.00     0.166 A 
ATOM     66  C   UNL     1       3.246   1.795  -5.946  1.00  0.00     0.129 A 
ATOM     67  N   UNL     1       1.931   1.362  -4.162  1.00  0.00    -0.229 NA
ATOM     68  N   UNL     1       2.506   2.909  -5.638  1.00  0.00    -0.305 N 
ATOM     69  C   UNL     1       1.798   2.625  -4.501  1.00  0.00     0.205 A 
BRANCH  68  70
ATOM     70  C   UNL     1       2.399   4.065  -6.428  1.00  0.00     0.057 A 
ATOM     71  C   UNL     1       2.649   5.303  -5.845  1.00  0.00     0.047 A 
ATOM     72  C   UNL     1       2.082   3.939  -7.805  1.00  0.00     0.026 A 
ATOM     73  C   UNL     1       2.671   6.390  -6.691  1.00  0.00     0.114 A 
ATOM     74  C   UNL     1       2.143   5.120  -8.565  1.00  0.00     0.072 A 
ATOM     75  C   UNL     1       1.656   2.736  -8.434  1.00  0.00     0.033 A 
ATOM     76  N   UNL     1       2.444   6.314  -8.022  1.00  0.00    -0.256 NA
ATOM     77  C   UNL     1       1.863   5.046  -9.925  1.00  0.00     0.030 A 
ATOM     78  C   UNL     1       1.367   2.698  -9.791  1.00  0.00     0.041 A 
ATOM     79  C   UNL     1       1.484   3.850 -10.546  1.00  0.00     0.023 A 
ATOM     80  Cl  UNL     1       0.855   1.226 -10.514  1.00  0.00    -0.084 Cl
ENDBRANCH  68  70
ENDBRANCH  63  65
ENDBRANCH  62  63
ENDBRANCH  61  62
ENDBRANCH  60  61
ENDBRANCH  59  60
ENDBRANCH  58  59
ENDBRANCH   1  58
TORSDOF 18
