REMARK SMILES CCCCOc1ccc(-c2nc(C)c(C(=O)OCCOCCOCCOC(=O)c3ccc(-c4c5nc(c(-c6ccccc6)c6ccc([nH]6)c(-c6ccccc6)c6nc(c(-c7ccccc7)c7ccc4[nH]7)C=C6)C=C5)cc3)s2)cc1
REMARK SMILES IDX 20 1 19 2 18 3 17 4 15 5 16 6 14 7 10 8 11 9 77 10 12 11
REMARK SMILES IDX 13 12 9 13 6 14 7 15 79 16 8 17 78 18 5 19 4 20 3 21 2 22
REMARK SMILES IDX 1 23 21 24 22 25 23 26 24 27 25 28 26 29 27 30 28 31 29 32
REMARK SMILES IDX 30 33 76 34 31 35 75 36 32 37 33 38 34 39 69 40 35 41 74 42
REMARK SMILES IDX 68 43 70 44 36 45 73 46 67 47 66 48 37 50 59 51 44 52 58 53
REMARK SMILES IDX 45 54 48 55 57 56 71 57 46 58 47 59 56 61 72 62 49 63 38 64
REMARK SMILES IDX 39 65 43 66 40 67 42 68 41 69 60 70 61 71 65 72 62 73 64 74
REMARK SMILES IDX 63 75 50 76 51 77 55 78 52 79 54 80 53 81
REMARK H PARENT 70 49 48 60
REMARK Flexibility Score: inf
ROOT
ATOM      1  O   UNL     1      -6.241   3.860  -6.669  1.00  0.00    -0.376 OA
ENDROOT
BRANCH   1   2
ATOM      2  C   UNL     1      -6.799   5.082  -6.203  1.00  0.00     0.202 C 
BRANCH   2   3
ATOM      3  C   UNL     1      -7.448   5.061  -4.818  1.00  0.00     0.261 C 
BRANCH   3   4
ATOM      4  O   UNL     1      -6.513   4.718  -3.782  1.00  0.00    -0.459 OA
BRANCH   4   5
ATOM      5  C   UNL     1      -6.875   3.671  -2.979  1.00  0.00     0.350 C 
ATOM      6  O   UNL     1      -7.957   3.120  -3.020  1.00  0.00    -0.245 OA
BRANCH   5   7
ATOM      7  C   UNL     1      -5.747   3.250  -2.172  1.00  0.00     0.135 A 
ATOM      8  C   UNL     1      -4.156   1.857  -0.971  1.00  0.00     0.124 A 
ATOM      9  N   UNL     1      -3.775   3.115  -0.927  1.00  0.00    -0.240 NA
ATOM     10  S   UNL     1      -5.630   1.574  -1.792  1.00  0.00    -0.106 S 
ATOM     11  C   UNL     1      -4.664   3.924  -1.628  1.00  0.00     0.064 A 
ATOM     12  C   UNL     1      -4.346   5.378  -1.668  1.00  0.00     0.068 C 
BRANCH   8  13
ATOM     13  C   UNL     1      -3.430   0.746  -0.358  1.00  0.00     0.011 A 
ATOM     14  C   UNL     1      -1.915  -1.292   0.816  1.00  0.00     0.119 A 
ATOM     15  C   UNL     1      -2.382  -0.241   1.602  1.00  0.00     0.047 A 
ATOM     16  C   UNL     1      -2.262  -1.374  -0.530  1.00  0.00     0.047 A 
ATOM     17  C   UNL     1      -3.125   0.784   1.011  1.00  0.00     0.015 A 
ATOM     18  C   UNL     1      -2.999  -0.349  -1.122  1.00  0.00     0.015 A 
BRANCH  14  19
ATOM     19  O   UNL     1      -1.148  -2.301   1.322  1.00  0.00    -0.494 OA
BRANCH  19  20
ATOM     20  C   UNL     1       0.114  -1.855   1.837  1.00  0.00     0.229 C 
BRANCH  20  21
ATOM     21  C   UNL     1       1.243  -2.162   0.847  1.00  0.00     0.041 C 
BRANCH  21  22
ATOM     22  C   UNL     1       1.345  -1.211  -0.352  1.00  0.00     0.000 C 
ATOM     23  C   UNL     1       1.700   0.218   0.029  1.00  0.00     0.004 C 
ENDBRANCH  21  22
ENDBRANCH  20  21
ENDBRANCH  19  20
ENDBRANCH  14  19
ENDBRANCH   8  13
ENDBRANCH   5   7
ENDBRANCH   4   5
ENDBRANCH   3   4
ENDBRANCH   2   3
ENDBRANCH   1   2
BRANCH   1  24
ATOM     24  C   UNL     1      -5.145   3.275  -5.975  1.00  0.00     0.188 C 
BRANCH  24  25
ATOM     25  C   UNL     1      -3.992   4.162  -5.467  1.00  0.00     0.188 C 
BRANCH  25  26
ATOM     26  O   UNL     1      -3.951   5.461  -6.036  1.00  0.00    -0.376 OA
BRANCH  26  27
ATOM     27  C   UNL     1      -2.813   5.748  -6.839  1.00  0.00     0.202 C 
BRANCH  27  28
ATOM     28  C   UNL     1      -2.910   5.158  -8.248  1.00  0.00     0.261 C 
BRANCH  28  29
ATOM     29  O   UNL     1      -2.975   3.722  -8.289  1.00  0.00    -0.460 OA
BRANCH  29  30
ATOM     30  C   UNL     1      -1.878   3.053  -7.873  1.00  0.00     0.338 C 
ATOM     31  O   UNL     1      -0.833   3.525  -7.465  1.00  0.00    -0.246 OA
BRANCH  30  32
ATOM     32  C   UNL     1      -2.212   1.616  -7.844  1.00  0.00     0.060 A 
ATOM     33  C   UNL     1      -2.055   0.906  -6.648  1.00  0.00     0.016 A 
ATOM     34  C   UNL     1      -2.676   0.976  -8.996  1.00  0.00     0.016 A 
ATOM     35  C   UNL     1      -2.342  -0.460  -6.610  1.00  0.00     0.010 A 
ATOM     36  C   UNL     1      -2.947  -0.393  -8.960  1.00  0.00     0.010 A 
ATOM     37  C   UNL     1      -2.759  -1.122  -7.774  1.00  0.00    -0.014 A 
BRANCH  37  38
ATOM     38  C   UNL     1      -2.845  -2.601  -7.804  1.00  0.00     0.031 A 
ATOM     39  C   UNL     1      -1.657  -3.384  -8.289  1.00  0.00     0.074 A 
ATOM     40  C   UNL     1      -3.962  -3.244  -7.421  1.00  0.00     0.049 A 
ATOM     41  N   UNL     1      -1.520  -4.676  -8.440  1.00  0.00    -0.248 NA
ATOM     42  C   UNL     1      -0.463  -2.602  -8.653  1.00  0.00     0.031 C 
ATOM     43  C   UNL     1      -5.173  -2.611  -6.905  1.00  0.00     0.029 A 
ATOM     44  N   UNL     1      -4.255  -4.586  -7.421  1.00  0.00    -0.354 N 
ATOM     45  C   UNL     1      -0.228  -4.863  -8.915  1.00  0.00     0.074 A 
ATOM     46  C   UNL     1       0.369  -3.552  -9.052  1.00  0.00     0.031 C 
ATOM     47  C   UNL     1      -6.086  -3.566  -6.646  1.00  0.00     0.029 A 
ATOM     48  C   UNL     1      -5.532  -4.870  -7.005  1.00  0.00     0.049 A 
ATOM     49  H   UNL     1      -3.610  -5.279  -7.693  1.00  0.00     0.167 HD
ATOM     50  C   UNL     1       0.409  -6.020  -9.210  1.00  0.00     0.031 A 
ATOM     51  C   UNL     1      -6.185  -6.047  -6.941  1.00  0.00     0.031 A 
ATOM     52  C   UNL     1      -0.184  -7.325  -9.105  1.00  0.00     0.049 A 
ATOM     53  C   UNL     1      -5.483  -7.314  -7.354  1.00  0.00     0.074 A 
ATOM     54  C   UNL     1       0.389  -8.557  -9.372  1.00  0.00     0.029 A 
ATOM     55  N   UNL     1      -1.491  -7.566  -8.713  1.00  0.00    -0.354 N 
ATOM     56  N   UNL     1      -4.250  -7.480  -7.768  1.00  0.00    -0.248 NA
ATOM     57  C   UNL     1      -6.266  -8.558  -7.287  1.00  0.00     0.031 C 
ATOM     58  C   UNL     1      -0.588  -9.541  -9.187  1.00  0.00     0.029 A 
ATOM     59  C   UNL     1      -1.752  -8.925  -8.757  1.00  0.00     0.049 A 
ATOM     60  H   UNL     1      -2.137  -6.874  -8.444  1.00  0.00     0.167 HD
ATOM     61  C   UNL     1      -4.103  -8.846  -7.983  1.00  0.00     0.074 A 
ATOM     62  C   UNL     1      -5.367  -9.464  -7.646  1.00  0.00     0.031 C 
ATOM     63  C   UNL     1      -3.014  -9.527  -8.418  1.00  0.00     0.031 A 
BRANCH  50  64
ATOM     64  C   UNL     1       1.821  -5.915  -9.707  1.00  0.00    -0.014 A 
ATOM     65  C   UNL     1       2.874  -5.597  -8.836  1.00  0.00     0.009 A 
ATOM     66  C   UNL     1       2.103  -6.157 -11.060  1.00  0.00     0.009 A 
ATOM     67  C   UNL     1       4.180  -5.492  -9.318  1.00  0.00     0.001 A 
ATOM     68  C   UNL     1       3.413  -6.074 -11.534  1.00  0.00     0.001 A 
ATOM     69  C   UNL     1       4.449  -5.734 -10.665  1.00  0.00     0.000 A 
ENDBRANCH  50  64
BRANCH  51  70
ATOM     70  C   UNL     1      -7.598  -6.093  -6.486  1.00  0.00    -0.014 A 
ATOM     71  C   UNL     1      -7.931  -6.654  -5.243  1.00  0.00     0.009 A 
ATOM     72  C   UNL     1      -8.626  -5.604  -7.308  1.00  0.00     0.009 A 
ATOM     73  C   UNL     1      -9.266  -6.746  -4.844  1.00  0.00     0.001 A 
ATOM     74  C   UNL     1      -9.958  -5.675  -6.895  1.00  0.00     0.001 A 
ATOM     75  C   UNL     1     -10.277  -6.254  -5.668  1.00  0.00     0.000 A 
ENDBRANCH  51  70
BRANCH  63  76
ATOM     76  C   UNL     1      -3.129 -11.021  -8.521  1.00  0.00    -0.014 A 
ATOM     77  C   UNL     1      -3.852 -11.626  -9.560  1.00  0.00     0.009 A 
ATOM     78  C   UNL     1      -2.462 -11.835  -7.591  1.00  0.00     0.009 A 
ATOM     79  C   UNL     1      -3.927 -13.018  -9.649  1.00  0.00     0.001 A 
ATOM     80  C   UNL     1      -2.519 -13.225  -7.697  1.00  0.00     0.001 A 
ATOM     81  C   UNL     1      -3.258 -13.816  -8.721  1.00  0.00     0.000 A 
ENDBRANCH  63  76
ENDBRANCH  37  38
ENDBRANCH  30  32
ENDBRANCH  29  30
ENDBRANCH  28  29
ENDBRANCH  27  28
ENDBRANCH  26  27
ENDBRANCH  25  26
ENDBRANCH  24  25
ENDBRANCH   1  24
TORSDOF 22
