REMARK SMILES CSCc1ccc(C(=O)Nc2cc(C)c(C(=O)OCCOCCOCCOC(=O)c3ccc(-c4c5nc(c(-c6ccccc6)c6ccc([nH]6)c(-c6ccccc6)c6nc(c(-c7ccccc7)c7ccc4[nH]7)C=C6)C=C5)cc3)s2)cc1
REMARK SMILES IDX 22 1 21 2 20 3 19 4 18 5 16 6 17 7 15 8 11 9 12 10 78 11
REMARK SMILES IDX 13 12 14 13 10 14 8 15 9 16 7 18 4 19 5 20 80 21 6 22 79 23
REMARK SMILES IDX 3 24 2 25 1 26 23 27 24 28 25 29 26 30 27 31 28 32 29 33
REMARK SMILES IDX 30 34 31 35 77 36 32 37 76 38 33 39 34 40 35 41 70 42 36 43
REMARK SMILES IDX 75 44 69 45 71 46 37 47 74 48 68 49 67 50 38 52 60 53 45 54
REMARK SMILES IDX 59 55 46 56 49 57 58 58 72 59 47 60 48 61 57 63 73 64 50 65
REMARK SMILES IDX 39 66 40 67 44 68 41 69 43 70 42 71 61 72 62 73 66 74 63 75
REMARK SMILES IDX 65 76 64 77 51 78 52 79 56 80 53 81 55 82 54 83
REMARK H PARENT 10 17 71 51 49 62
REMARK Flexibility Score: inf
ROOT
ATOM      1  C   UNL     1      -0.079  -0.612   2.519  1.00  0.00     0.188 C 
ENDROOT
BRANCH   1   2
ATOM      2  O   UNL     1       0.174  -1.946   2.869  1.00  0.00    -0.376 OA
BRANCH   2   3
ATOM      3  C   UNL     1      -0.142  -2.392   4.171  1.00  0.00     0.202 C 
BRANCH   3   4
ATOM      4  C   UNL     1      -0.397  -1.458   5.374  1.00  0.00     0.261 C 
BRANCH   4   5
ATOM      5  O   UNL     1      -0.912  -0.144   5.107  1.00  0.00    -0.459 OA
BRANCH   5   6
ATOM      6  C   UNL     1      -0.070   0.919   5.315  1.00  0.00     0.348 C 
ATOM      7  O   UNL     1       1.061   0.806   5.772  1.00  0.00    -0.245 OA
BRANCH   6   8
ATOM      8  C   UNL     1      -0.653   2.150   4.778  1.00  0.00     0.117 A 
ATOM      9  C   UNL     1      -0.849   4.373   3.700  1.00  0.00     0.096 A 
ATOM     10  C   UNL     1      -2.046   3.927   4.192  1.00  0.00     0.042 A 
ATOM     11  S   UNL     1       0.412   3.286   3.999  1.00  0.00    -0.111 S 
ATOM     12  C   UNL     1      -1.976   2.587   4.704  1.00  0.00    -0.023 A 
ATOM     13  C   UNL     1      -3.205   1.850   5.128  1.00  0.00     0.046 C 
BRANCH   9  14
ATOM     14  N   UNL     1      -0.563   5.644   3.278  1.00  0.00    -0.314 N 
ATOM     15  C   UNL     1      -0.178   6.107   2.041  1.00  0.00     0.256 C 
ATOM     16  O   UNL     1       0.138   7.298   1.957  1.00  0.00    -0.269 OA
ATOM     17  H   UNL     1      -0.647   6.338   3.972  1.00  0.00     0.171 HD
BRANCH  15  18
ATOM     18  C   UNL     1      -0.187   5.300   0.788  1.00  0.00     0.040 A 
ATOM     19  C   UNL     1       0.047   3.795  -1.597  1.00  0.00    -0.038 A 
ATOM     20  C   UNL     1       0.778   4.980  -1.421  1.00  0.00     0.005 A 
ATOM     21  C   UNL     1      -0.971   3.520  -0.678  1.00  0.00     0.005 A 
ATOM     22  C   UNL     1       0.661   5.723  -0.245  1.00  0.00     0.014 A 
ATOM     23  C   UNL     1      -1.056   4.236   0.530  1.00  0.00     0.014 A 
BRANCH  19  24
ATOM     24  C   UNL     1       0.447   2.883  -2.745  1.00  0.00     0.104 C 
BRANCH  24  25
ATOM     25  S   UNL     1       0.469   0.992  -2.583  1.00  0.00    -0.161 SA
ATOM     26  C   UNL     1       1.977  -0.252  -0.908  1.00  0.00     0.085 C 
ENDBRANCH  24  25
ENDBRANCH  19  24
ENDBRANCH  15  18
ENDBRANCH   9  14
ENDBRANCH   6   8
ENDBRANCH   5   6
ENDBRANCH   4   5
ENDBRANCH   3   4
ENDBRANCH   2   3
ENDBRANCH   1   2
BRANCH   1  27
ATOM     27  C   UNL     1      -1.531  -0.162   2.241  1.00  0.00     0.188 C 
BRANCH  27  28
ATOM     28  O   UNL     1      -2.602  -0.928   2.742  1.00  0.00    -0.376 OA
BRANCH  28  29
ATOM     29  C   UNL     1      -2.895  -2.194   2.168  1.00  0.00     0.202 C 
BRANCH  29  30
ATOM     30  C   UNL     1      -2.498  -2.637   0.746  1.00  0.00     0.261 C 
BRANCH  30  31
ATOM     31  O   UNL     1      -1.264  -2.129   0.235  1.00  0.00    -0.460 OA
BRANCH  31  32
ATOM     32  C   UNL     1      -1.406  -1.198  -0.735  1.00  0.00     0.338 C 
ATOM     33  O   UNL     1      -2.436  -0.769  -1.221  1.00  0.00    -0.246 OA
BRANCH  32  34
ATOM     34  C   UNL     1      -0.090  -0.629  -1.013  1.00  0.00     0.060 A 
ATOM     35  C   UNL     1       0.423   0.927  -0.252  1.00  0.00     0.016 A 
ATOM     36  C   UNL     1       0.867  -1.329  -2.364  1.00  0.00     0.016 A 
ATOM     37  C   UNL     1       1.908   1.785  -0.847  1.00  0.00     0.010 A 
ATOM     38  C   UNL     1       2.316  -0.469  -2.966  1.00  0.00     0.010 A 
ATOM     39  C   UNL     1       2.831   1.103  -2.234  1.00  0.00    -0.014 A 
BRANCH  39  40
ATOM     40  C   UNL     1       3.966   1.851  -2.798  1.00  0.00     0.031 A 
ATOM     41  C   UNL     1       3.910   2.273  -4.238  1.00  0.00     0.074 A 
ATOM     42  C   UNL     1       4.985   2.209  -1.997  1.00  0.00     0.049 A 
ATOM     43  N   UNL     1       4.716   3.068  -4.890  1.00  0.00    -0.248 NA
ATOM     44  C   UNL     1       2.766   1.812  -5.041  1.00  0.00     0.031 C 
ATOM     45  C   UNL     1       5.109   1.907  -0.567  1.00  0.00     0.029 A 
ATOM     46  N   UNL     1       6.131   2.903  -2.284  1.00  0.00    -0.354 N 
ATOM     47  C   UNL     1       4.135   3.242  -6.140  1.00  0.00     0.074 A 
ATOM     48  C   UNL     1       2.917   2.481  -6.169  1.00  0.00     0.031 C 
ATOM     49  C   UNL     1       6.270   2.402  -0.109  1.00  0.00     0.029 A 
ATOM     50  C   UNL     1       6.997   2.997  -1.222  1.00  0.00     0.049 A 
ATOM     51  H   UNL     1       6.317   3.296  -3.168  1.00  0.00     0.167 HD
ATOM     52  C   UNL     1       4.594   3.945  -7.196  1.00  0.00     0.031 A 
ATOM     53  C   UNL     1       8.258   3.465  -1.174  1.00  0.00     0.031 A 
ATOM     54  C   UNL     1       5.898   4.531  -7.228  1.00  0.00     0.049 A 
ATOM     55  C   UNL     1       8.849   4.027  -2.438  1.00  0.00     0.074 A 
ATOM     56  C   UNL     1       6.535   5.157  -8.280  1.00  0.00     0.029 A 
ATOM     57  N   UNL     1       6.792   4.493  -6.168  1.00  0.00    -0.354 N 
ATOM     58  N   UNL     1       8.281   4.198  -3.609  1.00  0.00    -0.248 NA
ATOM     59  C   UNL     1      10.251   4.457  -2.378  1.00  0.00     0.031 C 
ATOM     60  C   UNL     1       7.851   5.410  -7.886  1.00  0.00     0.029 A 
ATOM     61  C   UNL     1       7.998   5.037  -6.557  1.00  0.00     0.049 A 
ATOM     62  H   UNL     1       6.595   4.133  -5.273  1.00  0.00     0.167 HD
ATOM     63  C   UNL     1       9.243   4.788  -4.415  1.00  0.00     0.074 A 
ATOM     64  C   UNL     1      10.428   4.951  -3.595  1.00  0.00     0.031 C 
ATOM     65  C   UNL     1       9.158   5.171  -5.713  1.00  0.00     0.031 A 
BRANCH  52  66
ATOM     66  C   UNL     1       3.731   3.974  -8.424  1.00  0.00    -0.014 A 
ATOM     67  C   UNL     1       2.540   4.718  -8.465  1.00  0.00     0.009 A 
ATOM     68  C   UNL     1       4.101   3.219  -9.547  1.00  0.00     0.009 A 
ATOM     69  C   UNL     1       1.732   4.692  -9.605  1.00  0.00     0.001 A 
ATOM     70  C   UNL     1       3.305   3.216 -10.692  1.00  0.00     0.001 A 
ATOM     71  C   UNL     1       2.119   3.947 -10.718  1.00  0.00     0.000 A 
ENDBRANCH  52  66
BRANCH  53  72
ATOM     72  C   UNL     1       9.058   3.349   0.076  1.00  0.00    -0.014 A 
ATOM     73  C   UNL     1       9.503   4.487   0.765  1.00  0.00     0.009 A 
ATOM     74  C   UNL     1       9.394   2.082   0.584  1.00  0.00     0.009 A 
ATOM     75  C   UNL     1      10.284   4.357   1.918  1.00  0.00     0.001 A 
ATOM     76  C   UNL     1      10.145   1.955   1.755  1.00  0.00     0.001 A 
ATOM     77  C   UNL     1      10.599   3.093   2.415  1.00  0.00     0.000 A 
ENDBRANCH  53  72
BRANCH  65  78
ATOM     78  C   UNL     1      10.356   5.848  -6.309  1.00  0.00    -0.014 A 
ATOM     79  C   UNL     1      11.537   5.146  -6.589  1.00  0.00     0.009 A 
ATOM     80  C   UNL     1      10.267   7.206  -6.658  1.00  0.00     0.009 A 
ATOM     81  C   UNL     1      12.620   5.802  -7.173  1.00  0.00     0.001 A 
ATOM     82  C   UNL     1      11.335   7.848  -7.279  1.00  0.00     0.001 A 
ATOM     83  C   UNL     1      12.515   7.148  -7.525  1.00  0.00     0.000 A 
ENDBRANCH  65  78
ENDBRANCH  39  40
ENDBRANCH  32  34
ENDBRANCH  31  32
ENDBRANCH  30  31
ENDBRANCH  29  30
ENDBRANCH  28  29
ENDBRANCH  27  28
ENDBRANCH   1  27
TORSDOF 21
