REMARK SMILES O=C(OCCOCCOCCOC(=O)c1cc(-c2ccccc2)nc(Nc2nc3ccccc3s2)n1)c1ccc(-c2c3nc(c(-c4ccccc4)c4ccc([nH]4)c(-c4ccccc4)c4nc(c(-c5ccccc5)c5ccc2[nH]5)C=C4)C=C3)cc1
REMARK SMILES IDX 7 1 6 2 5 3 4 4 3 5 2 6 1 7 37 8 38 9 84 10 39 11 83 12
REMARK SMILES IDX 40 13 41 14 42 15 77 16 43 17 82 18 76 19 78 20 44 21 81 22
REMARK SMILES IDX 75 23 74 24 45 26 67 27 52 28 66 29 53 30 56 31 65 32 79 33
REMARK SMILES IDX 54 34 55 35 64 37 80 38 57 39 46 40 47 41 51 42 48 43 50 44
REMARK SMILES IDX 49 45 68 46 69 47 73 48 70 49 72 50 71 51 58 52 59 53 63 54
REMARK SMILES IDX 60 55 62 56 61 57 8 58 9 59 10 60 11 61 12 62 13 63 14 64
REMARK SMILES IDX 15 65 16 66 36 67 17 68 25 69 24 70 18 71 19 72 23 73 20 74
REMARK SMILES IDX 22 75 21 76 26 77 27 79 28 80 35 81 29 82 34 83 30 84 33 85
REMARK SMILES IDX 31 86 32 87
REMARK H PARENT 78 25 56 36 26 78
REMARK Flexibility Score: inf
ROOT
ATOM      1  C   UNL     1       2.988  -0.680   1.723  1.00  0.00     0.188 C 
ENDROOT
BRANCH   1   2
ATOM      2  O   UNL     1       4.307  -1.038   1.310  1.00  0.00    -0.376 OA
BRANCH   2   3
ATOM      3  C   UNL     1       5.340  -0.083   1.594  1.00  0.00     0.202 C 
BRANCH   3   4
ATOM      4  C   UNL     1       5.083   1.361   1.138  1.00  0.00     0.261 C 
BRANCH   4   5
ATOM      5  O   UNL     1       4.960   1.395  -0.286  1.00  0.00    -0.460 OA
BRANCH   5   6
ATOM      6  C   UNL     1       3.703   1.254  -0.772  1.00  0.00     0.338 C 
ATOM      7  O   UNL     1       2.697   1.780  -0.325  1.00  0.00    -0.246 OA
BRANCH   6   8
ATOM      8  C   UNL     1       3.801   0.305  -1.903  1.00  0.00     0.060 A 
ATOM      9  C   UNL     1       4.760  -0.706  -1.794  1.00  0.00     0.016 A 
ATOM     10  C   UNL     1       3.050   0.429  -3.071  1.00  0.00     0.016 A 
ATOM     11  C   UNL     1       5.110  -1.465  -2.879  1.00  0.00     0.010 A 
ATOM     12  C   UNL     1       3.354  -0.399  -4.162  1.00  0.00     0.010 A 
ATOM     13  C   UNL     1       4.429  -1.305  -4.081  1.00  0.00    -0.014 A 
BRANCH  13  14
ATOM     14  C   UNL     1       5.029  -1.969  -5.253  1.00  0.00     0.031 A 
ATOM     15  C   UNL     1       5.801  -1.135  -6.230  1.00  0.00     0.074 A 
ATOM     16  C   UNL     1       5.152  -3.309  -5.295  1.00  0.00     0.049 A 
ATOM     17  N   UNL     1       6.472  -1.519  -7.283  1.00  0.00    -0.248 NA
ATOM     18  C   UNL     1       5.893   0.308  -5.946  1.00  0.00     0.031 C 
ATOM     19  C   UNL     1       4.766  -4.228  -4.222  1.00  0.00     0.029 A 
ATOM     20  N   UNL     1       5.720  -4.125  -6.242  1.00  0.00    -0.354 N 
ATOM     21  C   UNL     1       7.057  -0.370  -7.790  1.00  0.00     0.074 A 
ATOM     22  C   UNL     1       6.656   0.731  -6.943  1.00  0.00     0.031 C 
ATOM     23  C   UNL     1       5.139  -5.464  -4.579  1.00  0.00     0.029 A 
ATOM     24  C   UNL     1       5.575  -5.459  -5.955  1.00  0.00     0.049 A 
ATOM     25  H   UNL     1       6.183  -3.788  -7.043  1.00  0.00     0.167 HD
ATOM     26  C   UNL     1       7.862  -0.252  -8.868  1.00  0.00     0.031 A 
ATOM     27  C   UNL     1       5.700  -6.536  -6.750  1.00  0.00     0.031 A 
ATOM     28  C   UNL     1       8.268  -1.355  -9.694  1.00  0.00     0.049 A 
ATOM     29  C   UNL     1       6.338  -6.332  -8.080  1.00  0.00     0.074 A 
ATOM     30  C   UNL     1       9.056  -1.336 -10.831  1.00  0.00     0.029 A 
ATOM     31  N   UNL     1       7.902  -2.673  -9.479  1.00  0.00    -0.354 N 
ATOM     32  N   UNL     1       6.884  -5.247  -8.559  1.00  0.00    -0.248 NA
ATOM     33  C   UNL     1       6.452  -7.516  -8.939  1.00  0.00     0.031 C 
ATOM     34  C   UNL     1       9.095  -2.633 -11.353  1.00  0.00     0.029 A 
ATOM     35  C   UNL     1       8.383  -3.465 -10.507  1.00  0.00     0.049 A 
ATOM     36  H   UNL     1       7.380  -2.998  -8.710  1.00  0.00     0.167 HD
ATOM     37  C   UNL     1       7.465  -5.632  -9.750  1.00  0.00     0.074 A 
ATOM     38  C   UNL     1       7.230  -7.053  -9.901  1.00  0.00     0.031 C 
ATOM     39  C   UNL     1       8.140  -4.872 -10.639  1.00  0.00     0.031 A 
BRANCH  26  40
ATOM     40  C   UNL     1       8.252   1.134  -9.276  1.00  0.00    -0.014 A 
ATOM     41  C   UNL     1       9.219   1.877  -8.584  1.00  0.00     0.009 A 
ATOM     42  C   UNL     1       7.624   1.699 -10.397  1.00  0.00     0.009 A 
ATOM     43  C   UNL     1       9.531   3.174  -8.997  1.00  0.00     0.001 A 
ATOM     44  C   UNL     1       7.956   2.983 -10.822  1.00  0.00     0.001 A 
ATOM     45  C   UNL     1       8.904   3.722 -10.117  1.00  0.00     0.000 A 
ENDBRANCH  26  40
BRANCH  27  46
ATOM     46  C   UNL     1       5.128  -7.870  -6.437  1.00  0.00    -0.014 A 
ATOM     47  C   UNL     1       5.947  -8.992  -6.233  1.00  0.00     0.009 A 
ATOM     48  C   UNL     1       3.737  -8.059  -6.543  1.00  0.00     0.009 A 
ATOM     49  C   UNL     1       5.386 -10.273  -6.141  1.00  0.00     0.001 A 
ATOM     50  C   UNL     1       3.178  -9.335  -6.423  1.00  0.00     0.001 A 
ATOM     51  C   UNL     1       4.003 -10.441  -6.227  1.00  0.00     0.000 A 
ENDBRANCH  27  46
BRANCH  39  52
ATOM     52  C   UNL     1       8.682  -5.598 -11.826  1.00  0.00    -0.014 A 
ATOM     53  C   UNL     1       7.821  -6.117 -12.806  1.00  0.00     0.009 A 
ATOM     54  C   UNL     1      10.062  -5.812 -11.933  1.00  0.00     0.009 A 
ATOM     55  C   UNL     1       8.332  -6.884 -13.849  1.00  0.00     0.001 A 
ATOM     56  C   UNL     1      10.573  -6.544 -13.002  1.00  0.00     0.001 A 
ATOM     57  C   UNL     1       9.707  -7.090 -13.950  1.00  0.00     0.000 A 
ENDBRANCH  39  52
ENDBRANCH  13  14
ENDBRANCH   6   8
ENDBRANCH   5   6
ENDBRANCH   4   5
ENDBRANCH   3   4
ENDBRANCH   2   3
ENDBRANCH   1   2
BRANCH   1  58
ATOM     58  C   UNL     1       2.190  -1.823   2.354  1.00  0.00     0.188 C 
BRANCH  58  59
ATOM     59  O   UNL     1       2.705  -2.421   3.543  1.00  0.00    -0.376 OA
BRANCH  59  60
ATOM     60  C   UNL     1       4.076  -2.790   3.567  1.00  0.00     0.202 C 
BRANCH  60  61
ATOM     61  C   UNL     1       4.557  -3.920   2.645  1.00  0.00     0.261 C 
BRANCH  61  62
ATOM     62  O   UNL     1       4.017  -3.917   1.318  1.00  0.00    -0.459 OA
BRANCH  62  63
ATOM     63  C   UNL     1       2.901  -4.674   1.198  1.00  0.00     0.357 C 
ATOM     64  O   UNL     1       2.343  -5.308   2.083  1.00  0.00    -0.244 OA
BRANCH  63  65
ATOM     65  C   UNL     1       2.544  -4.874  -0.213  1.00  0.00     0.154 A 
ATOM     66  C   UNL     1       2.849  -6.127  -0.636  1.00  0.00     0.065 A 
ATOM     67  N   UNL     1       1.728  -4.021  -0.863  1.00  0.00    -0.206 NA
ATOM     68  C   UNL     1       2.193  -6.551  -1.758  1.00  0.00     0.077 A 
ATOM     69  C   UNL     1       1.200  -4.477  -2.014  1.00  0.00     0.230 A 
ATOM     70  N   UNL     1       1.401  -5.736  -2.482  1.00  0.00    -0.213 NA
BRANCH  68  71
ATOM     71  C   UNL     1       2.529  -7.909  -2.193  1.00  0.00     0.000 A 
ATOM     72  C   UNL     1       3.471  -8.021  -3.199  1.00  0.00     0.010 A 
ATOM     73  C   UNL     1       2.366  -9.005  -1.330  1.00  0.00     0.010 A 
ATOM     74  C   UNL     1       4.447  -9.011  -3.140  1.00  0.00     0.001 A 
ATOM     75  C   UNL     1       3.255 -10.085  -1.370  1.00  0.00     0.001 A 
ATOM     76  C   UNL     1       4.340 -10.054  -2.236  1.00  0.00     0.000 A 
ENDBRANCH  68  71
BRANCH  69  77
ATOM     77  N   UNL     1       0.279  -3.726  -2.747  1.00  0.00    -0.300 N 
ATOM     78  H   UNL     1       0.025  -4.071  -3.634  1.00  0.00     0.172 HD
BRANCH  77  79
ATOM     79  C   UNL     1      -0.295  -2.572  -2.351  1.00  0.00     0.190 A 
ATOM     80  N   UNL     1       0.317  -1.449  -2.044  1.00  0.00    -0.220 NA
ATOM     81  S   UNL     1      -2.022  -2.478  -2.287  1.00  0.00    -0.097 S 
ATOM     82  C   UNL     1      -0.596  -0.497  -1.611  1.00  0.00     0.084 A 
ATOM     83  C   UNL     1      -1.927  -0.910  -1.591  1.00  0.00     0.056 A 
ATOM     84  C   UNL     1      -0.303   0.809  -1.173  1.00  0.00     0.030 A 
ATOM     85  C   UNL     1      -2.950  -0.095  -1.071  1.00  0.00     0.021 A 
ATOM     86  C   UNL     1      -1.302   1.624  -0.635  1.00  0.00     0.002 A 
ATOM     87  C   UNL     1      -2.610   1.165  -0.566  1.00  0.00     0.002 A 
ENDBRANCH  77  79
ENDBRANCH  69  77
ENDBRANCH  63  65
ENDBRANCH  62  63
ENDBRANCH  61  62
ENDBRANCH  60  61
ENDBRANCH  59  60
ENDBRANCH  58  59
ENDBRANCH   1  58
TORSDOF 20
