REMARK SMILES CC(C)(C(=O)OCCOCCOCCOC(=O)c1ccc(-c2c3nc(c(-c4ccccc4)c4ccc([nH]4)c(-c4ccccc4)c4nc(c(-c5ccccc5)c5ccc2[nH]5)C=C4)C=C3)cc1)n1nnnc1C(F)(F)C(F)F
REMARK SMILES IDX 10 1 9 2 8 3 7 4 6 5 4 6 5 7 2 8 1 9 3 10 66 11 67 12 70 13
REMARK SMILES IDX 68 14 69 15 71 16 72 17 73 18 74 19 75 20 76 21 11 22 12 23
REMARK SMILES IDX 13 24 14 25 15 26 16 27 17 28 18 29 19 30 65 31 20 32 64 33
REMARK SMILES IDX 21 34 22 35 23 36 58 37 24 38 63 39 57 40 59 41 25 42 62 43
REMARK SMILES IDX 56 44 55 45 26 47 48 48 33 49 47 50 34 51 37 52 46 53 60 54
REMARK SMILES IDX 35 55 36 56 45 58 61 59 38 60 27 61 28 62 32 63 29 64 31 65
REMARK SMILES IDX 30 66 49 67 50 68 54 69 51 70 53 71 52 72 39 73 40 74 44 75
REMARK SMILES IDX 41 76 43 77 42 78
REMARK H PARENT 59 46 37 57
REMARK Flexibility Score: inf
ROOT
ATOM      1  C   UNL     1      -2.758  -0.492   1.321  1.00  0.00     0.188 C 
ENDROOT
BRANCH   1   2
ATOM      2  O   UNL     1      -3.736   0.529   1.150  1.00  0.00    -0.376 OA
BRANCH   2   3
ATOM      3  C   UNL     1      -3.717   1.298  -0.043  1.00  0.00     0.202 C 
BRANCH   3   4
ATOM      4  C   UNL     1      -2.659   2.398  -0.107  1.00  0.00     0.261 C 
BRANCH   4   5
ATOM      5  O   UNL     1      -1.305   1.901  -0.064  1.00  0.00    -0.461 OA
BRANCH   5   6
ATOM      6  C   UNL     1      -0.585   2.247   1.045  1.00  0.00     0.333 C 
ATOM      7  O   UNL     1      -1.084   2.838   1.994  1.00  0.00    -0.249 OA
BRANCH   6   8
ATOM      8  C   UNL     1       0.927   1.900   0.922  1.00  0.00     0.158 C 
ATOM      9  C   UNL     1       1.218   1.081  -0.335  1.00  0.00     0.049 C 
ATOM     10  C   UNL     1       1.645   3.256   0.707  1.00  0.00     0.049 C 
BRANCH   8  11
ATOM     11  N   UNL     1       1.370   1.293   2.188  1.00  0.00    -0.207 N 
ATOM     12  N   UNL     1       1.241   2.080   3.288  1.00  0.00    -0.044 NA
ATOM     13  C   UNL     1       1.869   0.071   2.618  1.00  0.00     0.228 A 
ATOM     14  N   UNL     1       1.404   1.304   4.335  1.00  0.00    -0.024 NA
ATOM     15  N   UNL     1       1.769   0.063   3.943  1.00  0.00    -0.107 NA
BRANCH  13  16
ATOM     16  C   UNL     1       2.601  -1.033   1.919  1.00  0.00     0.367 C 
ATOM     17  F   UNL     1       3.806  -0.595   1.451  1.00  0.00    -0.191 F 
ATOM     18  F   UNL     1       2.935  -1.974   2.874  1.00  0.00    -0.191 F 
BRANCH  16  19
ATOM     19  C   UNL     1       1.883  -1.825   0.838  1.00  0.00     0.419 C 
ATOM     20  F   UNL     1       0.539  -1.659   0.921  1.00  0.00    -0.203 F 
ATOM     21  F   UNL     1       2.240  -1.419  -0.407  1.00  0.00    -0.203 F 
ENDBRANCH  16  19
ENDBRANCH  13  16
ENDBRANCH   8  11
ENDBRANCH   6   8
ENDBRANCH   5   6
ENDBRANCH   4   5
ENDBRANCH   3   4
ENDBRANCH   2   3
ENDBRANCH   1   2
BRANCH   1  22
ATOM     22  C   UNL     1      -2.259  -1.242   0.075  1.00  0.00     0.188 C 
BRANCH  22  23
ATOM     23  O   UNL     1      -3.236  -1.662  -0.869  1.00  0.00    -0.376 OA
BRANCH  23  24
ATOM     24  C   UNL     1      -4.330  -2.429  -0.374  1.00  0.00     0.202 C 
BRANCH  24  25
ATOM     25  C   UNL     1      -3.936  -3.802   0.173  1.00  0.00     0.261 C 
BRANCH  25  26
ATOM     26  O   UNL     1      -3.521  -3.696   1.552  1.00  0.00    -0.460 OA
BRANCH  26  27
ATOM     27  C   UNL     1      -2.328  -4.259   1.849  1.00  0.00     0.338 C 
ATOM     28  O   UNL     1      -1.573  -4.846   1.096  1.00  0.00    -0.246 OA
BRANCH  27  29
ATOM     29  C   UNL     1      -1.954  -3.942   3.238  1.00  0.00     0.060 A 
ATOM     30  C   UNL     1      -0.843  -3.120   3.436  1.00  0.00     0.016 A 
ATOM     31  C   UNL     1      -2.571  -4.569   4.319  1.00  0.00     0.016 A 
ATOM     32  C   UNL     1      -0.289  -2.974   4.705  1.00  0.00     0.010 A 
ATOM     33  C   UNL     1      -2.023  -4.410   5.598  1.00  0.00     0.010 A 
ATOM     34  C   UNL     1      -0.853  -3.650   5.792  1.00  0.00    -0.014 A 
BRANCH  34  35
ATOM     35  C   UNL     1      -0.136  -3.687   7.093  1.00  0.00     0.031 A 
ATOM     36  C   UNL     1       0.525  -4.967   7.531  1.00  0.00     0.074 A 
ATOM     37  C   UNL     1      -0.015  -2.586   7.857  1.00  0.00     0.049 A 
ATOM     38  N   UNL     1       1.075  -5.269   8.680  1.00  0.00    -0.248 NA
ATOM     39  C   UNL     1       0.573  -6.053   6.538  1.00  0.00     0.031 C 
ATOM     40  C   UNL     1      -0.502  -1.252   7.512  1.00  0.00     0.029 A 
ATOM     41  N   UNL     1       0.568  -2.424   9.090  1.00  0.00    -0.354 N 
ATOM     42  C   UNL     1       1.500  -6.586   8.562  1.00  0.00     0.074 A 
ATOM     43  C   UNL     1       1.140  -7.029   7.232  1.00  0.00     0.031 C 
ATOM     44  C   UNL     1      -0.190  -0.404   8.507  1.00  0.00     0.029 A 
ATOM     45  C   UNL     1       0.462  -1.146   9.582  1.00  0.00     0.049 A 
ATOM     46  H   UNL     1       1.018  -3.153   9.574  1.00  0.00     0.167 HD
ATOM     47  C   UNL     1       2.130  -7.360   9.477  1.00  0.00     0.031 A 
ATOM     48  C   UNL     1       0.818  -0.639  10.778  1.00  0.00     0.031 A 
ATOM     49  C   UNL     1       2.508  -6.919  10.793  1.00  0.00     0.049 A 
ATOM     50  C   UNL     1       1.437  -1.540  11.812  1.00  0.00     0.074 A 
ATOM     51  C   UNL     1       3.122  -7.641  11.803  1.00  0.00     0.029 A 
ATOM     52  N   UNL     1       2.323  -5.634  11.275  1.00  0.00    -0.354 N 
ATOM     53  N   UNL     1       1.759  -2.807  11.721  1.00  0.00    -0.248 NA
ATOM     54  C   UNL     1       1.728  -0.938  13.122  1.00  0.00     0.031 C 
ATOM     55  C   UNL     1       3.275  -6.801  12.911  1.00  0.00     0.029 A 
ATOM     56  C   UNL     1       2.798  -5.545  12.573  1.00  0.00     0.049 A 
ATOM     57  H   UNL     1       1.915  -4.894  10.770  1.00  0.00     0.167 HD
ATOM     58  C   UNL     1       2.303  -3.149  12.953  1.00  0.00     0.074 A 
ATOM     59  C   UNL     1       2.285  -1.953  13.768  1.00  0.00     0.031 C 
ATOM     60  C   UNL     1       2.772  -4.349  13.372  1.00  0.00     0.031 A 
BRANCH  47  61
ATOM     61  C   UNL     1       2.405  -8.786   9.098  1.00  0.00    -0.014 A 
ATOM     62  C   UNL     1       3.434  -9.123   8.206  1.00  0.00     0.009 A 
ATOM     63  C   UNL     1       1.632  -9.812   9.666  1.00  0.00     0.009 A 
ATOM     64  C   UNL     1       3.663 -10.458   7.867  1.00  0.00     0.001 A 
ATOM     65  C   UNL     1       1.879 -11.147   9.344  1.00  0.00     0.001 A 
ATOM     66  C   UNL     1       2.889 -11.468   8.439  1.00  0.00     0.000 A 
ENDBRANCH  47  61
BRANCH  48  67
ATOM     67  C   UNL     1       0.546   0.788  11.092  1.00  0.00    -0.014 A 
ATOM     68  C   UNL     1       1.599   1.703  11.234  1.00  0.00     0.009 A 
ATOM     69  C   UNL     1      -0.772   1.234  11.277  1.00  0.00     0.009 A 
ATOM     70  C   UNL     1       1.337   3.033  11.575  1.00  0.00     0.001 A 
ATOM     71  C   UNL     1      -1.032   2.569  11.589  1.00  0.00     0.001 A 
ATOM     72  C   UNL     1       0.023   3.465  11.748  1.00  0.00     0.000 A 
ENDBRANCH  48  67
BRANCH  60  73
ATOM     73  C   UNL     1       3.329  -4.419  14.765  1.00  0.00    -0.014 A 
ATOM     74  C   UNL     1       2.483  -4.422  15.885  1.00  0.00     0.009 A 
ATOM     75  C   UNL     1       4.716  -4.515  14.957  1.00  0.00     0.009 A 
ATOM     76  C   UNL     1       3.019  -4.489  17.172  1.00  0.00     0.001 A 
ATOM     77  C   UNL     1       5.247  -4.606  16.244  1.00  0.00     0.001 A 
ATOM     78  C   UNL     1       4.399  -4.584  17.351  1.00  0.00     0.000 A 
ENDBRANCH  60  73
ENDBRANCH  34  35
ENDBRANCH  27  29
ENDBRANCH  26  27
ENDBRANCH  25  26
ENDBRANCH  24  25
ENDBRANCH  23  24
ENDBRANCH  22  23
ENDBRANCH   1  22
TORSDOF 20
