REMARK SMILES COc1cccc(-c2ccc(=O)n(CC(=O)N[C@@H](C(=O)OCCOCCOCCOC(=O)c3ccc(-c4c5nc(c(-c6ccccc6)c6ccc([nH]6)c(-c6ccccc6)c6nc(c(-c7ccccc7)c7ccc4[nH]7)C=C6)C=C5)cc3)C(C)C)n2)c1
REMARK SMILES IDX 24 1 23 2 22 3 21 4 19 5 20 6 18 7 17 8 15 9 16 10 14 12
REMARK SMILES IDX 13 13 8 14 9 15 84 16 10 17 11 18 12 19 7 20 3 21 4 22 85 23
REMARK SMILES IDX 5 24 6 25 2 26 1 27 81 28 82 29 83 30 25 31 26 32 27 33
REMARK SMILES IDX 28 34 29 35 30 36 31 37 32 38 33 39 34 40 80 41 35 42 79 43
REMARK SMILES IDX 36 44 37 45 38 46 73 47 39 48 78 49 72 50 74 51 40 52 77 53
REMARK SMILES IDX 71 54 70 55 41 57 63 58 48 59 62 60 49 61 52 62 61 63 75 64
REMARK SMILES IDX 50 65 51 66 60 68 76 69 53 70 42 71 43 72 47 73 44 74 46 75
REMARK SMILES IDX 45 76 64 77 65 78 69 79 66 80 68 81 67 82 54 83 55 84 59 85
REMARK SMILES IDX 56 86 58 87 57 88
REMARK H PARENT 17 11 74 56 52 67
REMARK Flexibility Score: inf
ROOT
ATOM      1  O   UNL     1       3.948   9.921  -1.647  1.00  0.00    -0.376 OA
ENDROOT
BRANCH   1   2
ATOM      2  C   UNL     1       3.962   9.332  -0.355  1.00  0.00     0.202 C 
BRANCH   2   3
ATOM      3  C   UNL     1       3.912   7.800  -0.227  1.00  0.00     0.261 C 
BRANCH   3   4
ATOM      4  O   UNL     1       4.808   7.024  -1.058  1.00  0.00    -0.462 OA
BRANCH   4   5
ATOM      5  C   UNL     1       4.234   6.285  -2.050  1.00  0.00     0.328 C 
ATOM      6  O   UNL     1       3.019   6.247  -2.217  1.00  0.00    -0.250 OA
BRANCH   5   7
ATOM      7  C   UNL     1       5.232   5.538  -2.997  1.00  0.00     0.194 C 
BRANCH   7   8
ATOM      8  N   UNL     1       6.677   5.628  -2.691  1.00  0.00    -0.341 N 
ATOM      9  C   UNL     1       7.530   4.718  -2.142  1.00  0.00     0.242 C 
ATOM     10  O   UNL     1       8.732   4.879  -2.381  1.00  0.00    -0.273 OA
ATOM     11  H   UNL     1       7.091   6.490  -2.922  1.00  0.00     0.164 HD
BRANCH   9  12
ATOM     12  C   UNL     1       7.026   3.468  -1.433  1.00  0.00     0.248 C 
BRANCH  12  13
ATOM     13  N   UNL     1       6.050   3.824  -0.417  1.00  0.00    -0.220 N 
ATOM     14  C   UNL     1       3.846   3.914   0.173  1.00  0.00     0.091 A 
ATOM     15  C   UNL     1       4.141   4.672   1.403  1.00  0.00     0.036 A 
ATOM     16  N   UNL     1       4.739   3.501  -0.671  1.00  0.00    -0.169 NA
ATOM     17  C   UNL     1       5.429   4.904   1.664  1.00  0.00     0.075 A 
ATOM     18  C   UNL     1       6.489   4.450   0.740  1.00  0.00     0.267 A 
ATOM     19  O   UNL     1       7.662   4.672   1.021  1.00  0.00    -0.268 OA
BRANCH  14  20
ATOM     20  C   UNL     1       2.425   3.620  -0.107  1.00  0.00     0.006 A 
ATOM     21  C   UNL     1       0.752   1.996  -0.708  1.00  0.00     0.119 A 
ATOM     22  C   UNL     1      -0.181   3.022  -0.871  1.00  0.00     0.046 A 
ATOM     23  C   UNL     1       2.070   2.298  -0.372  1.00  0.00     0.056 A 
ATOM     24  C   UNL     1       0.179   4.345  -0.620  1.00  0.00     0.005 A 
ATOM     25  C   UNL     1       1.476   4.641  -0.208  1.00  0.00     0.011 A 
BRANCH  21  26
ATOM     26  O   UNL     1       0.306   0.725  -0.942  1.00  0.00    -0.497 OA
ATOM     27  C   UNL     1       0.814  -0.228  -0.009  1.00  0.00     0.278 C 
ENDBRANCH  21  26
ENDBRANCH  14  20
ENDBRANCH  12  13
ENDBRANCH   9  12
ENDBRANCH   7   8
BRANCH   7  28
ATOM     28  C   UNL     1       5.035   5.994  -4.481  1.00  0.00     0.017 C 
ATOM     29  C   UNL     1       5.882   5.136  -5.434  1.00  0.00     0.010 C 
ATOM     30  C   UNL     1       3.578   5.942  -4.955  1.00  0.00     0.010 C 
ENDBRANCH   7  28
ENDBRANCH   5   7
ENDBRANCH   4   5
ENDBRANCH   3   4
ENDBRANCH   2   3
ENDBRANCH   1   2
BRANCH   1  31
ATOM     31  C   UNL     1       4.888   9.480  -2.618  1.00  0.00     0.188 C 
BRANCH  31  32
ATOM     32  C   UNL     1       6.310   9.079  -2.179  1.00  0.00     0.188 C 
BRANCH  32  33
ATOM     33  O   UNL     1       6.582   9.308  -0.819  1.00  0.00    -0.376 OA
BRANCH  33  34
ATOM     34  C   UNL     1       7.538  10.297  -0.493  1.00  0.00     0.202 C 
BRANCH  34  35
ATOM     35  C   UNL     1       7.387  11.706  -1.095  1.00  0.00     0.261 C 
BRANCH  35  36
ATOM     36  O   UNL     1       6.971  11.793  -2.470  1.00  0.00    -0.460 OA
BRANCH  36  37
ATOM     37  C   UNL     1       7.899  11.562  -3.426  1.00  0.00     0.338 C 
ATOM     38  O   UNL     1       9.078  11.290  -3.255  1.00  0.00    -0.246 OA
BRANCH  37  39
ATOM     39  C   UNL     1       7.195  11.461  -4.727  1.00  0.00     0.060 A 
ATOM     40  C   UNL     1       7.213  10.245  -5.429  1.00  0.00     0.016 A 
ATOM     41  C   UNL     1       6.497  12.555  -5.241  1.00  0.00     0.016 A 
ATOM     42  C   UNL     1       6.546  10.126  -6.652  1.00  0.00     0.010 A 
ATOM     43  C   UNL     1       5.858  12.444  -6.480  1.00  0.00     0.010 A 
ATOM     44  C   UNL     1       5.900  11.238  -7.205  1.00  0.00    -0.014 A 
BRANCH  44  45
ATOM     45  C   UNL     1       5.435  11.216  -8.615  1.00  0.00     0.031 A 
ATOM     46  C   UNL     1       6.326  11.819  -9.668  1.00  0.00     0.074 A 
ATOM     47  C   UNL     1       4.248  10.689  -8.965  1.00  0.00     0.049 A 
ATOM     48  N   UNL     1       6.095  12.016 -10.941  1.00  0.00    -0.248 NA
ATOM     49  C   UNL     1       7.655  12.265  -9.219  1.00  0.00     0.031 C 
ATOM     50  C   UNL     1       3.313  10.022  -8.062  1.00  0.00     0.029 A 
ATOM     51  N   UNL     1       3.621  10.652 -10.188  1.00  0.00    -0.354 N 
ATOM     52  C   UNL     1       7.241  12.623 -11.440  1.00  0.00     0.074 A 
ATOM     53  C   UNL     1       8.155  12.783 -10.330  1.00  0.00     0.031 C 
ATOM     54  C   UNL     1       2.221   9.658  -8.758  1.00  0.00     0.029 A 
ATOM     55  C   UNL     1       2.362  10.104 -10.144  1.00  0.00     0.049 A 
ATOM     56  H   UNL     1       4.035  10.986 -11.016  1.00  0.00     0.167 HD
ATOM     57  C   UNL     1       7.511  13.015 -12.708  1.00  0.00     0.031 A 
ATOM     58  C   UNL     1       1.419  10.006 -11.103  1.00  0.00     0.031 A 
ATOM     59  C   UNL     1       6.598  12.875 -13.810  1.00  0.00     0.049 A 
ATOM     60  C   UNL     1       1.704  10.539 -12.486  1.00  0.00     0.074 A 
ATOM     61  C   UNL     1       6.787  13.230 -15.134  1.00  0.00     0.029 A 
ATOM     62  N   UNL     1       5.319  12.350 -13.714  1.00  0.00    -0.354 N 
ATOM     63  N   UNL     1       2.798  11.092 -12.953  1.00  0.00    -0.248 NA
ATOM     64  C   UNL     1       0.620  10.431 -13.475  1.00  0.00     0.031 C 
ATOM     65  C   UNL     1       5.598  12.983 -15.826  1.00  0.00     0.029 A 
ATOM     66  C   UNL     1       4.695  12.403 -14.949  1.00  0.00     0.049 A 
ATOM     67  H   UNL     1       4.915  11.992 -12.891  1.00  0.00     0.167 HD
ATOM     68  C   UNL     1       2.546  11.363 -14.293  1.00  0.00     0.074 A 
ATOM     69  C   UNL     1       1.202  10.903 -14.569  1.00  0.00     0.031 C 
ATOM     70  C   UNL     1       3.357  11.939 -15.215  1.00  0.00     0.031 A 
BRANCH  57  71
ATOM     71  C   UNL     1       8.836  13.679 -12.960  1.00  0.00    -0.014 A 
ATOM     72  C   UNL     1      10.041  12.960 -12.905  1.00  0.00     0.009 A 
ATOM     73  C   UNL     1       8.875  15.043 -13.290  1.00  0.00     0.009 A 
ATOM     74  C   UNL     1      11.258  13.602 -13.141  1.00  0.00     0.001 A 
ATOM     75  C   UNL     1      10.090  15.675 -13.557  1.00  0.00     0.001 A 
ATOM     76  C   UNL     1      11.282  14.956 -13.473  1.00  0.00     0.000 A 
ENDBRANCH  57  71
BRANCH  58  77
ATOM     77  C   UNL     1       0.091   9.409 -10.792  1.00  0.00    -0.014 A 
ATOM     78  C   UNL     1      -0.306   8.197 -11.378  1.00  0.00     0.009 A 
ATOM     79  C   UNL     1      -0.803  10.069  -9.934  1.00  0.00     0.009 A 
ATOM     80  C   UNL     1      -1.580   7.675 -11.135  1.00  0.00     0.001 A 
ATOM     81  C   UNL     1      -2.062   9.528  -9.665  1.00  0.00     0.001 A 
ATOM     82  C   UNL     1      -2.454   8.338 -10.275  1.00  0.00     0.000 A 
ENDBRANCH  58  77
BRANCH  70  83
ATOM     83  C   UNL     1       2.839  12.064 -16.623  1.00  0.00    -0.014 A 
ATOM     84  C   UNL     1       1.821  12.970 -16.955  1.00  0.00     0.009 A 
ATOM     85  C   UNL     1       3.422  11.296 -17.645  1.00  0.00     0.009 A 
ATOM     86  C   UNL     1       1.375  13.081 -18.275  1.00  0.00     0.001 A 
ATOM     87  C   UNL     1       2.999  11.433 -18.968  1.00  0.00     0.001 A 
ATOM     88  C   UNL     1       1.969  12.318 -19.280  1.00  0.00     0.000 A 
ENDBRANCH  70  83
ENDBRANCH  44  45
ENDBRANCH  37  39
ENDBRANCH  36  37
ENDBRANCH  35  36
ENDBRANCH  34  35
ENDBRANCH  33  34
ENDBRANCH  32  33
ENDBRANCH  31  32
ENDBRANCH   1  31
TORSDOF 23
