REMARK SMILES O=C(OCCOCCOCCOC(=O)[C@H](c1ccccc1)C(c1ccccc1)c1ccccc1)c1ccc(-c2c3nc(c(-c4ccccc4)c4ccc([nH]4)c(-c4ccccc4)c4nc(c(-c5ccccc5)c5ccc2[nH]5)C=C4)C=C3)cc1
REMARK SMILES IDX 7 1 6 2 5 3 4 4 3 5 2 6 1 7 35 8 36 9 82 10 37 11 81 12
REMARK SMILES IDX 38 13 39 14 40 15 75 16 41 17 80 18 74 19 76 20 42 21 79 22
REMARK SMILES IDX 73 23 72 24 43 26 65 27 50 28 64 29 51 30 54 31 63 32 77 33
REMARK SMILES IDX 52 34 53 35 62 37 78 38 55 39 44 40 45 41 49 42 46 43 48 44
REMARK SMILES IDX 47 45 66 46 67 47 71 48 68 49 70 50 69 51 56 52 57 53 61 54
REMARK SMILES IDX 58 55 60 56 59 57 8 58 9 59 10 60 11 61 12 62 13 63 14 64
REMARK SMILES IDX 15 65 22 66 23 67 24 68 28 69 25 70 27 71 26 72 29 73 30 74
REMARK SMILES IDX 34 75 31 76 33 77 32 78 16 79 17 80 21 81 18 82 20 83 19 84
REMARK H PARENT 76 25 54 36
REMARK Flexibility Score: inf
ROOT
ATOM      1  C   UNL     1       4.636   0.595  -1.634  1.00  0.00     0.188 C 
ENDROOT
BRANCH   1   2
ATOM      2  O   UNL     1       3.760   1.607  -1.145  1.00  0.00    -0.376 OA
BRANCH   2   3
ATOM      3  C   UNL     1       4.277   2.473  -0.144  1.00  0.00     0.202 C 
BRANCH   3   4
ATOM      4  C   UNL     1       4.377   1.867   1.262  1.00  0.00     0.261 C 
BRANCH   4   5
ATOM      5  O   UNL     1       4.820   0.503   1.282  1.00  0.00    -0.460 OA
BRANCH   5   6
ATOM      6  C   UNL     1       4.051  -0.587   1.535  1.00  0.00     0.338 C 
ATOM      7  O   UNL     1       4.566  -1.543   2.113  1.00  0.00    -0.246 OA
BRANCH   6   8
ATOM      8  C   UNL     1       2.656  -0.757   0.991  1.00  0.00     0.060 A 
ATOM      9  C   UNL     1       1.852   0.248   0.448  1.00  0.00     0.016 A 
ATOM     10  C   UNL     1       2.118  -2.057   1.030  1.00  0.00     0.016 A 
ATOM     11  C   UNL     1       0.588  -0.011  -0.078  1.00  0.00     0.010 A 
ATOM     12  C   UNL     1       0.827  -2.323   0.559  1.00  0.00     0.010 A 
ATOM     13  C   UNL     1       0.052  -1.288   0.020  1.00  0.00    -0.014 A 
BRANCH  13  14
ATOM     14  C   UNL     1      -1.410  -1.438  -0.101  1.00  0.00     0.031 A 
ATOM     15  C   UNL     1      -2.190  -1.388   1.179  1.00  0.00     0.074 A 
ATOM     16  C   UNL     1      -2.027  -1.525  -1.290  1.00  0.00     0.049 A 
ATOM     17  N   UNL     1      -3.459  -1.596   1.392  1.00  0.00    -0.248 NA
ATOM     18  C   UNL     1      -1.420  -1.044   2.389  1.00  0.00     0.031 C 
ATOM     19  C   UNL     1      -1.377  -1.413  -2.593  1.00  0.00     0.029 A 
ATOM     20  N   UNL     1      -3.348  -1.734  -1.589  1.00  0.00    -0.354 N 
ATOM     21  C   UNL     1      -3.629  -1.442   2.762  1.00  0.00     0.074 A 
ATOM     22  C   UNL     1      -2.339  -1.139   3.331  1.00  0.00     0.031 C 
ATOM     23  C   UNL     1      -2.293  -1.611  -3.557  1.00  0.00     0.029 A 
ATOM     24  C   UNL     1      -3.585  -1.885  -2.933  1.00  0.00     0.049 A 
ATOM     25  H   UNL     1      -4.057  -1.771  -0.908  1.00  0.00     0.167 HD
ATOM     26  C   UNL     1      -4.767  -1.553   3.483  1.00  0.00     0.031 A 
ATOM     27  C   UNL     1      -4.716  -2.240  -3.572  1.00  0.00     0.031 A 
ATOM     28  C   UNL     1      -6.032  -1.881   2.893  1.00  0.00     0.049 A 
ATOM     29  C   UNL     1      -5.956  -2.472  -2.748  1.00  0.00     0.074 A 
ATOM     30  C   UNL     1      -7.252  -2.072   3.509  1.00  0.00     0.029 A 
ATOM     31  N   UNL     1      -6.226  -2.075   1.531  1.00  0.00    -0.354 N 
ATOM     32  N   UNL     1      -6.110  -2.371  -1.448  1.00  0.00    -0.248 NA
ATOM     33  C   UNL     1      -7.176  -2.858  -3.469  1.00  0.00     0.031 C 
ATOM     34  C   UNL     1      -8.174  -2.439   2.523  1.00  0.00     0.029 A 
ATOM     35  C   UNL     1      -7.543  -2.408   1.286  1.00  0.00     0.049 A 
ATOM     36  H   UNL     1      -5.527  -1.987   0.843  1.00  0.00     0.167 HD
ATOM     37  C   UNL     1      -7.447  -2.646  -1.196  1.00  0.00     0.074 A 
ATOM     38  C   UNL     1      -8.060  -2.921  -2.482  1.00  0.00     0.031 C 
ATOM     39  C   UNL     1      -8.112  -2.663  -0.014  1.00  0.00     0.031 A 
BRANCH  26  40
ATOM     40  C   UNL     1      -4.631  -1.421   4.973  1.00  0.00    -0.014 A 
ATOM     41  C   UNL     1      -4.295  -0.200   5.582  1.00  0.00     0.009 A 
ATOM     42  C   UNL     1      -4.747  -2.567   5.773  1.00  0.00     0.009 A 
ATOM     43  C   UNL     1      -4.008  -0.147   6.949  1.00  0.00     0.001 A 
ATOM     44  C   UNL     1      -4.495  -2.504   7.144  1.00  0.00     0.001 A 
ATOM     45  C   UNL     1      -4.106  -1.299   7.727  1.00  0.00     0.000 A 
ENDBRANCH  26  40
BRANCH  27  46
ATOM     46  C   UNL     1      -4.704  -2.431  -5.048  1.00  0.00    -0.014 A 
ATOM     47  C   UNL     1      -5.372  -1.543  -5.902  1.00  0.00     0.009 A 
ATOM     48  C   UNL     1      -3.986  -3.499  -5.615  1.00  0.00     0.009 A 
ATOM     49  C   UNL     1      -5.329  -1.724  -7.289  1.00  0.00     0.001 A 
ATOM     50  C   UNL     1      -3.923  -3.664  -7.001  1.00  0.00     0.001 A 
ATOM     51  C   UNL     1      -4.599  -2.779  -7.837  1.00  0.00     0.000 A 
ENDBRANCH  27  46
BRANCH  39  52
ATOM     52  C   UNL     1      -9.587  -2.936  -0.052  1.00  0.00    -0.014 A 
ATOM     53  C   UNL     1     -10.084  -4.232  -0.248  1.00  0.00     0.009 A 
ATOM     54  C   UNL     1     -10.482  -1.893   0.236  1.00  0.00     0.009 A 
ATOM     55  C   UNL     1     -11.456  -4.476  -0.162  1.00  0.00     0.001 A 
ATOM     56  C   UNL     1     -11.848  -2.145   0.349  1.00  0.00     0.001 A 
ATOM     57  C   UNL     1     -12.334  -3.436   0.147  1.00  0.00     0.000 A 
ENDBRANCH  39  52
ENDBRANCH  13  14
ENDBRANCH   6   8
ENDBRANCH   5   6
ENDBRANCH   4   5
ENDBRANCH   3   4
ENDBRANCH   2   3
ENDBRANCH   1   2
BRANCH   1  58
ATOM     58  C   UNL     1       5.934   1.102  -2.251  1.00  0.00     0.188 C 
BRANCH  58  59
ATOM     59  O   UNL     1       5.842   2.441  -2.724  1.00  0.00    -0.376 OA
BRANCH  59  60
ATOM     60  C   UNL     1       5.374   2.608  -4.056  1.00  0.00     0.202 C 
BRANCH  60  61
ATOM     61  C   UNL     1       3.859   2.447  -4.263  1.00  0.00     0.261 C 
BRANCH  61  62
ATOM     62  O   UNL     1       3.253   1.133  -4.291  1.00  0.00    -0.463 OA
BRANCH  62  63
ATOM     63  C   UNL     1       3.896   0.063  -4.826  1.00  0.00     0.314 C 
ATOM     64  O   UNL     1       5.058   0.060  -5.203  1.00  0.00    -0.252 OA
BRANCH  63  65
ATOM     65  C   UNL     1       2.968  -1.146  -4.930  1.00  0.00     0.141 C 
BRANCH  65  66
ATOM     66  C   UNL     1       3.055  -1.710  -6.402  1.00  0.00     0.068 C 
BRANCH  66  67
ATOM     67  C   UNL     1       2.507  -3.149  -6.431  1.00  0.00    -0.039 A 
ATOM     68  C   UNL     1       1.138  -3.445  -6.305  1.00  0.00     0.004 A 
ATOM     69  C   UNL     1       3.417  -4.221  -6.438  1.00  0.00     0.004 A 
ATOM     70  C   UNL     1       0.692  -4.767  -6.255  1.00  0.00     0.000 A 
ATOM     71  C   UNL     1       2.973  -5.541  -6.347  1.00  0.00     0.000 A 
ATOM     72  C   UNL     1       1.610  -5.814  -6.272  1.00  0.00     0.000 A 
ENDBRANCH  66  67
BRANCH  66  73
ATOM     73  C   UNL     1       2.483  -0.737  -7.476  1.00  0.00    -0.039 A 
ATOM     74  C   UNL     1       3.012   0.564  -7.620  1.00  0.00     0.004 A 
ATOM     75  C   UNL     1       1.468  -1.083  -8.381  1.00  0.00     0.004 A 
ATOM     76  C   UNL     1       2.466   1.507  -8.496  1.00  0.00     0.000 A 
ATOM     77  C   UNL     1       0.929  -0.149  -9.278  1.00  0.00     0.000 A 
ATOM     78  C   UNL     1       1.408   1.154  -9.316  1.00  0.00     0.000 A 
ENDBRANCH  66  73
ENDBRANCH  65  66
BRANCH  65  79
ATOM     79  C   UNL     1       3.284  -2.151  -3.807  1.00  0.00    -0.033 A 
ATOM     80  C   UNL     1       2.231  -2.789  -3.131  1.00  0.00     0.004 A 
ATOM     81  C   UNL     1       4.597  -2.483  -3.430  1.00  0.00     0.004 A 
ATOM     82  C   UNL     1       2.476  -3.699  -2.101  1.00  0.00     0.000 A 
ATOM     83  C   UNL     1       4.840  -3.363  -2.370  1.00  0.00     0.000 A 
ATOM     84  C   UNL     1       3.780  -3.968  -1.703  1.00  0.00     0.000 A 
ENDBRANCH  65  79
ENDBRANCH  63  65
ENDBRANCH  62  63
ENDBRANCH  61  62
ENDBRANCH  60  61
ENDBRANCH  59  60
ENDBRANCH  58  59
ENDBRANCH   1  58
TORSDOF 21
