REMARK SMILES CCOC(=O)c1c(NC(=O)[C@@H]2[C@@H](C(=O)OCCOCCOCCOC(=O)c3ccc(-c4c5nc(c(-c6ccccc6)c6ccc([nH]6)c(-c6ccccc6)c6nc(c(-c7ccccc7)c7ccc4[nH]7)C=C6)C=C5)cc3)[C@@H]3C=C[C@H]2CC3)sc2c1CCC2
REMARK SMILES IDX 18 1 17 2 16 3 15 4 13 5 14 6 12 7 11 8 78 9 75 10 77 11
REMARK SMILES IDX 79 12 76 13 80 14 9 15 8 16 10 18 7 19 6 20 83 21 81 22
REMARK SMILES IDX 82 23 84 24 86 25 85 26 4 27 5 28 3 29 2 30 1 31 19 32 20 33
REMARK SMILES IDX 21 34 22 35 23 36 24 37 25 38 26 39 27 40 28 41 74 42 29 43
REMARK SMILES IDX 73 44 30 45 31 46 32 47 67 48 33 49 72 50 66 51 68 52 34 53
REMARK SMILES IDX 71 54 65 55 64 56 35 58 57 59 42 60 56 61 43 62 46 63 55 64
REMARK SMILES IDX 69 65 44 66 45 67 54 69 70 70 47 71 36 72 37 73 41 74 38 75
REMARK SMILES IDX 40 76 39 77 58 78 59 79 63 80 60 81 62 82 61 83 48 84 49 85
REMARK SMILES IDX 53 86 50 87 52 88 51 89
REMARK H PARENT 8 17 68 57 46 68
REMARK Flexibility Score: inf
ROOT
ATOM      1  O   UNL     1      10.823  -6.045   3.941  1.00  0.00    -0.376 OA
ENDROOT
BRANCH   1   2
ATOM      2  C   UNL     1      11.236  -5.071   4.900  1.00  0.00     0.202 C 
BRANCH   2   3
ATOM      3  C   UNL     1      10.435  -3.755   4.962  1.00  0.00     0.261 C 
BRANCH   3   4
ATOM      4  O   UNL     1       9.007  -3.925   5.087  1.00  0.00    -0.463 OA
BRANCH   4   5
ATOM      5  C   UNL     1       8.241  -3.444   4.082  1.00  0.00     0.310 C 
ATOM      6  O   UNL     1       8.677  -2.800   3.133  1.00  0.00    -0.252 OA
BRANCH   5   7
ATOM      7  C   UNL     1       6.758  -3.794   4.186  1.00  0.00     0.119 C 
ATOM      8  C   UNL     1       5.944  -2.517   4.452  1.00  0.00     0.100 C 
ATOM      9  C   UNL     1       4.878  -2.754   5.559  1.00  0.00     0.025 C 
ATOM     10  C   UNL     1       6.305  -4.895   5.190  1.00  0.00     0.026 C 
ATOM     11  C   UNL     1       4.062  -3.982   5.248  1.00  0.00    -0.027 C 
ATOM     12  C   UNL     1       5.630  -3.138   6.870  1.00  0.00     0.009 C 
ATOM     13  C   UNL     1       4.798  -5.096   5.086  1.00  0.00    -0.027 C 
ATOM     14  C   UNL     1       6.454  -4.425   6.643  1.00  0.00     0.009 C 
BRANCH   8  15
ATOM     15  C   UNL     1       5.480  -1.755   3.202  1.00  0.00     0.229 C 
ATOM     16  N   UNL     1       4.628  -2.129   2.210  1.00  0.00    -0.317 N 
ATOM     17  H   UNL     1       4.576  -1.468   1.483  1.00  0.00     0.170 HD
ATOM     18  O   UNL     1       5.871  -0.575   3.108  1.00  0.00    -0.274 OA
BRANCH  16  19
ATOM     19  C   UNL     1       3.821  -3.225   1.995  1.00  0.00     0.110 A 
ATOM     20  C   UNL     1       2.548  -3.243   1.414  1.00  0.00     0.098 A 
ATOM     21  C   UNL     1       1.921  -4.471   1.779  1.00  0.00    -0.017 A 
ATOM     22  S   UNL     1       4.405  -4.829   2.062  1.00  0.00    -0.122 S 
ATOM     23  C   UNL     1       2.840  -5.374   2.242  1.00  0.00     0.011 A 
ATOM     24  C   UNL     1       0.573  -5.092   1.752  1.00  0.00     0.038 C 
ATOM     25  C   UNL     1       2.285  -6.662   2.704  1.00  0.00     0.047 C 
ATOM     26  C   UNL     1       0.762  -6.339   2.683  1.00  0.00     0.010 C 
BRANCH  20  27
ATOM     27  C   UNL     1       2.038  -2.118   0.651  1.00  0.00     0.341 C 
ATOM     28  O   UNL     1       2.796  -1.317   0.116  1.00  0.00    -0.246 OA
BRANCH  27  29
ATOM     29  O   UNL     1       0.682  -2.091   0.536  1.00  0.00    -0.462 OA
BRANCH  29  30
ATOM     30  C   UNL     1       0.166  -1.178  -0.448  1.00  0.00     0.230 C 
ATOM     31  C   UNL     1       0.400   0.290  -0.122  1.00  0.00     0.049 C 
ENDBRANCH  29  30
ENDBRANCH  27  29
ENDBRANCH  20  27
ENDBRANCH  16  19
ENDBRANCH   8  15
ENDBRANCH   5   7
ENDBRANCH   4   5
ENDBRANCH   3   4
ENDBRANCH   2   3
ENDBRANCH   1   2
BRANCH   1  32
ATOM     32  C   UNL     1       9.525  -6.604   4.122  1.00  0.00     0.188 C 
BRANCH  32  33
ATOM     33  C   UNL     1       9.200  -7.137   5.531  1.00  0.00     0.188 C 
BRANCH  33  34
ATOM     34  O   UNL     1       9.373  -6.153   6.543  1.00  0.00    -0.376 OA
BRANCH  34  35
ATOM     35  C   UNL     1       8.941  -6.365   7.880  1.00  0.00     0.202 C 
BRANCH  35  36
ATOM     36  C   UNL     1       9.287  -7.676   8.556  1.00  0.00     0.261 C 
BRANCH  36  37
ATOM     37  O   UNL     1       8.796  -8.823   7.880  1.00  0.00    -0.460 OA
BRANCH  37  38
ATOM     38  C   UNL     1       7.554  -8.874   7.365  1.00  0.00     0.338 C 
ATOM     39  O   UNL     1       6.615  -8.113   7.537  1.00  0.00    -0.246 OA
BRANCH  38  40
ATOM     40  C   UNL     1       7.553 -10.082   6.533  1.00  0.00     0.060 A 
ATOM     41  C   UNL     1       6.334 -10.702   6.277  1.00  0.00     0.016 A 
ATOM     42  C   UNL     1       8.784 -10.702   6.243  1.00  0.00     0.016 A 
ATOM     43  C   UNL     1       6.359 -12.053   6.016  1.00  0.00     0.010 A 
ATOM     44  C   UNL     1       8.809 -12.048   6.026  1.00  0.00     0.010 A 
ATOM     45  C   UNL     1       7.594 -12.714   6.025  1.00  0.00    -0.014 A 
BRANCH  45  46
ATOM     46  C   UNL     1       7.613 -14.152   5.985  1.00  0.00     0.031 A 
ATOM     47  C   UNL     1       7.375 -14.683   4.637  1.00  0.00     0.074 A 
ATOM     48  C   UNL     1       7.925 -14.897   7.061  1.00  0.00     0.049 A 
ATOM     49  N   UNL     1       6.302 -15.264   4.224  1.00  0.00    -0.248 NA
ATOM     50  C   UNL     1       8.350 -14.369   3.580  1.00  0.00     0.031 C 
ATOM     51  C   UNL     1       8.447 -14.454   8.356  1.00  0.00     0.029 A 
ATOM     52  N   UNL     1       7.944 -16.251   7.169  1.00  0.00    -0.354 N 
ATOM     53  C   UNL     1       6.564 -15.610   2.909  1.00  0.00     0.074 A 
ATOM     54  C   UNL     1       7.721 -14.850   2.508  1.00  0.00     0.031 C 
ATOM     55  C   UNL     1       8.950 -15.522   9.018  1.00  0.00     0.029 A 
ATOM     56  C   UNL     1       8.676 -16.726   8.248  1.00  0.00     0.049 A 
ATOM     57  H   UNL     1       7.479 -16.844   6.536  1.00  0.00     0.167 HD
ATOM     58  C   UNL     1       6.019 -16.736   2.378  1.00  0.00     0.031 A 
ATOM     59  C   UNL     1       9.086 -18.005   8.438  1.00  0.00     0.031 A 
ATOM     60  C   UNL     1       4.901 -17.210   3.161  1.00  0.00     0.049 A 
ATOM     61  C   UNL     1       8.252 -18.879   7.576  1.00  0.00     0.074 A 
ATOM     62  C   UNL     1       3.725 -16.642   3.614  1.00  0.00     0.029 A 
ATOM     63  N   UNL     1       5.103 -18.325   3.941  1.00  0.00    -0.354 N 
ATOM     64  N   UNL     1       6.992 -19.111   7.805  1.00  0.00    -0.248 NA
ATOM     65  C   UNL     1       8.689 -19.120   6.208  1.00  0.00     0.031 C 
ATOM     66  C   UNL     1       3.546 -17.160   4.930  1.00  0.00     0.029 A 
ATOM     67  C   UNL     1       4.573 -18.070   5.179  1.00  0.00     0.049 A 
ATOM     68  H   UNL     1       5.549 -19.157   3.660  1.00  0.00     0.167 HD
ATOM     69  C   UNL     1       6.395 -19.055   6.554  1.00  0.00     0.074 A 
ATOM     70  C   UNL     1       7.499 -19.174   5.601  1.00  0.00     0.031 C 
ATOM     71  C   UNL     1       5.109 -18.614   6.407  1.00  0.00     0.031 A 
BRANCH  58  72
ATOM     72  C   UNL     1       6.806 -17.647   1.471  1.00  0.00    -0.014 A 
ATOM     73  C   UNL     1       6.158 -18.771   0.934  1.00  0.00     0.009 A 
ATOM     74  C   UNL     1       8.212 -17.617   1.375  1.00  0.00     0.009 A 
ATOM     75  C   UNL     1       6.888 -19.846   0.417  1.00  0.00     0.001 A 
ATOM     76  C   UNL     1       8.941 -18.667   0.817  1.00  0.00     0.001 A 
ATOM     77  C   UNL     1       8.278 -19.798   0.368  1.00  0.00     0.000 A 
ENDBRANCH  58  72
BRANCH  59  78
ATOM     78  C   UNL     1      10.307 -18.502   9.109  1.00  0.00    -0.014 A 
ATOM     79  C   UNL     1      10.446 -19.862   9.430  1.00  0.00     0.009 A 
ATOM     80  C   UNL     1      11.454 -17.692   9.197  1.00  0.00     0.009 A 
ATOM     81  C   UNL     1      11.693 -20.398   9.779  1.00  0.00     0.001 A 
ATOM     82  C   UNL     1      12.698 -18.225   9.554  1.00  0.00     0.001 A 
ATOM     83  C   UNL     1      12.820 -19.582   9.827  1.00  0.00     0.000 A 
ENDBRANCH  59  78
BRANCH  71  84
ATOM     84  C   UNL     1       4.270 -18.445   7.652  1.00  0.00    -0.014 A 
ATOM     85  C   UNL     1       4.645 -17.632   8.737  1.00  0.00     0.009 A 
ATOM     86  C   UNL     1       2.999 -19.037   7.679  1.00  0.00     0.009 A 
ATOM     87  C   UNL     1       3.796 -17.465   9.837  1.00  0.00     0.001 A 
ATOM     88  C   UNL     1       2.140 -18.849   8.764  1.00  0.00     0.001 A 
ATOM     89  C   UNL     1       2.544 -18.073   9.848  1.00  0.00     0.000 A 
ENDBRANCH  71  84
ENDBRANCH  45  46
ENDBRANCH  38  40
ENDBRANCH  37  38
ENDBRANCH  36  37
ENDBRANCH  35  36
ENDBRANCH  34  35
ENDBRANCH  33  34
ENDBRANCH  32  33
ENDBRANCH   1  32
TORSDOF 22
