REMARK SMILES CCCc1cc(OC(F)(F)F)cc2c1O[C@@H](C(F)(F)F)C(C(=O)OCCOCCOCCOC(=O)c1ccc(-c3c4nc(c(-c5ccccc5)c5ccc([nH]5)c(-c5ccccc5)c5nc(c(-c6ccccc6)c6ccc3[nH]6)C=C5)C=C4)cc1)=C2
REMARK SMILES IDX 28 1 27 2 26 3 25 4 24 5 22 6 23 7 21 8 4 9 5 10 14 11 6 12
REMARK SMILES IDX 13 13 15 14 12 15 84 16 16 17 3 18 2 19 1 20 7 21 8 22 9 23
REMARK SMILES IDX 10 24 11 25 17 26 18 27 19 28 20 29 29 30 30 31 31 32 32 33
REMARK SMILES IDX 33 34 34 35 35 36 36 37 37 38 83 39 38 40 82 41 39 42 40 43
REMARK SMILES IDX 41 44 76 45 42 46 81 47 75 48 77 49 43 50 80 51 74 52 73 53
REMARK SMILES IDX 44 55 66 56 51 57 65 58 52 59 55 60 64 61 78 62 53 63 54 64
REMARK SMILES IDX 63 66 79 67 56 68 45 69 46 70 50 71 47 72 49 73 48 74 67 75
REMARK SMILES IDX 68 76 72 77 69 78 71 79 70 80 57 81 58 82 62 83 59 84 61 85
REMARK SMILES IDX 60 86
REMARK H PARENT 77 54 55 65
REMARK Flexibility Score: inf
ROOT
ATOM      1  C   UNL     1       5.634  -6.314  -3.600  1.00  0.00     0.188 C 
ENDROOT
BRANCH   1   2
ATOM      2  O   UNL     1       6.226  -7.527  -3.209  1.00  0.00    -0.376 OA
BRANCH   2   3
ATOM      3  C   UNL     1       6.049  -8.018  -1.892  1.00  0.00     0.202 C 
BRANCH   3   4
ATOM      4  C   UNL     1       4.852  -7.686  -0.977  1.00  0.00     0.261 C 
BRANCH   4   5
ATOM      5  O   UNL     1       3.932  -6.684  -1.418  1.00  0.00    -0.460 OA
BRANCH   5   6
ATOM      6  C   UNL     1       4.040  -5.464  -0.837  1.00  0.00     0.338 C 
ATOM      7  O   UNL     1       4.853  -5.137   0.006  1.00  0.00    -0.246 OA
BRANCH   6   8
ATOM      8  C   UNL     1       3.108  -4.516  -1.478  1.00  0.00     0.087 C 
ATOM      9  C   UNL     1       0.519  -1.426  -2.560  1.00  0.00    -0.002 A 
ATOM     10  C   UNL     1      -0.817  -1.719  -2.874  1.00  0.00     0.054 A 
ATOM     11  C   UNL     1       1.381  -2.478  -2.224  1.00  0.00     0.131 A 
ATOM     12  C   UNL     1      -1.289  -3.033  -2.830  1.00  0.00     0.130 A 
ATOM     13  C   UNL     1       0.921  -3.800  -2.163  1.00  0.00     0.021 A 
ATOM     14  O   UNL     1       2.660  -2.146  -1.855  1.00  0.00    -0.475 OA
ATOM     15  C   UNL     1      -0.411  -4.072  -2.491  1.00  0.00     0.058 A 
ATOM     16  C   UNL     1       1.809  -4.832  -1.619  1.00  0.00     0.027 C 
ATOM     17  C   UNL     1       3.634  -3.205  -2.015  1.00  0.00     0.316 C 
BRANCH   9  18
ATOM     18  C   UNL     1       0.975   0.014  -2.496  1.00  0.00     0.039 C 
BRANCH  18  19
ATOM     19  C   UNL     1       0.532   0.720  -1.208  1.00  0.00     0.001 C 
ATOM     20  C   UNL     1       1.082   0.085   0.063  1.00  0.00     0.004 C 
ENDBRANCH  18  19
ENDBRANCH   9  18
BRANCH  12  21
ATOM     21  O   UNL     1      -2.577  -3.424  -3.071  1.00  0.00    -0.406 OA
BRANCH  21  22
ATOM     22  C   UNL     1      -3.577  -2.415  -3.051  1.00  0.00     0.573 C 
ATOM     23  F   UNL     1      -3.523  -1.689  -1.914  1.00  0.00    -0.132 F 
ATOM     24  F   UNL     1      -3.454  -1.594  -4.116  1.00  0.00    -0.132 F 
ATOM     25  F   UNL     1      -4.791  -3.004  -3.114  1.00  0.00    -0.132 F 
ENDBRANCH  21  22
ENDBRANCH  12  21
BRANCH  17  26
ATOM     26  C   UNL     1       4.988  -2.678  -1.516  1.00  0.00     0.430 C 
ATOM     27  F   UNL     1       5.996  -3.524  -1.833  1.00  0.00    -0.167 F 
ATOM     28  F   UNL     1       5.286  -1.506  -2.139  1.00  0.00    -0.167 F 
ATOM     29  F   UNL     1       5.016  -2.442  -0.191  1.00  0.00    -0.167 F 
ENDBRANCH  17  26
ENDBRANCH   6   8
ENDBRANCH   5   6
ENDBRANCH   4   5
ENDBRANCH   3   4
ENDBRANCH   2   3
ENDBRANCH   1   2
BRANCH   1  30
ATOM     30  C   UNL     1       4.276  -6.470  -4.319  1.00  0.00     0.188 C 
BRANCH  30  31
ATOM     31  O   UNL     1       3.708  -7.757  -4.500  1.00  0.00    -0.376 OA
BRANCH  31  32
ATOM     32  C   UNL     1       4.517  -8.807  -5.013  1.00  0.00     0.202 C 
BRANCH  32  33
ATOM     33  C   UNL     1       5.366  -8.598  -6.280  1.00  0.00     0.261 C 
BRANCH  33  34
ATOM     34  O   UNL     1       6.134  -7.384  -6.334  1.00  0.00    -0.460 OA
BRANCH  34  35
ATOM     35  C   UNL     1       5.717  -6.471  -7.247  1.00  0.00     0.338 C 
ATOM     36  O   UNL     1       4.780  -6.567  -8.018  1.00  0.00    -0.246 OA
BRANCH  35  37
ATOM     37  C   UNL     1       6.469  -5.213  -7.068  1.00  0.00     0.060 A 
ATOM     38  C   UNL     1       5.767  -4.061  -6.683  1.00  0.00     0.016 A 
ATOM     39  C   UNL     1       7.832  -5.148  -7.356  1.00  0.00     0.016 A 
ATOM     40  C   UNL     1       6.423  -2.832  -6.605  1.00  0.00     0.010 A 
ATOM     41  C   UNL     1       8.482  -3.910  -7.306  1.00  0.00     0.010 A 
ATOM     42  C   UNL     1       7.774  -2.743  -6.961  1.00  0.00    -0.014 A 
BRANCH  42  43
ATOM     43  C   UNL     1       8.399  -1.414  -7.164  1.00  0.00     0.031 A 
ATOM     44  C   UNL     1       8.487  -0.868  -8.563  1.00  0.00     0.074 A 
ATOM     45  C   UNL     1       8.875  -0.698  -6.130  1.00  0.00     0.049 A 
ATOM     46  N   UNL     1       9.060   0.227  -8.994  1.00  0.00    -0.248 NA
ATOM     47  C   UNL     1       7.842  -1.667  -9.619  1.00  0.00     0.031 C 
ATOM     48  C   UNL     1       8.798  -1.081  -4.723  1.00  0.00     0.029 A 
ATOM     49  N   UNL     1       9.534   0.507  -6.118  1.00  0.00    -0.354 N 
ATOM     50  C   UNL     1       8.858   0.240 -10.369  1.00  0.00     0.074 A 
ATOM     51  C   UNL     1       8.131  -0.965 -10.704  1.00  0.00     0.031 C 
ATOM     52  C   UNL     1       9.403  -0.136  -3.982  1.00  0.00     0.029 A 
ATOM     53  C   UNL     1       9.943   0.896  -4.865  1.00  0.00     0.049 A 
ATOM     54  H   UNL     1       9.697   1.041  -6.928  1.00  0.00     0.167 HD
ATOM     55  C   UNL     1       9.242   1.171 -11.273  1.00  0.00     0.031 A 
ATOM     56  C   UNL     1      10.692   1.948  -4.483  1.00  0.00     0.031 A 
ATOM     57  C   UNL     1       9.980   2.361 -10.945  1.00  0.00     0.049 A 
ATOM     58  C   UNL     1      11.189   2.923  -5.521  1.00  0.00     0.074 A 
ATOM     59  C   UNL     1      10.409   3.369 -11.791  1.00  0.00     0.029 A 
ATOM     60  N   UNL     1      10.406   2.699  -9.671  1.00  0.00    -0.354 N 
ATOM     61  N   UNL     1      10.978   2.936  -6.815  1.00  0.00    -0.248 NA
ATOM     62  C   UNL     1      12.025   4.034  -5.040  1.00  0.00     0.031 C 
ATOM     63  C   UNL     1      11.146   4.287 -11.038  1.00  0.00     0.029 A 
ATOM     64  C   UNL     1      11.117   3.886  -9.711  1.00  0.00     0.049 A 
ATOM     65  H   UNL     1      10.229   2.173  -8.857  1.00  0.00     0.167 HD
ATOM     66  C   UNL     1      11.620   4.073  -7.294  1.00  0.00     0.074 A 
ATOM     67  C   UNL     1      12.220   4.728  -6.152  1.00  0.00     0.031 C 
ATOM     68  C   UNL     1      11.700   4.535  -8.566  1.00  0.00     0.031 A 
BRANCH  55  69
ATOM     69  C   UNL     1       8.906   0.916 -12.716  1.00  0.00    -0.014 A 
ATOM     70  C   UNL     1       7.587   1.001 -13.186  1.00  0.00     0.009 A 
ATOM     71  C   UNL     1       9.934   0.620 -13.625  1.00  0.00     0.009 A 
ATOM     72  C   UNL     1       7.300   0.762 -14.532  1.00  0.00     0.001 A 
ATOM     73  C   UNL     1       9.648   0.412 -14.975  1.00  0.00     0.001 A 
ATOM     74  C   UNL     1       8.331   0.474 -15.426  1.00  0.00     0.000 A 
ENDBRANCH  55  69
BRANCH  56  75
ATOM     75  C   UNL     1      11.053   2.131  -3.051  1.00  0.00    -0.014 A 
ATOM     76  C   UNL     1      10.546   3.215  -2.317  1.00  0.00     0.009 A 
ATOM     77  C   UNL     1      11.940   1.243  -2.422  1.00  0.00     0.009 A 
ATOM     78  C   UNL     1      10.945   3.422  -0.994  1.00  0.00     0.001 A 
ATOM     79  C   UNL     1      12.312   1.435  -1.090  1.00  0.00     0.001 A 
ATOM     80  C   UNL     1      11.824   2.531  -0.380  1.00  0.00     0.000 A 
ENDBRANCH  56  75
BRANCH  68  81
ATOM     81  C   UNL     1      12.412   5.841  -8.789  1.00  0.00    -0.014 A 
ATOM     82  C   UNL     1      13.807   5.947  -8.680  1.00  0.00     0.009 A 
ATOM     83  C   UNL     1      11.673   6.973  -9.171  1.00  0.00     0.009 A 
ATOM     84  C   UNL     1      14.443   7.169  -8.917  1.00  0.00     0.001 A 
ATOM     85  C   UNL     1      12.313   8.184  -9.438  1.00  0.00     0.001 A 
ATOM     86  C   UNL     1      13.697   8.283  -9.302  1.00  0.00     0.000 A 
ENDBRANCH  68  81
ENDBRANCH  42  43
ENDBRANCH  35  37
ENDBRANCH  34  35
ENDBRANCH  33  34
ENDBRANCH  32  33
ENDBRANCH  31  32
ENDBRANCH  30  31
ENDBRANCH   1  30
TORSDOF 22
