REMARK SMILES CC[C@H](Oc1cccc(/C=C2\SC(=S)N(NC(=O)c3cccc(O)c3)C2=O)c1)C(=O)OCCOCCOCCOC(=O)c1ccc(-c2c3nc(c(-c4ccccc4)c4ccc([nH]4)c(-c4ccccc4)c4nc(c(-c5ccccc5)c5ccc2[nH]5)C=C4)C=C3)cc1
REMARK SMILES IDX 33 1 32 2 31 3 29 4 30 5 3 6 2 7 1 8 4 9 5 10 6 11 28 12
REMARK SMILES IDX 7 13 9 14 8 15 10 16 11 17 12 18 26 19 13 20 15 21 27 22
REMARK SMILES IDX 14 23 16 24 17 25 18 27 19 28 20 29 25 30 21 31 23 32 22 33
REMARK SMILES IDX 24 34 34 36 35 37 36 38 37 39 38 40 39 41 40 42 41 43 42 44
REMARK SMILES IDX 43 45 44 46 90 47 45 48 89 49 46 50 47 51 48 52 83 53 49 54
REMARK SMILES IDX 88 55 82 56 84 57 50 58 87 59 81 60 80 61 51 63 73 64 58 65
REMARK SMILES IDX 72 66 59 67 62 68 71 69 85 70 60 71 61 72 70 74 86 75 63 76
REMARK SMILES IDX 52 77 53 78 57 79 54 80 56 81 55 82 74 83 75 84 79 85 76 86
REMARK SMILES IDX 78 87 77 88 64 89 65 90 69 91 66 92 68 93 67 94
REMARK H PARENT 16 26 24 35 84 62 62 73
REMARK Flexibility Score: inf
ROOT
ATOM      1  C   UNL     1      -0.629   0.386   6.213  1.00  0.00     0.202 C 
ENDROOT
BRANCH   1   2
ATOM      2  C   UNL     1      -0.875   1.597   5.297  1.00  0.00     0.261 C 
BRANCH   2   3
ATOM      3  O   UNL     1      -0.552   1.416   3.904  1.00  0.00    -0.461 OA
BRANCH   3   4
ATOM      4  C   UNL     1       0.460   2.184   3.420  1.00  0.00     0.347 C 
ATOM      5  O   UNL     1       1.099   2.990   4.093  1.00  0.00    -0.248 OA
BRANCH   4   6
ATOM      6  C   UNL     1       0.744   1.989   1.913  1.00  0.00     0.282 C 
BRANCH   6   7
ATOM      7  C   UNL     1       0.177   3.242   1.207  1.00  0.00     0.054 C 
ATOM      8  C   UNL     1      -0.698   3.030  -0.019  1.00  0.00     0.008 C 
ENDBRANCH   6   7
BRANCH   6   9
ATOM      9  O   UNL     1       0.298   0.755   1.357  1.00  0.00    -0.479 OA
BRANCH   9  10
ATOM     10  C   UNL     1       0.805   0.350   0.145  1.00  0.00     0.121 A 
ATOM     11  C   UNL     1       1.906   0.913  -0.500  1.00  0.00     0.046 A 
ATOM     12  C   UNL     1       0.048  -0.633  -0.509  1.00  0.00     0.054 A 
ATOM     13  C   UNL     1       2.189   0.569  -1.820  1.00  0.00     0.004 A 
ATOM     14  C   UNL     1       0.274  -0.932  -1.859  1.00  0.00    -0.021 A 
ATOM     15  C   UNL     1       1.369  -0.331  -2.497  1.00  0.00     0.008 A 
BRANCH  14  16
ATOM     16  C   UNL     1      -0.591  -1.770  -2.712  1.00  0.00     0.029 C 
ATOM     17  C   UNL     1      -1.908  -2.010  -2.645  1.00  0.00     0.082 C 
ATOM     18  S   UNL     1      -3.057  -1.608  -1.435  1.00  0.00    -0.052 SA
ATOM     19  C   UNL     1      -2.594  -2.727  -3.758  1.00  0.00     0.285 C 
ATOM     20  C   UNL     1      -4.278  -2.674  -2.117  1.00  0.00     0.168 C 
ATOM     21  N   UNL     1      -3.792  -3.235  -3.284  1.00  0.00    -0.198 N 
ATOM     22  O   UNL     1      -2.166  -2.753  -4.902  1.00  0.00    -0.266 OA
ATOM     23  S   UNL     1      -5.779  -2.906  -1.429  1.00  0.00    -0.050 S 
BRANCH  21  24
ATOM     24  N   UNL     1      -4.610  -4.084  -4.051  1.00  0.00    -0.255 N 
ATOM     25  C   UNL     1      -4.240  -5.204  -4.768  1.00  0.00     0.270 C 
ATOM     26  H   UNL     1      -5.566  -3.850  -4.081  1.00  0.00     0.192 HD
ATOM     27  O   UNL     1      -5.104  -5.894  -5.305  1.00  0.00    -0.267 OA
BRANCH  25  28
ATOM     28  C   UNL     1      -2.822  -5.559  -4.978  1.00  0.00     0.045 A 
ATOM     29  C   UNL     1      -2.380  -5.643  -6.307  1.00  0.00     0.014 A 
ATOM     30  C   UNL     1      -1.928  -5.742  -3.917  1.00  0.00     0.060 A 
ATOM     31  C   UNL     1      -1.026  -5.833  -6.579  1.00  0.00     0.005 A 
ATOM     32  C   UNL     1      -0.576  -5.906  -4.209  1.00  0.00     0.116 A 
ATOM     33  C   UNL     1      -0.121  -5.946  -5.526  1.00  0.00     0.046 A 
BRANCH  32  34
ATOM     34  O   UNL     1       0.361  -5.997  -3.222  1.00  0.00    -0.508 OA
ATOM     35  H   UNL     1       1.265  -6.107  -3.442  1.00  0.00     0.293 HD
ENDBRANCH  32  34
ENDBRANCH  25  28
ENDBRANCH  21  24
ENDBRANCH  14  16
ENDBRANCH   9  10
ENDBRANCH   6   9
ENDBRANCH   4   6
ENDBRANCH   3   4
ENDBRANCH   2   3
ENDBRANCH   1   2
BRANCH   1  36
ATOM     36  O   UNL     1       0.634  -0.267   6.221  1.00  0.00    -0.376 OA
BRANCH  36  37
ATOM     37  C   UNL     1       1.250  -0.607   4.987  1.00  0.00     0.188 C 
BRANCH  37  38
ATOM     38  C   UNL     1       0.430  -1.322   3.897  1.00  0.00     0.188 C 
BRANCH  38  39
ATOM     39  O   UNL     1      -0.938  -1.473   4.175  1.00  0.00    -0.376 OA
BRANCH  39  40
ATOM     40  C   UNL     1      -1.421  -2.702   4.682  1.00  0.00     0.202 C 
BRANCH  40  41
ATOM     41  C   UNL     1      -0.571  -3.733   5.456  1.00  0.00     0.261 C 
BRANCH  41  42
ATOM     42  O   UNL     1       0.855  -3.598   5.443  1.00  0.00    -0.460 OA
BRANCH  42  43
ATOM     43  C   UNL     1       1.526  -4.288   4.493  1.00  0.00     0.338 C 
ATOM     44  O   UNL     1       1.049  -4.998   3.618  1.00  0.00    -0.246 OA
BRANCH  43  45
ATOM     45  C   UNL     1       2.945  -3.881   4.542  1.00  0.00     0.060 A 
ATOM     46  C   UNL     1       3.486  -3.157   3.469  1.00  0.00     0.016 A 
ATOM     47  C   UNL     1       3.740  -4.217   5.639  1.00  0.00     0.016 A 
ATOM     48  C   UNL     1       4.830  -2.781   3.482  1.00  0.00     0.010 A 
ATOM     49  C   UNL     1       5.093  -3.864   5.638  1.00  0.00     0.010 A 
ATOM     50  C   UNL     1       5.651  -3.169   4.548  1.00  0.00    -0.014 A 
BRANCH  50  51
ATOM     51  C   UNL     1       7.124  -3.020   4.447  1.00  0.00     0.031 A 
ATOM     52  C   UNL     1       7.937  -4.217   4.039  1.00  0.00     0.074 A 
ATOM     53  C   UNL     1       7.735  -1.852   4.713  1.00  0.00     0.049 A 
ATOM     54  N   UNL     1       9.236  -4.355   3.966  1.00  0.00    -0.248 NA
ATOM     55  C   UNL     1       7.180  -5.423   3.665  1.00  0.00     0.031 C 
ATOM     56  C   UNL     1       7.064  -0.603   5.068  1.00  0.00     0.029 A 
ATOM     57  N   UNL     1       9.072  -1.536   4.737  1.00  0.00    -0.354 N 
ATOM     58  C   UNL     1       9.452  -5.664   3.553  1.00  0.00     0.074 A 
ATOM     59  C   UNL     1       8.153  -6.287   3.419  1.00  0.00     0.031 C 
ATOM     60  C   UNL     1       7.995   0.342   5.291  1.00  0.00     0.029 A 
ATOM     61  C   UNL     1       9.325  -0.246   5.135  1.00  0.00     0.049 A 
ATOM     62  H   UNL     1       9.780  -2.174   4.492  1.00  0.00     0.167 HD
ATOM     63  C   UNL     1      10.625  -6.293   3.305  1.00  0.00     0.031 A 
ATOM     64  C   UNL     1      10.495   0.377   5.375  1.00  0.00     0.031 A 
ATOM     65  C   UNL     1      11.918  -5.684   3.460  1.00  0.00     0.049 A 
ATOM     66  C   UNL     1      11.790  -0.372   5.184  1.00  0.00     0.074 A 
ATOM     67  C   UNL     1      13.165  -6.238   3.226  1.00  0.00     0.029 A 
ATOM     68  N   UNL     1      12.132  -4.387   3.899  1.00  0.00    -0.354 N 
ATOM     69  N   UNL     1      11.983  -1.602   4.773  1.00  0.00    -0.248 NA
ATOM     70  C   UNL     1      13.030   0.360   5.484  1.00  0.00     0.031 C 
ATOM     71  C   UNL     1      14.135  -5.297   3.585  1.00  0.00     0.029 A 
ATOM     72  C   UNL     1      13.491  -4.132   3.971  1.00  0.00     0.049 A 
ATOM     73  H   UNL     1      11.423  -3.743   4.126  1.00  0.00     0.167 HD
ATOM     74  C   UNL     1      13.362  -1.779   4.733  1.00  0.00     0.074 A 
ATOM     75  C   UNL     1      13.957  -0.526   5.147  1.00  0.00     0.031 C 
ATOM     76  C   UNL     1      14.072  -2.880   4.383  1.00  0.00     0.031 A 
BRANCH  63  77
ATOM     77  C   UNL     1      10.559  -7.734   2.879  1.00  0.00    -0.014 A 
ATOM     78  C   UNL     1      10.062  -8.103   1.618  1.00  0.00     0.009 A 
ATOM     79  C   UNL     1      11.026  -8.736   3.743  1.00  0.00     0.009 A 
ATOM     80  C   UNL     1      10.001  -9.448   1.248  1.00  0.00     0.001 A 
ATOM     81  C   UNL     1      10.995 -10.077   3.358  1.00  0.00     0.001 A 
ATOM     82  C   UNL     1      10.473 -10.433   2.116  1.00  0.00     0.000 A 
ENDBRANCH  63  77
BRANCH  64  83
ATOM     83  C   UNL     1      10.508   1.786   5.856  1.00  0.00    -0.014 A 
ATOM     84  C   UNL     1      11.017   2.816   5.050  1.00  0.00     0.009 A 
ATOM     85  C   UNL     1      10.038   2.103   7.141  1.00  0.00     0.009 A 
ATOM     86  C   UNL     1      11.083   4.126   5.532  1.00  0.00     0.001 A 
ATOM     87  C   UNL     1      10.074   3.419   7.607  1.00  0.00     0.001 A 
ATOM     88  C   UNL     1      10.607   4.427   6.806  1.00  0.00     0.000 A 
ENDBRANCH  64  83
BRANCH  76  89
ATOM     89  C   UNL     1      15.574  -2.768   4.382  1.00  0.00    -0.014 A 
ATOM     90  C   UNL     1      16.306  -2.670   5.575  1.00  0.00     0.009 A 
ATOM     91  C   UNL     1      16.270  -2.810   3.162  1.00  0.00     0.009 A 
ATOM     92  C   UNL     1      17.700  -2.579   5.544  1.00  0.00     0.001 A 
ATOM     93  C   UNL     1      17.664  -2.753   3.136  1.00  0.00     0.001 A 
ATOM     94  C   UNL     1      18.377  -2.627   4.326  1.00  0.00     0.000 A 
ENDBRANCH  76  89
ENDBRANCH  50  51
ENDBRANCH  43  45
ENDBRANCH  42  43
ENDBRANCH  41  42
ENDBRANCH  40  41
ENDBRANCH  39  40
ENDBRANCH  38  39
ENDBRANCH  37  38
ENDBRANCH  36  37
ENDBRANCH   1  36
TORSDOF 24
