REMARK SMILES Cc1ccccc1NC(=O)c1ccccc1NC(=O)CCC(=O)OCCOCCOCCOC(=O)c1ccc(-c2c3nc(c(-c4ccccc4)c4ccc([nH]4)c(-c4ccccc4)c4nc(c(-c5ccccc5)c5ccc2[nH]5)C=C4)C=C3)cc1
REMARK SMILES IDX 27 1 26 2 25 3 24 4 22 5 23 6 21 7 20 8 18 9 17 10 19 12
REMARK SMILES IDX 16 13 11 14 12 15 13 16 15 17 14 18 9 19 8 20 10 22 7 23
REMARK SMILES IDX 1 24 2 25 3 26 4 27 6 28 5 29 28 30 29 31 30 32 31 33 32 34
REMARK SMILES IDX 33 35 34 36 35 37 36 38 37 39 83 40 38 41 82 42 39 43 40 44
REMARK SMILES IDX 41 45 76 46 42 47 81 48 75 49 77 50 43 51 80 52 74 53 73 54
REMARK SMILES IDX 44 56 66 57 51 58 65 59 52 60 55 61 64 62 78 63 53 64 54 65
REMARK SMILES IDX 63 67 79 68 56 69 45 70 46 71 50 72 47 73 49 74 48 75 67 76
REMARK SMILES IDX 68 77 72 78 69 79 71 80 70 81 57 82 58 83 62 84 59 85 61 86
REMARK SMILES IDX 60 87
REMARK H PARENT 17 11 8 21 77 55 55 66
REMARK Flexibility Score: inf
ROOT
ATOM      1  O   UNL     1      -2.376   5.987   0.209  1.00  0.00    -0.376 OA
ENDROOT
BRANCH   1   2
ATOM      2  C   UNL     1      -1.126   5.024  -0.018  1.00  0.00     0.202 C 
BRANCH   2   3
ATOM      3  C   UNL     1       0.842   4.946   0.999  1.00  0.00     0.261 C 
BRANCH   3   4
ATOM      4  O   UNL     1       1.553   3.662   1.592  1.00  0.00    -0.463 OA
BRANCH   4   5
ATOM      5  C   UNL     1       1.694   3.588   2.922  1.00  0.00     0.306 C 
ATOM      6  O   UNL     1       2.088   4.532   3.590  1.00  0.00    -0.252 OA
BRANCH   5   7
ATOM      7  C   UNL     1       1.120   2.348   3.563  1.00  0.00     0.132 C 
BRANCH   7   8
ATOM      8  C   UNL     1       0.611   1.073   2.970  1.00  0.00     0.112 C 
BRANCH   8   9
ATOM      9  C   UNL     1       0.761   1.036   1.533  1.00  0.00     0.224 C 
ATOM     10  N   UNL     1       0.046   1.781   0.664  1.00  0.00    -0.325 N 
ATOM     11  H   UNL     1      -0.367   1.243  -0.050  1.00  0.00     0.169 HD
ATOM     12  O   UNL     1       1.605   0.239   1.121  1.00  0.00    -0.275 OA
BRANCH  10  13
ATOM     13  C   UNL     1      -0.243   3.158   0.547  1.00  0.00     0.054 A 
ATOM     14  C   UNL     1       0.529   3.952  -0.884  1.00  0.00     0.063 A 
ATOM     15  C   UNL     1       0.651   5.768  -0.959  1.00  0.00     0.016 A 
ATOM     16  C   UNL     1       0.007   6.781   0.376  1.00  0.00     0.001 A 
ATOM     17  C   UNL     1      -0.899   4.202   1.876  1.00  0.00     0.027 A 
ATOM     18  C   UNL     1      -0.769   6.007   1.807  1.00  0.00     0.002 A 
BRANCH  14  19
ATOM     19  C   UNL     1       1.373   3.265  -1.923  1.00  0.00     0.257 C 
ATOM     20  N   UNL     1       1.629   1.908  -2.018  1.00  0.00    -0.322 N 
ATOM     21  H   UNL     1       2.585   1.718  -2.155  1.00  0.00     0.170 HD
ATOM     22  O   UNL     1       2.052   4.016  -2.629  1.00  0.00    -0.269 OA
BRANCH  20  23
ATOM     23  C   UNL     1       0.851   0.727  -1.965  1.00  0.00     0.044 A 
ATOM     24  C   UNL     1       2.942  -0.571  -1.168  1.00  0.00     0.046 C 
ATOM     25  C   UNL     1       1.469  -0.470  -1.518  1.00  0.00    -0.027 A 
ATOM     26  C   UNL     1       0.657  -1.565  -1.153  1.00  0.00     0.005 A 
ATOM     27  C   UNL     1      -0.731  -1.473  -1.207  1.00  0.00     0.000 A 
ATOM     28  C   UNL     1      -0.545   0.776  -2.094  1.00  0.00     0.026 A 
ATOM     29  C   UNL     1      -1.330  -0.312  -1.688  1.00  0.00     0.002 A 
ENDBRANCH  20  23
ENDBRANCH  14  19
ENDBRANCH  10  13
ENDBRANCH   8   9
ENDBRANCH   7   8
ENDBRANCH   5   7
ENDBRANCH   4   5
ENDBRANCH   3   4
ENDBRANCH   2   3
ENDBRANCH   1   2
BRANCH   1  30
ATOM     30  C   UNL     1      -3.484   5.545   1.029  1.00  0.00     0.188 C 
BRANCH  30  31
ATOM     31  C   UNL     1      -4.419   4.476   0.452  1.00  0.00     0.188 C 
BRANCH  31  32
ATOM     32  O   UNL     1      -3.694   3.337   0.021  1.00  0.00    -0.376 OA
BRANCH  32  33
ATOM     33  C   UNL     1      -4.221   2.710  -1.145  1.00  0.00     0.202 C 
BRANCH  33  34
ATOM     34  C   UNL     1      -5.405   1.795  -0.813  1.00  0.00     0.261 C 
BRANCH  34  35
ATOM     35  O   UNL     1      -5.030   0.948   0.297  1.00  0.00    -0.460 OA
BRANCH  35  36
ATOM     36  C   UNL     1      -5.717   1.120   1.462  1.00  0.00     0.338 C 
ATOM     37  O   UNL     1      -6.893   1.428   1.556  1.00  0.00    -0.246 OA
BRANCH  36  38
ATOM     38  C   UNL     1      -4.774   1.089   2.630  1.00  0.00     0.060 A 
ATOM     39  C   UNL     1      -5.201   1.169   3.970  1.00  0.00     0.016 A 
ATOM     40  C   UNL     1      -3.428   1.250   2.385  1.00  0.00     0.016 A 
ATOM     41  C   UNL     1      -4.294   1.494   5.035  1.00  0.00     0.010 A 
ATOM     42  C   UNL     1      -2.590   1.623   3.429  1.00  0.00     0.010 A 
ATOM     43  C   UNL     1      -2.949   1.772   4.772  1.00  0.00    -0.014 A 
BRANCH  43  44
ATOM     44  C   UNL     1      -1.992   2.620   5.581  1.00  0.00     0.031 A 
ATOM     45  C   UNL     1      -0.636   2.248   6.199  1.00  0.00     0.074 A 
ATOM     46  C   UNL     1      -2.146   3.940   5.285  1.00  0.00     0.049 A 
ATOM     47  N   UNL     1       0.194   3.126   6.699  1.00  0.00    -0.248 NA
ATOM     48  C   UNL     1      -0.022   0.914   6.232  1.00  0.00     0.031 C 
ATOM     49  C   UNL     1      -1.135   4.997   5.230  1.00  0.00     0.029 A 
ATOM     50  N   UNL     1      -3.289   4.627   4.926  1.00  0.00    -0.354 N 
ATOM     51  C   UNL     1       1.490   2.617   6.645  1.00  0.00     0.074 A 
ATOM     52  C   UNL     1       1.273   1.192   6.507  1.00  0.00     0.031 C 
ATOM     53  C   UNL     1      -1.732   6.189   5.097  1.00  0.00     0.029 A 
ATOM     54  C   UNL     1      -3.147   5.976   5.257  1.00  0.00     0.049 A 
ATOM     55  H   UNL     1      -4.082   4.226   4.502  1.00  0.00     0.167 HD
ATOM     56  C   UNL     1       2.573   3.472   6.518  1.00  0.00     0.031 A 
ATOM     57  C   UNL     1      -3.883   6.501   6.286  1.00  0.00     0.031 A 
ATOM     58  C   UNL     1       2.204   4.861   6.801  1.00  0.00     0.049 A 
ATOM     59  C   UNL     1      -3.045   6.844   7.519  1.00  0.00     0.074 A 
ATOM     60  C   UNL     1       2.270   6.092   6.166  1.00  0.00     0.029 A 
ATOM     61  N   UNL     1       1.505   5.077   7.965  1.00  0.00    -0.354 N 
ATOM     62  N   UNL     1      -1.739   6.757   7.534  1.00  0.00    -0.248 NA
ATOM     63  C   UNL     1      -3.540   7.285   8.824  1.00  0.00     0.031 C 
ATOM     64  C   UNL     1       1.432   6.998   6.890  1.00  0.00     0.029 A 
ATOM     65  C   UNL     1       0.935   6.325   7.991  1.00  0.00     0.049 A 
ATOM     66  H   UNL     1       1.424   4.417   8.691  1.00  0.00     0.167 HD
ATOM     67  C   UNL     1      -1.249   6.913   8.797  1.00  0.00     0.074 A 
ATOM     68  C   UNL     1      -2.409   7.317   9.562  1.00  0.00     0.031 C 
ATOM     69  C   UNL     1       0.045   6.604   9.106  1.00  0.00     0.031 A 
BRANCH  56  70
ATOM     70  C   UNL     1       3.996   3.167   6.015  1.00  0.00    -0.014 A 
ATOM     71  C   UNL     1       5.010   4.153   6.139  1.00  0.00     0.009 A 
ATOM     72  C   UNL     1       4.372   2.022   5.291  1.00  0.00     0.009 A 
ATOM     73  C   UNL     1       6.298   4.008   5.587  1.00  0.00     0.001 A 
ATOM     74  C   UNL     1       5.662   1.870   4.735  1.00  0.00     0.001 A 
ATOM     75  C   UNL     1       6.627   2.860   4.885  1.00  0.00     0.000 A 
ENDBRANCH  56  70
BRANCH  57  76
ATOM     76  C   UNL     1      -5.317   6.090   6.129  1.00  0.00    -0.014 A 
ATOM     77  C   UNL     1      -5.968   6.699   5.029  1.00  0.00     0.009 A 
ATOM     78  C   UNL     1      -5.757   4.811   6.519  1.00  0.00     0.009 A 
ATOM     79  C   UNL     1      -6.858   5.979   4.221  1.00  0.00     0.001 A 
ATOM     80  C   UNL     1      -6.675   4.104   5.718  1.00  0.00     0.001 A 
ATOM     81  C   UNL     1      -7.177   4.665   4.543  1.00  0.00     0.000 A 
ENDBRANCH  57  76
BRANCH  69  82
ATOM     82  C   UNL     1       0.589   6.331  10.493  1.00  0.00    -0.014 A 
ATOM     83  C   UNL     1      -0.207   5.854  11.539  1.00  0.00     0.009 A 
ATOM     84  C   UNL     1       1.994   6.279  10.684  1.00  0.00     0.009 A 
ATOM     85  C   UNL     1       0.366   5.358  12.718  1.00  0.00     0.001 A 
ATOM     86  C   UNL     1       2.568   5.729  11.833  1.00  0.00     0.001 A 
ATOM     87  C   UNL     1       1.750   5.277  12.857  1.00  0.00     0.000 A 
ENDBRANCH  69  82
ENDBRANCH  43  44
ENDBRANCH  36  38
ENDBRANCH  35  36
ENDBRANCH  34  35
ENDBRANCH  33  34
ENDBRANCH  32  33
ENDBRANCH  31  32
ENDBRANCH  30  31
ENDBRANCH   1  30
TORSDOF 22
