REMARK SMILES O=C(Cc1ccccc1-c1ccn(C(F)F)c(=O)c1)OCCOCCOCCOC(=O)c1ccc(-c2c3nc(c(-c4ccccc4)c4ccc([nH]4)c(-c4ccccc4)c4nc(c(-c5ccccc5)c5ccc2[nH]5)C=C4)C=C3)cc1
REMARK SMILES IDX 24 1 23 2 22 3 21 4 20 5 2 6 1 7 3 8 4 9 5 10 9 11 6 12 8 13
REMARK SMILES IDX 7 14 10 15 11 16 19 17 12 18 17 19 13 20 18 21 14 22 15 23
REMARK SMILES IDX 16 24 25 25 26 26 27 27 28 28 29 29 30 30 31 31 32 32 33 33
REMARK SMILES IDX 79 34 34 35 78 36 35 37 36 38 37 39 72 40 38 41 77 42 71 43
REMARK SMILES IDX 73 44 39 45 76 46 70 47 69 48 40 50 62 51 47 52 61 53 48 54
REMARK SMILES IDX 51 55 60 56 74 57 49 58 50 59 59 61 75 62 52 63 41 64 42 65
REMARK SMILES IDX 46 66 43 67 45 68 44 69 63 70 64 71 68 72 65 73 67 74 66 75
REMARK SMILES IDX 53 76 54 77 58 78 55 79 57 80 56 81
REMARK H PARENT 73 49 51 60
REMARK Flexibility Score: inf
ROOT
ATOM      1  C   UNL     1       3.054  -0.963   2.343  1.00  0.00     0.188 C 
ENDROOT
BRANCH   1   2
ATOM      2  O   UNL     1       4.449  -1.089   2.586  1.00  0.00    -0.376 OA
BRANCH   2   3
ATOM      3  C   UNL     1       5.352  -0.701   1.550  1.00  0.00     0.202 C 
BRANCH   3   4
ATOM      4  C   UNL     1       4.827  -0.779   0.126  1.00  0.00     0.261 C 
BRANCH   4   5
ATOM      5  O   UNL     1       3.835   0.262  -0.034  1.00  0.00    -0.463 OA
BRANCH   5   6
ATOM      6  C   UNL     1       2.690   0.123  -0.744  1.00  0.00     0.310 C 
ATOM      7  O   UNL     1       1.723   0.846  -0.514  1.00  0.00    -0.252 OA
BRANCH   6   8
ATOM      8  C   UNL     1       2.615  -0.956  -1.789  1.00  0.00     0.158 C 
BRANCH   8   9
ATOM      9  C   UNL     1       3.838  -1.135  -2.667  1.00  0.00    -0.029 A 
ATOM     10  C   UNL     1       4.237  -2.463  -2.919  1.00  0.00     0.005 A 
ATOM     11  C   UNL     1       4.610  -0.059  -3.182  1.00  0.00    -0.014 A 
ATOM     12  C   UNL     1       5.417  -2.732  -3.601  1.00  0.00     0.000 A 
ATOM     13  C   UNL     1       5.794  -0.357  -3.871  1.00  0.00     0.009 A 
ATOM     14  C   UNL     1       6.198  -1.681  -4.069  1.00  0.00     0.001 A 
BRANCH  11  15
ATOM     15  C   UNL     1       4.315   1.365  -2.866  1.00  0.00    -0.011 A 
ATOM     16  C   UNL     1       5.114   2.111  -1.904  1.00  0.00     0.027 A 
ATOM     17  C   UNL     1       3.180   1.922  -3.325  1.00  0.00     0.080 A 
ATOM     18  C   UNL     1       4.595   3.174  -1.278  1.00  0.00     0.095 A 
ATOM     19  C   UNL     1       2.672   3.206  -2.746  1.00  0.00     0.255 A 
ATOM     20  N   UNL     1       3.351   3.665  -1.629  1.00  0.00    -0.258 N 
ATOM     21  O   UNL     1       1.682   3.722  -3.253  1.00  0.00    -0.269 OA
BRANCH  20  22
ATOM     22  C   UNL     1       2.782   4.756  -0.874  1.00  0.00     0.451 C 
ATOM     23  F   UNL     1       3.143   5.944  -1.419  1.00  0.00    -0.185 F 
ATOM     24  F   UNL     1       1.429   4.718  -0.826  1.00  0.00    -0.185 F 
ENDBRANCH  20  22
ENDBRANCH  11  15
ENDBRANCH   8   9
ENDBRANCH   6   8
ENDBRANCH   5   6
ENDBRANCH   4   5
ENDBRANCH   3   4
ENDBRANCH   2   3
ENDBRANCH   1   2
BRANCH   1  25
ATOM     25  C   UNL     1       2.345   0.361   2.702  1.00  0.00     0.188 C 
BRANCH  25  26
ATOM     26  O   UNL     1       3.064   1.581   2.671  1.00  0.00    -0.376 OA
BRANCH  26  27
ATOM     27  C   UNL     1       4.119   1.796   3.599  1.00  0.00     0.202 C 
BRANCH  27  28
ATOM     28  C   UNL     1       4.020   1.316   5.056  1.00  0.00     0.261 C 
BRANCH  28  29
ATOM     29  O   UNL     1       3.807  -0.100   5.181  1.00  0.00    -0.460 OA
BRANCH  29  30
ATOM     30  C   UNL     1       2.673  -0.467   5.834  1.00  0.00     0.338 C 
ATOM     31  O   UNL     1       1.903   0.253   6.428  1.00  0.00    -0.246 OA
BRANCH  30  32
ATOM     32  C   UNL     1       2.357  -1.877   5.502  1.00  0.00     0.060 A 
ATOM     33  C   UNL     1       1.070  -2.153   5.010  1.00  0.00     0.016 A 
ATOM     34  C   UNL     1       3.299  -2.901   5.623  1.00  0.00     0.016 A 
ATOM     35  C   UNL     1       0.712  -3.457   4.670  1.00  0.00     0.010 A 
ATOM     36  C   UNL     1       2.926  -4.216   5.324  1.00  0.00     0.010 A 
ATOM     37  C   UNL     1       1.619  -4.503   4.885  1.00  0.00    -0.014 A 
BRANCH  37  38
ATOM     38  C   UNL     1       1.096  -5.888   4.969  1.00  0.00     0.031 A 
ATOM     39  C   UNL     1       0.567  -6.336   6.306  1.00  0.00     0.074 A 
ATOM     40  C   UNL     1       1.049  -6.719   3.913  1.00  0.00     0.049 A 
ATOM     41  N   UNL     1       0.039  -7.481   6.654  1.00  0.00    -0.248 NA
ATOM     42  C   UNL     1       0.641  -5.349   7.396  1.00  0.00     0.031 C 
ATOM     43  C   UNL     1       1.474  -6.399   2.553  1.00  0.00     0.029 A 
ATOM     44  N   UNL     1       0.609  -8.018   3.834  1.00  0.00    -0.354 N 
ATOM     45  C   UNL     1      -0.282  -7.347   7.999  1.00  0.00     0.074 A 
ATOM     46  C   UNL     1       0.136  -6.027   8.412  1.00  0.00     0.031 C 
ATOM     47  C   UNL     1       1.279  -7.479   1.773  1.00  0.00     0.029 A 
ATOM     48  C   UNL     1       0.738  -8.570   2.583  1.00  0.00     0.049 A 
ATOM     49  H   UNL     1       0.236  -8.508   4.602  1.00  0.00     0.167 HD
ATOM     50  C   UNL     1      -0.877  -8.238   8.824  1.00  0.00     0.031 A 
ATOM     51  C   UNL     1       0.461  -9.817   2.151  1.00  0.00     0.031 A 
ATOM     52  C   UNL     1      -1.256  -9.567   8.437  1.00  0.00     0.049 A 
ATOM     53  C   UNL     1      -0.105 -10.832   3.114  1.00  0.00     0.074 A 
ATOM     54  C   UNL     1      -1.857 -10.550   9.202  1.00  0.00     0.029 A 
ATOM     55  N   UNL     1      -1.051 -10.105   7.177  1.00  0.00    -0.354 N 
ATOM     56  N   UNL     1      -0.432 -10.685   4.376  1.00  0.00    -0.248 NA
ATOM     57  C   UNL     1      -0.346 -12.184   2.586  1.00  0.00     0.031 C 
ATOM     58  C   UNL     1      -1.961 -11.705   8.420  1.00  0.00     0.029 A 
ATOM     59  C   UNL     1      -1.486 -11.418   7.149  1.00  0.00     0.049 A 
ATOM     60  H   UNL     1      -0.655  -9.624   6.414  1.00  0.00     0.167 HD
ATOM     61  C   UNL     1      -0.947 -11.912   4.781  1.00  0.00     0.074 A 
ATOM     62  C   UNL     1      -0.896 -12.789   3.630  1.00  0.00     0.031 C 
ATOM     63  C   UNL     1      -1.427 -12.278   5.996  1.00  0.00     0.031 A 
BRANCH  50  64
ATOM     64  C   UNL     1      -1.094  -7.803  10.245  1.00  0.00    -0.014 A 
ATOM     65  C   UNL     1      -2.047  -6.824  10.572  1.00  0.00     0.009 A 
ATOM     66  C   UNL     1      -0.315  -8.363  11.269  1.00  0.00     0.009 A 
ATOM     67  C   UNL     1      -2.183  -6.383  11.889  1.00  0.00     0.001 A 
ATOM     68  C   UNL     1      -0.475  -7.942  12.589  1.00  0.00     0.001 A 
ATOM     69  C   UNL     1      -1.399  -6.945  12.897  1.00  0.00     0.000 A 
ENDBRANCH  50  64
BRANCH  51  70
ATOM     70  C   UNL     1       0.720 -10.194   0.735  1.00  0.00    -0.014 A 
ATOM     71  C   UNL     1      -0.343 -10.449  -0.144  1.00  0.00     0.009 A 
ATOM     72  C   UNL     1       2.036 -10.333   0.265  1.00  0.00     0.009 A 
ATOM     73  C   UNL     1      -0.094 -10.856  -1.458  1.00  0.00     0.001 A 
ATOM     74  C   UNL     1       2.281 -10.714  -1.056  1.00  0.00     0.001 A 
ATOM     75  C   UNL     1       1.217 -10.983  -1.914  1.00  0.00     0.000 A 
ENDBRANCH  51  70
BRANCH  63  76
ATOM     76  C   UNL     1      -1.977 -13.671   6.138  1.00  0.00    -0.014 A 
ATOM     77  C   UNL     1      -1.135 -14.793   6.161  1.00  0.00     0.009 A 
ATOM     78  C   UNL     1      -3.358 -13.854   6.312  1.00  0.00     0.009 A 
ATOM     79  C   UNL     1      -1.670 -16.073   6.324  1.00  0.00     0.001 A 
ATOM     80  C   UNL     1      -3.887 -15.131   6.505  1.00  0.00     0.001 A 
ATOM     81  C   UNL     1      -3.044 -16.241   6.502  1.00  0.00     0.000 A 
ENDBRANCH  63  76
ENDBRANCH  37  38
ENDBRANCH  30  32
ENDBRANCH  29  30
ENDBRANCH  28  29
ENDBRANCH  27  28
ENDBRANCH  26  27
ENDBRANCH  25  26
ENDBRANCH   1  25
TORSDOF 20
