REMARK SMILES Cc1cscc1-c1ncc(C(=O)OCCOCCOCCOC(=O)c2ccc(-c3c4nc(c(-c5ccccc5)c5ccc([nH]5)c(-c5ccccc5)c5nc(c(-c6ccccc6)c6ccc3[nH]6)C=C5)C=C4)cc2)c(=O)[nH]1
REMARK SMILES IDX 18 1 17 2 16 3 15 4 14 5 13 6 11 7 12 8 10 9 7 10 8 11 75 12
REMARK SMILES IDX 9 13 73 14 74 16 6 17 1 18 2 19 3 20 4 21 5 22 19 23 20 24
REMARK SMILES IDX 21 25 22 26 23 27 24 28 25 29 26 30 72 31 27 32 71 33 28 34
REMARK SMILES IDX 29 35 30 36 65 37 31 38 70 39 64 40 66 41 32 42 69 43 63 44
REMARK SMILES IDX 62 45 33 47 55 48 40 49 54 50 41 51 44 52 53 53 67 54 42 55
REMARK SMILES IDX 43 56 52 58 68 59 45 60 34 61 35 62 39 63 36 64 38 65 37 66
REMARK SMILES IDX 56 67 57 68 61 69 58 70 60 71 59 72 46 73 47 74 51 75 48 76
REMARK SMILES IDX 50 77 49 78
REMARK H PARENT 75 15 66 46 44 57
REMARK Flexibility Score: inf
ROOT
ATOM      1  C   UNL     1       5.176   5.681   1.121  1.00  0.00     0.188 C 
ENDROOT
BRANCH   1   2
ATOM      2  C   UNL     1       5.429   6.310  -0.265  1.00  0.00     0.188 C 
BRANCH   2   3
ATOM      3  O   UNL     1       5.764   7.677  -0.386  1.00  0.00    -0.376 OA
BRANCH   3   4
ATOM      4  C   UNL     1       4.913   8.679   0.145  1.00  0.00     0.202 C 
BRANCH   4   5
ATOM      5  C   UNL     1       3.380   8.579   0.102  1.00  0.00     0.261 C 
BRANCH   5   6
ATOM      6  O   UNL     1       2.833   7.290   0.406  1.00  0.00    -0.459 OA
BRANCH   6   7
ATOM      7  C   UNL     1       2.189   6.669  -0.613  1.00  0.00     0.345 C 
ATOM      8  O   UNL     1       2.035   7.117  -1.741  1.00  0.00    -0.246 OA
BRANCH   7   9
ATOM      9  C   UNL     1       1.854   5.282  -0.264  1.00  0.00     0.143 A 
ATOM     10  C   UNL     1       1.169   2.660   0.024  1.00  0.00     0.141 A 
ATOM     11  N   UNL     1       1.879   2.982  -1.008  1.00  0.00    -0.237 NA
ATOM     12  N   UNL     1       0.846   3.535   1.025  1.00  0.00    -0.306 N 
ATOM     13  C   UNL     1       2.190   4.316  -1.134  1.00  0.00     0.135 A 
ATOM     14  C   UNL     1       1.173   4.863   0.971  1.00  0.00     0.265 A 
ATOM     15  H   UNL     1       0.361   3.197   1.812  1.00  0.00     0.171 HD
ATOM     16  O   UNL     1       0.868   5.635   1.872  1.00  0.00    -0.269 OA
BRANCH  10  17
ATOM     17  C   UNL     1       0.582   1.334   0.105  1.00  0.00     0.031 A 
ATOM     18  C   UNL     1       2.715  -0.169  -0.044  1.00  0.00     0.046 C 
ATOM     19  C   UNL     1       1.240   0.049   0.038  1.00  0.00    -0.029 A 
ATOM     20  C   UNL     1       0.317  -0.984   0.064  1.00  0.00     0.069 A 
ATOM     21  S   UNL     1      -1.295  -0.441   0.173  1.00  0.00    -0.151 S 
ATOM     22  C   UNL     1      -0.793   1.186   0.183  1.00  0.00     0.077 A 
ENDBRANCH  10  17
ENDBRANCH   7   9
ENDBRANCH   6   7
ENDBRANCH   5   6
ENDBRANCH   4   5
ENDBRANCH   3   4
ENDBRANCH   2   3
ENDBRANCH   1   2
BRANCH   1  23
ATOM     23  O   UNL     1       5.171   6.513   2.253  1.00  0.00    -0.376 OA
BRANCH  23  24
ATOM     24  C   UNL     1       6.379   7.032   2.780  1.00  0.00     0.202 C 
BRANCH  24  25
ATOM     25  C   UNL     1       7.801   6.560   2.416  1.00  0.00     0.261 C 
BRANCH  25  26
ATOM     26  O   UNL     1       7.983   5.839   1.196  1.00  0.00    -0.460 OA
BRANCH  26  27
ATOM     27  C   UNL     1       8.215   4.509   1.323  1.00  0.00     0.338 C 
ATOM     28  O   UNL     1       8.244   3.851   2.351  1.00  0.00    -0.246 OA
BRANCH  27  29
ATOM     29  C   UNL     1       8.265   3.919  -0.025  1.00  0.00     0.060 A 
ATOM     30  C   UNL     1       7.202   3.116  -0.463  1.00  0.00     0.016 A 
ATOM     31  C   UNL     1       9.358   4.168  -0.854  1.00  0.00     0.016 A 
ATOM     32  C   UNL     1       7.220   2.574  -1.748  1.00  0.00     0.010 A 
ATOM     33  C   UNL     1       9.388   3.599  -2.128  1.00  0.00     0.010 A 
ATOM     34  C   UNL     1       8.325   2.794  -2.579  1.00  0.00    -0.014 A 
BRANCH  34  35
ATOM     35  C   UNL     1       8.450   2.093  -3.877  1.00  0.00     0.031 A 
ATOM     36  C   UNL     1       9.301   0.859  -3.953  1.00  0.00     0.074 A 
ATOM     37  C   UNL     1       7.847   2.567  -4.981  1.00  0.00     0.049 A 
ATOM     38  N   UNL     1       9.660   0.161  -4.999  1.00  0.00    -0.248 NA
ATOM     39  C   UNL     1       9.819   0.348  -2.675  1.00  0.00     0.031 C 
ATOM     40  C   UNL     1       6.944   3.715  -5.029  1.00  0.00     0.029 A 
ATOM     41  N   UNL     1       7.924   2.141  -6.284  1.00  0.00    -0.354 N 
ATOM     42  C   UNL     1      10.456  -0.865  -4.508  1.00  0.00     0.074 A 
ATOM     43  C   UNL     1      10.549  -0.682  -3.075  1.00  0.00     0.031 C 
ATOM     44  C   UNL     1       6.559   3.910  -6.302  1.00  0.00     0.029 A 
ATOM     45  C   UNL     1       7.228   2.935  -7.161  1.00  0.00     0.049 A 
ATOM     46  H   UNL     1       8.431   1.344  -6.562  1.00  0.00     0.167 HD
ATOM     47  C   UNL     1      11.056  -1.871  -5.189  1.00  0.00     0.031 A 
ATOM     48  C   UNL     1       7.166   2.897  -8.507  1.00  0.00     0.031 A 
ATOM     49  C   UNL     1      10.994  -2.028  -6.618  1.00  0.00     0.049 A 
ATOM     50  C   UNL     1       7.955   1.854  -9.255  1.00  0.00     0.074 A 
ATOM     51  C   UNL     1      11.567  -3.013  -7.403  1.00  0.00     0.029 A 
ATOM     52  N   UNL     1      10.332  -1.165  -7.478  1.00  0.00    -0.354 N 
ATOM     53  N   UNL     1       8.690   0.875  -8.785  1.00  0.00    -0.248 NA
ATOM     54  C   UNL     1       7.910   1.917 -10.724  1.00  0.00     0.031 C 
ATOM     55  C   UNL     1      11.310  -2.706  -8.743  1.00  0.00     0.029 A 
ATOM     56  C   UNL     1      10.517  -1.570  -8.789  1.00  0.00     0.049 A 
ATOM     57  H   UNL     1       9.808  -0.380  -7.198  1.00  0.00     0.167 HD
ATOM     58  C   UNL     1       9.170   0.191  -9.896  1.00  0.00     0.074 A 
ATOM     59  C   UNL     1       8.632   0.858 -11.063  1.00  0.00     0.031 C 
ATOM     60  C   UNL     1       9.980  -0.895  -9.944  1.00  0.00     0.031 A 
BRANCH  47  61
ATOM     61  C   UNL     1      11.877  -2.845  -4.389  1.00  0.00    -0.014 A 
ATOM     62  C   UNL     1      11.277  -3.744  -3.493  1.00  0.00     0.009 A 
ATOM     63  C   UNL     1      13.272  -2.865  -4.538  1.00  0.00     0.009 A 
ATOM     64  C   UNL     1      12.062  -4.608  -2.726  1.00  0.00     0.001 A 
ATOM     65  C   UNL     1      14.052  -3.754  -3.796  1.00  0.00     0.001 A 
ATOM     66  C   UNL     1      13.448  -4.614  -2.881  1.00  0.00     0.000 A 
ENDBRANCH  47  61
BRANCH  48  67
ATOM     67  C   UNL     1       6.346   3.895  -9.245  1.00  0.00    -0.014 A 
ATOM     68  C   UNL     1       5.196   3.492  -9.940  1.00  0.00     0.009 A 
ATOM     69  C   UNL     1       6.716   5.249  -9.275  1.00  0.00     0.009 A 
ATOM     70  C   UNL     1       4.444   4.420 -10.664  1.00  0.00     0.001 A 
ATOM     71  C   UNL     1       5.945   6.180  -9.975  1.00  0.00     0.001 A 
ATOM     72  C   UNL     1       4.815   5.764 -10.676  1.00  0.00     0.000 A 
ENDBRANCH  48  67
BRANCH  60  73
ATOM     73  C   UNL     1      10.316  -1.455 -11.299  1.00  0.00    -0.014 A 
ATOM     74  C   UNL     1      11.194  -0.788 -12.168  1.00  0.00     0.009 A 
ATOM     75  C   UNL     1       9.799  -2.703 -11.684  1.00  0.00     0.009 A 
ATOM     76  C   UNL     1      11.528  -1.349 -13.403  1.00  0.00     0.001 A 
ATOM     77  C   UNL     1      10.160  -3.276 -12.904  1.00  0.00     0.001 A 
ATOM     78  C   UNL     1      11.018  -2.596 -13.766  1.00  0.00     0.000 A 
ENDBRANCH  60  73
ENDBRANCH  34  35
ENDBRANCH  27  29
ENDBRANCH  26  27
ENDBRANCH  25  26
ENDBRANCH  24  25
ENDBRANCH  23  24
ENDBRANCH   1  23
TORSDOF 18
