REMARK SMILES O=C(OCCOCCOCCOC(=O)c1ccc(S(=O)(=O)NC[C@H]2CCS(=O)(=O)C2)cc1)c1ccc(-c2c3nc(c(-c4ccccc4)c4ccc([nH]4)c(-c4ccccc4)c4nc(c(-c5ccccc5)c5ccc2[nH]5)C=C4)C=C3)cc1
REMARK SMILES IDX 8 1 7 2 6 3 5 4 4 5 3 6 2 7 1 8 33 9 34 10 80 11 35 12 79 13
REMARK SMILES IDX 36 14 37 15 38 16 73 17 39 18 78 19 72 20 74 21 40 22 77 23
REMARK SMILES IDX 71 24 70 25 41 27 63 28 48 29 62 30 49 31 52 32 61 33 75 34
REMARK SMILES IDX 50 35 51 36 60 38 76 39 53 40 42 41 43 42 47 43 44 44 46 45
REMARK SMILES IDX 45 46 64 47 65 48 69 49 66 50 68 51 67 52 54 53 55 54 59 55
REMARK SMILES IDX 56 56 58 57 57 58 9 59 10 60 11 61 12 62 13 63 14 64 15 65
REMARK SMILES IDX 16 66 32 67 17 68 31 69 18 70 19 71 20 72 21 73 22 74 23 76
REMARK SMILES IDX 24 77 25 78 30 79 26 80 27 81 28 82 29 83
REMARK H PARENT 74 26 52 37 22 75
REMARK Flexibility Score: inf
ROOT
ATOM      1  C   UNL     1      -8.836  -9.655   7.172  1.00  0.00     0.188 C 
ENDROOT
BRANCH   1   2
ATOM      2  C   UNL     1      -9.668  -9.728   8.455  1.00  0.00     0.188 C 
BRANCH   2   3
ATOM      3  O   UNL     1      -9.086 -10.642   9.396  1.00  0.00    -0.376 OA
BRANCH   3   4
ATOM      4  C   UNL     1     -10.057 -11.357  10.168  1.00  0.00     0.202 C 
BRANCH   4   5
ATOM      5  C   UNL     1     -10.507 -10.633  11.444  1.00  0.00     0.261 C 
BRANCH   5   6
ATOM      6  O   UNL     1     -10.562  -9.209  11.265  1.00  0.00    -0.460 OA
BRANCH   6   7
ATOM      7  C   UNL     1      -9.611  -8.289  11.566  1.00  0.00     0.338 C 
ATOM      8  O   UNL     1      -9.850  -7.103  11.345  1.00  0.00    -0.246 OA
BRANCH   7   9
ATOM      9  C   UNL     1      -8.300  -8.626  12.206  1.00  0.00     0.060 A 
ATOM     10  C   UNL     1      -7.630  -9.842  12.075  1.00  0.00     0.016 A 
ATOM     11  C   UNL     1      -7.676  -7.612  12.954  1.00  0.00     0.016 A 
ATOM     12  C   UNL     1      -6.455 -10.099  12.778  1.00  0.00     0.010 A 
ATOM     13  C   UNL     1      -6.456  -7.838  13.604  1.00  0.00     0.010 A 
ATOM     14  C   UNL     1      -5.864  -9.104  13.557  1.00  0.00    -0.014 A 
BRANCH  14  15
ATOM     15  C   UNL     1      -4.690  -9.451  14.386  1.00  0.00     0.031 A 
ATOM     16  C   UNL     1      -4.857  -9.586  15.870  1.00  0.00     0.074 A 
ATOM     17  C   UNL     1      -3.519  -9.777  13.807  1.00  0.00     0.049 A 
ATOM     18  N   UNL     1      -3.966  -9.900  16.775  1.00  0.00    -0.248 NA
ATOM     19  C   UNL     1      -6.213  -9.375  16.403  1.00  0.00     0.031 C 
ATOM     20  C   UNL     1      -3.271  -9.814  12.367  1.00  0.00     0.029 A 
ATOM     21  N   UNL     1      -2.329 -10.172  14.361  1.00  0.00    -0.354 N 
ATOM     22  C   UNL     1      -4.653  -9.926  17.981  1.00  0.00     0.074 A 
ATOM     23  C   UNL     1      -6.027  -9.572  17.699  1.00  0.00     0.031 C 
ATOM     24  C   UNL     1      -2.010 -10.219  12.152  1.00  0.00     0.029 A 
ATOM     25  C   UNL     1      -1.346 -10.403  13.432  1.00  0.00     0.049 A 
ATOM     26  H   UNL     1      -2.193 -10.280  15.329  1.00  0.00     0.167 HD
ATOM     27  C   UNL     1      -4.182 -10.227  19.213  1.00  0.00     0.031 A 
ATOM     28  C   UNL     1      -0.044 -10.694  13.588  1.00  0.00     0.031 A 
ATOM     29  C   UNL     1      -2.810 -10.548  19.494  1.00  0.00     0.049 A 
ATOM     30  C   UNL     1       0.495 -10.851  14.975  1.00  0.00     0.074 A 
ATOM     31  C   UNL     1      -2.215 -10.817  20.714  1.00  0.00     0.029 A 
ATOM     32  N   UNL     1      -1.814 -10.635  18.533  1.00  0.00    -0.354 N 
ATOM     33  N   UNL     1      -0.149 -10.806  16.113  1.00  0.00    -0.248 NA
ATOM     34  C   UNL     1       1.937 -11.099  15.095  1.00  0.00     0.031 C 
ATOM     35  C   UNL     1      -0.848 -11.025  20.494  1.00  0.00     0.029 A 
ATOM     36  C   UNL     1      -0.603 -10.931  19.133  1.00  0.00     0.049 A 
ATOM     37  H   UNL     1      -1.949 -10.505  17.566  1.00  0.00     0.167 HD
ATOM     38  C   UNL     1       0.805 -11.035  17.091  1.00  0.00     0.074 A 
ATOM     39  C   UNL     1       2.070 -11.225  16.408  1.00  0.00     0.031 C 
ATOM     40  C   UNL     1       0.644 -11.093  18.434  1.00  0.00     0.031 A 
BRANCH  27  41
ATOM     41  C   UNL     1      -5.167 -10.160  20.343  1.00  0.00    -0.014 A 
ATOM     42  C   UNL     1      -6.140 -11.156  20.520  1.00  0.00     0.009 A 
ATOM     43  C   UNL     1      -5.142  -9.066  21.220  1.00  0.00     0.009 A 
ATOM     44  C   UNL     1      -7.094 -11.037  21.532  1.00  0.00     0.001 A 
ATOM     45  C   UNL     1      -6.084  -8.961  22.244  1.00  0.00     0.001 A 
ATOM     46  C   UNL     1      -7.065  -9.940  22.393  1.00  0.00     0.000 A 
ENDBRANCH  27  41
BRANCH  28  47
ATOM     47  C   UNL     1       0.857 -10.767  12.413  1.00  0.00    -0.014 A 
ATOM     48  C   UNL     1       1.295 -11.998  11.909  1.00  0.00     0.009 A 
ATOM     49  C   UNL     1       1.317  -9.581  11.819  1.00  0.00     0.009 A 
ATOM     50  C   UNL     1       2.194 -12.039  10.839  1.00  0.00     0.001 A 
ATOM     51  C   UNL     1       2.208  -9.625  10.746  1.00  0.00     0.001 A 
ATOM     52  C   UNL     1       2.648 -10.854  10.259  1.00  0.00     0.000 A 
ENDBRANCH  28  47
BRANCH  40  53
ATOM     53  C   UNL     1       1.870 -11.399  19.238  1.00  0.00    -0.014 A 
ATOM     54  C   UNL     1       2.852 -10.423  19.462  1.00  0.00     0.009 A 
ATOM     55  C   UNL     1       2.036 -12.681  19.782  1.00  0.00     0.009 A 
ATOM     56  C   UNL     1       3.995 -10.737  20.196  1.00  0.00     0.001 A 
ATOM     57  C   UNL     1       3.170 -12.984  20.534  1.00  0.00     0.001 A 
ATOM     58  C   UNL     1       4.152 -12.015  20.734  1.00  0.00     0.000 A 
ENDBRANCH  40  53
ENDBRANCH  14  15
ENDBRANCH   7   9
ENDBRANCH   6   7
ENDBRANCH   5   6
ENDBRANCH   4   5
ENDBRANCH   3   4
ENDBRANCH   2   3
ENDBRANCH   1   2
BRANCH   1  59
ATOM     59  O   UNL     1      -8.916 -10.805   6.328  1.00  0.00    -0.376 OA
BRANCH  59  60
ATOM     60  C   UNL     1      -8.433 -12.034   6.865  1.00  0.00     0.202 C 
BRANCH  60  61
ATOM     61  C   UNL     1      -6.911 -12.181   6.948  1.00  0.00     0.261 C 
BRANCH  61  62
ATOM     62  O   UNL     1      -6.269 -11.186   7.765  1.00  0.00    -0.460 OA
BRANCH  62  63
ATOM     63  C   UNL     1      -5.357 -10.430   7.109  1.00  0.00     0.338 C 
ATOM     64  O   UNL     1      -5.050 -10.480   5.929  1.00  0.00    -0.246 OA
BRANCH  63  65
ATOM     65  C   UNL     1      -4.648  -9.537   8.034  1.00  0.00     0.060 A 
ATOM     66  C   UNL     1      -5.189  -8.302   8.404  1.00  0.00     0.017 A 
ATOM     67  C   UNL     1      -3.326  -9.862   8.353  1.00  0.00     0.017 A 
ATOM     68  C   UNL     1      -4.379  -7.366   9.052  1.00  0.00     0.022 A 
ATOM     69  C   UNL     1      -2.524  -8.930   9.010  1.00  0.00     0.022 A 
ATOM     70  C   UNL     1      -3.039  -7.673   9.326  1.00  0.00     0.082 A 
BRANCH  70  71
ATOM     71  S   UNL     1      -2.015  -6.382   9.980  1.00  0.00     0.240 S 
ATOM     72  O   UNL     1      -2.292  -5.191   9.213  1.00  0.00    -0.207 OA
ATOM     73  O   UNL     1      -2.161  -6.412  11.417  1.00  0.00    -0.207 OA
BRANCH  71  74
ATOM     74  N   UNL     1      -0.425  -6.812   9.687  1.00  0.00    -0.211 NA
ATOM     75  H   UNL     1      -0.272  -7.644  10.257  1.00  0.00     0.141 HD
BRANCH  74  76
ATOM     76  C   UNL     1       0.187  -7.123   8.401  1.00  0.00     0.103 C 
BRANCH  76  77
ATOM     77  C   UNL     1       0.390  -5.973   7.426  1.00  0.00     0.020 C 
ATOM     78  C   UNL     1      -0.765  -5.801   6.429  1.00  0.00     0.022 C 
ATOM     79  C   UNL     1       0.673  -4.601   8.036  1.00  0.00     0.142 C 
ATOM     80  C   UNL     1      -0.425  -4.575   5.593  1.00  0.00     0.137 C 
ATOM     81  S   UNL     1       0.410  -3.446   6.696  1.00  0.00     0.150 S 
ATOM     82  O   UNL     1       1.700  -3.122   6.119  1.00  0.00    -0.229 OA
ATOM     83  O   UNL     1      -0.521  -2.422   7.119  1.00  0.00    -0.229 OA
ENDBRANCH  76  77
ENDBRANCH  74  76
ENDBRANCH  71  74
ENDBRANCH  70  71
ENDBRANCH  63  65
ENDBRANCH  62  63
ENDBRANCH  61  62
ENDBRANCH  60  61
ENDBRANCH  59  60
ENDBRANCH   1  59
TORSDOF 21
