REMARK SMILES C[C@](C(=O)OCCOCCOCCOC(=O)c1ccc(-c2c3nc(c(-c4ccccc4)c4ccc([nH]4)c(-c4ccccc4)c4nc(c(-c5ccccc5)c5ccc2[nH]5)C=C4)C=C3)cc1)(c1cc(F)cc(F)c1)[NH+]1CCCC1
REMARK SMILES IDX 10 1 9 2 8 3 7 4 6 5 5 6 3 7 4 8 2 9 1 10 65 11 66 12 72 13
REMARK SMILES IDX 67 14 70 15 68 16 69 17 71 18 73 19 74 20 77 21 75 23 76 24
REMARK SMILES IDX 11 25 12 26 13 27 14 28 15 29 16 30 17 31 18 32 64 33 19 34
REMARK SMILES IDX 63 35 20 36 21 37 22 38 57 39 23 40 62 41 56 42 58 43 24 44
REMARK SMILES IDX 61 45 55 46 54 47 25 49 47 50 32 51 46 52 33 53 36 54 45 55
REMARK SMILES IDX 59 56 34 57 35 58 44 60 60 61 37 62 26 63 27 64 31 65 28 66
REMARK SMILES IDX 30 67 29 68 48 69 49 70 53 71 50 72 52 73 51 74 38 75 39 76
REMARK SMILES IDX 43 77 40 78 42 79 41 80
REMARK H PARENT 73 22 58 48 36 59
REMARK Flexibility Score: inf
ROOT
ATOM      1  C   UNL     1      -0.557   0.441  -1.928  1.00  0.00     0.188 C 
ENDROOT
BRANCH   1   2
ATOM      2  C   UNL     1       0.779   0.579  -2.663  1.00  0.00     0.188 C 
BRANCH   2   3
ATOM      3  O   UNL     1       1.375  -0.572  -3.243  1.00  0.00    -0.376 OA
BRANCH   3   4
ATOM      4  C   UNL     1       1.261  -1.837  -2.599  1.00  0.00     0.202 C 
BRANCH   4   5
ATOM      5  C   UNL     1       1.698  -1.981  -1.130  1.00  0.00     0.261 C 
BRANCH   5   6
ATOM      6  O   UNL     1       0.944  -1.231  -0.147  1.00  0.00    -0.458 OA
BRANCH   6   7
ATOM      7  C   UNL     1       1.595  -0.187   0.442  1.00  0.00     0.372 C 
ATOM      8  O   UNL     1       2.739   0.126   0.109  1.00  0.00    -0.244 OA
BRANCH   7   9
ATOM      9  C   UNL     1       0.806   0.548   1.619  1.00  0.00     0.218 C 
ATOM     10  C   UNL     1       1.395   2.000   1.519  1.00  0.00     0.098 C 
BRANCH   9  11
ATOM     11  C   UNL     1      -0.753   0.644   1.481  1.00  0.00     0.029 A 
ATOM     12  C   UNL     1      -1.447   1.874   1.613  1.00  0.00     0.050 A 
ATOM     13  C   UNL     1      -1.563  -0.492   1.289  1.00  0.00     0.050 A 
ATOM     14  C   UNL     1      -2.841   1.951   1.541  1.00  0.00     0.126 A 
ATOM     15  C   UNL     1      -2.961  -0.396   1.238  1.00  0.00     0.126 A 
ATOM     16  F   UNL     1      -3.436   3.146   1.663  1.00  0.00    -0.207 F 
ATOM     17  C   UNL     1      -3.610   0.820   1.359  1.00  0.00     0.078 A 
ATOM     18  F   UNL     1      -3.688  -1.510   1.081  1.00  0.00    -0.207 F 
ENDBRANCH   9  11
BRANCH   9  19
ATOM     19  N   UNL     1       1.281   0.091   2.981  1.00  0.00    -0.317 N 
ATOM     20  C   UNL     1       2.158  -1.089   3.011  1.00  0.00     0.263 C 
ATOM     21  C   UNL     1       0.260  -0.231   3.989  1.00  0.00     0.263 C 
ATOM     22  H   UNL     1       1.774   0.953   3.213  1.00  0.00     0.349 HD
ATOM     23  C   UNL     1       1.202  -2.263   3.075  1.00  0.00     0.067 C 
ATOM     24  C   UNL     1       0.068  -1.746   3.947  1.00  0.00     0.067 C 
ENDBRANCH   9  19
ENDBRANCH   7   9
ENDBRANCH   6   7
ENDBRANCH   5   6
ENDBRANCH   4   5
ENDBRANCH   3   4
ENDBRANCH   2   3
ENDBRANCH   1   2
BRANCH   1  25
ATOM     25  O   UNL     1      -1.170  -0.819  -2.054  1.00  0.00    -0.376 OA
BRANCH  25  26
ATOM     26  C   UNL     1      -2.414  -0.897  -2.723  1.00  0.00     0.202 C 
BRANCH  26  27
ATOM     27  C   UNL     1      -2.534  -0.281  -4.127  1.00  0.00     0.261 C 
BRANCH  27  28
ATOM     28  O   UNL     1      -1.989   1.039  -4.304  1.00  0.00    -0.460 OA
BRANCH  28  29
ATOM     29  C   UNL     1      -2.646   2.073  -3.719  1.00  0.00     0.338 C 
ATOM     30  O   UNL     1      -3.680   2.019  -3.091  1.00  0.00    -0.246 OA
BRANCH  29  31
ATOM     31  C   UNL     1      -1.727   3.244  -3.749  1.00  0.00     0.060 A 
ATOM     32  C   UNL     1      -1.367   3.862  -2.540  1.00  0.00     0.016 A 
ATOM     33  C   UNL     1      -1.182   3.693  -4.953  1.00  0.00     0.016 A 
ATOM     34  C   UNL     1      -0.484   4.946  -2.537  1.00  0.00     0.010 A 
ATOM     35  C   UNL     1      -0.321   4.795  -4.951  1.00  0.00     0.010 A 
ATOM     36  C   UNL     1       0.008   5.447  -3.748  1.00  0.00    -0.014 A 
BRANCH  36  37
ATOM     37  C   UNL     1       0.679   6.771  -3.798  1.00  0.00     0.031 A 
ATOM     38  C   UNL     1      -0.149   7.966  -4.191  1.00  0.00     0.074 A 
ATOM     39  C   UNL     1       1.985   6.927  -3.515  1.00  0.00     0.049 A 
ATOM     40  N   UNL     1       0.220   9.203  -4.404  1.00  0.00    -0.248 NA
ATOM     41  C   UNL     1      -1.591   7.726  -4.376  1.00  0.00     0.031 C 
ATOM     42  C   UNL     1       2.891   5.873  -3.065  1.00  0.00     0.029 A 
ATOM     43  N   UNL     1       2.777   8.048  -3.580  1.00  0.00    -0.354 N 
ATOM     44  C   UNL     1      -0.938   9.882  -4.766  1.00  0.00     0.074 A 
ATOM     45  C   UNL     1      -2.015   8.917  -4.768  1.00  0.00     0.031 C 
ATOM     46  C   UNL     1       4.121   6.397  -2.906  1.00  0.00     0.029 A 
ATOM     47  C   UNL     1       4.097   7.809  -3.283  1.00  0.00     0.049 A 
ATOM     48  H   UNL     1       2.431   8.939  -3.818  1.00  0.00     0.167 HD
ATOM     49  C   UNL     1      -1.094  11.192  -5.070  1.00  0.00     0.031 A 
ATOM     50  C   UNL     1       5.165   8.630  -3.339  1.00  0.00     0.031 A 
ATOM     51  C   UNL     1      -0.024  12.153  -5.082  1.00  0.00     0.049 A 
ATOM     52  C   UNL     1       4.982  10.064  -3.774  1.00  0.00     0.074 A 
ATOM     53  C   UNL     1      -0.088  13.507  -5.361  1.00  0.00     0.029 A 
ATOM     54  N   UNL     1       1.303  11.860  -4.816  1.00  0.00    -0.354 N 
ATOM     55  N   UNL     1       3.881  10.701  -4.091  1.00  0.00    -0.248 NA
ATOM     56  C   UNL     1       6.196  10.892  -3.853  1.00  0.00     0.031 C 
ATOM     57  C   UNL     1       1.212  14.020  -5.330  1.00  0.00     0.029 A 
ATOM     58  C   UNL     1       2.074  13.001  -4.957  1.00  0.00     0.049 A 
ATOM     59  H   UNL     1       1.647  10.972  -4.563  1.00  0.00     0.167 HD
ATOM     60  C   UNL     1       4.265  12.009  -4.369  1.00  0.00     0.074 A 
ATOM     61  C   UNL     1       5.696  12.078  -4.170  1.00  0.00     0.031 C 
ATOM     62  C   UNL     1       3.498  13.061  -4.751  1.00  0.00     0.031 A 
BRANCH  49  63
ATOM     63  C   UNL     1      -2.470  11.652  -5.463  1.00  0.00    -0.014 A 
ATOM     64  C   UNL     1      -3.515  11.726  -4.528  1.00  0.00     0.009 A 
ATOM     65  C   UNL     1      -2.714  12.050  -6.787  1.00  0.00     0.009 A 
ATOM     66  C   UNL     1      -4.785  12.155  -4.921  1.00  0.00     0.001 A 
ATOM     67  C   UNL     1      -3.975  12.511  -7.168  1.00  0.00     0.001 A 
ATOM     68  C   UNL     1      -5.011  12.554  -6.238  1.00  0.00     0.000 A 
ENDBRANCH  49  63
BRANCH  50  69
ATOM     69  C   UNL     1       6.524   8.123  -3.001  1.00  0.00    -0.014 A 
ATOM     70  C   UNL     1       7.209   8.604  -1.874  1.00  0.00     0.009 A 
ATOM     71  C   UNL     1       7.164   7.188  -3.831  1.00  0.00     0.009 A 
ATOM     72  C   UNL     1       8.515   8.186  -1.604  1.00  0.00     0.001 A 
ATOM     73  C   UNL     1       8.457   6.746  -3.539  1.00  0.00     0.001 A 
ATOM     74  C   UNL     1       9.135   7.254  -2.433  1.00  0.00     0.000 A 
ENDBRANCH  50  69
BRANCH  62  75
ATOM     75  C   UNL     1       4.178  14.393  -4.928  1.00  0.00    -0.014 A 
ATOM     76  C   UNL     1       5.055  14.637  -5.996  1.00  0.00     0.009 A 
ATOM     77  C   UNL     1       3.893  15.438  -4.034  1.00  0.00     0.009 A 
ATOM     78  C   UNL     1       5.660  15.888  -6.141  1.00  0.00     0.001 A 
ATOM     79  C   UNL     1       4.471  16.697  -4.201  1.00  0.00     0.001 A 
ATOM     80  C   UNL     1       5.363  16.918  -5.249  1.00  0.00     0.000 A 
ENDBRANCH  62  75
ENDBRANCH  36  37
ENDBRANCH  29  31
ENDBRANCH  28  29
ENDBRANCH  27  28
ENDBRANCH  26  27
ENDBRANCH  25  26
ENDBRANCH   1  25
TORSDOF 19
