REMARK SMILES Cc1cc(OC(F)(F)F)cc2c1O[C@H](C(F)(F)F)C(C(=O)OCCOCCOCCOC(=O)c1ccc(-c3c4nc(c(-c5ccccc5)c5ccc([nH]5)c(-c5ccccc5)c5nc(c(-c6ccccc6)c6ccc3[nH]6)C=C5)C=C4)cc1)=C2
REMARK SMILES IDX 26 1 25 2 24 3 23 4 22 5 20 6 21 7 19 8 1 9 2 10 3 11 12 12
REMARK SMILES IDX 4 13 11 14 13 15 10 16 82 17 14 18 5 19 6 20 7 21 8 22 9 23
REMARK SMILES IDX 15 24 16 25 17 26 18 27 27 28 28 29 29 30 30 31 31 32 32 33
REMARK SMILES IDX 33 34 34 35 35 36 81 37 36 38 80 39 37 40 38 41 39 42 74 43
REMARK SMILES IDX 40 44 79 45 73 46 75 47 41 48 78 49 72 50 71 51 42 53 64 54
REMARK SMILES IDX 49 55 63 56 50 57 53 58 62 59 76 60 51 61 52 62 61 64 77 65
REMARK SMILES IDX 54 66 43 67 44 68 48 69 45 70 47 71 46 72 65 73 66 74 70 75
REMARK SMILES IDX 67 76 69 77 68 78 55 79 56 80 60 81 57 82 59 83 58 84
REMARK H PARENT 75 52 53 63
REMARK Flexibility Score: inf
ROOT
ATOM      1  C   UNL     1      -6.114   3.745   1.164  1.00  0.00     0.188 C 
ENDROOT
BRANCH   1   2
ATOM      2  O   UNL     1      -7.477   3.754   0.807  1.00  0.00    -0.376 OA
BRANCH   2   3
ATOM      3  C   UNL     1      -8.002   2.828  -0.127  1.00  0.00     0.202 C 
BRANCH   3   4
ATOM      4  C   UNL     1      -7.177   2.150  -1.231  1.00  0.00     0.261 C 
BRANCH   4   5
ATOM      5  O   UNL     1      -5.820   1.834  -0.906  1.00  0.00    -0.460 OA
BRANCH   5   6
ATOM      6  C   UNL     1      -4.885   2.532  -1.596  1.00  0.00     0.338 C 
ATOM      7  O   UNL     1      -5.088   3.382  -2.446  1.00  0.00    -0.246 OA
BRANCH   6   8
ATOM      8  C   UNL     1      -3.544   2.224  -1.061  1.00  0.00     0.087 C 
ATOM      9  C   UNL     1       0.862  -0.033   0.181  1.00  0.00     0.048 C 
ATOM     10  C   UNL     1       0.384   1.388   0.060  1.00  0.00    -0.005 A 
ATOM     11  C   UNL     1       1.294   2.449   0.214  1.00  0.00     0.054 A 
ATOM     12  C   UNL     1      -0.961   1.669  -0.223  1.00  0.00     0.131 A 
ATOM     13  C   UNL     1       0.874   3.773   0.084  1.00  0.00     0.130 A 
ATOM     14  C   UNL     1      -1.380   2.989  -0.392  1.00  0.00     0.021 A 
ATOM     15  O   UNL     1      -1.805   0.599  -0.322  1.00  0.00    -0.475 OA
ATOM     16  C   UNL     1      -0.468   4.035  -0.210  1.00  0.00     0.058 A 
ATOM     17  C   UNL     1      -2.737   3.267  -0.830  1.00  0.00     0.027 C 
ATOM     18  C   UNL     1      -3.159   0.793  -0.809  1.00  0.00     0.316 C 
BRANCH  13  19
ATOM     19  O   UNL     1       1.655   4.887   0.206  1.00  0.00    -0.406 OA
BRANCH  19  20
ATOM     20  C   UNL     1       3.060   4.704   0.269  1.00  0.00     0.573 C 
ATOM     21  F   UNL     1       3.413   4.051   1.397  1.00  0.00    -0.132 F 
ATOM     22  F   UNL     1       3.512   4.023  -0.806  1.00  0.00    -0.132 F 
ATOM     23  F   UNL     1       3.656   5.916   0.280  1.00  0.00    -0.132 F 
ENDBRANCH  19  20
ENDBRANCH  13  19
BRANCH  18  24
ATOM     24  C   UNL     1      -3.353  -0.094  -2.046  1.00  0.00     0.430 C 
ATOM     25  F   UNL     1      -2.946  -1.364  -1.810  1.00  0.00    -0.167 F 
ATOM     26  F   UNL     1      -4.653  -0.165  -2.414  1.00  0.00    -0.167 F 
ATOM     27  F   UNL     1      -2.656   0.366  -3.110  1.00  0.00    -0.167 F 
ENDBRANCH  18  24
ENDBRANCH   6   8
ENDBRANCH   5   6
ENDBRANCH   4   5
ENDBRANCH   3   4
ENDBRANCH   2   3
ENDBRANCH   1   2
BRANCH   1  28
ATOM     28  C   UNL     1      -5.523   2.540   1.927  1.00  0.00     0.188 C 
BRANCH  28  29
ATOM     29  O   UNL     1      -6.320   1.415   2.221  1.00  0.00    -0.376 OA
BRANCH  29  30
ATOM     30  C   UNL     1      -7.476   1.573   3.029  1.00  0.00     0.202 C 
BRANCH  30  31
ATOM     31  C   UNL     1      -7.539   2.535   4.228  1.00  0.00     0.261 C 
BRANCH  31  32
ATOM     32  O   UNL     1      -6.936   3.822   4.041  1.00  0.00    -0.460 OA
BRANCH  32  33
ATOM     33  C   UNL     1      -5.838   4.066   4.803  1.00  0.00     0.338 C 
ATOM     34  O   UNL     1      -5.314   3.327   5.614  1.00  0.00    -0.246 OA
BRANCH  33  35
ATOM     35  C   UNL     1      -5.236   5.343   4.376  1.00  0.00     0.060 A 
ATOM     36  C   UNL     1      -4.030   5.320   3.660  1.00  0.00     0.016 A 
ATOM     37  C   UNL     1      -5.832   6.552   4.729  1.00  0.00     0.016 A 
ATOM     38  C   UNL     1      -3.418   6.514   3.286  1.00  0.00     0.010 A 
ATOM     39  C   UNL     1      -5.194   7.748   4.394  1.00  0.00     0.010 A 
ATOM     40  C   UNL     1      -3.974   7.732   3.693  1.00  0.00    -0.014 A 
BRANCH  40  41
ATOM     41  C   UNL     1      -3.175   8.971   3.583  1.00  0.00     0.031 A 
ATOM     42  C   UNL     1      -2.279   9.338   4.732  1.00  0.00     0.074 A 
ATOM     43  C   UNL     1      -3.232   9.751   2.489  1.00  0.00     0.049 A 
ATOM     44  N   UNL     1      -1.538  10.403   4.892  1.00  0.00    -0.248 NA
ATOM     45  C   UNL     1      -2.204   8.377   5.846  1.00  0.00     0.031 C 
ATOM     46  C   UNL     1      -4.011   9.470   1.285  1.00  0.00     0.029 A 
ATOM     47  N   UNL     1      -2.617  10.949   2.224  1.00  0.00    -0.354 N 
ATOM     48  C   UNL     1      -0.911  10.239   6.120  1.00  0.00     0.074 A 
ATOM     49  C   UNL     1      -1.367   8.985   6.674  1.00  0.00     0.031 C 
ATOM     50  C   UNL     1      -3.836  10.477   0.411  1.00  0.00     0.029 A 
ATOM     51  C   UNL     1      -2.960  11.486   1.008  1.00  0.00     0.049 A 
ATOM     52  H   UNL     1      -1.989  11.382   2.846  1.00  0.00     0.167 HD
ATOM     53  C   UNL     1      -0.030  11.061   6.729  1.00  0.00     0.031 A 
ATOM     54  C   UNL     1      -2.624  12.667   0.451  1.00  0.00     0.031 A 
ATOM     55  C   UNL     1       0.415  12.314   6.189  1.00  0.00     0.049 A 
ATOM     56  C   UNL     1      -1.716  13.611   1.194  1.00  0.00     0.074 A 
ATOM     57  C   UNL     1       1.310  13.212   6.742  1.00  0.00     0.029 A 
ATOM     58  N   UNL     1      -0.000  12.845   4.981  1.00  0.00    -0.354 N 
ATOM     59  N   UNL     1      -1.131  13.447   2.356  1.00  0.00    -0.248 NA
ATOM     60  C   UNL     1      -1.423  14.903   0.554  1.00  0.00     0.031 C 
ATOM     61  C   UNL     1       1.398  14.314   5.891  1.00  0.00     0.029 A 
ATOM     62  C   UNL     1       0.603  14.073   4.781  1.00  0.00     0.049 A 
ATOM     63  H   UNL     1      -0.629  12.414   4.358  1.00  0.00     0.167 HD
ATOM     64  C   UNL     1      -0.383  14.598   2.572  1.00  0.00     0.074 A 
ATOM     65  C   UNL     1      -0.584  15.454   1.423  1.00  0.00     0.031 C 
ATOM     66  C   UNL     1       0.402  14.912   3.630  1.00  0.00     0.031 A 
BRANCH  53  67
ATOM     67  C   UNL     1       0.514  10.650   8.063  1.00  0.00    -0.014 A 
ATOM     68  C   UNL     1       1.526   9.684   8.157  1.00  0.00     0.009 A 
ATOM     69  C   UNL     1       0.095  11.321   9.222  1.00  0.00     0.009 A 
ATOM     70  C   UNL     1       2.115   9.403   9.391  1.00  0.00     0.001 A 
ATOM     71  C   UNL     1       0.700  11.052  10.450  1.00  0.00     0.001 A 
ATOM     72  C   UNL     1       1.710  10.095  10.533  1.00  0.00     0.000 A 
ENDBRANCH  53  67
BRANCH  54  73
ATOM     73  C   UNL     1      -3.160  13.027  -0.887  1.00  0.00    -0.014 A 
ATOM     74  C   UNL     1      -2.323  13.027  -2.013  1.00  0.00     0.009 A 
ATOM     75  C   UNL     1      -4.516  13.351  -1.049  1.00  0.00     0.009 A 
ATOM     76  C   UNL     1      -2.833  13.349  -3.273  1.00  0.00     0.001 A 
ATOM     77  C   UNL     1      -5.028  13.650  -2.313  1.00  0.00     0.001 A 
ATOM     78  C   UNL     1      -4.186  13.652  -3.424  1.00  0.00     0.000 A 
ENDBRANCH  54  73
BRANCH  66  79
ATOM     79  C   UNL     1       1.137  16.221   3.613  1.00  0.00    -0.014 A 
ATOM     80  C   UNL     1       0.476  17.422   3.904  1.00  0.00     0.009 A 
ATOM     81  C   UNL     1       2.533  16.229   3.454  1.00  0.00     0.009 A 
ATOM     82  C   UNL     1       1.201  18.609   4.035  1.00  0.00     0.001 A 
ATOM     83  C   UNL     1       3.256  17.411   3.610  1.00  0.00     0.001 A 
ATOM     84  C   UNL     1       2.589  18.600   3.900  1.00  0.00     0.000 A 
ENDBRANCH  66  79
ENDBRANCH  40  41
ENDBRANCH  33  35
ENDBRANCH  32  33
ENDBRANCH  31  32
ENDBRANCH  30  31
ENDBRANCH  29  30
ENDBRANCH  28  29
ENDBRANCH   1  28
TORSDOF 20
