REMARK SMILES CS(=O)(=O)c1ccc(/C=C(/C(=O)OCCOCCOCCOC(=O)c2ccc(-c3c4nc(c(-c5ccccc5)c5ccc([nH]5)c(-c5ccccc5)c5nc(c(-c6ccccc6)c6ccc3[nH]6)C=C5)C=C4)cc2)c2cccc(Br)c2)cc1
REMARK SMILES IDX 17 1 16 2 15 3 14 4 13 5 11 6 12 7 10 8 9 9 8 10 5 11 6 12
REMARK SMILES IDX 81 13 7 14 80 15 2 16 1 17 3 18 4 19 73 20 74 21 79 22 75 23
REMARK SMILES IDX 77 24 76 25 78 26 18 27 19 28 20 29 21 30 22 31 23 32 24 33
REMARK SMILES IDX 25 34 26 35 72 36 27 37 71 38 28 39 29 40 30 41 65 42 31 43
REMARK SMILES IDX 70 44 64 45 66 46 32 47 69 48 63 49 62 50 33 52 55 53 40 54
REMARK SMILES IDX 54 55 41 56 44 57 53 58 67 59 42 60 43 61 52 63 68 64 45 65
REMARK SMILES IDX 34 66 35 67 39 68 36 69 38 70 37 71 56 72 57 73 61 74 58 75
REMARK SMILES IDX 60 76 59 77 46 78 47 79 51 80 48 81 50 82 49 83
REMARK H PARENT 66 51 44 62
REMARK Flexibility Score: inf
ROOT
ATOM      1  C   UNL     1       1.679 -10.754   2.647  1.00  0.00     0.188 C 
ENDROOT
BRANCH   1   2
ATOM      2  O   UNL     1       2.779 -11.618   2.431  1.00  0.00    -0.376 OA
BRANCH   2   3
ATOM      3  C   UNL     1       3.359 -11.609   1.138  1.00  0.00     0.202 C 
BRANCH   3   4
ATOM      4  C   UNL     1       4.045 -10.312   0.686  1.00  0.00     0.261 C 
BRANCH   4   5
ATOM      5  O   UNL     1       3.307  -9.098   0.906  1.00  0.00    -0.460 OA
BRANCH   5   6
ATOM      6  C   UNL     1       2.350  -8.765   0.006  1.00  0.00     0.338 C 
ATOM      7  O   UNL     1       2.041  -9.433  -0.968  1.00  0.00    -0.246 OA
BRANCH   6   8
ATOM      8  C   UNL     1       1.636  -7.508   0.428  1.00  0.00     0.067 C 
ATOM      9  C   UNL     1       2.321  -6.536   1.081  1.00  0.00     0.024 C 
BRANCH   9  10
ATOM     10  C   UNL     1       1.873  -5.176   1.473  1.00  0.00    -0.025 A 
ATOM     11  C   UNL     1       1.083  -2.502   1.814  1.00  0.00     0.067 A 
ATOM     12  C   UNL     1       0.156  -3.524   1.996  1.00  0.00     0.021 A 
ATOM     13  C   UNL     1       2.426  -2.801   1.585  1.00  0.00     0.021 A 
ATOM     14  C   UNL     1       0.565  -4.855   1.863  1.00  0.00     0.009 A 
ATOM     15  C   UNL     1       2.813  -4.134   1.411  1.00  0.00     0.009 A 
BRANCH  11  16
ATOM     16  S   UNL     1       0.550  -0.807   1.807  1.00  0.00     0.175 S 
ATOM     17  C   UNL     1       1.026  -0.221   0.198  1.00  0.00     0.163 C 
ATOM     18  O   UNL     1       1.337  -0.110   2.803  1.00  0.00    -0.224 OA
ATOM     19  O   UNL     1      -0.901  -0.801   1.854  1.00  0.00    -0.224 OA
ENDBRANCH  11  16
ENDBRANCH   9  10
BRANCH   8  20
ATOM     20  C   UNL     1       0.202  -7.383   0.092  1.00  0.00    -0.010 A 
ATOM     21  C   UNL     1      -0.744  -8.112   0.834  1.00  0.00     0.009 A 
ATOM     22  C   UNL     1      -0.242  -6.463  -0.865  1.00  0.00     0.024 A 
ATOM     23  C   UNL     1      -2.110  -7.902   0.644  1.00  0.00     0.002 A 
ATOM     24  C   UNL     1      -1.611  -6.250  -1.038  1.00  0.00     0.018 A 
ATOM     25  C   UNL     1      -2.545  -6.963  -0.288  1.00  0.00     0.016 A 
ATOM     26  Br  UNL     1      -2.202  -4.933  -2.258  1.00  0.00    -0.051 Br
ENDBRANCH   8  20
ENDBRANCH   6   8
ENDBRANCH   5   6
ENDBRANCH   4   5
ENDBRANCH   3   4
ENDBRANCH   2   3
ENDBRANCH   1   2
BRANCH   1  27
ATOM     27  C   UNL     1       2.011  -9.562   3.568  1.00  0.00     0.188 C 
BRANCH  27  28
ATOM     28  O   UNL     1       3.178  -9.580   4.381  1.00  0.00    -0.376 OA
BRANCH  28  29
ATOM     29  C   UNL     1       3.597 -10.796   4.982  1.00  0.00     0.202 C 
BRANCH  29  30
ATOM     30  C   UNL     1       2.654 -11.491   5.972  1.00  0.00     0.261 C 
BRANCH  30  31
ATOM     31  O   UNL     1       1.289 -11.599   5.539  1.00  0.00    -0.460 OA
BRANCH  31  32
ATOM     32  C   UNL     1       0.416 -10.781   6.177  1.00  0.00     0.338 C 
ATOM     33  O   UNL     1       0.653 -10.001   7.082  1.00  0.00    -0.246 OA
BRANCH  32  34
ATOM     34  C   UNL     1      -0.897 -10.834   5.501  1.00  0.00     0.060 A 
ATOM     35  C   UNL     1      -1.453  -9.630   5.046  1.00  0.00     0.016 A 
ATOM     36  C   UNL     1      -1.603 -12.032   5.373  1.00  0.00     0.016 A 
ATOM     37  C   UNL     1      -2.726  -9.617   4.478  1.00  0.00     0.010 A 
ATOM     38  C   UNL     1      -2.892 -12.013   4.830  1.00  0.00     0.010 A 
ATOM     39  C   UNL     1      -3.467 -10.803   4.404  1.00  0.00    -0.014 A 
BRANCH  39  40
ATOM     40  C   UNL     1      -4.904 -10.744   4.045  1.00  0.00     0.031 A 
ATOM     41  C   UNL     1      -5.916 -10.563   5.142  1.00  0.00     0.074 A 
ATOM     42  C   UNL     1      -5.306 -10.830   2.765  1.00  0.00     0.049 A 
ATOM     43  N   UNL     1      -7.220 -10.493   5.063  1.00  0.00    -0.248 NA
ATOM     44  C   UNL     1      -5.384 -10.444   6.509  1.00  0.00     0.031 C 
ATOM     45  C   UNL     1      -4.427 -10.969   1.607  1.00  0.00     0.029 A 
ATOM     46  N   UNL     1      -6.571 -10.813   2.231  1.00  0.00    -0.354 N 
ATOM     47  C   UNL     1      -7.665 -10.324   6.368  1.00  0.00     0.074 A 
ATOM     48  C   UNL     1      -6.495 -10.321   7.219  1.00  0.00     0.031 C 
ATOM     49  C   UNL     1      -5.181 -11.019   0.494  1.00  0.00     0.029 A 
ATOM     50  C   UNL     1      -6.593 -10.959   0.867  1.00  0.00     0.049 A 
ATOM     51  H   UNL     1      -7.384 -10.706   2.776  1.00  0.00     0.167 HD
ATOM     52  C   UNL     1      -8.934 -10.186   6.821  1.00  0.00     0.031 A 
ATOM     53  C   UNL     1      -7.636 -11.056   0.020  1.00  0.00     0.031 A 
ATOM     54  C   UNL     1     -10.104 -10.229   5.987  1.00  0.00     0.049 A 
ATOM     55  C   UNL     1      -9.042 -10.997   0.559  1.00  0.00     0.074 A 
ATOM     56  C   UNL     1     -11.432 -10.101   6.356  1.00  0.00     0.029 A 
ATOM     57  N   UNL     1     -10.086 -10.431   4.616  1.00  0.00    -0.354 N 
ATOM     58  N   UNL     1      -9.449 -10.808   1.791  1.00  0.00    -0.248 NA
ATOM     59  C   UNL     1     -10.132 -11.166  -0.414  1.00  0.00     0.031 C 
ATOM     60  C   UNL     1     -12.221 -10.283   5.215  1.00  0.00     0.029 A 
ATOM     61  C   UNL     1     -11.382 -10.464   4.128  1.00  0.00     0.049 A 
ATOM     62  H   UNL     1      -9.274 -10.536   4.071  1.00  0.00     0.167 HD
ATOM     63  C   UNL     1     -10.839 -10.810   1.736  1.00  0.00     0.074 A 
ATOM     64  C   UNL     1     -11.204 -11.005   0.349  1.00  0.00     0.031 C 
ATOM     65  C   UNL     1     -11.732 -10.661   2.745  1.00  0.00     0.031 A 
BRANCH  52  66
ATOM     66  C   UNL     1      -9.115 -10.026   8.303  1.00  0.00    -0.014 A 
ATOM     67  C   UNL     1      -8.766  -8.832   8.955  1.00  0.00     0.009 A 
ATOM     68  C   UNL     1      -9.652 -11.081   9.056  1.00  0.00     0.009 A 
ATOM     69  C   UNL     1      -8.918  -8.714  10.338  1.00  0.00     0.001 A 
ATOM     70  C   UNL     1      -9.827 -10.950  10.434  1.00  0.00     0.001 A 
ATOM     71  C   UNL     1      -9.451  -9.771  11.075  1.00  0.00     0.000 A 
ENDBRANCH  52  66
BRANCH  53  72
ATOM     72  C   UNL     1      -7.401 -11.248  -1.435  1.00  0.00    -0.014 A 
ATOM     73  C   UNL     1      -7.710 -10.230  -2.349  1.00  0.00     0.009 A 
ATOM     74  C   UNL     1      -6.896 -12.465  -1.919  1.00  0.00     0.009 A 
ATOM     75  C   UNL     1      -7.540 -10.435  -3.721  1.00  0.00     0.001 A 
ATOM     76  C   UNL     1      -6.701 -12.657  -3.288  1.00  0.00     0.001 A 
ATOM     77  C   UNL     1      -7.032 -11.646  -4.188  1.00  0.00     0.000 A 
ENDBRANCH  53  72
BRANCH  65  78
ATOM     78  C   UNL     1     -13.192 -10.669   2.385  1.00  0.00    -0.014 A 
ATOM     79  C   UNL     1     -13.849 -11.854   2.020  1.00  0.00     0.009 A 
ATOM     80  C   UNL     1     -13.931  -9.477   2.462  1.00  0.00     0.009 A 
ATOM     81  C   UNL     1     -15.211 -11.839   1.710  1.00  0.00     0.001 A 
ATOM     82  C   UNL     1     -15.298  -9.471   2.178  1.00  0.00     0.001 A 
ATOM     83  C   UNL     1     -15.935 -10.650   1.795  1.00  0.00     0.000 A 
ENDBRANCH  65  78
ENDBRANCH  39  40
ENDBRANCH  32  34
ENDBRANCH  31  32
ENDBRANCH  30  31
ENDBRANCH  29  30
ENDBRANCH  28  29
ENDBRANCH  27  28
ENDBRANCH   1  27
TORSDOF 20
