REMARK SMILES O=C(C[C@H](NC(=O)[C@]12C[C@H]3C[C@H](C[C@H](C3)C1)C2)c1cccc([N+](=O)[O-])c1)OCCOCCOCCOC(=O)c1ccc(-c2c3nc(c(-c4ccccc4)c4ccc([nH]4)c(-c4ccccc4)c4nc(c(-c5ccccc5)c5ccc2[nH]5)C=C4)C=C3)cc1
REMARK SMILES IDX 31 1 30 2 29 3 28 4 27 5 2 6 1 7 3 8 4 9 18 10 19 11 26 12
REMARK SMILES IDX 20 13 22 14 21 15 23 16 24 17 25 18 5 19 6 20 7 22 8 23 9 24
REMARK SMILES IDX 16 25 17 26 10 27 14 28 12 29 11 30 15 31 13 32 32 33 33 34
REMARK SMILES IDX 34 35 35 36 36 37 37 38 38 39 39 40 40 41 86 42 41 43 85 44
REMARK SMILES IDX 42 45 43 46 44 47 79 48 45 49 84 50 78 51 80 52 46 53 83 54
REMARK SMILES IDX 77 55 76 56 47 58 69 59 54 60 68 61 55 62 58 63 67 64 81 65
REMARK SMILES IDX 56 66 57 67 66 69 82 70 59 71 48 72 49 73 53 74 50 75 52 76
REMARK SMILES IDX 51 77 70 78 71 79 75 80 72 81 74 82 73 83 60 84 61 85 65 86
REMARK SMILES IDX 62 87 64 88 63 89
REMARK H PARENT 5 21 80 57 58 68
REMARK Flexibility Score: inf
ROOT
ATOM      1  C   UNL     1       5.469  -2.036  -2.280  1.00  0.00     0.188 C 
ENDROOT
BRANCH   1   2
ATOM      2  O   UNL     1       5.429  -3.414  -1.977  1.00  0.00    -0.376 OA
BRANCH   2   3
ATOM      3  C   UNL     1       4.414  -3.940  -1.148  1.00  0.00     0.202 C 
BRANCH   3   4
ATOM      4  C   UNL     1       2.940  -3.585  -1.434  1.00  0.00     0.261 C 
BRANCH   4   5
ATOM      5  O   UNL     1       2.535  -2.196  -1.528  1.00  0.00    -0.463 OA
BRANCH   5   6
ATOM      6  C   UNL     1       2.502  -1.274  -0.534  1.00  0.00     0.308 C 
ATOM      7  O   UNL     1       1.792  -0.282  -0.636  1.00  0.00    -0.252 OA
BRANCH   6   8
ATOM      8  C   UNL     1       3.484  -1.459   0.584  1.00  0.00     0.152 C 
BRANCH   8   9
ATOM      9  C   UNL     1       3.001  -1.026   1.962  1.00  0.00     0.123 C 
BRANCH   9  10
ATOM     10  C   UNL     1       3.881  -1.643   3.063  1.00  0.00    -0.018 A 
ATOM     11  C   UNL     1       4.141  -3.037   3.048  1.00  0.00     0.006 A 
ATOM     12  C   UNL     1       4.480  -0.898   4.085  1.00  0.00     0.091 A 
ATOM     13  C   UNL     1       5.058  -3.637   3.914  1.00  0.00     0.007 A 
ATOM     14  C   UNL     1       5.423  -1.499   4.941  1.00  0.00     0.269 A 
ATOM     15  C   UNL     1       5.724  -2.862   4.852  1.00  0.00     0.085 A 
BRANCH  14  16
ATOM     16  N   UNL     1       6.149  -0.675   5.911  1.00  0.00     0.062 N 
ATOM     17  O   UNL     1       6.702  -1.255   6.857  1.00  0.00    -0.258 OA
ATOM     18  O   UNL     1       6.185   0.546   5.713  1.00  0.00    -0.258 OA
ENDBRANCH  14  16
ENDBRANCH   9  10
BRANCH   9  19
ATOM     19  N   UNL     1       2.658   0.393   2.091  1.00  0.00    -0.348 N 
ATOM     20  C   UNL     1       3.105   1.622   1.741  1.00  0.00     0.226 C 
ATOM     21  H   UNL     1       1.823   0.483   2.606  1.00  0.00     0.164 HD
ATOM     22  O   UNL     1       2.255   2.510   1.910  1.00  0.00    -0.274 OA
BRANCH  20  23
ATOM     23  C   UNL     1       4.505   2.005   1.208  1.00  0.00     0.050 C 
ATOM     24  C   UNL     1       5.612   1.302   1.999  1.00  0.00     0.020 C 
ATOM     25  C   UNL     1       4.682   3.547   1.441  1.00  0.00     0.020 C 
ATOM     26  C   UNL     1       4.721   1.788  -0.308  1.00  0.00     0.020 C 
ATOM     27  C   UNL     1       6.997   1.780   1.581  1.00  0.00    -0.010 C 
ATOM     28  C   UNL     1       6.080   4.037   1.028  1.00  0.00    -0.010 C 
ATOM     29  C   UNL     1       6.139   2.243  -0.733  1.00  0.00    -0.010 C 
ATOM     30  C   UNL     1       7.199   1.491   0.090  1.00  0.00     0.007 C 
ATOM     31  C   UNL     1       7.131   3.282   1.849  1.00  0.00     0.007 C 
ATOM     32  C   UNL     1       6.296   3.749  -0.465  1.00  0.00     0.007 C 
ENDBRANCH  20  23
ENDBRANCH   9  19
ENDBRANCH   8   9
ENDBRANCH   6   8
ENDBRANCH   5   6
ENDBRANCH   4   5
ENDBRANCH   3   4
ENDBRANCH   2   3
ENDBRANCH   1   2
BRANCH   1  33
ATOM     33  C   UNL     1       5.823  -1.783  -3.754  1.00  0.00     0.188 C 
BRANCH  33  34
ATOM     34  O   UNL     1       5.404  -2.750  -4.711  1.00  0.00    -0.376 OA
BRANCH  34  35
ATOM     35  C   UNL     1       5.816  -4.106  -4.534  1.00  0.00     0.202 C 
BRANCH  35  36
ATOM     36  C   UNL     1       7.311  -4.422  -4.324  1.00  0.00     0.261 C 
BRANCH  36  37
ATOM     37  O   UNL     1       7.955  -3.742  -3.223  1.00  0.00    -0.460 OA
BRANCH  37  38
ATOM     38  C   UNL     1       8.951  -2.893  -3.579  1.00  0.00     0.338 C 
ATOM     39  O   UNL     1       9.344  -2.659  -4.710  1.00  0.00    -0.246 OA
BRANCH  38  40
ATOM     40  C   UNL     1       9.467  -2.130  -2.422  1.00  0.00     0.060 A 
ATOM     41  C   UNL     1       9.466  -0.732  -2.515  1.00  0.00     0.016 A 
ATOM     42  C   UNL     1      10.122  -2.760  -1.360  1.00  0.00     0.016 A 
ATOM     43  C   UNL     1      10.174   0.035  -1.587  1.00  0.00     0.010 A 
ATOM     44  C   UNL     1      10.846  -1.987  -0.436  1.00  0.00     0.010 A 
ATOM     45  C   UNL     1      10.912  -0.589  -0.571  1.00  0.00    -0.014 A 
BRANCH  45  46
ATOM     46  C   UNL     1      11.892   0.220   0.203  1.00  0.00     0.031 A 
ATOM     47  C   UNL     1      13.259   0.454  -0.375  1.00  0.00     0.074 A 
ATOM     48  C   UNL     1      11.575   0.791   1.378  1.00  0.00     0.049 A 
ATOM     49  N   UNL     1      14.231   1.207   0.075  1.00  0.00    -0.248 NA
ATOM     50  C   UNL     1      13.574  -0.268  -1.617  1.00  0.00     0.031 C 
ATOM     51  C   UNL     1      10.297   0.640   2.055  1.00  0.00     0.029 A 
ATOM     52  N   UNL     1      12.289   1.638   2.192  1.00  0.00    -0.354 N 
ATOM     53  C   UNL     1      15.278   1.040  -0.819  1.00  0.00     0.074 A 
ATOM     54  C   UNL     1      14.825   0.111  -1.834  1.00  0.00     0.031 C 
ATOM     55  C   UNL     1      10.283   1.427   3.146  1.00  0.00     0.029 A 
ATOM     56  C   UNL     1      11.570   2.102   3.269  1.00  0.00     0.049 A 
ATOM     57  H   UNL     1      13.225   1.888   2.021  1.00  0.00     0.167 HD
ATOM     58  C   UNL     1      16.514   1.594  -0.794  1.00  0.00     0.031 A 
ATOM     59  C   UNL     1      11.907   2.974   4.240  1.00  0.00     0.031 A 
ATOM     60  C   UNL     1      16.992   2.483   0.230  1.00  0.00     0.049 A 
ATOM     61  C   UNL     1      13.296   3.554   4.261  1.00  0.00     0.074 A 
ATOM     62  C   UNL     1      18.237   3.079   0.341  1.00  0.00     0.029 A 
ATOM     63  N   UNL     1      16.254   2.891   1.329  1.00  0.00    -0.354 N 
ATOM     64  N   UNL     1      14.264   3.415   3.389  1.00  0.00    -0.248 NA
ATOM     65  C   UNL     1      13.642   4.399   5.415  1.00  0.00     0.031 C 
ATOM     66  C   UNL     1      18.268   3.808   1.536  1.00  0.00     0.029 A 
ATOM     67  C   UNL     1      17.025   3.709   2.139  1.00  0.00     0.049 A 
ATOM     68  H   UNL     1      15.320   2.637   1.509  1.00  0.00     0.167 HD
ATOM     69  C   UNL     1      15.328   4.160   3.882  1.00  0.00     0.074 A 
ATOM     70  C   UNL     1      14.877   4.774   5.114  1.00  0.00     0.031 C 
ATOM     71  C   UNL     1      16.571   4.313   3.364  1.00  0.00     0.031 A 
BRANCH  58  72
ATOM     72  C   UNL     1      17.455   1.189  -1.891  1.00  0.00    -0.014 A 
ATOM     73  C   UNL     1      17.294   1.663  -3.202  1.00  0.00     0.009 A 
ATOM     74  C   UNL     1      18.512   0.311  -1.606  1.00  0.00     0.009 A 
ATOM     75  C   UNL     1      18.152   1.232  -4.216  1.00  0.00     0.001 A 
ATOM     76  C   UNL     1      19.382  -0.098  -2.616  1.00  0.00     0.001 A 
ATOM     77  C   UNL     1      19.195   0.354  -3.922  1.00  0.00     0.000 A 
ENDBRANCH  58  72
BRANCH  59  78
ATOM     78  C   UNL     1      10.924   3.361   5.290  1.00  0.00    -0.014 A 
ATOM     79  C   UNL     1      10.445   4.680   5.361  1.00  0.00     0.009 A 
ATOM     80  C   UNL     1      10.492   2.434   6.250  1.00  0.00     0.009 A 
ATOM     81  C   UNL     1       9.578   5.067   6.386  1.00  0.00     0.001 A 
ATOM     82  C   UNL     1       9.598   2.815   7.254  1.00  0.00     0.001 A 
ATOM     83  C   UNL     1       9.152   4.133   7.329  1.00  0.00     0.000 A 
ENDBRANCH  59  78
BRANCH  71  84
ATOM     84  C   UNL     1      17.527   5.195   4.117  1.00  0.00    -0.014 A 
ATOM     85  C   UNL     1      18.100   4.781   5.330  1.00  0.00     0.009 A 
ATOM     86  C   UNL     1      17.885   6.445   3.588  1.00  0.00     0.009 A 
ATOM     87  C   UNL     1      18.988   5.615   6.013  1.00  0.00     0.001 A 
ATOM     88  C   UNL     1      18.793   7.265   4.260  1.00  0.00     0.001 A 
ATOM     89  C   UNL     1      19.337   6.854   5.475  1.00  0.00     0.000 A 
ENDBRANCH  71  84
ENDBRANCH  45  46
ENDBRANCH  38  40
ENDBRANCH  37  38
ENDBRANCH  36  37
ENDBRANCH  35  36
ENDBRANCH  34  35
ENDBRANCH  33  34
ENDBRANCH   1  33
TORSDOF 22
