REMARK SMILES C[NH2+][C@@]1(C(=O)OCCOCCOCCOC(=O)c2ccc(-c3c4nc(c(-c5ccccc5)c5ccc([nH]5)c(-c5ccccc5)c5nc(c(-c6ccccc6)c6ccc3[nH]6)C=C5)C=C4)cc2)CC[C@H]([NH+]2CC[NH+](C)CC2)C1
REMARK SMILES IDX 11 1 10 2 9 3 8 4 7 5 6 6 4 7 5 8 3 9 66 10 76 11 67 12
REMARK SMILES IDX 68 13 2 14 1 15 69 18 70 19 75 20 71 22 74 23 72 24 73 25
REMARK SMILES IDX 12 27 13 28 14 29 15 30 16 31 17 32 18 33 19 34 65 35 20 36
REMARK SMILES IDX 64 37 21 38 22 39 23 40 58 41 24 42 63 43 57 44 59 45 25 46
REMARK SMILES IDX 62 47 56 48 55 49 26 51 48 52 33 53 47 54 34 55 37 56 46 57
REMARK SMILES IDX 60 58 35 59 36 60 45 62 61 63 38 64 27 65 28 66 32 67 29 68
REMARK SMILES IDX 31 69 30 70 49 71 50 72 54 73 51 74 53 75 52 76 39 77 40 78
REMARK SMILES IDX 44 79 41 80 43 81 42 82
REMARK H PARENT 2 16 2 17 69 21 72 26 59 50 37 61
REMARK Flexibility Score: inf
ROOT
ATOM      1  C   UNL     1      -1.051  -1.683   1.291  1.00  0.00     0.188 C 
ENDROOT
BRANCH   1   2
ATOM      2  C   UNL     1      -0.357  -0.936   2.427  1.00  0.00     0.188 C 
BRANCH   2   3
ATOM      3  O   UNL     1      -1.155  -0.394   3.461  1.00  0.00    -0.376 OA
BRANCH   3   4
ATOM      4  C   UNL     1      -2.240   0.454   3.089  1.00  0.00     0.202 C 
BRANCH   4   5
ATOM      5  C   UNL     1      -1.973   1.551   2.046  1.00  0.00     0.261 C 
BRANCH   5   6
ATOM      6  O   UNL     1      -1.824   1.017   0.708  1.00  0.00    -0.459 OA
BRANCH   6   7
ATOM      7  C   UNL     1      -1.314   1.868  -0.221  1.00  0.00     0.368 C 
ATOM      8  O   UNL     1      -1.018   3.032   0.041  1.00  0.00    -0.245 OA
BRANCH   7   9
ATOM      9  C   UNL     1      -1.012   1.216  -1.620  1.00  0.00     0.200 C 
ATOM     10  C   UNL     1      -1.560   2.158  -2.713  1.00  0.00     0.087 C 
ATOM     11  C   UNL     1      -1.699  -0.106  -2.028  1.00  0.00     0.146 C 
ATOM     12  C   UNL     1      -3.020   1.763  -2.886  1.00  0.00     0.072 C 
ATOM     13  C   UNL     1      -3.066   0.247  -2.668  1.00  0.00     0.191 C 
BRANCH   9  14
ATOM     14  N   UNL     1       0.468   1.180  -1.820  1.00  0.00    -0.334 N 
ATOM     15  C   UNL     1       1.219   0.408  -0.844  1.00  0.00     0.331 C 
ATOM     16  H   UNL     1       0.650   0.782  -2.741  1.00  0.00     0.347 HD
ATOM     17  H   UNL     1       0.785   2.144  -1.714  1.00  0.00     0.347 HD
ENDBRANCH   9  14
BRANCH  13  18
ATOM     18  N   UNL     1      -4.257  -0.365  -2.059  1.00  0.00    -0.323 N 
ATOM     19  C   UNL     1      -5.545  -0.018  -2.685  1.00  0.00     0.324 C 
ATOM     20  C   UNL     1      -4.420  -0.260  -0.606  1.00  0.00     0.324 C 
ATOM     21  H   UNL     1      -4.022  -1.336  -2.264  1.00  0.00     0.348 HD
ATOM     22  C   UNL     1      -6.192   1.308  -2.203  1.00  0.00     0.324 C 
ATOM     23  C   UNL     1      -4.929   1.101  -0.108  1.00  0.00     0.324 C 
ATOM     24  N   UNL     1      -6.182   1.533  -0.742  1.00  0.00    -0.328 N 
ATOM     25  C   UNL     1      -6.433   2.943  -0.438  1.00  0.00     0.333 C 
ATOM     26  H   UNL     1      -6.932   0.959  -0.355  1.00  0.00     0.348 HD
ENDBRANCH  13  18
ENDBRANCH   7   9
ENDBRANCH   6   7
ENDBRANCH   5   6
ENDBRANCH   4   5
ENDBRANCH   3   4
ENDBRANCH   2   3
ENDBRANCH   1   2
BRANCH   1  27
ATOM     27  O   UNL     1      -2.408  -2.034   1.353  1.00  0.00    -0.376 OA
BRANCH  27  28
ATOM     28  C   UNL     1      -2.920  -2.970   2.277  1.00  0.00     0.202 C 
BRANCH  28  29
ATOM     29  C   UNL     1      -2.108  -4.126   2.880  1.00  0.00     0.261 C 
BRANCH  29  30
ATOM     30  O   UNL     1      -0.696  -4.090   2.695  1.00  0.00    -0.460 OA
BRANCH  30  31
ATOM     31  C   UNL     1      -0.226  -4.763   1.612  1.00  0.00     0.338 C 
ATOM     32  O   UNL     1      -0.859  -5.414   0.809  1.00  0.00    -0.246 OA
BRANCH  31  33
ATOM     33  C   UNL     1       1.189  -4.354   1.442  1.00  0.00     0.060 A 
ATOM     34  C   UNL     1       1.600  -3.864   0.193  1.00  0.00     0.016 A 
ATOM     35  C   UNL     1       2.069  -4.364   2.526  1.00  0.00     0.016 A 
ATOM     36  C   UNL     1       2.903  -3.399   0.021  1.00  0.00     0.010 A 
ATOM     37  C   UNL     1       3.380  -3.925   2.347  1.00  0.00     0.010 A 
ATOM     38  C   UNL     1       3.809  -3.469   1.088  1.00  0.00    -0.014 A 
BRANCH  38  39
ATOM     39  C   UNL     1       5.259  -3.312   0.838  1.00  0.00     0.031 A 
ATOM     40  C   UNL     1       6.051  -4.557   0.549  1.00  0.00     0.074 A 
ATOM     41  C   UNL     1       5.865  -2.114   0.882  1.00  0.00     0.049 A 
ATOM     42  N   UNL     1       7.338  -4.701   0.375  1.00  0.00    -0.248 NA
ATOM     43  C   UNL     1       5.281  -5.810   0.451  1.00  0.00     0.031 C 
ATOM     44  C   UNL     1       5.205  -0.831   1.106  1.00  0.00     0.029 A 
ATOM     45  N   UNL     1       7.194  -1.795   0.751  1.00  0.00    -0.354 N 
ATOM     46  C   UNL     1       7.532  -6.058   0.151  1.00  0.00     0.074 A 
ATOM     47  C   UNL     1       6.239  -6.698   0.242  1.00  0.00     0.031 C 
ATOM     48  C   UNL     1       6.137   0.141   1.111  1.00  0.00     0.029 A 
ATOM     49  C   UNL     1       7.458  -0.459   0.927  1.00  0.00     0.049 A 
ATOM     50  H   UNL     1       7.891  -2.460   0.550  1.00  0.00     0.167 HD
ATOM     51  C   UNL     1       8.685  -6.716  -0.108  1.00  0.00     0.031 A 
ATOM     52  C   UNL     1       8.636   0.195   0.961  1.00  0.00     0.031 A 
ATOM     53  C   UNL     1       9.976  -6.089  -0.165  1.00  0.00     0.049 A 
ATOM     54  C   UNL     1       9.919  -0.576   0.768  1.00  0.00     0.074 A 
ATOM     55  C   UNL     1      11.204  -6.670  -0.424  1.00  0.00     0.029 A 
ATOM     56  N   UNL     1      10.205  -4.741   0.056  1.00  0.00    -0.354 N 
ATOM     57  N   UNL     1      10.091  -1.854   0.527  1.00  0.00    -0.248 NA
ATOM     58  C   UNL     1      11.171   0.191   0.848  1.00  0.00     0.031 C 
ATOM     59  C   UNL     1      12.186  -5.682  -0.297  1.00  0.00     0.029 A 
ATOM     60  C   UNL     1      11.561  -4.475  -0.030  1.00  0.00     0.049 A 
ATOM     61  H   UNL     1       9.508  -4.072   0.246  1.00  0.00     0.167 HD
ATOM     62  C   UNL     1      11.464  -2.035   0.392  1.00  0.00     0.074 A 
ATOM     63  C   UNL     1      12.076  -0.735   0.566  1.00  0.00     0.031 C 
ATOM     64  C   UNL     1      12.155  -3.174   0.142  1.00  0.00     0.031 A 
BRANCH  51  65
ATOM     65  C   UNL     1       8.596  -8.203  -0.304  1.00  0.00    -0.014 A 
ATOM     66  C   UNL     1       7.997  -8.755  -1.448  1.00  0.00     0.009 A 
ATOM     67  C   UNL     1       9.130  -9.063   0.667  1.00  0.00     0.009 A 
ATOM     68  C   UNL     1       7.905 -10.139  -1.598  1.00  0.00     0.001 A 
ATOM     69  C   UNL     1       9.064 -10.447   0.500  1.00  0.00     0.001 A 
ATOM     70  C   UNL     1       8.443 -10.984  -0.627  1.00  0.00     0.000 A 
ENDBRANCH  51  65
BRANCH  52  71
ATOM     71  C   UNL     1       8.675   1.661   1.212  1.00  0.00    -0.014 A 
ATOM     72  C   UNL     1       9.094   2.548   0.209  1.00  0.00     0.009 A 
ATOM     73  C   UNL     1       8.335   2.177   2.472  1.00  0.00     0.009 A 
ATOM     74  C   UNL     1       9.201   3.917   0.472  1.00  0.00     0.001 A 
ATOM     75  C   UNL     1       8.412   3.549   2.723  1.00  0.00     0.001 A 
ATOM     76  C   UNL     1       8.856   4.416   1.726  1.00  0.00     0.000 A 
ENDBRANCH  52  71
BRANCH  64  77
ATOM     77  C   UNL     1      13.649  -3.065  -0.008  1.00  0.00    -0.014 A 
ATOM     78  C   UNL     1      14.481  -2.809   1.092  1.00  0.00     0.009 A 
ATOM     79  C   UNL     1      14.234  -3.276  -1.267  1.00  0.00     0.009 A 
ATOM     80  C   UNL     1      15.867  -2.735   0.927  1.00  0.00     0.001 A 
ATOM     81  C   UNL     1      15.620  -3.235  -1.423  1.00  0.00     0.001 A 
ATOM     82  C   UNL     1      16.434  -2.954  -0.328  1.00  0.00     0.000 A 
ENDBRANCH  64  77
ENDBRANCH  38  39
ENDBRANCH  31  33
ENDBRANCH  30  31
ENDBRANCH  29  30
ENDBRANCH  28  29
ENDBRANCH  27  28
ENDBRANCH   1  27
TORSDOF 19
