REMARK SMILES O=C(OCCOCCOCCOC(=O)c1ccccc1C(=O)N1CCOCCOCCOCC1)c1ccc(-c2c3nc(c(-c4ccccc4)c4ccc([nH]4)c(-c4ccccc4)c4nc(c(-c5ccccc5)c5ccc2[nH]5)C=C4)C=C3)cc1
REMARK SMILES IDX 10 1 9 2 8 3 7 4 6 5 5 6 4 7 3 8 2 9 1 10 35 11 36 12 82 13
REMARK SMILES IDX 37 14 81 15 38 16 39 17 40 18 75 19 41 20 80 21 74 22 76 23
REMARK SMILES IDX 42 24 79 25 73 26 72 27 43 29 65 30 50 31 64 32 51 33 54 34
REMARK SMILES IDX 63 35 77 36 52 37 53 38 62 40 78 41 55 42 44 43 45 44 49 45
REMARK SMILES IDX 46 46 48 47 47 48 66 49 67 50 71 51 68 52 70 53 69 54 56 55
REMARK SMILES IDX 57 56 61 57 58 58 60 59 59 60 11 61 12 62 13 63 14 64 15 65
REMARK SMILES IDX 16 66 20 67 17 68 19 69 18 70 21 71 22 72 23 73 24 74 25 75
REMARK SMILES IDX 26 76 27 77 28 78 29 79 30 80 34 82 33 83 32 84 31 85
REMARK H PARENT 76 28 54 39
REMARK Flexibility Score: 60.00
ROOT
ATOM      1  C   UNL     1       3.159  -1.261  -4.365  1.00  0.00     0.202 C 
ENDROOT
BRANCH   1   2
ATOM      2  O   UNL     1       2.713  -1.922  -3.179  1.00  0.00    -0.376 OA
BRANCH   2   3
ATOM      3  C   UNL     1       1.678  -1.208  -2.509  1.00  0.00     0.188 C 
BRANCH   3   4
ATOM      4  C   UNL     1       2.094  -0.824  -1.093  1.00  0.00     0.188 C 
BRANCH   4   5
ATOM      5  O   UNL     1       3.466  -0.420  -1.011  1.00  0.00    -0.376 OA
BRANCH   5   6
ATOM      6  C   UNL     1       4.329  -1.486  -0.605  1.00  0.00     0.202 C 
BRANCH   6   7
ATOM      7  C   UNL     1       4.551  -1.524   0.913  1.00  0.00     0.261 C 
BRANCH   7   8
ATOM      8  O   UNL     1       3.373  -1.207   1.675  1.00  0.00    -0.460 OA
BRANCH   8   9
ATOM      9  C   UNL     1       2.745  -0.015   1.831  1.00  0.00     0.338 C 
ATOM     10  O   UNL     1       1.602  -0.033   2.289  1.00  0.00    -0.246 OA
BRANCH   9  11
ATOM     11  C   UNL     1       3.354   1.332   1.548  1.00  0.00     0.060 A 
ATOM     12  C   UNL     1       4.573   1.579   0.911  1.00  0.00     0.016 A 
ATOM     13  C   UNL     1       2.621   2.451   1.996  1.00  0.00     0.016 A 
ATOM     14  C   UNL     1       5.101   2.867   0.826  1.00  0.00     0.010 A 
ATOM     15  C   UNL     1       3.132   3.749   1.900  1.00  0.00     0.010 A 
ATOM     16  C   UNL     1       4.407   3.946   1.369  1.00  0.00    -0.014 A 
BRANCH  16  17
ATOM     17  C   UNL     1       5.135   5.213   1.572  1.00  0.00     0.031 A 
ATOM     18  C   UNL     1       5.791   5.437   2.903  1.00  0.00     0.074 A 
ATOM     19  C   UNL     1       5.321   6.071   0.557  1.00  0.00     0.049 A 
ATOM     20  N   UNL     1       6.562   6.418   3.292  1.00  0.00    -0.248 NA
ATOM     21  C   UNL     1       5.572   4.398   3.924  1.00  0.00     0.031 C 
ATOM     22  C   UNL     1       4.825   5.885  -0.803  1.00  0.00     0.029 A 
ATOM     23  N   UNL     1       6.010   7.254   0.510  1.00  0.00    -0.354 N 
ATOM     24  C   UNL     1       6.927   6.108   4.595  1.00  0.00     0.074 A 
ATOM     25  C   UNL     1       6.275   4.866   4.942  1.00  0.00     0.031 C 
ATOM     26  C   UNL     1       5.241   6.914  -1.561  1.00  0.00     0.029 A 
ATOM     27  C   UNL     1       5.996   7.844  -0.728  1.00  0.00     0.049 A 
ATOM     28  H   UNL     1       6.470   7.643   1.289  1.00  0.00     0.167 HD
ATOM     29  C   UNL     1       7.737   6.798   5.431  1.00  0.00     0.031 A 
ATOM     30  C   UNL     1       6.529   9.010  -1.137  1.00  0.00     0.031 A 
ATOM     31  C   UNL     1       8.342   8.055   5.097  1.00  0.00     0.049 A 
ATOM     32  C   UNL     1       7.315   9.827  -0.150  1.00  0.00     0.074 A 
ATOM     33  C   UNL     1       9.124   8.878   5.886  1.00  0.00     0.029 A 
ATOM     34  N   UNL     1       8.213   8.678   3.864  1.00  0.00    -0.354 N 
ATOM     35  N   UNL     1       7.634   9.540   1.090  1.00  0.00    -0.248 NA
ATOM     36  C   UNL     1       7.818  11.125  -0.619  1.00  0.00     0.031 C 
ATOM     37  C   UNL     1       9.433  10.023   5.141  1.00  0.00     0.029 A 
ATOM     38  C   UNL     1       8.880   9.889   3.875  1.00  0.00     0.049 A 
ATOM     39  H   UNL     1       7.720   8.312   3.095  1.00  0.00     0.167 HD
ATOM     40  C   UNL     1       8.391  10.610   1.545  1.00  0.00     0.074 A 
ATOM     41  C   UNL     1       8.492  11.547   0.443  1.00  0.00     0.031 C 
ATOM     42  C   UNL     1       8.955  10.801   2.763  1.00  0.00     0.031 A 
BRANCH  29  43
ATOM     43  C   UNL     1       7.934   6.214   6.798  1.00  0.00    -0.014 A 
ATOM     44  C   UNL     1       8.744   5.084   6.998  1.00  0.00     0.009 A 
ATOM     45  C   UNL     1       7.243   6.759   7.890  1.00  0.00     0.009 A 
ATOM     46  C   UNL     1       8.822   4.486   8.257  1.00  0.00     0.001 A 
ATOM     47  C   UNL     1       7.340   6.171   9.152  1.00  0.00     0.001 A 
ATOM     48  C   UNL     1       8.118   5.029   9.332  1.00  0.00     0.000 A 
ENDBRANCH  29  43
BRANCH  30  49
ATOM     49  C   UNL     1       6.321   9.474  -2.532  1.00  0.00    -0.014 A 
ATOM     50  C   UNL     1       7.382   9.496  -3.449  1.00  0.00     0.009 A 
ATOM     51  C   UNL     1       5.048   9.888  -2.958  1.00  0.00     0.009 A 
ATOM     52  C   UNL     1       7.174   9.934  -4.760  1.00  0.00     0.001 A 
ATOM     53  C   UNL     1       4.839  10.304  -4.274  1.00  0.00     0.001 A 
ATOM     54  C   UNL     1       5.903  10.332  -5.173  1.00  0.00     0.000 A 
ENDBRANCH  30  49
BRANCH  42  55
ATOM     55  C   UNL     1       9.744  12.062   2.953  1.00  0.00    -0.014 A 
ATOM     56  C   UNL     1       9.102  13.296   3.134  1.00  0.00     0.009 A 
ATOM     57  C   UNL     1      11.145  12.003   2.998  1.00  0.00     0.009 A 
ATOM     58  C   UNL     1       9.853  14.455   3.331  1.00  0.00     0.001 A 
ATOM     59  C   UNL     1      11.892  13.160   3.218  1.00  0.00     0.001 A 
ATOM     60  C   UNL     1      11.246  14.386   3.377  1.00  0.00     0.000 A 
ENDBRANCH  42  55
ENDBRANCH  16  17
ENDBRANCH   9  11
ENDBRANCH   8   9
ENDBRANCH   7   8
ENDBRANCH   6   7
ENDBRANCH   5   6
ENDBRANCH   4   5
ENDBRANCH   3   4
ENDBRANCH   2   3
ENDBRANCH   1   2
BRANCH   1  61
ATOM     61  C   UNL     1       4.117  -0.086  -4.108  1.00  0.00     0.261 C 
BRANCH  61  62
ATOM     62  O   UNL     1       3.591   1.132  -3.527  1.00  0.00    -0.460 OA
BRANCH  62  63
ATOM     63  C   UNL     1       2.596   1.757  -4.179  1.00  0.00     0.339 C 
ATOM     64  O   UNL     1       1.891   1.286  -5.067  1.00  0.00    -0.246 OA
BRANCH  63  65
ATOM     65  C   UNL     1       2.361   3.111  -3.664  1.00  0.00     0.072 A 
ATOM     66  C   UNL     1       1.245   3.231  -2.812  1.00  0.00     0.016 A 
ATOM     67  C   UNL     1       3.051   4.258  -4.091  1.00  0.00     0.054 A 
ATOM     68  C   UNL     1       0.808   4.483  -2.380  1.00  0.00     0.001 A 
ATOM     69  C   UNL     1       2.557   5.514  -3.673  1.00  0.00     0.015 A 
ATOM     70  C   UNL     1       1.454   5.628  -2.825  1.00  0.00     0.001 A 
BRANCH  67  71
ATOM     71  C   UNL     1       4.346   4.324  -4.844  1.00  0.00     0.254 C 
ATOM     72  O   UNL     1       4.967   5.388  -4.878  1.00  0.00    -0.269 OA
ATOM     73  N   UNL     1       4.928   3.178  -5.349  1.00  0.00    -0.334 N 
BRANCH  73  74
ATOM     74  C   UNL     1       6.251   2.825  -4.807  1.00  0.00     0.148 C 
BRANCH  74  75
ATOM     75  C   UNL     1       7.361   2.502  -5.807  1.00  0.00     0.181 C 
BRANCH  75  76
ATOM     76  O   UNL     1       7.422   1.081  -5.973  1.00  0.00    -0.377 OA
BRANCH  76  77
ATOM     77  C   UNL     1       8.148   0.683  -7.141  1.00  0.00     0.188 C 
BRANCH  77  78
ATOM     78  C   UNL     1       7.151   0.135  -8.159  1.00  0.00     0.188 C 
BRANCH  78  79
ATOM     79  O   UNL     1       6.416   1.235  -8.697  1.00  0.00    -0.377 OA
BRANCH  79  80
ATOM     80  C   UNL     1       5.212   0.827  -9.349  1.00  0.00     0.188 CG0
ATOM     81  G   UNL     1       4.499   2.074  -9.875  1.00  0.00     0.000 G0
ENDBRANCH  79  80
ENDBRANCH  78  79
ENDBRANCH  77  78
ENDBRANCH  76  77
ENDBRANCH  75  76
ENDBRANCH  74  75
ENDBRANCH  73  74
BRANCH  73  82
ATOM     82  C   UNL     1       4.405   2.560  -6.570  1.00  0.00     0.148 C 
BRANCH  82  83
ATOM     83  C   UNL     1       4.507   3.400  -7.848  1.00  0.00     0.181 C 
BRANCH  83  84
ATOM     84  O   UNL     1       3.738   2.776  -8.886  1.00  0.00    -0.377 OA
BRANCH  84  85
ATOM     85  C   UNL     1       4.499   2.074  -9.875  1.00  0.00     0.188 CG0
ATOM     86  G   UNL     1       5.212   0.827  -9.349  1.00  0.00     0.000 G0
ENDBRANCH  84  85
ENDBRANCH  83  84
ENDBRANCH  82  83
ENDBRANCH  73  82
ENDBRANCH  67  71
ENDBRANCH  63  65
ENDBRANCH  62  63
ENDBRANCH  61  62
ENDBRANCH   1  61
TORSDOF 18
