REMARK SMILES Nc1cc(C(=O)OCCOCCOCCOC(=O)c2ccc(-c3c4nc(c(-c5ccccc5)c5ccc([nH]5)c(-c5ccccc5)c5nc(c(-c6ccccc6)c6ccc3[nH]6)C=C5)C=C4)cc2)nc2ccccc12
REMARK SMILES IDX 12 1 11 2 10 3 9 4 8 5 7 6 5 7 6 8 4 9 2 10 3 11 73 12 68 13
REMARK SMILES IDX 72 14 67 15 69 16 71 17 70 18 1 19 13 22 14 23 15 24 16 25
REMARK SMILES IDX 17 26 18 27 19 28 20 29 66 30 21 31 65 32 22 33 23 34 24 35
REMARK SMILES IDX 59 36 25 37 64 38 58 39 60 40 26 41 63 42 57 43 56 44 27 46
REMARK SMILES IDX 49 47 34 48 48 49 35 50 38 51 47 52 61 53 36 54 37 55 46 57
REMARK SMILES IDX 62 58 39 59 28 60 29 61 33 62 30 63 32 64 31 65 50 66 51 67
REMARK SMILES IDX 55 68 52 69 54 70 53 71 40 72 41 73 45 74 42 75 44 76 43 77
REMARK H PARENT 1 20 1 21 60 45 38 56
REMARK Flexibility Score: inf
ROOT
ATOM      1  C   UNL     1      -0.996  -2.196   4.545  1.00  0.00     0.188 C 
ENDROOT
BRANCH   1   2
ATOM      2  C   UNL     1      -1.030  -3.731   4.710  1.00  0.00     0.188 C 
BRANCH   2   3
ATOM      3  O   UNL     1      -0.355  -4.351   5.784  1.00  0.00    -0.376 OA
BRANCH   3   4
ATOM      4  C   UNL     1       1.059  -4.303   5.881  1.00  0.00     0.202 C 
BRANCH   4   5
ATOM      5  C   UNL     1       1.994  -4.283   4.665  1.00  0.00     0.261 C 
BRANCH   5   6
ATOM      6  O   UNL     1       1.587  -3.433   3.587  1.00  0.00    -0.459 OA
BRANCH   6   7
ATOM      7  C   UNL     1       1.340  -4.079   2.413  1.00  0.00     0.357 C 
ATOM      8  O   UNL     1       1.496  -5.269   2.194  1.00  0.00    -0.244 OA
BRANCH   7   9
ATOM      9  C   UNL     1       0.692  -3.139   1.462  1.00  0.00     0.151 A 
ATOM     10  C   UNL     1       0.606  -1.072   0.278  1.00  0.00     0.043 A 
ATOM     11  C   UNL     1       1.258  -1.908   1.183  1.00  0.00     0.062 A 
ATOM     12  C   UNL     1      -0.573  -1.537  -0.366  1.00  0.00     0.023 A 
ATOM     13  C   UNL     1      -1.084  -2.794   0.031  1.00  0.00     0.073 A 
ATOM     14  C   UNL     1      -1.264  -0.823  -1.376  1.00  0.00     0.012 A 
ATOM     15  N   UNL     1      -0.475  -3.575   0.928  1.00  0.00    -0.241 NA
ATOM     16  C   UNL     1      -2.263  -3.259  -0.535  1.00  0.00     0.029 A 
ATOM     17  C   UNL     1      -2.436  -1.323  -1.948  1.00  0.00     0.001 A 
ATOM     18  C   UNL     1      -2.944  -2.538  -1.516  1.00  0.00     0.002 A 
BRANCH  10  19
ATOM     19  N   UNL     1       1.212   0.141  -0.056  1.00  0.00    -0.398 N 
ATOM     20  H   UNL     1       2.028   0.428   0.413  1.00  0.00     0.156 HD
ATOM     21  H   UNL     1       0.822   0.709  -0.759  1.00  0.00     0.156 HD
ENDBRANCH  10  19
ENDBRANCH   7   9
ENDBRANCH   6   7
ENDBRANCH   5   6
ENDBRANCH   4   5
ENDBRANCH   3   4
ENDBRANCH   2   3
ENDBRANCH   1   2
BRANCH   1  22
ATOM     22  O   UNL     1      -0.186  -1.392   5.377  1.00  0.00    -0.376 OA
BRANCH  22  23
ATOM     23  C   UNL     1      -0.414  -1.350   6.777  1.00  0.00     0.202 C 
BRANCH  23  24
ATOM     24  C   UNL     1      -1.815  -1.369   7.404  1.00  0.00     0.261 C 
BRANCH  24  25
ATOM     25  O   UNL     1      -2.734  -2.312   6.845  1.00  0.00    -0.460 OA
BRANCH  25  26
ATOM     26  C   UNL     1      -3.806  -1.770   6.216  1.00  0.00     0.338 C 
ATOM     27  O   UNL     1      -4.063  -0.588   6.061  1.00  0.00    -0.246 OA
BRANCH  26  28
ATOM     28  C   UNL     1      -4.563  -2.854   5.570  1.00  0.00     0.060 A 
ATOM     29  C   UNL     1      -5.156  -3.856   6.338  1.00  0.00     0.016 A 
ATOM     30  C   UNL     1      -4.673  -2.861   4.173  1.00  0.00     0.016 A 
ATOM     31  C   UNL     1      -5.870  -4.871   5.701  1.00  0.00     0.010 A 
ATOM     32  C   UNL     1      -5.375  -3.885   3.538  1.00  0.00     0.010 A 
ATOM     33  C   UNL     1      -5.988  -4.890   4.299  1.00  0.00    -0.014 A 
BRANCH  33  34
ATOM     34  C   UNL     1      -6.862  -5.893   3.647  1.00  0.00     0.031 A 
ATOM     35  C   UNL     1      -6.298  -7.108   2.977  1.00  0.00     0.074 A 
ATOM     36  C   UNL     1      -8.192  -5.692   3.676  1.00  0.00     0.049 A 
ATOM     37  N   UNL     1      -6.940  -8.123   2.455  1.00  0.00    -0.248 NA
ATOM     38  C   UNL     1      -4.834  -7.201   2.876  1.00  0.00     0.031 C 
ATOM     39  C   UNL     1      -8.849  -4.536   4.290  1.00  0.00     0.029 A 
ATOM     40  N   UNL     1      -9.228  -6.453   3.197  1.00  0.00    -0.354 N 
ATOM     41  C   UNL     1      -5.962  -8.990   1.988  1.00  0.00     0.074 A 
ATOM     42  C   UNL     1      -4.683  -8.359   2.242  1.00  0.00     0.031 C 
ATOM     43  C   UNL     1     -10.178  -4.682   4.180  1.00  0.00     0.029 A 
ATOM     44  C   UNL     1     -10.466  -5.922   3.463  1.00  0.00     0.049 A 
ATOM     45  H   UNL     1      -9.097  -7.298   2.709  1.00  0.00     0.167 HD
ATOM     46  C   UNL     1      -6.123 -10.208   1.419  1.00  0.00     0.031 A 
ATOM     47  C   UNL     1     -11.700  -6.382   3.176  1.00  0.00     0.031 A 
ATOM     48  C   UNL     1      -7.402 -10.815   1.146  1.00  0.00     0.049 A 
ATOM     49  C   UNL     1     -11.848  -7.708   2.485  1.00  0.00     0.074 A 
ATOM     50  C   UNL     1      -7.659 -12.061   0.599  1.00  0.00     0.029 A 
ATOM     51  N   UNL     1      -8.633 -10.222   1.382  1.00  0.00    -0.354 N 
ATOM     52  N   UNL     1     -10.916  -8.554   2.120  1.00  0.00    -0.248 NA
ATOM     53  C   UNL     1     -13.216  -8.153   2.179  1.00  0.00     0.031 C 
ATOM     54  C   UNL     1      -9.038 -12.191   0.434  1.00  0.00     0.029 A 
ATOM     55  C   UNL     1      -9.649 -11.062   0.956  1.00  0.00     0.049 A 
ATOM     56  H   UNL     1      -8.765  -9.336   1.791  1.00  0.00     0.167 HD
ATOM     57  C   UNL     1     -11.582  -9.642   1.572  1.00  0.00     0.074 A 
ATOM     58  C   UNL     1     -12.999  -9.355   1.659  1.00  0.00     0.031 C 
ATOM     59  C   UNL     1     -11.059 -10.777   1.048  1.00  0.00     0.031 A 
BRANCH  46  60
ATOM     60  C   UNL     1      -4.894 -10.994   1.052  1.00  0.00    -0.014 A 
ATOM     61  C   UNL     1      -4.617 -11.279  -0.295  1.00  0.00     0.009 A 
ATOM     62  C   UNL     1      -4.086 -11.569   2.046  1.00  0.00     0.009 A 
ATOM     63  C   UNL     1      -3.573 -12.139  -0.639  1.00  0.00     0.001 A 
ATOM     64  C   UNL     1      -3.024 -12.407   1.697  1.00  0.00     0.001 A 
ATOM     65  C   UNL     1      -2.776 -12.701   0.357  1.00  0.00     0.000 A 
ENDBRANCH  46  60
BRANCH  47  66
ATOM     66  C   UNL     1     -12.885  -5.588   3.593  1.00  0.00    -0.014 A 
ATOM     67  C   UNL     1     -13.152  -4.340   3.007  1.00  0.00     0.009 A 
ATOM     68  C   UNL     1     -13.722  -6.045   4.622  1.00  0.00     0.009 A 
ATOM     69  C   UNL     1     -14.214  -3.554   3.460  1.00  0.00     0.001 A 
ATOM     70  C   UNL     1     -14.803  -5.272   5.051  1.00  0.00     0.001 A 
ATOM     71  C   UNL     1     -15.041  -4.023   4.478  1.00  0.00     0.000 A 
ENDBRANCH  47  66
BRANCH  59  72
ATOM     72  C   UNL     1     -12.005 -11.828   0.534  1.00  0.00    -0.014 A 
ATOM     73  C   UNL     1     -12.082 -13.071   1.186  1.00  0.00     0.009 A 
ATOM     74  C   UNL     1     -12.715 -11.646  -0.662  1.00  0.00     0.009 A 
ATOM     75  C   UNL     1     -12.824 -14.118   0.636  1.00  0.00     0.001 A 
ATOM     76  C   UNL     1     -13.483 -12.685  -1.193  1.00  0.00     0.001 A 
ATOM     77  C   UNL     1     -13.525 -13.923  -0.552  1.00  0.00     0.000 A 
ENDBRANCH  59  72
ENDBRANCH  33  34
ENDBRANCH  26  28
ENDBRANCH  25  26
ENDBRANCH  24  25
ENDBRANCH  23  24
ENDBRANCH  22  23
ENDBRANCH   1  22
TORSDOF 18
