REMARK SMILES O=C(OCCOCCOCCOC(=O)c1nc2c(F)cccc2s1)c1ccc(-c2c3nc(c(-c4ccccc4)c4ccc([nH]4)c(-c4ccccc4)c4nc(c(-c5ccccc5)c5ccc2[nH]5)C=C4)C=C3)cc1
REMARK SMILES IDX 7 1 6 2 5 3 4 4 3 5 2 6 1 7 25 8 26 9 72 10 27 11 71 12
REMARK SMILES IDX 28 13 29 14 30 15 65 16 31 17 70 18 64 19 66 20 32 21 69 22
REMARK SMILES IDX 63 23 62 24 33 26 55 27 40 28 54 29 41 30 44 31 53 32 67 33
REMARK SMILES IDX 42 34 43 35 52 37 68 38 45 39 34 40 35 41 39 42 36 43 38 44
REMARK SMILES IDX 37 45 56 46 57 47 61 48 58 49 60 50 59 51 46 52 47 53 51 54
REMARK SMILES IDX 48 55 50 56 49 57 8 58 9 59 10 60 11 61 12 62 13 63 14 64
REMARK SMILES IDX 15 65 16 66 24 67 17 68 23 69 18 70 22 71 19 72 20 73 21 74
REMARK H PARENT 66 25 44 36
REMARK Flexibility Score: inf
ROOT
ATOM      1  C   UNL     1       3.362   2.021   0.063  1.00  0.00     0.188 C 
ENDROOT
BRANCH   1   2
ATOM      2  O   UNL     1       4.340   1.060  -0.354  1.00  0.00    -0.376 OA
BRANCH   2   3
ATOM      3  C   UNL     1       4.554   0.828  -1.743  1.00  0.00     0.202 C 
BRANCH   3   4
ATOM      4  C   UNL     1       4.447  -0.658  -2.089  1.00  0.00     0.261 C 
BRANCH   4   5
ATOM      5  O   UNL     1       3.118  -1.219  -2.007  1.00  0.00    -0.460 OA
BRANCH   5   6
ATOM      6  C   UNL     1       2.206  -0.686  -1.159  1.00  0.00     0.338 C 
ATOM      7  O   UNL     1       1.232  -0.050  -1.537  1.00  0.00    -0.246 OA
BRANCH   6   8
ATOM      8  C   UNL     1       2.299  -1.233   0.216  1.00  0.00     0.060 A 
ATOM      9  C   UNL     1       3.519  -1.585   0.800  1.00  0.00     0.016 A 
ATOM     10  C   UNL     1       1.100  -1.463   0.905  1.00  0.00     0.016 A 
ATOM     11  C   UNL     1       3.544  -2.347   1.946  1.00  0.00     0.010 A 
ATOM     12  C   UNL     1       1.116  -2.223   2.065  1.00  0.00     0.010 A 
ATOM     13  C   UNL     1       2.334  -2.751   2.499  1.00  0.00    -0.014 A 
BRANCH  13  14
ATOM     14  C   UNL     1       2.410  -3.956   3.306  1.00  0.00     0.031 A 
ATOM     15  C   UNL     1       2.936  -3.865   4.686  1.00  0.00     0.074 A 
ATOM     16  C   UNL     1       2.047  -5.126   2.748  1.00  0.00     0.049 A 
ATOM     17  N   UNL     1       3.911  -4.530   5.221  1.00  0.00    -0.248 NA
ATOM     18  C   UNL     1       2.294  -2.893   5.580  1.00  0.00     0.031 C 
ATOM     19  C   UNL     1       1.308  -5.328   1.495  1.00  0.00     0.029 A 
ATOM     20  N   UNL     1       2.154  -6.382   3.256  1.00  0.00    -0.354 N 
ATOM     21  C   UNL     1       3.936  -4.153   6.558  1.00  0.00     0.074 A 
ATOM     22  C   UNL     1       2.961  -3.099   6.715  1.00  0.00     0.031 C 
ATOM     23  C   UNL     1       0.807  -6.579   1.482  1.00  0.00     0.029 A 
ATOM     24  C   UNL     1       1.297  -7.285   2.652  1.00  0.00     0.049 A 
ATOM     25  H   UNL     1       2.776  -6.624   3.980  1.00  0.00     0.167 HD
ATOM     26  C   UNL     1       4.641  -4.805   7.520  1.00  0.00     0.031 A 
ATOM     27  C   UNL     1       0.909  -8.475   3.162  1.00  0.00     0.031 A 
ATOM     28  C   UNL     1       5.656  -5.678   7.019  1.00  0.00     0.049 A 
ATOM     29  C   UNL     1       1.909  -8.881   4.176  1.00  0.00     0.074 A 
ATOM     30  C   UNL     1       6.847  -5.501   6.345  1.00  0.00     0.029 A 
ATOM     31  N   UNL     1       5.371  -7.017   6.929  1.00  0.00    -0.354 N 
ATOM     32  N   UNL     1       3.142  -9.201   3.898  1.00  0.00    -0.248 NA
ATOM     33  C   UNL     1       1.649  -8.579   5.576  1.00  0.00     0.031 C 
ATOM     34  C   UNL     1       6.986  -6.650   5.514  1.00  0.00     0.029 A 
ATOM     35  C   UNL     1       5.865  -7.455   5.726  1.00  0.00     0.049 A 
ATOM     36  H   UNL     1       4.900  -7.561   7.601  1.00  0.00     0.167 HD
ATOM     37  C   UNL     1       3.882  -8.768   4.989  1.00  0.00     0.074 A 
ATOM     38  C   UNL     1       2.901  -8.514   6.036  1.00  0.00     0.031 C 
ATOM     39  C   UNL     1       5.189  -8.392   4.854  1.00  0.00     0.031 A 
BRANCH  26  40
ATOM     40  C   UNL     1       4.193  -4.803   8.946  1.00  0.00    -0.014 A 
ATOM     41  C   UNL     1       5.109  -4.947   9.995  1.00  0.00     0.009 A 
ATOM     42  C   UNL     1       2.820  -4.840   9.265  1.00  0.00     0.009 A 
ATOM     43  C   UNL     1       4.663  -5.081  11.316  1.00  0.00     0.001 A 
ATOM     44  C   UNL     1       2.375  -4.942  10.582  1.00  0.00     0.001 A 
ATOM     45  C   UNL     1       3.300  -5.067  11.610  1.00  0.00     0.000 A 
ENDBRANCH  26  40
BRANCH  27  46
ATOM     46  C   UNL     1      -0.459  -9.033   3.089  1.00  0.00    -0.014 A 
ATOM     47  C   UNL     1      -0.709 -10.362   3.455  1.00  0.00     0.009 A 
ATOM     48  C   UNL     1      -1.573  -8.193   2.880  1.00  0.00     0.009 A 
ATOM     49  C   UNL     1      -2.021 -10.822   3.631  1.00  0.00     0.001 A 
ATOM     50  C   UNL     1      -2.881  -8.655   3.039  1.00  0.00     0.001 A 
ATOM     51  C   UNL     1      -3.104  -9.968   3.430  1.00  0.00     0.000 A 
ENDBRANCH  27  46
BRANCH  39  52
ATOM     52  C   UNL     1       5.865  -8.688   3.539  1.00  0.00    -0.014 A 
ATOM     53  C   UNL     1       5.480  -8.044   2.349  1.00  0.00     0.009 A 
ATOM     54  C   UNL     1       7.013  -9.493   3.521  1.00  0.00     0.009 A 
ATOM     55  C   UNL     1       6.210  -8.221   1.169  1.00  0.00     0.001 A 
ATOM     56  C   UNL     1       7.750  -9.657   2.344  1.00  0.00     0.001 A 
ATOM     57  C   UNL     1       7.348  -9.023   1.169  1.00  0.00     0.000 A 
ENDBRANCH  39  52
ENDBRANCH  13  14
ENDBRANCH   6   8
ENDBRANCH   5   6
ENDBRANCH   4   5
ENDBRANCH   3   4
ENDBRANCH   2   3
ENDBRANCH   1   2
BRANCH   1  58
ATOM     58  C   UNL     1       2.674   2.916  -0.976  1.00  0.00     0.188 C 
BRANCH  58  59
ATOM     59  O   UNL     1       3.527   3.644  -1.859  1.00  0.00    -0.376 OA
BRANCH  59  60
ATOM     60  C   UNL     1       4.720   4.210  -1.329  1.00  0.00     0.202 C 
BRANCH  60  61
ATOM     61  C   UNL     1       4.495   5.479  -0.513  1.00  0.00     0.261 C 
BRANCH  61  62
ATOM     62  O   UNL     1       4.121   5.165   0.840  1.00  0.00    -0.458 OA
BRANCH  62  63
ATOM     63  C   UNL     1       2.846   5.494   1.211  1.00  0.00     0.367 C 
ATOM     64  O   UNL     1       2.028   6.037   0.484  1.00  0.00    -0.243 OA
BRANCH  63  65
ATOM     65  C   UNL     1       2.599   5.050   2.569  1.00  0.00     0.203 A 
ATOM     66  N   UNL     1       1.657   4.184   2.882  1.00  0.00    -0.226 NA
ATOM     67  S   UNL     1       3.468   5.728   3.876  1.00  0.00    -0.107 S 
ATOM     68  C   UNL     1       1.536   4.106   4.265  1.00  0.00     0.118 A 
ATOM     69  C   UNL     1       2.426   4.913   4.982  1.00  0.00     0.058 A 
ATOM     70  C   UNL     1       0.608   3.335   4.999  1.00  0.00     0.150 A 
ATOM     71  C   UNL     1       2.394   4.993   6.386  1.00  0.00     0.021 A 
ATOM     72  F   UNL     1      -0.257   2.526   4.368  1.00  0.00    -0.205 F 
ATOM     73  C   UNL     1       0.556   3.413   6.391  1.00  0.00     0.041 A 
ATOM     74  C   UNL     1       1.437   4.243   7.077  1.00  0.00     0.005 A 
ENDBRANCH  63  65
ENDBRANCH  62  63
ENDBRANCH  61  62
ENDBRANCH  60  61
ENDBRANCH  59  60
ENDBRANCH  58  59
ENDBRANCH   1  58
TORSDOF 17
