REMARK SMILES O=C(OCCOCCOCCOC(=O)[C@@H]1[C@H](C(=O)Nc2ccc(Cn3cncn3)cc2)[C@@H]2C=C[C@H]1CC2)c1ccc(-c2c3nc(c(-c4ccccc4)c4ccc([nH]4)c(-c4ccccc4)c4nc(c(-c5ccccc5)c5ccc2[nH]5)C=C4)C=C3)cc1
REMARK SMILES IDX 8 1 7 2 6 3 5 4 4 5 3 6 2 7 1 8 38 9 39 10 85 11 40 12 84 13
REMARK SMILES IDX 41 14 42 15 43 16 78 17 44 18 83 19 77 20 79 21 45 22 82 23
REMARK SMILES IDX 76 24 75 25 46 27 68 28 53 29 67 30 54 31 57 32 66 33 80 34
REMARK SMILES IDX 55 35 56 36 65 38 81 39 58 40 47 41 48 42 52 43 49 44 51 45
REMARK SMILES IDX 50 46 69 47 70 48 74 49 71 50 73 51 72 52 59 53 60 54 64 55
REMARK SMILES IDX 61 56 63 57 62 58 9 59 10 60 11 61 12 62 13 63 14 64 15 65
REMARK SMILES IDX 16 66 35 67 32 68 34 69 36 70 33 71 37 72 17 73 18 74 19 75
REMARK SMILES IDX 20 77 21 78 31 79 22 80 30 81 23 82 24 83 25 84 26 85 29 86
REMARK SMILES IDX 27 87 28 88
REMARK H PARENT 79 26 57 37 19 76
REMARK Flexibility Score: inf
ROOT
ATOM      1  C   UNL     1       3.184  -3.398   0.738  1.00  0.00     0.188 C 
ENDROOT
BRANCH   1   2
ATOM      2  C   UNL     1       3.399  -1.927   0.374  1.00  0.00     0.188 C 
BRANCH   2   3
ATOM      3  O   UNL     1       4.626  -1.410  -0.100  1.00  0.00    -0.376 OA
BRANCH   3   4
ATOM      4  C   UNL     1       5.542  -0.896   0.848  1.00  0.00     0.202 C 
BRANCH   4   5
ATOM      5  C   UNL     1       5.200   0.436   1.532  1.00  0.00     0.261 C 
BRANCH   5   6
ATOM      6  O   UNL     1       3.860   0.543   2.034  1.00  0.00    -0.460 OA
BRANCH   6   7
ATOM      7  C   UNL     1       2.765   1.171   1.569  1.00  0.00     0.338 C 
ATOM      8  O   UNL     1       1.675   0.817   2.044  1.00  0.00    -0.246 OA
BRANCH   7   9
ATOM      9  C   UNL     1       2.704   2.269   0.557  1.00  0.00     0.060 A 
ATOM     10  C   UNL     1       3.759   3.007   0.023  1.00  0.00     0.016 A 
ATOM     11  C   UNL     1       1.392   2.648   0.187  1.00  0.00     0.016 A 
ATOM     12  C   UNL     1       3.499   4.124  -0.779  1.00  0.00     0.010 A 
ATOM     13  C   UNL     1       1.127   3.713  -0.655  1.00  0.00     0.010 A 
ATOM     14  C   UNL     1       2.182   4.500  -1.070  1.00  0.00    -0.014 A 
BRANCH  14  15
ATOM     15  C   UNL     1       1.928   5.742  -1.781  1.00  0.00     0.031 A 
ATOM     16  C   UNL     1       2.470   5.818  -3.154  1.00  0.00     0.074 A 
ATOM     17  C   UNL     1       1.223   6.771  -1.267  1.00  0.00     0.049 A 
ATOM     18  N   UNL     1       3.552   6.417  -3.520  1.00  0.00    -0.248 NA
ATOM     19  C   UNL     1       1.805   5.063  -4.221  1.00  0.00     0.031 C 
ATOM     20  C   UNL     1       0.383   6.810  -0.067  1.00  0.00     0.029 A 
ATOM     21  N   UNL     1       1.076   8.024  -1.781  1.00  0.00    -0.354 N 
ATOM     22  C   UNL     1       3.620   6.283  -4.901  1.00  0.00     0.074 A 
ATOM     23  C   UNL     1       2.606   5.320  -5.258  1.00  0.00     0.031 C 
ATOM     24  C   UNL     1      -0.337   7.957  -0.057  1.00  0.00     0.029 A 
ATOM     25  C   UNL     1       0.116   8.800  -1.150  1.00  0.00     0.049 A 
ATOM     26  H   UNL     1       1.609   8.352  -2.541  1.00  0.00     0.167 HD
ATOM     27  C   UNL     1       4.361   7.146  -5.651  1.00  0.00     0.031 A 
ATOM     28  C   UNL     1      -0.276  10.048  -1.508  1.00  0.00     0.031 A 
ATOM     29  C   UNL     1       5.249   7.935  -4.832  1.00  0.00     0.049 A 
ATOM     30  C   UNL     1       0.822  10.648  -2.301  1.00  0.00     0.074 A 
ATOM     31  C   UNL     1       6.269   7.647  -3.946  1.00  0.00     0.029 A 
ATOM     32  N   UNL     1       4.863   9.226  -4.552  1.00  0.00    -0.354 N 
ATOM     33  N   UNL     1       1.970  10.984  -1.788  1.00  0.00    -0.248 NA
ATOM     34  C   UNL     1       0.811  10.473  -3.744  1.00  0.00     0.031 C 
ATOM     35  C   UNL     1       6.095   8.574  -2.876  1.00  0.00     0.029 A 
ATOM     36  C   UNL     1       5.034   9.420  -3.206  1.00  0.00     0.049 A 
ATOM     37  H   UNL     1       4.526   9.887  -5.199  1.00  0.00     0.167 HD
ATOM     38  C   UNL     1       2.903  10.618  -2.746  1.00  0.00     0.074 A 
ATOM     39  C   UNL     1       2.127  10.412  -3.969  1.00  0.00     0.031 C 
ATOM     40  C   UNL     1       4.169  10.245  -2.393  1.00  0.00     0.031 A 
BRANCH  27  41
ATOM     41  C   UNL     1       3.999   7.572  -7.051  1.00  0.00    -0.014 A 
ATOM     42  C   UNL     1       4.859   8.461  -7.724  1.00  0.00     0.009 A 
ATOM     43  C   UNL     1       2.725   7.376  -7.613  1.00  0.00     0.009 A 
ATOM     44  C   UNL     1       4.429   9.186  -8.841  1.00  0.00     0.001 A 
ATOM     45  C   UNL     1       2.307   8.068  -8.754  1.00  0.00     0.001 A 
ATOM     46  C   UNL     1       3.148   8.998  -9.348  1.00  0.00     0.000 A 
ENDBRANCH  27  41
BRANCH  28  47
ATOM     47  C   UNL     1      -1.608  10.676  -1.407  1.00  0.00    -0.014 A 
ATOM     48  C   UNL     1      -1.762  12.066  -1.535  1.00  0.00     0.009 A 
ATOM     49  C   UNL     1      -2.765   9.879  -1.481  1.00  0.00     0.009 A 
ATOM     50  C   UNL     1      -3.021  12.631  -1.781  1.00  0.00     0.001 A 
ATOM     51  C   UNL     1      -4.021  10.443  -1.724  1.00  0.00     0.001 A 
ATOM     52  C   UNL     1      -4.147  11.818  -1.893  1.00  0.00     0.000 A 
ENDBRANCH  28  47
BRANCH  40  53
ATOM     53  C   UNL     1       4.609  10.484  -0.968  1.00  0.00    -0.014 A 
ATOM     54  C   UNL     1       3.950   9.935   0.147  1.00  0.00     0.009 A 
ATOM     55  C   UNL     1       5.813  11.172  -0.754  1.00  0.00     0.009 A 
ATOM     56  C   UNL     1       4.463  10.106   1.438  1.00  0.00     0.001 A 
ATOM     57  C   UNL     1       6.337  11.322   0.532  1.00  0.00     0.001 A 
ATOM     58  C   UNL     1       5.658  10.796   1.628  1.00  0.00     0.000 A 
ENDBRANCH  40  53
ENDBRANCH  14  15
ENDBRANCH   7   9
ENDBRANCH   6   7
ENDBRANCH   5   6
ENDBRANCH   4   5
ENDBRANCH   3   4
ENDBRANCH   2   3
ENDBRANCH   1   2
BRANCH   1  59
ATOM     59  O   UNL     1       4.303  -4.244   0.829  1.00  0.00    -0.376 OA
BRANCH  59  60
ATOM     60  C   UNL     1       5.163  -4.292  -0.303  1.00  0.00     0.202 C 
BRANCH  60  61
ATOM     61  C   UNL     1       4.554  -4.578  -1.692  1.00  0.00     0.261 C 
BRANCH  61  62
ATOM     62  O   UNL     1       3.848  -3.487  -2.358  1.00  0.00    -0.463 OA
BRANCH  62  63
ATOM     63  C   UNL     1       2.859  -3.893  -3.211  1.00  0.00     0.310 C 
ATOM     64  O   UNL     1       2.439  -5.048  -3.247  1.00  0.00    -0.252 OA
BRANCH  63  65
ATOM     65  C   UNL     1       2.387  -2.859  -4.242  1.00  0.00     0.119 C 
ATOM     66  C   UNL     1       2.539  -1.331  -4.106  1.00  0.00     0.100 C 
ATOM     67  C   UNL     1       0.970  -3.163  -4.876  1.00  0.00     0.026 C 
ATOM     68  C   UNL     1       1.456  -0.614  -4.988  1.00  0.00     0.025 C 
ATOM     69  C   UNL     1      -0.139  -2.267  -4.343  1.00  0.00    -0.027 C 
ATOM     70  C   UNL     1       1.051  -2.722  -6.360  1.00  0.00     0.009 C 
ATOM     71  C   UNL     1       0.097  -0.949  -4.430  1.00  0.00    -0.027 C 
ATOM     72  C   UNL     1       1.450  -1.220  -6.418  1.00  0.00     0.009 C 
BRANCH  66  73
ATOM     73  C   UNL     1       2.699  -0.570  -2.789  1.00  0.00     0.228 C 
ATOM     74  O   UNL     1       3.714   0.132  -2.650  1.00  0.00    -0.274 OA
ATOM     75  N   UNL     1       1.716  -0.369  -1.864  1.00  0.00    -0.326 N 
ATOM     76  H   UNL     1       1.809   0.499  -1.410  1.00  0.00     0.169 HD
BRANCH  75  77
ATOM     77  C   UNL     1       0.602  -1.091  -1.397  1.00  0.00     0.041 A 
ATOM     78  C   UNL     1      -0.395  -0.390  -0.729  1.00  0.00     0.026 A 
ATOM     79  C   UNL     1       0.470  -2.470  -1.469  1.00  0.00     0.026 A 
ATOM     80  C   UNL     1      -1.552  -1.030  -0.281  1.00  0.00     0.008 A 
ATOM     81  C   UNL     1      -0.680  -3.130  -1.038  1.00  0.00     0.008 A 
ATOM     82  C   UNL     1      -1.730  -2.401  -0.488  1.00  0.00    -0.026 A 
BRANCH  82  83
ATOM     83  C   UNL     1      -3.028  -3.080  -0.156  1.00  0.00     0.181 C 
BRANCH  83  84
ATOM     84  N   UNL     1      -3.077  -3.558   1.208  1.00  0.00    -0.249 N 
ATOM     85  C   UNL     1      -3.002  -2.830   2.355  1.00  0.00     0.220 A 
ATOM     86  N   UNL     1      -3.370  -4.847   1.474  1.00  0.00    -0.160 NA
ATOM     87  N   UNL     1      -3.228  -3.610   3.386  1.00  0.00    -0.224 NA
ATOM     88  C   UNL     1      -3.440  -4.828   2.808  1.00  0.00     0.246 A 
ENDBRANCH  83  84
ENDBRANCH  82  83
ENDBRANCH  75  77
ENDBRANCH  66  73
ENDBRANCH  63  65
ENDBRANCH  62  63
ENDBRANCH  61  62
ENDBRANCH  60  61
ENDBRANCH  59  60
ENDBRANCH   1  59
TORSDOF 21
