REMARK SMILES Cc1ccc(C)n1-c1ccccc1S[C@H](C)C(=O)OCCOCCOCCOC(=O)c1ccc(-c2c3nc(c(-c4ccccc4)c4ccc([nH]4)c(-c4ccccc4)c4nc(c(-c5ccccc5)c5ccc2[nH]5)C=C4)C=C3)cc1
REMARK SMILES IDX 23 1 22 2 21 3 20 4 19 5 17 6 18 7 15 8 16 9 14 10 13 11
REMARK SMILES IDX 8 12 9 13 10 14 12 15 11 16 7 17 1 18 2 19 3 20 4 21 5 22
REMARK SMILES IDX 6 23 24 24 25 25 26 26 27 27 28 28 29 29 30 30 31 31 32 32
REMARK SMILES IDX 78 33 33 34 77 35 34 36 35 37 36 38 71 39 37 40 76 41 70 42
REMARK SMILES IDX 72 43 38 44 75 45 69 46 68 47 39 49 61 50 46 51 60 52 47 53
REMARK SMILES IDX 50 54 59 55 73 56 48 57 49 58 58 60 74 61 51 62 40 63 41 64
REMARK SMILES IDX 45 65 42 66 44 67 43 68 62 69 63 70 67 71 64 72 66 73 65 74
REMARK SMILES IDX 52 75 53 76 57 77 54 78 56 79 55 80
REMARK H PARENT 72 48 50 59
REMARK Flexibility Score: inf
ROOT
ATOM      1  C   UNL     1      -3.078   3.713  -1.577  1.00  0.00     0.188 C 
ENDROOT
BRANCH   1   2
ATOM      2  O   UNL     1      -3.118   4.894  -0.802  1.00  0.00    -0.376 OA
BRANCH   2   3
ATOM      3  C   UNL     1      -2.006   5.328  -0.023  1.00  0.00     0.202 C 
BRANCH   3   4
ATOM      4  C   UNL     1      -0.957   4.395   0.599  1.00  0.00     0.261 C 
BRANCH   4   5
ATOM      5  O   UNL     1      -0.490   3.353  -0.259  1.00  0.00    -0.462 OA
BRANCH   5   6
ATOM      6  C   UNL     1      -0.765   2.092   0.193  1.00  0.00     0.319 C 
ATOM      7  O   UNL     1      -1.382   1.844   1.206  1.00  0.00    -0.251 OA
BRANCH   6   8
ATOM      8  C   UNL     1      -0.266   0.997  -0.747  1.00  0.00     0.158 C 
ATOM      9  C   UNL     1       0.256   1.394  -2.122  1.00  0.00     0.032 C 
BRANCH   8  10
ATOM     10  S   UNL     1       1.093   0.157   0.115  1.00  0.00    -0.109 SA
BRANCH  10  11
ATOM     11  C   UNL     1       0.707  -1.588  -0.076  1.00  0.00     0.032 A 
ATOM     12  C   UNL     1       1.322  -2.526   0.776  1.00  0.00     0.059 A 
ATOM     13  C   UNL     1       1.245  -3.904   0.527  1.00  0.00     0.028 A 
ATOM     14  C   UNL     1       0.497  -4.365  -0.554  1.00  0.00     0.002 A 
ATOM     15  C   UNL     1      -0.054  -2.083  -1.145  1.00  0.00     0.017 A 
ATOM     16  C   UNL     1      -0.168  -3.459  -1.375  1.00  0.00     0.001 A 
BRANCH  12  17
ATOM     17  N   UNL     1       2.131  -2.082   1.853  1.00  0.00    -0.317 N 
ATOM     18  C   UNL     1       0.244  -1.231   3.335  1.00  0.00     0.065 C 
ATOM     19  C   UNL     1       1.683  -1.412   2.988  1.00  0.00     0.020 A 
ATOM     20  C   UNL     1       2.792  -0.935   3.660  1.00  0.00     0.023 A 
ATOM     21  C   UNL     1       3.937  -1.341   2.945  1.00  0.00     0.023 A 
ATOM     22  C   UNL     1       3.519  -2.050   1.835  1.00  0.00     0.020 A 
ATOM     23  C   UNL     1       4.355  -2.588   0.725  1.00  0.00     0.065 C 
ENDBRANCH  12  17
ENDBRANCH  10  11
ENDBRANCH   8  10
ENDBRANCH   6   8
ENDBRANCH   5   6
ENDBRANCH   4   5
ENDBRANCH   3   4
ENDBRANCH   2   3
ENDBRANCH   1   2
BRANCH   1  24
ATOM     24  C   UNL     1      -2.485   3.746  -2.995  1.00  0.00     0.188 C 
BRANCH  24  25
ATOM     25  O   UNL     1      -1.454   4.671  -3.257  1.00  0.00    -0.376 OA
BRANCH  25  26
ATOM     26  C   UNL     1      -1.869   6.029  -3.410  1.00  0.00     0.202 C 
BRANCH  26  27
ATOM     27  C   UNL     1      -2.938   6.412  -4.483  1.00  0.00     0.261 C 
BRANCH  27  28
ATOM     28  O   UNL     1      -4.392   6.333  -4.200  1.00  0.00    -0.460 OA
BRANCH  28  29
ATOM     29  C   UNL     1      -5.181   5.727  -5.163  1.00  0.00     0.338 C 
ATOM     30  O   UNL     1      -4.732   4.898  -5.947  1.00  0.00    -0.246 OA
BRANCH  29  31
ATOM     31  C   UNL     1      -6.674   6.138  -5.257  1.00  0.00     0.060 A 
ATOM     32  C   UNL     1      -7.678   5.277  -4.822  1.00  0.00     0.016 A 
ATOM     33  C   UNL     1      -7.157   7.189  -6.073  1.00  0.00     0.016 A 
ATOM     34  C   UNL     1      -9.082   5.507  -5.138  1.00  0.00     0.010 A 
ATOM     35  C   UNL     1      -8.588   7.386  -6.440  1.00  0.00     0.010 A 
ATOM     36  C   UNL     1      -9.629   6.552  -5.984  1.00  0.00    -0.014 A 
BRANCH  36  37
ATOM     37  C   UNL     1     -11.157   6.317  -6.631  1.00  0.00     0.031 A 
ATOM     38  C   UNL     1     -11.125   4.861  -6.938  1.00  0.00     0.074 A 
ATOM     39  C   UNL     1     -12.348   6.921  -7.099  1.00  0.00     0.049 A 
ATOM     40  N   UNL     1     -10.192   4.410  -7.723  1.00  0.00    -0.248 NA
ATOM     41  C   UNL     1     -11.814   3.841  -6.150  1.00  0.00     0.031 C 
ATOM     42  C   UNL     1     -12.689   8.356  -7.166  1.00  0.00     0.029 A 
ATOM     43  N   UNL     1     -13.586   6.385  -7.649  1.00  0.00    -0.354 N 
ATOM     44  C   UNL     1     -10.335   3.048  -7.757  1.00  0.00     0.074 A 
ATOM     45  C   UNL     1     -11.200   2.748  -6.621  1.00  0.00     0.031 C 
ATOM     46  C   UNL     1     -13.988   8.572  -7.547  1.00  0.00     0.029 A 
ATOM     47  C   UNL     1     -14.684   7.320  -7.857  1.00  0.00     0.049 A 
ATOM     48  H   UNL     1     -13.677   5.430  -7.870  1.00  0.00     0.167 HD
ATOM     49  C   UNL     1     -10.337   2.490  -9.001  1.00  0.00     0.031 A 
ATOM     50  C   UNL     1     -16.002   7.154  -8.317  1.00  0.00     0.031 A 
ATOM     51  C   UNL     1     -11.675   2.209  -9.448  1.00  0.00     0.049 A 
ATOM     52  C   UNL     1     -16.005   5.956  -9.166  1.00  0.00     0.074 A 
ATOM     53  C   UNL     1     -12.773   1.640  -8.834  1.00  0.00     0.029 A 
ATOM     54  N   UNL     1     -12.151   2.966 -10.499  1.00  0.00    -0.354 N 
ATOM     55  N   UNL     1     -15.562   6.002 -10.386  1.00  0.00    -0.248 NA
ATOM     56  C   UNL     1     -16.660   4.707  -8.789  1.00  0.00     0.031 C 
ATOM     57  C   UNL     1     -13.851   2.478  -9.191  1.00  0.00     0.029 A 
ATOM     58  C   UNL     1     -13.478   3.261 -10.276  1.00  0.00     0.049 A 
ATOM     59  H   UNL     1     -11.627   3.249 -11.282  1.00  0.00     0.167 HD
ATOM     60  C   UNL     1     -15.347   4.689 -10.665  1.00  0.00     0.074 A 
ATOM     61  C   UNL     1     -16.290   3.963  -9.835  1.00  0.00     0.031 C 
ATOM     62  C   UNL     1     -14.073   4.360 -10.995  1.00  0.00     0.031 A 
BRANCH  49  63
ATOM     63  C   UNL     1      -9.253   3.004  -9.917  1.00  0.00    -0.014 A 
ATOM     64  C   UNL     1      -8.236   2.138 -10.327  1.00  0.00     0.009 A 
ATOM     65  C   UNL     1      -9.161   4.363 -10.289  1.00  0.00     0.009 A 
ATOM     66  C   UNL     1      -7.127   2.634 -11.023  1.00  0.00     0.001 A 
ATOM     67  C   UNL     1      -8.037   4.864 -10.943  1.00  0.00     0.001 A 
ATOM     68  C   UNL     1      -7.015   3.997 -11.304  1.00  0.00     0.000 A 
ENDBRANCH  49  63
BRANCH  50  69
ATOM     69  C   UNL     1     -17.416   7.820  -8.508  1.00  0.00    -0.014 A 
ATOM     70  C   UNL     1     -18.189   7.538  -9.694  1.00  0.00     0.009 A 
ATOM     71  C   UNL     1     -18.187   8.309  -7.444  1.00  0.00     0.009 A 
ATOM     72  C   UNL     1     -19.599   7.617  -9.772  1.00  0.00     0.001 A 
ATOM     73  C   UNL     1     -19.610   8.428  -7.533  1.00  0.00     0.001 A 
ATOM     74  C   UNL     1     -20.318   8.050  -8.676  1.00  0.00     0.000 A 
ENDBRANCH  50  69
BRANCH  62  75
ATOM     75  C   UNL     1     -13.304   5.345 -11.862  1.00  0.00    -0.014 A 
ATOM     76  C   UNL     1     -13.174   6.729 -11.602  1.00  0.00     0.009 A 
ATOM     77  C   UNL     1     -12.716   4.862 -13.037  1.00  0.00     0.009 A 
ATOM     78  C   UNL     1     -12.536   7.593 -12.499  1.00  0.00     0.001 A 
ATOM     79  C   UNL     1     -12.035   5.716 -13.913  1.00  0.00     0.001 A 
ATOM     80  C   UNL     1     -11.958   7.082 -13.653  1.00  0.00     0.000 A 
ENDBRANCH  62  75
ENDBRANCH  36  37
ENDBRANCH  29  31
ENDBRANCH  28  29
ENDBRANCH  27  28
ENDBRANCH  26  27
ENDBRANCH  25  26
ENDBRANCH  24  25
ENDBRANCH   1  24
TORSDOF 20
