REMARK SMILES CC(C)(C)OC(=O)[C@H]1CC[C@]1([NH3+])C(=O)OCCOCCOCCOC(=O)c1ccc(-c2c3nc(c(-c4ccccc4)c4ccc([nH]4)c(-c4ccccc4)c4nc(c(-c5ccccc5)c5ccc2[nH]5)C=C4)C=C3)cc1
REMARK SMILES IDX 19 1 18 2 17 3 16 4 15 5 13 6 14 7 11 8 8 9 9 10 10 11 6 12
REMARK SMILES IDX 7 13 5 14 2 15 1 16 3 17 4 18 12 19 20 23 21 24 22 25 23 26
REMARK SMILES IDX 24 27 25 28 26 29 27 30 28 31 74 32 29 33 73 34 30 35 31 36
REMARK SMILES IDX 32 37 67 38 33 39 72 40 66 41 68 42 34 43 71 44 65 45 64 46
REMARK SMILES IDX 35 48 57 49 42 50 56 51 43 52 46 53 55 54 69 55 44 56 45 57
REMARK SMILES IDX 54 59 70 60 47 61 36 62 37 63 41 64 38 65 40 66 39 67 58 68
REMARK SMILES IDX 59 69 63 70 60 71 62 72 61 73 48 74 49 75 53 76 50 77 52 78
REMARK SMILES IDX 51 79
REMARK H PARENT 12 20 12 21 12 22 68 47 46 58
REMARK Flexibility Score: inf
ROOT
ATOM      1  C   UNL     1      -2.666   2.955   3.928  1.00  0.00     0.188 C 
ENDROOT
BRANCH   1   2
ATOM      2  O   UNL     1      -3.607   4.022   3.914  1.00  0.00    -0.376 OA
BRANCH   2   3
ATOM      3  C   UNL     1      -3.223   5.258   3.328  1.00  0.00     0.202 C 
BRANCH   3   4
ATOM      4  C   UNL     1      -2.056   6.011   3.978  1.00  0.00     0.261 C 
BRANCH   4   5
ATOM      5  O   UNL     1      -0.840   5.243   4.128  1.00  0.00    -0.459 OA
BRANCH   5   6
ATOM      6  C   UNL     1      -0.262   5.271   5.370  1.00  0.00     0.368 C 
ATOM      7  O   UNL     1      -0.751   5.901   6.312  1.00  0.00    -0.245 OA
BRANCH   6   8
ATOM      8  C   UNL     1       1.099   4.455   5.513  1.00  0.00     0.206 C 
ATOM      9  C   UNL     1       1.575   3.342   4.521  1.00  0.00     0.172 C 
ATOM     10  C   UNL     1       0.855   2.326   5.468  1.00  0.00     0.030 C 
ATOM     11  C   UNL     1       1.050   3.343   6.607  1.00  0.00     0.083 C 
BRANCH   9  12
ATOM     12  C   UNL     1       3.080   3.018   4.304  1.00  0.00     0.316 C 
ATOM     13  O   UNL     1       3.683   2.109   4.873  1.00  0.00    -0.252 OA
BRANCH  12  14
ATOM     14  O   UNL     1       3.647   3.818   3.357  1.00  0.00    -0.460 OA
BRANCH  14  15
ATOM     15  C   UNL     1       5.030   3.625   2.950  1.00  0.00     0.104 C 
ATOM     16  C   UNL     1       5.345   4.835   2.059  1.00  0.00     0.056 C 
ATOM     17  C   UNL     1       5.162   2.345   2.118  1.00  0.00     0.056 C 
ATOM     18  C   UNL     1       6.004   3.636   4.136  1.00  0.00     0.056 C 
ENDBRANCH  14  15
ENDBRANCH  12  14
ENDBRANCH   9  12
BRANCH   8  19
ATOM     19  N   UNL     1       2.231   5.355   5.829  1.00  0.00    -0.343 N 
ATOM     20  H   UNL     1       3.087   4.808   5.914  1.00  0.00     0.345 HD
ATOM     21  H   UNL     1       2.046   5.838   6.708  1.00  0.00     0.345 HD
ATOM     22  H   UNL     1       2.339   6.041   5.081  1.00  0.00     0.345 HD
ENDBRANCH   8  19
ENDBRANCH   6   8
ENDBRANCH   5   6
ENDBRANCH   4   5
ENDBRANCH   3   4
ENDBRANCH   2   3
ENDBRANCH   1   2
BRANCH   1  23
ATOM     23  C   UNL     1      -1.698   2.791   2.743  1.00  0.00     0.188 C 
BRANCH  23  24
ATOM     24  O   UNL     1      -2.193   3.326   1.529  1.00  0.00    -0.376 OA
BRANCH  24  25
ATOM     25  C   UNL     1      -2.242   2.427   0.436  1.00  0.00     0.202 C 
BRANCH  25  26
ATOM     26  C   UNL     1      -3.464   1.508   0.517  1.00  0.00     0.261 C 
BRANCH  26  27
ATOM     27  O   UNL     1      -3.523   0.699   1.710  1.00  0.00    -0.460 OA
BRANCH  27  28
ATOM     28  C   UNL     1      -2.607  -0.286   1.814  1.00  0.00     0.338 C 
ATOM     29  O   UNL     1      -1.749  -0.580   0.991  1.00  0.00    -0.246 OA
BRANCH  28  30
ATOM     30  C   UNL     1      -2.667  -0.849   3.178  1.00  0.00     0.060 A 
ATOM     31  C   UNL     1      -1.514  -0.816   3.973  1.00  0.00     0.016 A 
ATOM     32  C   UNL     1      -3.838  -1.440   3.660  1.00  0.00     0.016 A 
ATOM     33  C   UNL     1      -1.517  -1.410   5.238  1.00  0.00     0.010 A 
ATOM     34  C   UNL     1      -3.833  -2.051   4.920  1.00  0.00     0.010 A 
ATOM     35  C   UNL     1      -2.663  -2.071   5.702  1.00  0.00    -0.014 A 
BRANCH  35  36
ATOM     36  C   UNL     1      -2.578  -2.945   6.901  1.00  0.00     0.031 A 
ATOM     37  C   UNL     1      -2.399  -4.428   6.699  1.00  0.00     0.074 A 
ATOM     38  C   UNL     1      -2.613  -2.446   8.150  1.00  0.00     0.049 A 
ATOM     39  N   UNL     1      -2.352  -5.390   7.586  1.00  0.00    -0.248 NA
ATOM     40  C   UNL     1      -2.248  -4.884   5.307  1.00  0.00     0.031 C 
ATOM     41  C   UNL     1      -2.719  -1.031   8.498  1.00  0.00     0.029 A 
ATOM     42  N   UNL     1      -2.565  -3.090   9.365  1.00  0.00    -0.354 N 
ATOM     43  C   UNL     1      -2.168  -6.561   6.861  1.00  0.00     0.074 A 
ATOM     44  C   UNL     1      -2.143  -6.195   5.462  1.00  0.00     0.031 C 
ATOM     45  C   UNL     1      -2.737  -0.913   9.839  1.00  0.00     0.029 A 
ATOM     46  C   UNL     1      -2.681  -2.245  10.442  1.00  0.00     0.049 A 
ATOM     47  H   UNL     1      -2.457  -4.064   9.454  1.00  0.00     0.167 HD
ATOM     48  C   UNL     1      -2.024  -7.829   7.314  1.00  0.00     0.031 A 
ATOM     49  C   UNL     1      -2.761  -2.515  11.761  1.00  0.00     0.031 A 
ATOM     50  C   UNL     1      -2.067  -8.210   8.699  1.00  0.00     0.049 A 
ATOM     51  C   UNL     1      -2.697  -3.946  12.236  1.00  0.00     0.074 A 
ATOM     52  C   UNL     1      -1.959  -9.476   9.250  1.00  0.00     0.029 A 
ATOM     53  N   UNL     1      -2.230  -7.327   9.754  1.00  0.00    -0.354 N 
ATOM     54  N   UNL     1      -2.534  -5.044  11.539  1.00  0.00    -0.248 NA
ATOM     55  C   UNL     1      -2.825  -4.171  13.685  1.00  0.00     0.031 C 
ATOM     56  C   UNL     1      -2.103  -9.363  10.636  1.00  0.00     0.029 A 
ATOM     57  C   UNL     1      -2.242  -8.021  10.951  1.00  0.00     0.049 A 
ATOM     58  H   UNL     1      -2.323  -6.351   9.665  1.00  0.00     0.167 HD
ATOM     59  C   UNL     1      -2.511  -6.082  12.464  1.00  0.00     0.074 A 
ATOM     60  C   UNL     1      -2.660  -5.483  13.773  1.00  0.00     0.031 C 
ATOM     61  C   UNL     1      -2.381  -7.414  12.249  1.00  0.00     0.031 A 
BRANCH  48  62
ATOM     62  C   UNL     1      -1.837  -8.908   6.285  1.00  0.00    -0.014 A 
ATOM     63  C   UNL     1      -0.629  -9.039   5.582  1.00  0.00     0.009 A 
ATOM     64  C   UNL     1      -2.873  -9.822   6.035  1.00  0.00     0.009 A 
ATOM     65  C   UNL     1      -0.473 -10.046   4.627  1.00  0.00     0.001 A 
ATOM     66  C   UNL     1      -2.704 -10.843   5.099  1.00  0.00     0.001 A 
ATOM     67  C   UNL     1      -1.509 -10.949   4.390  1.00  0.00     0.000 A 
ENDBRANCH  48  62
BRANCH  49  68
ATOM     68  C   UNL     1      -2.959  -1.414  12.742  1.00  0.00    -0.014 A 
ATOM     69  C   UNL     1      -1.962  -1.088  13.674  1.00  0.00     0.009 A 
ATOM     70  C   UNL     1      -4.177  -0.717  12.784  1.00  0.00     0.009 A 
ATOM     71  C   UNL     1      -2.193  -0.111  14.647  1.00  0.00     0.001 A 
ATOM     72  C   UNL     1      -4.394   0.281  13.737  1.00  0.00     0.001 A 
ATOM     73  C   UNL     1      -3.406   0.575  14.675  1.00  0.00     0.000 A 
ENDBRANCH  49  68
BRANCH  61  74
ATOM     74  C   UNL     1      -2.348  -8.315  13.453  1.00  0.00    -0.014 A 
ATOM     75  C   UNL     1      -3.504  -8.577  14.203  1.00  0.00     0.009 A 
ATOM     76  C   UNL     1      -1.147  -8.950  13.810  1.00  0.00     0.009 A 
ATOM     77  C   UNL     1      -3.451  -9.433  15.306  1.00  0.00     0.001 A 
ATOM     78  C   UNL     1      -1.104  -9.827  14.895  1.00  0.00     0.001 A 
ATOM     79  C   UNL     1      -2.253 -10.061  15.648  1.00  0.00     0.000 A 
ENDBRANCH  61  74
ENDBRANCH  35  36
ENDBRANCH  28  30
ENDBRANCH  27  28
ENDBRANCH  26  27
ENDBRANCH  25  26
ENDBRANCH  24  25
ENDBRANCH  23  24
ENDBRANCH   1  23
TORSDOF 21
