REMARK SMILES Cc1ccc(/C=C(\NC(=O)c2cccc(C)c2)C(=O)OCCOCCOCCOC(=O)c2ccc(-c3c4nc(c(-c5ccccc5)c5ccc([nH]5)c(-c5ccccc5)c5nc(c(-c6ccccc6)c6ccc3[nH]6)C=C5)C=C4)cc2)cc1
REMARK SMILES IDX 24 1 23 2 22 3 21 4 20 5 18 6 19 7 7 8 6 9 5 10 1 11 2 12
REMARK SMILES IDX 3 13 81 14 4 15 80 16 8 17 9 18 10 20 11 21 12 22 17 23
REMARK SMILES IDX 13 24 15 25 14 26 16 27 25 28 26 29 27 30 28 31 29 32 30 33
REMARK SMILES IDX 31 34 32 35 33 36 79 37 34 38 78 39 35 40 36 41 37 42 72 43
REMARK SMILES IDX 38 44 77 45 71 46 73 47 39 48 76 49 70 50 69 51 40 53 62 54
REMARK SMILES IDX 47 55 61 56 48 57 51 58 60 59 74 60 49 61 50 62 59 64 75 65
REMARK SMILES IDX 52 66 41 67 42 68 46 69 43 70 45 71 44 72 63 73 64 74 68 75
REMARK SMILES IDX 65 76 67 77 66 78 53 79 54 80 58 81 55 82 57 83 56 84
REMARK H PARENT 8 19 73 52 51 63
REMARK Flexibility Score: inf
ROOT
ATOM      1  C   UNL     1      -8.485   1.451   2.884  1.00  0.00     0.188 C 
ENDROOT
BRANCH   1   2
ATOM      2  O   UNL     1      -9.476   0.795   2.111  1.00  0.00    -0.376 OA
BRANCH   2   3
ATOM      3  C   UNL     1      -8.973   0.295   0.870  1.00  0.00     0.202 C 
BRANCH   3   4
ATOM      4  C   UNL     1      -7.649  -0.485   0.940  1.00  0.00     0.261 C 
BRANCH   4   5
ATOM      5  O   UNL     1      -6.265   0.237   0.782  1.00  0.00    -0.459 OA
BRANCH   5   6
ATOM      6  C   UNL     1      -4.897   0.236   0.448  1.00  0.00     0.354 C 
ATOM      7  O   UNL     1      -4.375   1.318   0.779  1.00  0.00    -0.244 OA
BRANCH   6   8
ATOM      8  C   UNL     1      -3.751  -0.914  -0.251  1.00  0.00     0.128 C 
ATOM      9  C   UNL     1      -2.752  -0.073  -0.635  1.00  0.00     0.042 C 
BRANCH   9  10
ATOM     10  C   UNL     1      -1.278  -0.116  -0.588  1.00  0.00    -0.023 A 
ATOM     11  C   UNL     1       2.993   0.175   0.068  1.00  0.00     0.044 C 
ATOM     12  C   UNL     1       1.522   0.095  -0.209  1.00  0.00    -0.051 A 
ATOM     13  C   UNL     1       0.924  -1.129  -0.537  1.00  0.00     0.004 A 
ATOM     14  C   UNL     1       0.719   1.226  -0.102  1.00  0.00     0.004 A 
ATOM     15  C   UNL     1      -0.461  -1.231  -0.742  1.00  0.00     0.008 A 
ATOM     16  C   UNL     1      -0.659   1.118  -0.289  1.00  0.00     0.008 A 
ENDBRANCH   9  10
BRANCH   8  17
ATOM     17  N   UNL     1      -3.403  -2.395   0.066  1.00  0.00    -0.316 N 
ATOM     18  C   UNL     1      -3.862  -3.898   0.149  1.00  0.00     0.255 C 
ATOM     19  H   UNL     1      -2.459  -2.391   0.344  1.00  0.00     0.170 HD
ATOM     20  O   UNL     1      -2.942  -4.578   0.652  1.00  0.00    -0.269 OA
BRANCH  18  21
ATOM     21  C   UNL     1      -5.177  -4.896  -0.339  1.00  0.00     0.040 A 
ATOM     22  C   UNL     1      -5.252  -6.160   0.271  1.00  0.00     0.014 A 
ATOM     23  C   UNL     1      -6.305  -4.741  -1.220  1.00  0.00     0.017 A 
ATOM     24  C   UNL     1      -6.341  -7.074   0.062  1.00  0.00     0.001 A 
ATOM     25  C   UNL     1      -7.411  -5.607  -1.454  1.00  0.00    -0.050 A 
ATOM     26  C   UNL     1      -7.424  -6.794  -0.776  1.00  0.00     0.003 A 
ATOM     27  C   UNL     1      -8.545  -5.158  -2.353  1.00  0.00     0.044 C 
ENDBRANCH  18  21
ENDBRANCH   8  17
ENDBRANCH   6   8
ENDBRANCH   5   6
ENDBRANCH   4   5
ENDBRANCH   3   4
ENDBRANCH   2   3
ENDBRANCH   1   2
BRANCH   1  28
ATOM     28  C   UNL     1      -7.955   0.577   4.035  1.00  0.00     0.188 C 
BRANCH  28  29
ATOM     29  O   UNL     1      -8.096  -0.816   3.805  1.00  0.00    -0.376 OA
BRANCH  29  30
ATOM     30  C   UNL     1      -9.136  -1.502   4.488  1.00  0.00     0.202 C 
BRANCH  30  31
ATOM     31  C   UNL     1      -8.563  -2.107   5.772  1.00  0.00     0.261 C 
BRANCH  31  32
ATOM     32  O   UNL     1      -7.701  -3.207   5.405  1.00  0.00    -0.460 OA
BRANCH  32  33
ATOM     33  C   UNL     1      -6.431  -2.809   5.151  1.00  0.00     0.338 C 
ATOM     34  O   UNL     1      -5.728  -2.184   5.925  1.00  0.00    -0.246 OA
BRANCH  33  35
ATOM     35  C   UNL     1      -6.143  -2.978   3.693  1.00  0.00     0.060 A 
ATOM     36  C   UNL     1      -5.128  -2.200   3.236  1.00  0.00     0.016 A 
ATOM     37  C   UNL     1      -6.967  -3.591   2.731  1.00  0.00     0.016 A 
ATOM     38  C   UNL     1      -5.053  -1.963   1.862  1.00  0.00     0.010 A 
ATOM     39  C   UNL     1      -6.878  -3.299   1.310  1.00  0.00     0.010 A 
ATOM     40  C   UNL     1      -5.903  -2.441   0.742  1.00  0.00    -0.014 A 
BRANCH  40  41
ATOM     41  C   UNL     1      -5.868  -2.001  -1.022  1.00  0.00     0.031 A 
ATOM     42  C   UNL     1      -4.907  -2.620  -2.327  1.00  0.00     0.074 A 
ATOM     43  C   UNL     1      -6.728  -1.149  -1.678  1.00  0.00     0.049 A 
ATOM     44  N   UNL     1      -5.434  -2.768  -3.522  1.00  0.00    -0.248 NA
ATOM     45  C   UNL     1      -3.574  -3.295  -2.397  1.00  0.00     0.031 C 
ATOM     46  C   UNL     1      -7.632  -1.535  -2.765  1.00  0.00     0.029 A 
ATOM     47  N   UNL     1      -7.007   0.209  -1.555  1.00  0.00    -0.354 N 
ATOM     48  C   UNL     1      -4.888  -3.908  -4.095  1.00  0.00     0.074 A 
ATOM     49  C   UNL     1      -3.684  -4.171  -3.395  1.00  0.00     0.031 C 
ATOM     50  C   UNL     1      -8.212  -0.449  -3.289  1.00  0.00     0.029 A 
ATOM     51  C   UNL     1      -7.619   0.718  -2.679  1.00  0.00     0.049 A 
ATOM     52  H   UNL     1      -6.792   0.743  -0.757  1.00  0.00     0.167 HD
ATOM     53  C   UNL     1      -5.619  -4.623  -4.987  1.00  0.00     0.031 A 
ATOM     54  C   UNL     1      -7.336   1.918  -3.246  1.00  0.00     0.031 A 
ATOM     55  C   UNL     1      -6.472  -3.748  -5.770  1.00  0.00     0.049 A 
ATOM     56  C   UNL     1      -7.022   1.740  -4.709  1.00  0.00     0.074 A 
ATOM     57  C   UNL     1      -7.795  -3.688  -6.155  1.00  0.00     0.029 A 
ATOM     58  N   UNL     1      -5.890  -2.563  -6.210  1.00  0.00    -0.354 N 
ATOM     59  N   UNL     1      -6.972   0.563  -5.270  1.00  0.00    -0.248 NA
ATOM     60  C   UNL     1      -6.689   2.803  -5.651  1.00  0.00     0.031 C 
ATOM     61  C   UNL     1      -8.019  -2.397  -6.734  1.00  0.00     0.029 A 
ATOM     62  C   UNL     1      -6.814  -1.716  -6.761  1.00  0.00     0.049 A 
ATOM     63  H   UNL     1      -4.930  -2.358  -6.134  1.00  0.00     0.167 HD
ATOM     64  C   UNL     1      -6.565   0.667  -6.561  1.00  0.00     0.074 A 
ATOM     65  C   UNL     1      -6.421   2.096  -6.767  1.00  0.00     0.031 C 
ATOM     66  C   UNL     1      -6.332  -0.451  -7.306  1.00  0.00     0.031 A 
BRANCH  53  67
ATOM     67  C   UNL     1      -5.668  -6.140  -4.959  1.00  0.00    -0.014 A 
ATOM     68  C   UNL     1      -6.382  -6.853  -5.937  1.00  0.00     0.009 A 
ATOM     69  C   UNL     1      -5.194  -6.908  -3.869  1.00  0.00     0.009 A 
ATOM     70  C   UNL     1      -6.630  -8.234  -5.819  1.00  0.00     0.001 A 
ATOM     71  C   UNL     1      -5.428  -8.287  -3.752  1.00  0.00     0.001 A 
ATOM     72  C   UNL     1      -6.158  -8.951  -4.724  1.00  0.00     0.000 A 
ENDBRANCH  53  67
BRANCH  54  73
ATOM     73  C   UNL     1      -6.852   2.970  -2.308  1.00  0.00    -0.014 A 
ATOM     74  C   UNL     1      -7.793   3.487  -1.388  1.00  0.00     0.009 A 
ATOM     75  C   UNL     1      -5.494   3.212  -2.055  1.00  0.00     0.009 A 
ATOM     76  C   UNL     1      -7.395   4.141  -0.216  1.00  0.00     0.001 A 
ATOM     77  C   UNL     1      -5.098   3.880  -0.882  1.00  0.00     0.001 A 
ATOM     78  C   UNL     1      -6.043   4.317   0.048  1.00  0.00     0.000 A 
ENDBRANCH  54  73
BRANCH  66  79
ATOM     79  C   UNL     1      -5.535  -0.504  -8.582  1.00  0.00    -0.014 A 
ATOM     80  C   UNL     1      -4.633   0.487  -8.986  1.00  0.00     0.009 A 
ATOM     81  C   UNL     1      -5.540  -1.704  -9.331  1.00  0.00     0.009 A 
ATOM     82  C   UNL     1      -3.810   0.306 -10.104  1.00  0.00     0.001 A 
ATOM     83  C   UNL     1      -4.687  -1.907 -10.416  1.00  0.00     0.001 A 
ATOM     84  C   UNL     1      -3.829  -0.893 -10.811  1.00  0.00     0.000 A 
ENDBRANCH  66  79
ENDBRANCH  40  41
ENDBRANCH  33  35
ENDBRANCH  32  33
ENDBRANCH  31  32
ENDBRANCH  30  31
ENDBRANCH  29  30
ENDBRANCH  28  29
ENDBRANCH   1  28
TORSDOF 20
