REMARK SMILES Cc1ccc(-c2cc(Cl)cc3c2O[C@@H](C(F)(F)F)C(C(=O)OCCOCCOCCOC(=O)c2ccc(-c4c5nc(c(-c6ccccc6)c6ccc([nH]6)c(-c6ccccc6)c6nc(c(-c7ccccc7)c7ccc4[nH]7)C=C6)C=C5)cc2)=C3)cc1
REMARK SMILES IDX 27 1 26 2 25 3 24 4 23 5 22 6 20 7 21 8 19 9 6 10 7 11 12 12
REMARK SMILES IDX 8 13 11 14 13 15 9 16 10 17 82 18 14 19 5 20 1 21 2 22 3 23
REMARK SMILES IDX 84 24 4 25 83 26 15 27 16 28 17 29 18 30 28 31 29 32 30 33
REMARK SMILES IDX 31 34 32 35 33 36 34 37 35 38 81 39 36 40 80 41 37 42 38 43
REMARK SMILES IDX 39 44 74 45 40 46 79 47 73 48 75 49 41 50 78 51 72 52 71 53
REMARK SMILES IDX 42 55 64 56 49 57 63 58 50 59 53 60 62 61 76 62 51 63 52 64
REMARK SMILES IDX 61 66 77 67 54 68 43 69 44 70 48 71 45 72 47 73 46 74 65 75
REMARK SMILES IDX 66 76 70 77 67 78 69 79 68 80 55 81 56 82 60 83 57 84 59 85
REMARK SMILES IDX 58 86
REMARK H PARENT 75 54 53 65
REMARK Flexibility Score: inf
ROOT
ATOM      1  C   UNL     1      -0.767  -4.840   1.772  1.00  0.00     0.188 C 
ENDROOT
BRANCH   1   2
ATOM      2  C   UNL     1      -0.574  -3.482   2.386  1.00  0.00     0.188 C 
BRANCH   2   3
ATOM      3  O   UNL     1      -0.521  -3.308   3.812  1.00  0.00    -0.376 OA
BRANCH   3   4
ATOM      4  C   UNL     1      -1.425  -3.749   4.877  1.00  0.00     0.202 C 
BRANCH   4   5
ATOM      5  C   UNL     1      -3.140  -3.412   5.498  1.00  0.00     0.261 C 
BRANCH   5   6
ATOM      6  O   UNL     1      -4.648  -2.470   4.732  1.00  0.00    -0.460 OA
BRANCH   6   7
ATOM      7  C   UNL     1      -5.079  -0.977   4.131  1.00  0.00     0.338 C 
ATOM      8  O   UNL     1      -4.315   0.000   4.128  1.00  0.00    -0.246 OA
BRANCH   7   9
ATOM      9  C   UNL     1      -6.378  -0.461   3.451  1.00  0.00     0.087 C 
ATOM     10  C   UNL     1      -4.844   0.611  -0.456  1.00  0.00     0.026 A 
ATOM     11  C   UNL     1      -5.661   1.311  -1.318  1.00  0.00     0.033 A 
ATOM     12  C   UNL     1      -5.492   0.289   0.905  1.00  0.00     0.135 A 
ATOM     13  C   UNL     1      -6.886   1.778  -0.817  1.00  0.00     0.042 A 
ATOM     14  C   UNL     1      -6.425   1.103   1.519  1.00  0.00     0.019 A 
ATOM     15  O   UNL     1      -6.073  -1.166   1.165  1.00  0.00    -0.475 OA
ATOM     16  Cl  UNL     1      -8.026   2.387  -1.966  1.00  0.00    -0.084 Cl
ATOM     17  C   UNL     1      -7.227   1.765   0.583  1.00  0.00     0.032 A 
ATOM     18  C   UNL     1      -6.559   0.853   3.034  1.00  0.00     0.027 C 
ATOM     19  C   UNL     1      -6.945  -1.304   2.389  1.00  0.00     0.316 C 
BRANCH  10  20
ATOM     20  C   UNL     1      -3.097   0.581  -0.869  1.00  0.00    -0.015 A 
ATOM     21  C   UNL     1       1.976   1.533  -0.529  1.00  0.00     0.044 C 
ATOM     22  C   UNL     1       0.488   1.294  -0.491  1.00  0.00    -0.051 A 
ATOM     23  C   UNL     1       0.055  -0.388  -0.364  1.00  0.00     0.004 A 
ATOM     24  C   UNL     1      -0.713   2.586  -0.799  1.00  0.00     0.004 A 
ATOM     25  C   UNL     1      -1.662  -0.835  -0.551  1.00  0.00     0.009 A 
ATOM     26  C   UNL     1      -2.473   2.287  -0.995  1.00  0.00     0.009 A 
ENDBRANCH  10  20
BRANCH  19  27
ATOM     27  C   UNL     1      -7.397  -2.583   3.136  1.00  0.00     0.430 C 
ATOM     28  F   UNL     1      -7.634  -2.300   4.461  1.00  0.00    -0.167 F 
ATOM     29  F   UNL     1      -8.585  -3.037   2.673  1.00  0.00    -0.167 F 
ATOM     30  F   UNL     1      -6.525  -3.594   3.118  1.00  0.00    -0.167 F 
ENDBRANCH  19  27
ENDBRANCH   7   9
ENDBRANCH   6   7
ENDBRANCH   5   6
ENDBRANCH   4   5
ENDBRANCH   3   4
ENDBRANCH   2   3
ENDBRANCH   1   2
BRANCH   1  31
ATOM     31  O   UNL     1      -1.272  -5.693   2.768  1.00  0.00    -0.376 OA
BRANCH  31  32
ATOM     32  C   UNL     1      -0.946  -7.050   2.591  1.00  0.00     0.202 C 
BRANCH  32  33
ATOM     33  C   UNL     1      -1.621  -7.664   1.359  1.00  0.00     0.261 C 
BRANCH  33  34
ATOM     34  O   UNL     1      -3.058  -7.538   1.443  1.00  0.00    -0.460 OA
BRANCH  34  35
ATOM     35  C   UNL     1      -3.599  -6.583   0.626  1.00  0.00     0.338 C 
ATOM     36  O   UNL     1      -3.534  -6.572  -0.590  1.00  0.00    -0.246 OA
BRANCH  35  37
ATOM     37  C   UNL     1      -3.991  -5.425   1.454  1.00  0.00     0.060 A 
ATOM     38  C   UNL     1      -4.084  -4.121   1.013  1.00  0.00     0.016 A 
ATOM     39  C   UNL     1      -4.116  -5.552   2.786  1.00  0.00     0.016 A 
ATOM     40  C   UNL     1      -3.784  -3.001   1.912  1.00  0.00     0.010 A 
ATOM     41  C   UNL     1      -3.850  -4.398   3.527  1.00  0.00     0.010 A 
ATOM     42  C   UNL     1      -3.287  -3.072   3.163  1.00  0.00    -0.014 A 
BRANCH  42  43
ATOM     43  C   UNL     1      -2.627  -1.640   4.192  1.00  0.00     0.031 A 
ATOM     44  C   UNL     1      -3.271  -1.109   5.878  1.00  0.00     0.074 A 
ATOM     45  C   UNL     1      -1.547  -0.847   3.878  1.00  0.00     0.049 A 
ATOM     46  N   UNL     1      -3.076   0.030   6.472  1.00  0.00    -0.248 NA
ATOM     47  C   UNL     1      -4.417  -1.815   6.802  1.00  0.00     0.031 C 
ATOM     48  C   UNL     1      -0.814   0.082   4.751  1.00  0.00     0.029 A 
ATOM     49  N   UNL     1      -0.850  -0.669   2.669  1.00  0.00    -0.354 N 
ATOM     50  C   UNL     1      -3.767   0.031   7.691  1.00  0.00     0.074 A 
ATOM     51  C   UNL     1      -4.780  -0.933   7.692  1.00  0.00     0.031 C 
ATOM     52  C   UNL     1      -0.082   0.923   3.993  1.00  0.00     0.029 A 
ATOM     53  C   UNL     1      -0.469   0.681   2.612  1.00  0.00     0.049 A 
ATOM     54  H   UNL     1      -0.665  -1.360   1.992  1.00  0.00     0.167 HD
ATOM     55  C   UNL     1      -3.289   0.721   8.743  1.00  0.00     0.031 A 
ATOM     56  C   UNL     1      -1.045   1.561   1.732  1.00  0.00     0.031 A 
ATOM     57  C   UNL     1      -2.448   1.768   8.223  1.00  0.00     0.049 A 
ATOM     58  C   UNL     1      -1.664   2.769   2.527  1.00  0.00     0.074 A 
ATOM     59  C   UNL     1      -1.090   1.970   8.106  1.00  0.00     0.029 A 
ATOM     60  N   UNL     1      -3.034   2.551   7.244  1.00  0.00    -0.354 N 
ATOM     61  N   UNL     1      -1.725   2.848   3.841  1.00  0.00    -0.248 NA
ATOM     62  C   UNL     1      -2.261   3.971   1.938  1.00  0.00     0.031 C 
ATOM     63  C   UNL     1      -0.889   2.922   7.052  1.00  0.00     0.029 A 
ATOM     64  C   UNL     1      -2.123   3.314   6.566  1.00  0.00     0.049 A 
ATOM     65  H   UNL     1      -4.000   2.559   7.056  1.00  0.00     0.167 HD
ATOM     66  C   UNL     1      -2.401   3.972   4.259  1.00  0.00     0.074 A 
ATOM     67  C   UNL     1      -2.721   4.643   3.014  1.00  0.00     0.031 C 
ATOM     68  C   UNL     1      -2.668   4.240   5.581  1.00  0.00     0.031 A 
BRANCH  55  69
ATOM     69  C   UNL     1      -3.426   0.222  10.169  1.00  0.00    -0.014 A 
ATOM     70  C   UNL     1      -2.627   0.831  11.139  1.00  0.00     0.009 A 
ATOM     71  C   UNL     1      -4.160  -0.910  10.616  1.00  0.00     0.009 A 
ATOM     72  C   UNL     1      -2.523   0.320  12.442  1.00  0.00     0.001 A 
ATOM     73  C   UNL     1      -4.077  -1.417  11.920  1.00  0.00     0.001 A 
ATOM     74  C   UNL     1      -3.239  -0.806  12.832  1.00  0.00     0.000 A 
ENDBRANCH  55  69
BRANCH  56  75
ATOM     75  C   UNL     1      -1.643   0.838   0.378  1.00  0.00    -0.014 A 
ATOM     76  C   UNL     1      -1.316   0.668  -1.616  1.00  0.00     0.009 A 
ATOM     77  C   UNL     1      -2.899  -0.309   0.991  1.00  0.00     0.009 A 
ATOM     78  C   UNL     1      -2.195  -0.495  -2.626  1.00  0.00     0.001 A 
ATOM     79  C   UNL     1      -3.679  -1.430  -0.228  1.00  0.00     0.001 A 
ATOM     80  C   UNL     1      -3.332  -1.495  -1.918  1.00  0.00     0.000 A 
ENDBRANCH  56  75
BRANCH  68  81
ATOM     81  C   UNL     1      -3.530   5.376   6.152  1.00  0.00    -0.014 A 
ATOM     82  C   UNL     1      -3.592   6.656   5.602  1.00  0.00     0.009 A 
ATOM     83  C   UNL     1      -4.218   5.217   7.391  1.00  0.00     0.009 A 
ATOM     84  C   UNL     1      -4.310   7.690   6.238  1.00  0.00     0.001 A 
ATOM     85  C   UNL     1      -4.921   6.237   8.034  1.00  0.00     0.001 A 
ATOM     86  C   UNL     1      -4.969   7.484   7.450  1.00  0.00     0.000 A 
ENDBRANCH  68  81
ENDBRANCH  42  43
ENDBRANCH  35  37
ENDBRANCH  34  35
ENDBRANCH  33  34
ENDBRANCH  32  33
ENDBRANCH  31  32
ENDBRANCH   1  31
TORSDOF 19
