REMARK SMILES CSc1nc2nnc(C(=O)OCCOCCOCCOC(=O)c3ccc(-c4c5nc(c(-c6ccccc6)c6ccc([nH]6)c(-c6ccccc6)c6nc(c(-c7ccccc7)c7ccc4[nH]7)C=C6)C=C5)cc3)c(O)n2n1
REMARK SMILES IDX 16 1 15 2 14 3 13 4 12 5 11 6 9 7 10 8 8 9 3 10 4 11 74 12
REMARK SMILES IDX 5 13 73 14 6 15 71 16 7 17 2 18 1 19 72 20 17 22 18 23 19 24
REMARK SMILES IDX 20 25 21 26 22 27 23 28 24 29 70 30 25 31 69 32 26 33 27 34
REMARK SMILES IDX 28 35 63 36 29 37 68 38 62 39 64 40 30 41 67 42 61 43 60 44
REMARK SMILES IDX 31 46 53 47 38 48 52 49 39 50 42 51 51 52 65 53 40 54 41 55
REMARK SMILES IDX 50 57 66 58 43 59 32 60 33 61 37 62 34 63 36 64 35 65 54 66
REMARK SMILES IDX 55 67 59 68 56 69 58 70 57 71 44 72 45 73 49 74 46 75 48 76
REMARK SMILES IDX 47 77
REMARK H PARENT 72 21 64 45 42 56
REMARK Flexibility Score: inf
ROOT
ATOM      1  C   UNL     1       1.053   0.537   8.561  1.00  0.00     0.188 C 
ENDROOT
BRANCH   1   2
ATOM      2  C   UNL     1       1.891  -0.746   8.421  1.00  0.00     0.188 C 
BRANCH   2   3
ATOM      3  O   UNL     1       2.529  -1.183   9.597  1.00  0.00    -0.376 OA
BRANCH   3   4
ATOM      4  C   UNL     1       3.799  -0.679   9.971  1.00  0.00     0.202 C 
BRANCH   4   5
ATOM      5  C   UNL     1       4.464   0.617   9.449  1.00  0.00     0.261 C 
BRANCH   5   6
ATOM      6  O   UNL     1       3.867   1.315   8.354  1.00  0.00    -0.458 OA
BRANCH   6   7
ATOM      7  C   UNL     1       4.309   0.988   7.120  1.00  0.00     0.364 C 
ATOM      8  O   UNL     1       5.134   0.121   6.861  1.00  0.00    -0.244 OA
BRANCH   7   9
ATOM      9  C   UNL     1       3.470   1.632   6.077  1.00  0.00     0.232 A 
ATOM     10  C   UNL     1       1.125   2.008   2.446  1.00  0.00     0.210 A 
ATOM     11  N   UNL     1       1.185   3.150   3.193  1.00  0.00    -0.182 NA
ATOM     12  N   UNL     1       1.710   0.942   2.986  1.00  0.00    -0.134 NA
ATOM     13  C   UNL     1       1.885   2.787   4.248  1.00  0.00     0.275 A 
ATOM     14  N   UNL     1       2.243   1.452   4.116  1.00  0.00    -0.159 N 
ATOM     15  N   UNL     1       2.306   3.489   5.345  1.00  0.00    -0.108 NA
ATOM     16  C   UNL     1       3.069   0.845   5.057  1.00  0.00     0.251 A 
ATOM     17  N   UNL     1       3.053   2.945   6.213  1.00  0.00    -0.134 NA
BRANCH  10  18
ATOM     18  S   UNL     1       0.378   1.947   0.872  1.00  0.00    -0.088 SA
ATOM     19  C   UNL     1       0.964   0.339   0.283  1.00  0.00     0.094 C 
ENDBRANCH  10  18
BRANCH  16  20
ATOM     20  O   UNL     1       3.403  -0.493   4.892  1.00  0.00    -0.491 OA
ATOM     21  H   UNL     1       3.958  -0.918   5.516  1.00  0.00     0.295 HD
ENDBRANCH  16  20
ENDBRANCH   7   9
ENDBRANCH   6   7
ENDBRANCH   5   6
ENDBRANCH   4   5
ENDBRANCH   3   4
ENDBRANCH   2   3
ENDBRANCH   1   2
BRANCH   1  22
ATOM     22  O   UNL     1       1.230   1.392   9.675  1.00  0.00    -0.376 OA
BRANCH  22  23
ATOM     23  C   UNL     1       1.050   0.970  11.018  1.00  0.00     0.202 C 
BRANCH  23  24
ATOM     24  C   UNL     1       0.082  -0.120  11.474  1.00  0.00     0.261 C 
BRANCH  24  25
ATOM     25  O   UNL     1      -0.123  -1.188  10.573  1.00  0.00    -0.460 OA
BRANCH  25  26
ATOM     26  C   UNL     1      -1.240  -1.063   9.847  1.00  0.00     0.338 C 
ATOM     27  O   UNL     1      -1.940  -0.047   9.725  1.00  0.00    -0.246 OA
BRANCH  26  28
ATOM     28  C   UNL     1      -1.615  -2.354   9.290  1.00  0.00     0.060 A 
ATOM     29  C   UNL     1      -2.679  -2.347   8.389  1.00  0.00     0.016 A 
ATOM     30  C   UNL     1      -1.156  -3.533   9.900  1.00  0.00     0.016 A 
ATOM     31  C   UNL     1      -3.445  -3.480   8.298  1.00  0.00     0.010 A 
ATOM     32  C   UNL     1      -1.926  -4.669   9.805  1.00  0.00     0.010 A 
ATOM     33  C   UNL     1      -3.112  -4.593   9.086  1.00  0.00    -0.014 A 
BRANCH  33  34
ATOM     34  C   UNL     1      -4.037  -5.702   9.056  1.00  0.00     0.031 A 
ATOM     35  C   UNL     1      -4.062  -6.365   7.745  1.00  0.00     0.074 A 
ATOM     36  C   UNL     1      -4.812  -6.069  10.092  1.00  0.00     0.049 A 
ATOM     37  N   UNL     1      -4.965  -6.227   6.837  1.00  0.00    -0.248 NA
ATOM     38  C   UNL     1      -2.866  -7.105   7.320  1.00  0.00     0.031 C 
ATOM     39  C   UNL     1      -4.694  -5.657  11.492  1.00  0.00     0.029 A 
ATOM     40  N   UNL     1      -5.833  -6.973  10.116  1.00  0.00    -0.354 N 
ATOM     41  C   UNL     1      -4.570  -7.066   5.808  1.00  0.00     0.074 A 
ATOM     42  C   UNL     1      -3.195  -7.413   6.065  1.00  0.00     0.031 C 
ATOM     43  C   UNL     1      -5.442  -6.483  12.261  1.00  0.00     0.029 A 
ATOM     44  C   UNL     1      -6.213  -7.358  11.393  1.00  0.00     0.049 A 
ATOM     45  H   UNL     1      -6.261  -7.320   9.301  1.00  0.00     0.167 HD
ATOM     46  C   UNL     1      -5.511  -7.681   5.045  1.00  0.00     0.031 A 
ATOM     47  C   UNL     1      -7.072  -8.356  11.702  1.00  0.00     0.031 A 
ATOM     48  C   UNL     1      -6.808  -7.071   5.199  1.00  0.00     0.049 A 
ATOM     49  C   UNL     1      -7.972  -8.560  10.547  1.00  0.00     0.074 A 
ATOM     50  C   UNL     1      -7.471  -5.958   4.735  1.00  0.00     0.029 A 
ATOM     51  N   UNL     1      -7.496  -7.527   6.292  1.00  0.00    -0.354 N 
ATOM     52  N   UNL     1      -8.853  -7.680  10.166  1.00  0.00    -0.248 NA
ATOM     53  C   UNL     1      -7.701  -9.631   9.594  1.00  0.00     0.031 C 
ATOM     54  C   UNL     1      -8.527  -5.699   5.662  1.00  0.00     0.029 A 
ATOM     55  C   UNL     1      -8.500  -6.673   6.657  1.00  0.00     0.049 A 
ATOM     56  H   UNL     1      -7.292  -8.369   6.759  1.00  0.00     0.167 HD
ATOM     57  C   UNL     1      -8.911  -7.835   8.796  1.00  0.00     0.074 A 
ATOM     58  C   UNL     1      -8.342  -9.149   8.527  1.00  0.00     0.031 C 
ATOM     59  C   UNL     1      -9.090  -6.763   7.975  1.00  0.00     0.031 A 
BRANCH  46  60
ATOM     60  C   UNL     1      -5.394  -9.133   4.646  1.00  0.00    -0.014 A 
ATOM     61  C   UNL     1      -6.404  -9.686   3.842  1.00  0.00     0.009 A 
ATOM     62  C   UNL     1      -4.516 -10.041   5.274  1.00  0.00     0.009 A 
ATOM     63  C   UNL     1      -6.553 -11.072   3.712  1.00  0.00     0.001 A 
ATOM     64  C   UNL     1      -4.640 -11.423   5.118  1.00  0.00     0.001 A 
ATOM     65  C   UNL     1      -5.674 -11.939   4.353  1.00  0.00     0.000 A 
ENDBRANCH  46  60
BRANCH  47  66
ATOM     66  C   UNL     1      -7.001  -9.337  12.805  1.00  0.00    -0.014 A 
ATOM     67  C   UNL     1      -8.107 -10.154  13.092  1.00  0.00     0.009 A 
ATOM     68  C   UNL     1      -5.758  -9.696  13.354  1.00  0.00     0.009 A 
ATOM     69  C   UNL     1      -7.959 -11.332  13.834  1.00  0.00     0.001 A 
ATOM     70  C   UNL     1      -5.611 -10.870  14.101  1.00  0.00     0.001 A 
ATOM     71  C   UNL     1      -6.707 -11.699  14.320  1.00  0.00     0.000 A 
ENDBRANCH  47  66
BRANCH  59  72
ATOM     72  C   UNL     1      -9.773  -5.555   8.538  1.00  0.00    -0.014 A 
ATOM     73  C   UNL     1      -9.225  -4.746   9.546  1.00  0.00     0.009 A 
ATOM     74  C   UNL     1     -11.002  -5.184   7.972  1.00  0.00     0.009 A 
ATOM     75  C   UNL     1      -9.902  -3.601   9.981  1.00  0.00     0.001 A 
ATOM     76  C   UNL     1     -11.667  -4.033   8.393  1.00  0.00     0.001 A 
ATOM     77  C   UNL     1     -11.119  -3.243   9.400  1.00  0.00     0.000 A 
ENDBRANCH  59  72
ENDBRANCH  33  34
ENDBRANCH  26  28
ENDBRANCH  25  26
ENDBRANCH  24  25
ENDBRANCH  23  24
ENDBRANCH  22  23
ENDBRANCH   1  22
TORSDOF 19
