REMARK SMILES COc1ccc(C2=NN(C(=O)CCC(=O)OCCOCCOCCOC(=O)c3ccc(-c4c5nc(c(-c6ccccc6)c6ccc([nH]6)c(-c6ccccc6)c6nc(c(-c7ccccc7)c7ccc4[nH]7)C=C6)C=C5)cc3)[C@H](c3ccc(Cl)cc3Cl)C2)cc1
REMARK SMILES IDX 19 1 18 2 17 3 16 4 14 5 15 6 13 7 12 8 10 9 11 10 9 11 7 12
REMARK SMILES IDX 8 13 85 14 76 15 6 16 3 17 4 18 87 19 5 20 86 21 2 22 1 23
REMARK SMILES IDX 77 24 78 25 83 26 79 27 82 28 84 29 80 30 81 31 20 32 21 33
REMARK SMILES IDX 22 34 23 35 24 36 25 37 26 38 27 39 28 40 29 41 75 42 30 43
REMARK SMILES IDX 74 44 31 45 32 46 33 47 68 48 34 49 73 50 67 51 69 52 35 53
REMARK SMILES IDX 72 54 66 55 65 56 36 58 58 59 43 60 57 61 44 62 47 63 56 64
REMARK SMILES IDX 70 65 45 66 46 67 55 69 71 70 48 71 37 72 38 73 42 74 39 75
REMARK SMILES IDX 41 76 40 77 59 78 60 79 64 80 61 81 63 82 62 83 49 84 50 85
REMARK SMILES IDX 54 86 51 87 53 88 52 89
REMARK H PARENT 69 57 47 68
REMARK Flexibility Score: inf
ROOT
ATOM      1  O   UNL     1       3.580  -7.793  -7.447  1.00  0.00    -0.376 OA
ENDROOT
BRANCH   1   2
ATOM      2  C   UNL     1       4.769  -7.199  -6.829  1.00  0.00     0.202 C 
BRANCH   2   3
ATOM      3  C   UNL     1       5.139  -5.711  -6.823  1.00  0.00     0.261 C 
BRANCH   3   4
ATOM      4  O   UNL     1       4.224  -4.987  -7.600  1.00  0.00    -0.463 OA
BRANCH   4   5
ATOM      5  C   UNL     1       4.579  -4.682  -8.848  1.00  0.00     0.306 C 
ATOM      6  O   UNL     1       5.733  -4.728  -9.297  1.00  0.00    -0.252 OA
BRANCH   5   7
ATOM      7  C   UNL     1       3.369  -4.475  -9.692  1.00  0.00     0.132 C 
BRANCH   7   8
ATOM      8  C   UNL     1       2.017  -4.369  -8.980  1.00  0.00     0.114 C 
BRANCH   8   9
ATOM      9  C   UNL     1       1.864  -4.168  -7.442  1.00  0.00     0.243 C 
ATOM     10  O   UNL     1       1.720  -2.941  -7.204  1.00  0.00    -0.273 OA
BRANCH   9  11
ATOM     11  N   UNL     1       1.777  -5.109  -6.352  1.00  0.00    -0.225 N 
ATOM     12  C   UNL     1       1.544  -4.857  -4.155  1.00  0.00     0.071 C 
ATOM     13  N   UNL     1       1.387  -4.300  -5.286  1.00  0.00    -0.174 NA
ATOM     14  C   UNL     1       2.078  -6.244  -4.149  1.00  0.00     0.091 C 
ATOM     15  C   UNL     1       1.897  -6.810  -5.677  1.00  0.00     0.149 C 
BRANCH  12  16
ATOM     16  C   UNL     1       1.313  -4.045  -2.945  1.00  0.00    -0.002 A 
ATOM     17  C   UNL     1       0.843  -2.143  -0.945  1.00  0.00     0.118 A 
ATOM     18  C   UNL     1      -0.216  -2.885  -1.478  1.00  0.00     0.047 A 
ATOM     19  C   UNL     1       2.140  -2.355  -1.413  1.00  0.00     0.047 A 
ATOM     20  C   UNL     1       0.011  -3.817  -2.497  1.00  0.00     0.014 A 
ATOM     21  C   UNL     1       2.376  -3.301  -2.420  1.00  0.00     0.014 A 
BRANCH  17  22
ATOM     22  O   UNL     1       0.522  -1.281   0.069  1.00  0.00    -0.497 OA
ATOM     23  C   UNL     1       1.133   0.004  -0.023  1.00  0.00     0.278 C 
ENDBRANCH  17  22
ENDBRANCH  12  16
BRANCH  15  24
ATOM     24  C   UNL     1       1.032  -8.448  -6.364  1.00  0.00    -0.004 A 
ATOM     25  C   UNL     1       1.683  -9.600  -6.191  1.00  0.00     0.009 A 
ATOM     26  C   UNL     1      -0.443  -8.850  -6.969  1.00  0.00     0.047 A 
ATOM     27  C   UNL     1       0.979 -10.890  -6.224  1.00  0.00     0.021 A 
ATOM     28  C   UNL     1      -0.958 -10.145  -7.209  1.00  0.00     0.041 A 
ATOM     29  Cl  UNL     1      -1.933  -7.814  -7.360  1.00  0.00    -0.084 Cl
ATOM     30  C   UNL     1      -0.277 -11.177  -6.696  1.00  0.00     0.042 A 
ATOM     31  Cl  UNL     1      -0.990 -12.723  -6.489  1.00  0.00    -0.084 Cl
ENDBRANCH  15  24
ENDBRANCH   9  11
ENDBRANCH   8   9
ENDBRANCH   7   8
ENDBRANCH   5   7
ENDBRANCH   4   5
ENDBRANCH   3   4
ENDBRANCH   2   3
ENDBRANCH   1   2
BRANCH   1  32
ATOM     32  C   UNL     1       2.405  -7.231  -8.138  1.00  0.00     0.188 C 
BRANCH  32  33
ATOM     33  C   UNL     1       0.666  -6.724  -7.618  1.00  0.00     0.188 C 
BRANCH  33  34
ATOM     34  O   UNL     1      -0.114  -6.686  -5.955  1.00  0.00    -0.376 OA
BRANCH  34  35
ATOM     35  C   UNL     1      -0.159  -7.829  -4.560  1.00  0.00     0.202 C 
BRANCH  35  36
ATOM     36  C   UNL     1       1.129  -8.864  -3.624  1.00  0.00     0.261 C 
BRANCH  36  37
ATOM     37  O   UNL     1       1.690 -10.354  -3.880  1.00  0.00    -0.460 OA
BRANCH  37  38
ATOM     38  C   UNL     1       3.097 -10.717  -3.989  1.00  0.00     0.338 C 
ATOM     39  O   UNL     1       3.974 -10.004  -3.510  1.00  0.00    -0.246 OA
BRANCH  38  40
ATOM     40  C   UNL     1       3.524 -11.770  -5.179  1.00  0.00     0.060 A 
ATOM     41  C   UNL     1       3.922 -11.214  -6.418  1.00  0.00     0.016 A 
ATOM     42  C   UNL     1       3.268 -13.153  -5.259  1.00  0.00     0.016 A 
ATOM     43  C   UNL     1       3.705 -11.869  -7.664  1.00  0.00     0.010 A 
ATOM     44  C   UNL     1       3.355 -13.885  -6.524  1.00  0.00     0.010 A 
ATOM     45  C   UNL     1       3.571 -13.252  -7.768  1.00  0.00    -0.014 A 
BRANCH  45  46
ATOM     46  C   UNL     1       3.929 -13.945  -9.093  1.00  0.00     0.031 A 
ATOM     47  C   UNL     1       3.143 -15.077  -9.758  1.00  0.00     0.074 A 
ATOM     48  C   UNL     1       5.067 -13.579  -9.745  1.00  0.00     0.049 A 
ATOM     49  N   UNL     1       3.562 -15.974 -10.631  1.00  0.00    -0.248 NA
ATOM     50  C   UNL     1       1.707 -15.181  -9.466  1.00  0.00     0.031 C 
ATOM     51  C   UNL     1       5.909 -12.417  -9.437  1.00  0.00     0.029 A 
ATOM     52  N   UNL     1       5.749 -14.175 -10.795  1.00  0.00    -0.354 N 
ATOM     53  C   UNL     1       2.466 -16.779 -10.950  1.00  0.00     0.074 A 
ATOM     54  C   UNL     1       1.346 -16.231 -10.204  1.00  0.00     0.031 C 
ATOM     55  C   UNL     1       6.980 -12.399 -10.232  1.00  0.00     0.029 A 
ATOM     56  C   UNL     1       6.993 -13.618 -11.014  1.00  0.00     0.049 A 
ATOM     57  H   UNL     1       5.384 -14.918 -11.328  1.00  0.00     0.167 HD
ATOM     58  C   UNL     1       2.401 -17.875 -11.761  1.00  0.00     0.031 A 
ATOM     59  C   UNL     1       8.095 -14.051 -11.655  1.00  0.00     0.031 A 
ATOM     60  C   UNL     1       3.506 -18.421 -12.526  1.00  0.00     0.049 A 
ATOM     61  C   UNL     1       8.092 -15.379 -12.340  1.00  0.00     0.074 A 
ATOM     62  C   UNL     1       3.532 -19.557 -13.327  1.00  0.00     0.029 A 
ATOM     63  N   UNL     1       4.777 -17.875 -12.592  1.00  0.00    -0.354 N 
ATOM     64  N   UNL     1       7.098 -16.210 -12.511  1.00  0.00    -0.248 NA
ATOM     65  C   UNL     1       9.371 -15.837 -12.901  1.00  0.00     0.031 C 
ATOM     66  C   UNL     1       4.835 -19.737 -13.810  1.00  0.00     0.029 A 
ATOM     67  C   UNL     1       5.604 -18.676 -13.370  1.00  0.00     0.049 A 
ATOM     68  H   UNL     1       5.054 -17.040 -12.152  1.00  0.00     0.167 HD
ATOM     69  C   UNL     1       7.626 -17.282 -13.216  1.00  0.00     0.074 A 
ATOM     70  C   UNL     1       9.022 -16.988 -13.458  1.00  0.00     0.031 C 
ATOM     71  C   UNL     1       6.997 -18.410 -13.617  1.00  0.00     0.031 A 
BRANCH  58  72
ATOM     72  C   UNL     1       1.108 -18.660 -11.806  1.00  0.00    -0.014 A 
ATOM     73  C   UNL     1      -0.014 -18.229 -12.529  1.00  0.00     0.009 A 
ATOM     74  C   UNL     1       1.057 -19.923 -11.184  1.00  0.00     0.009 A 
ATOM     75  C   UNL     1      -1.167 -19.023 -12.591  1.00  0.00     0.001 A 
ATOM     76  C   UNL     1      -0.084 -20.724 -11.268  1.00  0.00     0.001 A 
ATOM     77  C   UNL     1      -1.202 -20.268 -11.961  1.00  0.00     0.000 A 
ENDBRANCH  58  72
BRANCH  59  78
ATOM     78  C   UNL     1       9.361 -13.268 -11.552  1.00  0.00    -0.014 A 
ATOM     79  C   UNL     1       9.917 -12.649 -12.678  1.00  0.00     0.009 A 
ATOM     80  C   UNL     1      10.020 -13.144 -10.314  1.00  0.00     0.009 A 
ATOM     81  C   UNL     1      11.115 -11.938 -12.572  1.00  0.00     0.001 A 
ATOM     82  C   UNL     1      11.195 -12.400 -10.204  1.00  0.00     0.001 A 
ATOM     83  C   UNL     1      11.748 -11.806 -11.335  1.00  0.00     0.000 A 
ENDBRANCH  59  78
BRANCH  71  84
ATOM     84  C   UNL     1       7.808 -19.410 -14.392  1.00  0.00    -0.014 A 
ATOM     85  C   UNL     1       8.786 -20.196 -13.761  1.00  0.00     0.009 A 
ATOM     86  C   UNL     1       7.586 -19.580 -15.767  1.00  0.00     0.009 A 
ATOM     87  C   UNL     1       9.541 -21.113 -14.497  1.00  0.00     0.001 A 
ATOM     88  C   UNL     1       8.324 -20.516 -16.495  1.00  0.00     0.001 A 
ATOM     89  C   UNL     1       9.305 -21.277 -15.861  1.00  0.00     0.000 A 
ENDBRANCH  71  84
ENDBRANCH  45  46
ENDBRANCH  38  40
ENDBRANCH  37  38
ENDBRANCH  36  37
ENDBRANCH  35  36
ENDBRANCH  34  35
ENDBRANCH  33  34
ENDBRANCH  32  33
ENDBRANCH   1  32
TORSDOF 23
