REMARK SMILES Cc1c(C(=O)OCCOCCOCCOC(=O)c2ccc(-c3c4nc(c(-c5ccccc5)c5ccc([nH]5)c(-c5ccccc5)c5nc(c(-c6ccccc6)c6ccc3[nH]6)C=C5)C=C4)cc2)cccc1-n1c(C)cc(/C=C2/C(=O)NC(=S)N=C2O)c1C
REMARK SMILES IDX 10 1 9 2 8 3 7 4 6 5 4 6 5 7 3 8 1 9 2 10 69 11 66 12 68 13
REMARK SMILES IDX 67 14 70 15 71 16 85 17 72 18 73 19 74 20 86 21 75 22 76 23
REMARK SMILES IDX 77 24 83 25 78 26 79 27 82 28 80 29 81 31 84 32 11 34 12 35
REMARK SMILES IDX 13 36 14 37 15 38 16 39 17 40 18 41 19 42 65 43 20 44 64 45
REMARK SMILES IDX 21 46 22 47 23 48 58 49 24 50 63 51 57 52 59 53 25 54 62 55
REMARK SMILES IDX 56 56 55 57 26 59 48 60 33 61 47 62 34 63 37 64 46 65 60 66
REMARK SMILES IDX 35 67 36 68 45 70 61 71 38 72 27 73 28 74 32 75 29 76 31 77
REMARK SMILES IDX 30 78 49 79 50 80 54 81 51 82 53 83 52 84 39 85 40 86 44 87
REMARK SMILES IDX 41 88 43 89 42 90
REMARK H PARENT 79 30 84 33 59 58 37 69
REMARK Flexibility Score: inf
ROOT
ATOM      1  C   UNL     1       2.705  -5.815   2.289  1.00  0.00     0.188 C 
ENDROOT
BRANCH   1   2
ATOM      2  O   UNL     1       3.592  -5.082   1.416  1.00  0.00    -0.376 OA
BRANCH   2   3
ATOM      3  C   UNL     1       4.451  -4.026   1.849  1.00  0.00     0.202 C 
BRANCH   3   4
ATOM      4  C   UNL     1       4.489  -2.517   1.182  1.00  0.00     0.261 C 
BRANCH   4   5
ATOM      5  O   UNL     1       3.281  -1.322   1.002  1.00  0.00    -0.460 OA
BRANCH   5   6
ATOM      6  C   UNL     1       2.242  -0.915   0.121  1.00  0.00     0.338 C 
ATOM      7  O   UNL     1       2.043  -1.155  -1.068  1.00  0.00    -0.246 OA
BRANCH   6   8
ATOM      8  C   UNL     1       1.140  -0.012   0.460  1.00  0.00     0.065 A 
ATOM      9  C   UNL     1       2.940   1.687   0.613  1.00  0.00     0.047 C 
ATOM     10  C   UNL     1       1.496   1.318   0.398  1.00  0.00    -0.012 A 
ATOM     11  C   UNL     1       0.493   2.213  -0.011  1.00  0.00     0.049 A 
ATOM     12  C   UNL     1      -0.195  -0.399   0.098  1.00  0.00     0.016 A 
ATOM     13  C   UNL     1      -0.829   1.861  -0.317  1.00  0.00     0.027 A 
ATOM     14  C   UNL     1      -1.179   0.528  -0.262  1.00  0.00     0.003 A 
BRANCH  11  15
ATOM     15  N   UNL     1       0.800   3.568   0.021  1.00  0.00    -0.318 N 
ATOM     16  C   UNL     1       1.451   4.261  -0.979  1.00  0.00     0.020 A 
ATOM     17  C   UNL     1       0.877   4.249   1.220  1.00  0.00     0.027 A 
ATOM     18  C   UNL     1       1.733   3.675  -2.324  1.00  0.00     0.065 C 
ATOM     19  C   UNL     1       1.801   5.483  -0.440  1.00  0.00     0.031 A 
ATOM     20  C   UNL     1       1.409   5.488   0.928  1.00  0.00    -0.003 A 
ATOM     21  C   UNL     1       0.467   3.575   2.500  1.00  0.00     0.065 C 
BRANCH  20  22
ATOM     22  C   UNL     1       1.716   6.511   1.864  1.00  0.00     0.029 C 
ATOM     23  C   UNL     1       1.012   6.928   2.932  1.00  0.00     0.102 C 
ATOM     24  C   UNL     1       1.732   7.814   3.872  1.00  0.00     0.262 C 
ATOM     25  C   UNL     1      -0.316   6.518   3.394  1.00  0.00     0.226 C 
ATOM     26  O   UNL     1       2.756   8.427   3.599  1.00  0.00    -0.269 OA
ATOM     27  N   UNL     1       1.183   7.838   5.126  1.00  0.00    -0.297 N 
ATOM     28  N   UNL     1      -0.776   6.626   4.586  1.00  0.00    -0.184 NA
ATOM     29  C   UNL     1       0.024   7.218   5.527  1.00  0.00     0.203 C 
ATOM     30  H   UNL     1       1.668   8.353   5.810  1.00  0.00     0.172 HD
ATOM     31  S   UNL     1      -0.363   7.276   7.156  1.00  0.00    -0.038 S 
BRANCH  25  32
ATOM     32  O   UNL     1      -1.149   6.028   2.472  1.00  0.00    -0.493 OA
ATOM     33  H   UNL     1      -0.861   5.929   1.586  1.00  0.00     0.295 HD
ENDBRANCH  25  32
ENDBRANCH  20  22
ENDBRANCH  11  15
ENDBRANCH   6   8
ENDBRANCH   5   6
ENDBRANCH   4   5
ENDBRANCH   3   4
ENDBRANCH   2   3
ENDBRANCH   1   2
BRANCH   1  34
ATOM     34  C   UNL     1       2.753  -5.685   3.814  1.00  0.00     0.188 C 
BRANCH  34  35
ATOM     35  O   UNL     1       2.887  -4.325   4.178  1.00  0.00    -0.376 OA
BRANCH  35  36
ATOM     36  C   UNL     1       2.996  -4.053   5.563  1.00  0.00     0.202 C 
BRANCH  36  37
ATOM     37  C   UNL     1       1.616  -3.940   6.230  1.00  0.00     0.261 C 
BRANCH  37  38
ATOM     38  O   UNL     1       0.769  -3.022   5.492  1.00  0.00    -0.460 OA
BRANCH  38  39
ATOM     39  C   UNL     1      -0.245  -3.559   4.737  1.00  0.00     0.338 C 
ATOM     40  O   UNL     1      -1.033  -4.405   5.133  1.00  0.00    -0.246 OA
BRANCH  39  41
ATOM     41  C   UNL     1      -0.084  -3.162   3.293  1.00  0.00     0.060 A 
ATOM     42  C   UNL     1      -0.652  -3.817   2.191  1.00  0.00     0.016 A 
ATOM     43  C   UNL     1       1.004  -2.417   3.014  1.00  0.00     0.016 A 
ATOM     44  C   UNL     1       0.012  -3.863   0.884  1.00  0.00     0.010 A 
ATOM     45  C   UNL     1       1.719  -2.834   1.890  1.00  0.00     0.010 A 
ATOM     46  C   UNL     1       1.331  -3.433   0.671  1.00  0.00    -0.014 A 
BRANCH  46  47
ATOM     47  C   UNL     1       2.310  -3.791  -0.659  1.00  0.00     0.031 A 
ATOM     48  C   UNL     1       3.323  -2.895  -1.713  1.00  0.00     0.074 A 
ATOM     49  C   UNL     1       2.151  -5.040  -1.161  1.00  0.00     0.049 A 
ATOM     50  N   UNL     1       3.245  -2.974  -3.035  1.00  0.00    -0.248 NA
ATOM     51  C   UNL     1       4.339  -1.804  -1.436  1.00  0.00     0.031 C 
ATOM     52  C   UNL     1       2.830  -5.652  -2.300  1.00  0.00     0.029 A 
ATOM     53  N   UNL     1       1.150  -5.959  -0.840  1.00  0.00    -0.354 N 
ATOM     54  C   UNL     1       4.118  -2.041  -3.615  1.00  0.00     0.074 A 
ATOM     55  C   UNL     1       4.722  -1.299  -2.588  1.00  0.00     0.031 C 
ATOM     56  C   UNL     1       2.034  -6.611  -2.798  1.00  0.00     0.029 A 
ATOM     57  C   UNL     1       0.802  -6.604  -2.032  1.00  0.00     0.049 A 
ATOM     58  H   UNL     1       0.765  -6.121   0.051  1.00  0.00     0.167 HD
ATOM     59  C   UNL     1       4.420  -1.896  -4.926  1.00  0.00     0.031 A 
ATOM     60  C   UNL     1      -0.470  -6.560  -2.515  1.00  0.00     0.031 A 
ATOM     61  C   UNL     1       3.867  -2.955  -5.695  1.00  0.00     0.049 A 
ATOM     62  C   UNL     1      -0.575  -6.031  -3.931  1.00  0.00     0.074 A 
ATOM     63  C   UNL     1       4.342  -4.200  -6.052  1.00  0.00     0.029 A 
ATOM     64  N   UNL     1       2.500  -2.986  -5.827  1.00  0.00    -0.354 N 
ATOM     65  N   UNL     1       0.413  -5.534  -4.623  1.00  0.00    -0.248 NA
ATOM     66  C   UNL     1      -1.853  -5.927  -4.637  1.00  0.00     0.031 C 
ATOM     67  C   UNL     1       3.223  -4.988  -6.428  1.00  0.00     0.029 A 
ATOM     68  C   UNL     1       2.099  -4.189  -6.354  1.00  0.00     0.049 A 
ATOM     69  H   UNL     1       1.894  -2.251  -5.579  1.00  0.00     0.167 HD
ATOM     70  C   UNL     1      -0.076  -5.002  -5.790  1.00  0.00     0.074 A 
ATOM     71  C   UNL     1      -1.499  -5.269  -5.752  1.00  0.00     0.031 C 
ATOM     72  C   UNL     1       0.704  -4.335  -6.686  1.00  0.00     0.031 A 
BRANCH  59  73
ATOM     73  C   UNL     1       5.503  -0.926  -5.330  1.00  0.00    -0.014 A 
ATOM     74  C   UNL     1       6.698  -1.416  -5.870  1.00  0.00     0.009 A 
ATOM     75  C   UNL     1       5.458   0.450  -4.999  1.00  0.00     0.009 A 
ATOM     76  C   UNL     1       7.836  -0.603  -5.974  1.00  0.00     0.001 A 
ATOM     77  C   UNL     1       6.607   1.255  -5.070  1.00  0.00     0.001 A 
ATOM     78  C   UNL     1       7.801   0.721  -5.542  1.00  0.00     0.000 A 
ENDBRANCH  59  73
BRANCH  60  79
ATOM     79  C   UNL     1      -1.546  -6.458  -1.478  1.00  0.00    -0.014 A 
ATOM     80  C   UNL     1      -1.568  -7.405  -0.428  1.00  0.00     0.009 A 
ATOM     81  C   UNL     1      -2.380  -5.336  -1.362  1.00  0.00     0.009 A 
ATOM     82  C   UNL     1      -2.320  -7.193   0.732  1.00  0.00     0.001 A 
ATOM     83  C   UNL     1      -3.154  -5.137  -0.207  1.00  0.00     0.001 A 
ATOM     84  C   UNL     1      -3.109  -6.054   0.844  1.00  0.00     0.000 A 
ENDBRANCH  60  79
BRANCH  72  85
ATOM     85  C   UNL     1       0.227  -3.696  -7.963  1.00  0.00    -0.014 A 
ATOM     86  C   UNL     1      -0.733  -4.281  -8.791  1.00  0.00     0.009 A 
ATOM     87  C   UNL     1       0.857  -2.523  -8.443  1.00  0.00     0.009 A 
ATOM     88  C   UNL     1      -1.089  -3.689 -10.010  1.00  0.00     0.001 A 
ATOM     89  C   UNL     1       0.524  -1.944  -9.668  1.00  0.00     0.001 A 
ATOM     90  C   UNL     1      -0.462  -2.524 -10.447  1.00  0.00     0.000 A 
ENDBRANCH  72  85
ENDBRANCH  46  47
ENDBRANCH  39  41
ENDBRANCH  38  39
ENDBRANCH  37  38
ENDBRANCH  36  37
ENDBRANCH  35  36
ENDBRANCH  34  35
ENDBRANCH   1  34
TORSDOF 20
