REMARK SMILES O=C(Nc1ccc2c(c1)[C@@H]1C=CC[C@@H]1[C@H](C(=O)OCCOCCOCCOC(=O)c1ccc(-c3c4nc(c(-c5ccccc5)c5ccc([nH]5)c(-c5ccccc5)c5nc(c(-c6ccccc6)c6ccc3[nH]6)C=C5)C=C4)cc1)N2)c1ccccc1
REMARK SMILES IDX 22 1 21 2 20 3 19 4 18 5 16 6 17 7 15 8 4 9 5 10 9 11 6 12
REMARK SMILES IDX 8 13 7 14 10 15 78 16 11 17 14 18 12 20 13 21 3 22 1 23 2 24
REMARK SMILES IDX 79 26 80 27 84 28 81 29 83 30 82 31 23 32 24 33 25 34 26 35
REMARK SMILES IDX 27 36 28 37 29 38 30 39 31 40 77 41 32 42 76 43 33 44 34 45
REMARK SMILES IDX 35 46 70 47 36 48 75 49 69 50 71 51 37 52 74 53 68 54 67 55
REMARK SMILES IDX 38 57 60 58 45 59 59 60 46 61 49 62 58 63 72 64 47 65 48 66
REMARK SMILES IDX 57 68 73 69 50 70 39 71 40 72 44 73 41 74 43 75 42 76 61 77
REMARK SMILES IDX 62 78 66 79 63 80 65 81 64 82 51 83 52 84 56 85 53 86 55 87
REMARK SMILES IDX 54 88
REMARK H PARENT 78 19 3 25 71 56 49 67
REMARK Flexibility Score: inf
ROOT
ATOM      1  C   UNL     1      12.564   0.929   2.053  1.00  0.00     0.188 C 
ENDROOT
BRANCH   1   2
ATOM      2  O   UNL     1      13.654   0.093   1.677  1.00  0.00    -0.376 OA
BRANCH   2   3
ATOM      3  C   UNL     1      13.825  -0.161   0.283  1.00  0.00     0.202 C 
BRANCH   3   4
ATOM      4  C   UNL     1      12.695  -0.926  -0.422  1.00  0.00     0.261 C 
BRANCH   4   5
ATOM      5  O   UNL     1      11.377  -0.392  -0.177  1.00  0.00    -0.462 OA
BRANCH   5   6
ATOM      6  C   UNL     1      10.547  -1.212   0.514  1.00  0.00     0.328 C 
ATOM      7  O   UNL     1      10.832  -2.363   0.850  1.00  0.00    -0.250 OA
BRANCH   6   8
ATOM      8  C   UNL     1       9.208  -0.582   0.949  1.00  0.00     0.194 C 
ATOM      9  C   UNL     1       4.090  -1.004   0.855  1.00  0.00     0.041 A 
ATOM     10  C   UNL     1       4.611  -2.286   0.983  1.00  0.00     0.028 A 
ATOM     11  C   UNL     1       4.955   0.098   0.880  1.00  0.00     0.032 A 
ATOM     12  C   UNL     1       5.989  -2.467   0.983  1.00  0.00     0.028 A 
ATOM     13  C   UNL     1       6.350  -0.077   0.863  1.00  0.00    -0.015 A 
ATOM     14  C   UNL     1       6.862  -1.377   0.902  1.00  0.00     0.039 A 
ATOM     15  C   UNL     1       7.295   1.110   0.804  1.00  0.00     0.050 C 
ATOM     16  N   UNL     1       8.205  -1.624   0.785  1.00  0.00    -0.372 N 
ATOM     17  C   UNL     1       6.935   2.106  -0.269  1.00  0.00    -0.023 C 
ATOM     18  C   UNL     1       8.752   0.759   0.382  1.00  0.00     0.038 C 
ATOM     19  H   UNL     1       8.502  -2.541   0.582  1.00  0.00     0.161 HD
ATOM     20  C   UNL     1       7.742   2.013  -1.332  1.00  0.00    -0.030 C 
ATOM     21  C   UNL     1       8.781   0.951  -1.139  1.00  0.00     0.034 C 
BRANCH   9  22
ATOM     22  N   UNL     1       2.705  -0.897   0.654  1.00  0.00    -0.322 N 
ATOM     23  O   UNL     1       0.761   0.087   0.053  1.00  0.00    -0.269 OA
ATOM     24  C   UNL     1       1.986   0.045  -0.048  1.00  0.00     0.255 C 
ATOM     25  H   UNL     1       2.166  -1.603   1.079  1.00  0.00     0.170 HD
BRANCH  24  26
ATOM     26  C   UNL     1       2.657   0.958  -1.006  1.00  0.00     0.040 A 
ATOM     27  C   UNL     1       3.624   0.494  -1.910  1.00  0.00     0.014 A 
ATOM     28  C   UNL     1       2.294   2.308  -1.005  1.00  0.00     0.014 A 
ATOM     29  C   UNL     1       4.282   1.394  -2.748  1.00  0.00     0.001 A 
ATOM     30  C   UNL     1       2.946   3.202  -1.854  1.00  0.00     0.001 A 
ATOM     31  C   UNL     1       3.949   2.748  -2.712  1.00  0.00     0.000 A 
ENDBRANCH  24  26
ENDBRANCH   9  22
ENDBRANCH   6   8
ENDBRANCH   5   6
ENDBRANCH   4   5
ENDBRANCH   3   4
ENDBRANCH   2   3
ENDBRANCH   1   2
BRANCH   1  32
ATOM     32  C   UNL     1      12.464   2.284   1.352  1.00  0.00     0.188 C 
BRANCH  32  33
ATOM     33  O   UNL     1      12.532   2.252  -0.067  1.00  0.00    -0.376 OA
BRANCH  33  34
ATOM     34  C   UNL     1      12.507   3.517  -0.736  1.00  0.00     0.202 C 
BRANCH  34  35
ATOM     35  C   UNL     1      13.479   4.603  -0.223  1.00  0.00     0.261 C 
BRANCH  35  36
ATOM     36  O   UNL     1      13.305   5.004   1.156  1.00  0.00    -0.460 OA
BRANCH  36  37
ATOM     37  C   UNL     1      12.063   5.349   1.565  1.00  0.00     0.338 C 
ATOM     38  O   UNL     1      11.110   5.606   0.849  1.00  0.00    -0.246 OA
BRANCH  37  39
ATOM     39  C   UNL     1      11.956   5.098   3.031  1.00  0.00     0.060 A 
ATOM     40  C   UNL     1      10.751   4.573   3.524  1.00  0.00     0.016 A 
ATOM     41  C   UNL     1      13.030   5.295   3.905  1.00  0.00     0.016 A 
ATOM     42  C   UNL     1      10.600   4.298   4.887  1.00  0.00     0.010 A 
ATOM     43  C   UNL     1      12.875   5.030   5.273  1.00  0.00     0.010 A 
ATOM     44  C   UNL     1      11.646   4.568   5.779  1.00  0.00    -0.014 A 
BRANCH  44  45
ATOM     45  C   UNL     1      11.382   4.585   7.243  1.00  0.00     0.031 A 
ATOM     46  C   UNL     1      11.100   5.913   7.899  1.00  0.00     0.074 A 
ATOM     47  C   UNL     1      11.348   3.462   7.985  1.00  0.00     0.049 A 
ATOM     48  N   UNL     1      10.853   6.188   9.154  1.00  0.00    -0.248 NA
ATOM     49  C   UNL     1      11.096   7.089   7.013  1.00  0.00     0.031 C 
ATOM     50  C   UNL     1      11.549   2.104   7.487  1.00  0.00     0.029 A 
ATOM     51  N   UNL     1      11.128   3.297   9.333  1.00  0.00    -0.354 N 
ATOM     52  C   UNL     1      10.673   7.564   9.209  1.00  0.00     0.074 A 
ATOM     53  C   UNL     1      10.871   8.072   7.869  1.00  0.00     0.031 C 
ATOM     54  C   UNL     1      11.446   1.243   8.516  1.00  0.00     0.029 A 
ATOM     55  C   UNL     1      11.205   1.990   9.751  1.00  0.00     0.049 A 
ATOM     56  H   UNL     1      10.934   4.046   9.942  1.00  0.00     0.167 HD
ATOM     57  C   UNL     1      10.362   8.343  10.273  1.00  0.00     0.031 A 
ATOM     58  C   UNL     1      11.108   1.459  10.987  1.00  0.00     0.031 A 
ATOM     59  C   UNL     1      10.178   7.856  11.613  1.00  0.00     0.049 A 
ATOM     60  C   UNL     1      10.853   2.357  12.173  1.00  0.00     0.074 A 
ATOM     61  C   UNL     1       9.850   8.573  12.751  1.00  0.00     0.029 A 
ATOM     62  N   UNL     1      10.315   6.533  11.999  1.00  0.00    -0.354 N 
ATOM     63  N   UNL     1      10.658   3.653  12.206  1.00  0.00    -0.248 NA
ATOM     64  C   UNL     1      10.796   1.711  13.494  1.00  0.00     0.031 C 
ATOM     65  C   UNL     1       9.852   7.692  13.838  1.00  0.00     0.029 A 
ATOM     66  C   UNL     1      10.110   6.417  13.364  1.00  0.00     0.049 A 
ATOM     67  H   UNL     1      10.527   5.786  11.393  1.00  0.00     0.167 HD
ATOM     68  C   UNL     1      10.421   3.970  13.540  1.00  0.00     0.074 A 
ATOM     69  C   UNL     1      10.483   2.729  14.283  1.00  0.00     0.031 C 
ATOM     70  C   UNL     1      10.172   5.180  14.098  1.00  0.00     0.031 A 
BRANCH  57  71
ATOM     71  C   UNL     1      10.241   9.822  10.030  1.00  0.00    -0.014 A 
ATOM     72  C   UNL     1       9.166  10.360   9.304  1.00  0.00     0.009 A 
ATOM     73  C   UNL     1      11.207  10.692  10.560  1.00  0.00     0.009 A 
ATOM     74  C   UNL     1       9.082  11.736   9.083  1.00  0.00     0.001 A 
ATOM     75  C   UNL     1      11.102  12.070  10.364  1.00  0.00     0.001 A 
ATOM     76  C   UNL     1      10.046  12.589   9.618  1.00  0.00     0.000 A 
ENDBRANCH  57  71
BRANCH  58  77
ATOM     77  C   UNL     1      11.277  -0.006  11.190  1.00  0.00    -0.014 A 
ATOM     78  C   UNL     1      10.200  -0.804  11.609  1.00  0.00     0.009 A 
ATOM     79  C   UNL     1      12.533  -0.608  11.011  1.00  0.00     0.009 A 
ATOM     80  C   UNL     1      10.385  -2.164  11.871  1.00  0.00     0.001 A 
ATOM     81  C   UNL     1      12.707  -1.974  11.242  1.00  0.00     0.001 A 
ATOM     82  C   UNL     1      11.636  -2.749  11.682  1.00  0.00     0.000 A 
ENDBRANCH  58  77
BRANCH  70  83
ATOM     83  C   UNL     1       9.899   5.224  15.579  1.00  0.00    -0.014 A 
ATOM     84  C   UNL     1      10.913   4.994  16.522  1.00  0.00     0.009 A 
ATOM     85  C   UNL     1       8.610   5.545  16.036  1.00  0.00     0.009 A 
ATOM     86  C   UNL     1      10.632   5.047  17.890  1.00  0.00     0.001 A 
ATOM     87  C   UNL     1       8.340   5.630  17.403  1.00  0.00     0.001 A 
ATOM     88  C   UNL     1       9.349   5.370  18.329  1.00  0.00     0.000 A 
ENDBRANCH  70  83
ENDBRANCH  44  45
ENDBRANCH  37  39
ENDBRANCH  36  37
ENDBRANCH  35  36
ENDBRANCH  34  35
ENDBRANCH  33  34
ENDBRANCH  32  33
ENDBRANCH   1  32
TORSDOF 19
