REMARK SMILES Cc1cc(C)n(-c2nc(C)c(C)c(Oc3cccc(C(=O)OCCOCCOCCOC(=O)c4ccc(-c5c6nc(c(-c7ccccc7)c7ccc([nH]7)c(-c7ccccc7)c7nc(c(-c8ccccc8)c8ccc5[nH]8)C=C7)C=C6)cc4)c3)n2)n1
REMARK SMILES IDX 26 1 25 2 24 3 23 4 22 5 20 6 21 7 19 8 15 9 16 10 82 11
REMARK SMILES IDX 17 12 18 13 14 14 13 15 7 16 8 17 83 18 9 19 10 20 11 21
REMARK SMILES IDX 12 22 6 23 1 24 2 25 3 26 84 27 4 28 5 29 27 30 28 31 29 32
REMARK SMILES IDX 30 33 31 34 32 35 33 36 34 37 35 38 81 39 36 40 80 41 37 42
REMARK SMILES IDX 38 43 39 44 74 45 40 46 79 47 73 48 75 49 41 50 78 51 72 52
REMARK SMILES IDX 71 53 42 55 64 56 49 57 63 58 50 59 53 60 62 61 76 62 51 63
REMARK SMILES IDX 52 64 61 66 77 67 54 68 43 69 44 70 48 71 45 72 47 73 46 74
REMARK SMILES IDX 65 75 66 76 70 77 67 78 69 79 68 80 55 81 56 82 60 83 57 84
REMARK SMILES IDX 59 85 58 86
REMARK H PARENT 75 54 53 65
REMARK Flexibility Score: inf
ROOT
ATOM      1  C   UNL     1       6.095   0.920  -7.448  1.00  0.00     0.188 C 
ENDROOT
BRANCH   1   2
ATOM      2  O   UNL     1       7.149   0.100  -7.005  1.00  0.00    -0.376 OA
BRANCH   2   3
ATOM      3  C   UNL     1       7.027  -0.613  -5.784  1.00  0.00     0.202 C 
BRANCH   3   4
ATOM      4  C   UNL     1       5.699  -0.944  -5.061  1.00  0.00     0.261 C 
BRANCH   4   5
ATOM      5  O   UNL     1       4.481  -0.424  -5.601  1.00  0.00    -0.460 OA
BRANCH   5   6
ATOM      6  C   UNL     1       3.995   0.701  -5.017  1.00  0.00     0.338 C 
ATOM      7  O   UNL     1       4.502   1.308  -4.089  1.00  0.00    -0.246 OA
BRANCH   6   8
ATOM      8  C   UNL     1       2.885   1.235  -5.843  1.00  0.00     0.063 A 
ATOM      9  C   UNL     1       0.813   0.982  -7.056  1.00  0.00     0.130 A 
ATOM     10  C   UNL     1       0.847   2.332  -7.408  1.00  0.00     0.047 A 
ATOM     11  C   UNL     1       1.877   0.411  -6.346  1.00  0.00     0.062 A 
ATOM     12  C   UNL     1       1.892   3.142  -6.965  1.00  0.00     0.005 A 
ATOM     13  C   UNL     1       2.891   2.602  -6.153  1.00  0.00     0.016 A 
BRANCH   9  14
ATOM     14  O   UNL     1      -0.302   0.274  -7.454  1.00  0.00    -0.439 OA
BRANCH  14  15
ATOM     15  C   UNL     1      -0.930  -0.528  -6.501  1.00  0.00     0.227 A 
ATOM     16  C   UNL     1      -0.917  -1.436  -4.404  1.00  0.00     0.254 A 
ATOM     17  N   UNL     1      -1.855  -2.346  -4.736  1.00  0.00    -0.216 NA
ATOM     18  N   UNL     1      -0.486  -0.482  -5.234  1.00  0.00    -0.175 NA
ATOM     19  C   UNL     1      -2.423  -2.240  -5.960  1.00  0.00     0.050 A 
ATOM     20  C   UNL     1      -3.622  -3.121  -6.163  1.00  0.00     0.067 C 
ATOM     21  C   UNL     1      -1.954  -1.358  -6.926  1.00  0.00     0.033 A 
ATOM     22  C   UNL     1      -2.525  -1.290  -8.307  1.00  0.00     0.052 C 
BRANCH  16  23
ATOM     23  N   UNL     1      -0.280  -1.535  -3.121  1.00  0.00    -0.203 N 
ATOM     24  C   UNL     1       0.925   0.052  -0.171  1.00  0.00     0.069 C 
ATOM     25  C   UNL     1       0.521  -0.885  -1.246  1.00  0.00     0.060 A 
ATOM     26  C   UNL     1       0.513  -2.294  -1.200  1.00  0.00     0.049 A 
ATOM     27  N   UNL     1       0.139  -0.427  -2.441  1.00  0.00    -0.170 NA
ATOM     28  C   UNL     1       0.043  -2.697  -2.431  1.00  0.00     0.045 A 
ATOM     29  C   UNL     1      -0.035  -4.051  -3.033  1.00  0.00     0.067 C 
ENDBRANCH  16  23
ENDBRANCH  14  15
ENDBRANCH   9  14
ENDBRANCH   6   8
ENDBRANCH   5   6
ENDBRANCH   4   5
ENDBRANCH   3   4
ENDBRANCH   2   3
ENDBRANCH   1   2
BRANCH   1  30
ATOM     30  C   UNL     1       5.075   0.240  -8.386  1.00  0.00     0.188 C 
BRANCH  30  31
ATOM     31  O   UNL     1       4.904  -1.169  -8.441  1.00  0.00    -0.376 OA
BRANCH  31  32
ATOM     32  C   UNL     1       5.971  -2.088  -8.617  1.00  0.00     0.202 C 
BRANCH  32  33
ATOM     33  C   UNL     1       7.118  -1.876  -9.603  1.00  0.00     0.261 C 
BRANCH  33  34
ATOM     34  O   UNL     1       7.591  -0.548  -9.658  1.00  0.00    -0.460 OA
BRANCH  34  35
ATOM     35  C   UNL     1       7.039   0.173 -10.652  1.00  0.00     0.338 C 
ATOM     36  O   UNL     1       6.192  -0.181 -11.449  1.00  0.00    -0.246 OA
BRANCH  35  37
ATOM     37  C   UNL     1       7.667   1.496 -10.670  1.00  0.00     0.060 A 
ATOM     38  C   UNL     1       7.070   2.434 -11.512  1.00  0.00     0.016 A 
ATOM     39  C   UNL     1       8.987   1.609 -10.215  1.00  0.00     0.016 A 
ATOM     40  C   UNL     1       7.903   3.283 -12.191  1.00  0.00     0.010 A 
ATOM     41  C   UNL     1       9.819   2.451 -10.899  1.00  0.00     0.010 A 
ATOM     42  C   UNL     1       9.277   3.159 -11.966  1.00  0.00    -0.014 A 
BRANCH  42  43
ATOM     43  C   UNL     1      10.162   3.722 -12.954  1.00  0.00     0.031 A 
ATOM     44  C   UNL     1      10.342   5.175 -12.820  1.00  0.00     0.074 A 
ATOM     45  C   UNL     1      10.791   2.939 -13.850  1.00  0.00     0.049 A 
ATOM     46  N   UNL     1       9.971   6.094 -13.644  1.00  0.00    -0.248 NA
ATOM     47  C   UNL     1      10.853   5.670 -11.533  1.00  0.00     0.031 C 
ATOM     48  C   UNL     1      10.895   1.476 -13.893  1.00  0.00     0.029 A 
ATOM     49  N   UNL     1      11.584   3.328 -14.876  1.00  0.00    -0.354 N 
ATOM     50  C   UNL     1      10.338   7.292 -13.049  1.00  0.00     0.074 A 
ATOM     51  C   UNL     1      10.720   6.984 -11.694  1.00  0.00     0.031 C 
ATOM     52  C   UNL     1      11.902   1.129 -14.731  1.00  0.00     0.029 A 
ATOM     53  C   UNL     1      12.403   2.329 -15.380  1.00  0.00     0.049 A 
ATOM     54  H   UNL     1      11.580   4.244 -15.235  1.00  0.00     0.167 HD
ATOM     55  C   UNL     1      10.514   8.428 -13.773  1.00  0.00     0.031 A 
ATOM     56  C   UNL     1      13.466   2.524 -16.200  1.00  0.00     0.031 A 
ATOM     57  C   UNL     1       9.920   8.336 -15.079  1.00  0.00     0.049 A 
ATOM     58  C   UNL     1      13.312   3.870 -16.808  1.00  0.00     0.074 A 
ATOM     59  C   UNL     1       8.625   8.221 -15.542  1.00  0.00     0.029 A 
ATOM     60  N   UNL     1      10.731   7.946 -16.118  1.00  0.00    -0.354 N 
ATOM     61  N   UNL     1      12.363   4.171 -17.649  1.00  0.00    -0.248 NA
ATOM     62  C   UNL     1      13.915   5.003 -16.119  1.00  0.00     0.031 C 
ATOM     63  C   UNL     1       8.708   7.330 -16.652  1.00  0.00     0.029 A 
ATOM     64  C   UNL     1      10.051   6.997 -16.840  1.00  0.00     0.049 A 
ATOM     65  H   UNL     1      11.635   8.285 -16.310  1.00  0.00     0.167 HD
ATOM     66  C   UNL     1      11.958   5.449 -17.289  1.00  0.00     0.074 A 
ATOM     67  C   UNL     1      13.008   5.944 -16.400  1.00  0.00     0.031 C 
ATOM     68  C   UNL     1      10.678   5.875 -17.508  1.00  0.00     0.031 A 
BRANCH  55  69
ATOM     69  C   UNL     1      11.530   9.469 -13.405  1.00  0.00    -0.014 A 
ATOM     70  C   UNL     1      11.549  10.684 -14.103  1.00  0.00     0.009 A 
ATOM     71  C   UNL     1      12.627   9.200 -12.559  1.00  0.00     0.009 A 
ATOM     72  C   UNL     1      12.630  11.566 -13.987  1.00  0.00     0.001 A 
ATOM     73  C   UNL     1      13.684  10.096 -12.407  1.00  0.00     0.001 A 
ATOM     74  C   UNL     1      13.696  11.271 -13.140  1.00  0.00     0.000 A 
ENDBRANCH  55  69
BRANCH  56  75
ATOM     75  C   UNL     1      14.766   1.817 -16.186  1.00  0.00    -0.014 A 
ATOM     76  C   UNL     1      15.659   1.938 -17.262  1.00  0.00     0.009 A 
ATOM     77  C   UNL     1      15.257   1.261 -14.989  1.00  0.00     0.009 A 
ATOM     78  C   UNL     1      17.002   1.557 -17.131  1.00  0.00     0.001 A 
ATOM     79  C   UNL     1      16.596   0.880 -14.858  1.00  0.00     0.001 A 
ATOM     80  C   UNL     1      17.473   1.044 -15.925  1.00  0.00     0.000 A 
ENDBRANCH  56  75
BRANCH  68  81
ATOM     81  C   UNL     1       9.764   4.966 -18.300  1.00  0.00    -0.014 A 
ATOM     82  C   UNL     1       9.393   3.681 -17.858  1.00  0.00     0.009 A 
ATOM     83  C   UNL     1       9.132   5.479 -19.441  1.00  0.00     0.009 A 
ATOM     84  C   UNL     1       8.438   2.928 -18.552  1.00  0.00     0.001 A 
ATOM     85  C   UNL     1       8.164   4.736 -20.121  1.00  0.00     0.001 A 
ATOM     86  C   UNL     1       7.820   3.460 -19.680  1.00  0.00     0.000 A 
ENDBRANCH  68  81
ENDBRANCH  42  43
ENDBRANCH  35  37
ENDBRANCH  34  35
ENDBRANCH  33  34
ENDBRANCH  32  33
ENDBRANCH  31  32
ENDBRANCH  30  31
ENDBRANCH   1  30
TORSDOF 20
