REMARK SMILES COc1ccc(C)cc1Nc1nc(OCC(=O)OCCOCCOCCOC(=O)c2ccc(-c3c4nc(c(-c5ccccc5)c5ccc([nH]5)c(-c5ccccc5)c5nc(c(-c6ccccc6)c6ccc3[nH]6)C=C5)C=C4)cc2)cc(C(C)(C)C)n1
REMARK SMILES IDX 21 1 20 2 19 3 18 4 16 5 17 6 15 7 14 8 13 9 11 10 12 11
REMARK SMILES IDX 84 12 79 13 78 14 10 15 9 17 3 18 4 19 5 20 8 21 6 22 7 23
REMARK SMILES IDX 2 24 1 25 80 26 81 27 82 28 83 29 22 30 23 31 24 32 25 33
REMARK SMILES IDX 26 34 27 35 28 36 29 37 30 38 31 39 77 40 32 41 76 42 33 43
REMARK SMILES IDX 34 44 35 45 70 46 36 47 75 48 69 49 71 50 37 51 74 52 68 53
REMARK SMILES IDX 67 54 38 56 60 57 45 58 59 59 46 60 49 61 58 62 72 63 47 64
REMARK SMILES IDX 48 65 57 67 73 68 50 69 39 70 40 71 44 72 41 73 43 74 42 75
REMARK SMILES IDX 61 76 62 77 66 78 63 79 65 80 64 81 51 82 52 83 56 84 53 85
REMARK SMILES IDX 55 86 54 87
REMARK H PARENT 10 16 71 55 49 66
REMARK Flexibility Score: inf
ROOT
ATOM      1  O   UNL     1      -1.922   1.717   8.631  1.00  0.00    -0.376 OA
ENDROOT
BRANCH   1   2
ATOM      2  C   UNL     1      -3.356   1.865   8.738  1.00  0.00     0.202 C 
BRANCH   2   3
ATOM      3  C   UNL     1      -4.161   0.853   7.804  1.00  0.00     0.261 C 
BRANCH   3   4
ATOM      4  O   UNL     1      -4.346   1.014   6.234  1.00  0.00    -0.461 OA
BRANCH   4   5
ATOM      5  C   UNL     1      -5.292   1.603   5.367  1.00  0.00     0.344 C 
ATOM      6  O   UNL     1      -6.369   2.127   5.640  1.00  0.00    -0.248 OA
BRANCH   5   7
ATOM      7  C   UNL     1      -4.892   1.761   3.922  1.00  0.00     0.353 C 
BRANCH   7   8
ATOM      8  O   UNL     1      -5.272   3.112   3.477  1.00  0.00    -0.466 OA
BRANCH   8   9
ATOM      9  C   UNL     1      -4.275   3.794   2.821  1.00  0.00     0.218 A 
ATOM     10  C   UNL     1      -2.166   3.666   2.023  1.00  0.00     0.230 A 
ATOM     11  N   UNL     1      -3.274   3.042   2.389  1.00  0.00    -0.177 NA
ATOM     12  N   UNL     1      -2.031   4.996   1.980  1.00  0.00    -0.217 NA
ATOM     13  C   UNL     1      -3.106   5.774   2.259  1.00  0.00     0.055 A 
ATOM     14  C   UNL     1      -4.286   5.180   2.705  1.00  0.00     0.093 A 
BRANCH  10  15
ATOM     15  N   UNL     1      -1.172   2.803   1.625  1.00  0.00    -0.321 N 
ATOM     16  H   UNL     1      -1.429   2.222   0.874  1.00  0.00     0.170 HD
BRANCH  15  17
ATOM     17  C   UNL     1       0.135   2.590   2.081  1.00  0.00     0.084 A 
ATOM     18  C   UNL     1       0.918   1.661   1.364  1.00  0.00     0.142 A 
ATOM     19  C   UNL     1       2.228   1.399   1.752  1.00  0.00     0.049 A 
ATOM     20  C   UNL     1       2.754   2.024   2.881  1.00  0.00     0.007 A 
ATOM     21  C   UNL     1       0.686   3.240   3.192  1.00  0.00     0.033 A 
ATOM     22  C   UNL     1       1.993   2.943   3.610  1.00  0.00    -0.049 A 
ATOM     23  C   UNL     1       2.572   3.545   4.854  1.00  0.00     0.044 C 
BRANCH  18  24
ATOM     24  O   UNL     1       0.288   1.079   0.287  1.00  0.00    -0.495 OA
ATOM     25  C   UNL     1       0.830  -0.151  -0.170  1.00  0.00     0.278 C 
ENDBRANCH  18  24
ENDBRANCH  15  17
ENDBRANCH  10  15
BRANCH  13  26
ATOM     26  C   UNL     1      -2.883   7.289   2.042  1.00  0.00     0.004 C 
ATOM     27  C   UNL     1      -1.741   7.827   2.925  1.00  0.00     0.017 C 
ATOM     28  C   UNL     1      -2.436   7.538   0.584  1.00  0.00     0.017 C 
ATOM     29  C   UNL     1      -4.105   8.181   2.333  1.00  0.00     0.017 C 
ENDBRANCH  13  26
ENDBRANCH   8   9
ENDBRANCH   7   8
ENDBRANCH   5   7
ENDBRANCH   4   5
ENDBRANCH   3   4
ENDBRANCH   2   3
ENDBRANCH   1   2
BRANCH   1  30
ATOM     30  C   UNL     1      -1.481   2.408   7.480  1.00  0.00     0.188 C 
BRANCH  30  31
ATOM     31  C   UNL     1      -0.014   2.386   7.121  1.00  0.00     0.188 C 
BRANCH  31  32
ATOM     32  O   UNL     1       0.889   3.072   7.974  1.00  0.00    -0.376 OA
BRANCH  32  33
ATOM     33  C   UNL     1       0.548   4.372   8.462  1.00  0.00     0.202 C 
BRANCH  33  34
ATOM     34  C   UNL     1       0.331   5.487   7.421  1.00  0.00     0.261 C 
BRANCH  34  35
ATOM     35  O   UNL     1      -1.082   5.703   7.189  1.00  0.00    -0.460 OA
BRANCH  35  36
ATOM     36  C   UNL     1      -1.408   6.106   5.915  1.00  0.00     0.338 C 
ATOM     37  O   UNL     1      -0.627   6.399   5.068  1.00  0.00    -0.246 OA
BRANCH  36  38
ATOM     38  C   UNL     1      -2.839   5.699   5.724  1.00  0.00     0.060 A 
ATOM     39  C   UNL     1      -4.008   6.422   5.922  1.00  0.00     0.016 A 
ATOM     40  C   UNL     1      -2.976   4.358   5.624  1.00  0.00     0.016 A 
ATOM     41  C   UNL     1      -5.245   5.758   6.255  1.00  0.00     0.010 A 
ATOM     42  C   UNL     1      -4.068   3.817   6.294  1.00  0.00     0.010 A 
ATOM     43  C   UNL     1      -5.249   4.427   6.687  1.00  0.00    -0.014 A 
BRANCH  43  44
ATOM     44  C   UNL     1      -6.038   3.893   7.932  1.00  0.00     0.031 A 
ATOM     45  C   UNL     1      -6.938   2.603   8.299  1.00  0.00     0.074 A 
ATOM     46  C   UNL     1      -5.736   4.703   8.989  1.00  0.00     0.049 A 
ATOM     47  N   UNL     1      -7.692   2.600   9.380  1.00  0.00    -0.248 NA
ATOM     48  C   UNL     1      -7.149   1.252   7.686  1.00  0.00     0.031 C 
ATOM     49  C   UNL     1      -5.981   4.547  10.412  1.00  0.00     0.029 A 
ATOM     50  N   UNL     1      -5.253   6.020   8.909  1.00  0.00    -0.354 N 
ATOM     51  C   UNL     1      -8.063   1.290   9.687  1.00  0.00     0.074 A 
ATOM     52  C   UNL     1      -7.903   0.543   8.514  1.00  0.00     0.031 C 
ATOM     53  C   UNL     1      -5.968   5.764  10.986  1.00  0.00     0.029 A 
ATOM     54  C   UNL     1      -5.818   6.763   9.940  1.00  0.00     0.049 A 
ATOM     55  H   UNL     1      -4.621   6.360   8.235  1.00  0.00     0.167 HD
ATOM     56  C   UNL     1      -8.258   0.875  10.967  1.00  0.00     0.031 A 
ATOM     57  C   UNL     1      -6.705   7.755   9.619  1.00  0.00     0.031 A 
ATOM     58  C   UNL     1      -8.610   2.013  11.782  1.00  0.00     0.049 A 
ATOM     59  C   UNL     1      -8.133   7.418  10.019  1.00  0.00     0.074 A 
ATOM     60  C   UNL     1      -8.015   2.718  12.805  1.00  0.00     0.029 A 
ATOM     61  N   UNL     1      -9.640   2.807  11.301  1.00  0.00    -0.354 N 
ATOM     62  N   UNL     1      -8.468   6.370  10.721  1.00  0.00    -0.248 NA
ATOM     63  C   UNL     1      -9.306   8.200   9.628  1.00  0.00     0.031 C 
ATOM     64  C   UNL     1      -8.581   4.034  12.786  1.00  0.00     0.029 A 
ATOM     65  C   UNL     1      -9.559   4.087  11.805  1.00  0.00     0.049 A 
ATOM     66  H   UNL     1     -10.339   2.497  10.681  1.00  0.00     0.167 HD
ATOM     67  C   UNL     1      -9.831   6.231  10.742  1.00  0.00     0.074 A 
ATOM     68  C   UNL     1     -10.311   7.449  10.116  1.00  0.00     0.031 C 
ATOM     69  C   UNL     1     -10.437   5.098  11.213  1.00  0.00     0.031 A 
BRANCH  56  70
ATOM     70  C   UNL     1      -7.934  -0.530  11.472  1.00  0.00    -0.014 A 
ATOM     71  C   UNL     1      -8.057  -0.811  12.844  1.00  0.00     0.009 A 
ATOM     72  C   UNL     1      -7.365  -1.574  10.701  1.00  0.00     0.009 A 
ATOM     73  C   UNL     1      -7.631  -2.031  13.404  1.00  0.00     0.001 A 
ATOM     74  C   UNL     1      -6.971  -2.809  11.247  1.00  0.00     0.001 A 
ATOM     75  C   UNL     1      -7.093  -3.033  12.606  1.00  0.00     0.000 A 
ENDBRANCH  56  70
BRANCH  57  76
ATOM     76  C   UNL     1      -6.255   8.642   8.490  1.00  0.00    -0.014 A 
ATOM     77  C   UNL     1      -5.006   9.290   8.644  1.00  0.00     0.009 A 
ATOM     78  C   UNL     1      -6.841   8.683   7.215  1.00  0.00     0.009 A 
ATOM     79  C   UNL     1      -4.321   9.855   7.561  1.00  0.00     0.001 A 
ATOM     80  C   UNL     1      -6.156   9.262   6.125  1.00  0.00     0.001 A 
ATOM     81  C   UNL     1      -4.891   9.830   6.295  1.00  0.00     0.000 A 
ENDBRANCH  57  76
BRANCH  69  82
ATOM     82  C   UNL     1     -11.917   4.767  11.096  1.00  0.00    -0.014 A 
ATOM     83  C   UNL     1     -12.800   5.340  10.173  1.00  0.00     0.009 A 
ATOM     84  C   UNL     1     -12.438   3.708  11.881  1.00  0.00     0.009 A 
ATOM     85  C   UNL     1     -14.136   4.920  10.080  1.00  0.00     0.001 A 
ATOM     86  C   UNL     1     -13.743   3.233  11.737  1.00  0.00     0.001 A 
ATOM     87  C   UNL     1     -14.603   3.858  10.850  1.00  0.00     0.000 A 
ENDBRANCH  69  82
ENDBRANCH  43  44
ENDBRANCH  36  38
ENDBRANCH  35  36
ENDBRANCH  34  35
ENDBRANCH  33  34
ENDBRANCH  32  33
ENDBRANCH  31  32
ENDBRANCH  30  31
ENDBRANCH   1  30
TORSDOF 23
