REMARK SMILES Cc1ccc(-c2cc(C(=O)OCCOCCOCCOC(=O)c3ccc(-c4c5nc(c(-c6ccccc6)c6ccc([nH]6)c(-c6ccccc6)c6nc(c(-c7ccccc7)c7ccc4[nH]7)C=C6)C=C5)cc3)c3c(-c4cccc([N+](=O)[O-])c4)[nH]nc3n2)cc1
REMARK SMILES IDX 15 1 14 2 13 3 12 4 11 5 9 6 10 7 8 8 6 9 7 10 85 11 84 12
REMARK SMILES IDX 71 13 83 14 72 15 82 16 5 18 1 19 2 20 3 21 87 22 4 23 86 24
REMARK SMILES IDX 73 25 74 26 81 27 75 28 77 29 76 30 78 31 79 32 80 33 16 34
REMARK SMILES IDX 17 35 18 36 19 37 20 38 21 39 22 40 23 41 24 42 70 43 25 44
REMARK SMILES IDX 69 45 26 46 27 47 28 48 63 49 29 50 68 51 62 52 64 53 30 54
REMARK SMILES IDX 67 55 61 56 60 57 31 59 53 60 38 61 52 62 39 63 42 64 51 65
REMARK SMILES IDX 65 66 40 67 41 68 50 70 66 71 43 72 32 73 33 74 37 75 34 76
REMARK SMILES IDX 36 77 35 78 54 79 55 80 59 81 56 82 58 83 57 84 44 85 45 86
REMARK SMILES IDX 49 87 46 88 48 89 47 90
REMARK H PARENT 82 17 64 58 42 69
REMARK Flexibility Score: inf
ROOT
ATOM      1  C   UNL     1      -6.746   1.394  -6.758  1.00  0.00     0.188 C 
ENDROOT
BRANCH   1   2
ATOM      2  O   UNL     1      -5.302   1.577  -6.696  1.00  0.00    -0.376 OA
BRANCH   2   3
ATOM      3  C   UNL     1      -4.723   2.484  -5.717  1.00  0.00     0.202 C 
BRANCH   3   4
ATOM      4  C   UNL     1      -3.612   1.877  -4.556  1.00  0.00     0.261 C 
BRANCH   4   5
ATOM      5  O   UNL     1      -3.873   0.979  -3.058  1.00  0.00    -0.460 OA
BRANCH   5   6
ATOM      6  C   UNL     1      -4.639   0.900  -1.813  1.00  0.00     0.339 C 
ATOM      7  O   UNL     1      -5.402   1.712  -1.293  1.00  0.00    -0.246 OA
BRANCH   6   8
ATOM      8  C   UNL     1      -4.382  -0.144  -0.834  1.00  0.00     0.075 A 
ATOM      9  C   UNL     1      -2.499  -0.584   0.644  1.00  0.00     0.074 A 
ATOM     10  C   UNL     1      -3.017  -0.193  -0.593  1.00  0.00     0.045 A 
ATOM     11  N   UNL     1      -3.179  -1.049   1.708  1.00  0.00    -0.226 NA
ATOM     12  C   UNL     1      -4.516  -1.034   1.532  1.00  0.00     0.182 A 
ATOM     13  C   UNL     1      -5.181  -0.580   0.307  1.00  0.00     0.061 A 
ATOM     14  N   UNL     1      -5.356  -1.406   2.487  1.00  0.00    -0.154 NA
ATOM     15  C   UNL     1      -6.548  -0.685   0.654  1.00  0.00     0.076 A 
ATOM     16  N   UNL     1      -6.538  -1.165   1.956  1.00  0.00    -0.275 N 
ATOM     17  H   UNL     1      -7.371  -1.318   2.458  1.00  0.00     0.190 HD
BRANCH   9  18
ATOM     18  C   UNL     1      -1.064  -0.468   0.784  1.00  0.00     0.000 A 
ATOM     19  C   UNL     1       3.112  -0.127  -0.044  1.00  0.00     0.044 C 
ATOM     20  C   UNL     1       1.666  -0.231   0.322  1.00  0.00    -0.051 A 
ATOM     21  C   UNL     1       1.065  -1.496   0.360  1.00  0.00     0.004 A 
ATOM     22  C   UNL     1       0.910   0.914   0.598  1.00  0.00     0.004 A 
ATOM     23  C   UNL     1      -0.294  -1.615   0.599  1.00  0.00     0.010 A 
ATOM     24  C   UNL     1      -0.454   0.797   0.832  1.00  0.00     0.010 A 
ENDBRANCH   9  18
BRANCH  15  25
ATOM     25  C   UNL     1      -7.939  -0.596   0.159  1.00  0.00     0.007 A 
ATOM     26  C   UNL     1      -8.820   0.364   0.708  1.00  0.00     0.011 A 
ATOM     27  C   UNL     1      -8.526  -1.721  -0.449  1.00  0.00     0.096 A 
ATOM     28  C   UNL     1     -10.220   0.212   0.648  1.00  0.00     0.008 A 
ATOM     29  C   UNL     1      -9.931  -1.845  -0.557  1.00  0.00     0.270 A 
ATOM     30  C   UNL     1     -10.782  -0.890   0.008  1.00  0.00     0.085 A 
BRANCH  29  31
ATOM     31  N   UNL     1     -10.513  -2.954  -1.330  1.00  0.00     0.062 N 
ATOM     32  O   UNL     1     -11.723  -2.903  -1.593  1.00  0.00    -0.258 OA
ATOM     33  O   UNL     1      -9.748  -3.851  -1.704  1.00  0.00    -0.258 OA
ENDBRANCH  29  31
ENDBRANCH  15  25
ENDBRANCH   6   8
ENDBRANCH   5   6
ENDBRANCH   4   5
ENDBRANCH   3   4
ENDBRANCH   2   3
ENDBRANCH   1   2
BRANCH   1  34
ATOM     34  C   UNL     1      -7.100  -0.066  -7.183  1.00  0.00     0.188 C 
BRANCH  34  35
ATOM     35  O   UNL     1      -5.959  -0.866  -6.924  1.00  0.00    -0.376 OA
BRANCH  35  36
ATOM     36  C   UNL     1      -5.693  -1.997  -7.721  1.00  0.00     0.202 C 
BRANCH  36  37
ATOM     37  C   UNL     1      -6.218  -3.300  -7.097  1.00  0.00     0.261 C 
BRANCH  37  38
ATOM     38  O   UNL     1      -5.859  -3.396  -5.698  1.00  0.00    -0.460 OA
BRANCH  38  39
ATOM     39  C   UNL     1      -6.890  -3.208  -4.815  1.00  0.00     0.338 C 
ATOM     40  O   UNL     1      -7.909  -3.878  -4.785  1.00  0.00    -0.246 OA
BRANCH  39  41
ATOM     41  C   UNL     1      -6.700  -1.935  -4.054  1.00  0.00     0.060 A 
ATOM     42  C   UNL     1      -7.710  -1.192  -3.437  1.00  0.00     0.016 A 
ATOM     43  C   UNL     1      -5.548  -1.271  -4.255  1.00  0.00     0.016 A 
ATOM     44  C   UNL     1      -7.563   0.226  -3.107  1.00  0.00     0.010 A 
ATOM     45  C   UNL     1      -5.653   0.123  -4.257  1.00  0.00     0.010 A 
ATOM     46  C   UNL     1      -6.521   1.013  -3.574  1.00  0.00    -0.014 A 
BRANCH  46  47
ATOM     47  C   UNL     1      -6.329   2.685  -3.351  1.00  0.00     0.031 A 
ATOM     48  C   UNL     1      -5.073   3.677  -2.638  1.00  0.00     0.074 A 
ATOM     49  C   UNL     1      -7.361   3.486  -3.720  1.00  0.00     0.049 A 
ATOM     50  N   UNL     1      -5.275   4.897  -2.160  1.00  0.00    -0.248 NA
ATOM     51  C   UNL     1      -3.623   3.411  -2.366  1.00  0.00     0.031 C 
ATOM     52  C   UNL     1      -7.351   4.945  -3.833  1.00  0.00     0.029 A 
ATOM     53  N   UNL     1      -8.697   3.158  -3.901  1.00  0.00    -0.354 N 
ATOM     54  C   UNL     1      -4.058   5.520  -1.845  1.00  0.00     0.074 A 
ATOM     55  C   UNL     1      -3.062   4.540  -1.978  1.00  0.00     0.031 C 
ATOM     56  C   UNL     1      -8.599   5.404  -3.701  1.00  0.00     0.029 A 
ATOM     57  C   UNL     1      -9.469   4.270  -3.501  1.00  0.00     0.049 A 
ATOM     58  H   UNL     1      -9.044   2.304  -4.247  1.00  0.00     0.167 HD
ATOM     59  C   UNL     1      -3.900   6.836  -1.540  1.00  0.00     0.031 A 
ATOM     60  C   UNL     1     -10.451   4.169  -2.565  1.00  0.00     0.031 A 
ATOM     61  C   UNL     1      -5.171   7.468  -1.331  1.00  0.00     0.049 A 
ATOM     62  C   UNL     1     -10.194   4.963  -1.298  1.00  0.00     0.074 A 
ATOM     63  C   UNL     1      -5.983   8.284  -2.091  1.00  0.00     0.029 A 
ATOM     64  N   UNL     1      -5.931   7.013  -0.271  1.00  0.00    -0.354 N 
ATOM     65  N   UNL     1      -9.259   5.862  -1.150  1.00  0.00    -0.248 NA
ATOM     66  C   UNL     1     -10.940   4.750  -0.058  1.00  0.00     0.031 C 
ATOM     67  C   UNL     1      -7.275   8.270  -1.502  1.00  0.00     0.029 A 
ATOM     68  C   UNL     1      -7.226   7.471  -0.375  1.00  0.00     0.049 A 
ATOM     69  H   UNL     1      -5.595   6.441   0.456  1.00  0.00     0.167 HD
ATOM     70  C   UNL     1      -9.188   6.249   0.172  1.00  0.00     0.074 A 
ATOM     71  C   UNL     1     -10.308   5.575   0.797  1.00  0.00     0.031 C 
ATOM     72  C   UNL     1      -8.180   7.050   0.640  1.00  0.00     0.031 A 
BRANCH  59  73
ATOM     73  C   UNL     1      -2.568   7.562  -1.713  1.00  0.00    -0.014 A 
ATOM     74  C   UNL     1      -2.575   8.855  -2.264  1.00  0.00     0.009 A 
ATOM     75  C   UNL     1      -1.290   7.010  -1.492  1.00  0.00     0.009 A 
ATOM     76  C   UNL     1      -1.403   9.481  -2.721  1.00  0.00     0.001 A 
ATOM     77  C   UNL     1      -0.118   7.601  -2.000  1.00  0.00     0.001 A 
ATOM     78  C   UNL     1      -0.180   8.830  -2.638  1.00  0.00     0.000 A 
ENDBRANCH  59  73
BRANCH  60  79
ATOM     79  C   UNL     1     -11.217   2.901  -2.696  1.00  0.00    -0.014 A 
ATOM     80  C   UNL     1     -12.234   2.820  -3.663  1.00  0.00     0.009 A 
ATOM     81  C   UNL     1     -10.630   1.712  -2.275  1.00  0.00     0.009 A 
ATOM     82  C   UNL     1     -12.561   1.599  -4.273  1.00  0.00     0.001 A 
ATOM     83  C   UNL     1     -10.922   0.509  -2.932  1.00  0.00     0.001 A 
ATOM     84  C   UNL     1     -11.869   0.446  -3.939  1.00  0.00     0.000 A 
ENDBRANCH  60  79
BRANCH  72  85
ATOM     85  C   UNL     1      -7.908   7.516   2.067  1.00  0.00    -0.014 A 
ATOM     86  C   UNL     1      -8.487   6.994   3.227  1.00  0.00     0.009 A 
ATOM     87  C   UNL     1      -6.926   8.523   2.270  1.00  0.00     0.009 A 
ATOM     88  C   UNL     1      -8.128   7.465   4.505  1.00  0.00     0.001 A 
ATOM     89  C   UNL     1      -6.530   8.962   3.537  1.00  0.00     0.001 A 
ATOM     90  C   UNL     1      -7.144   8.438   4.660  1.00  0.00     0.000 A 
ENDBRANCH  72  85
ENDBRANCH  46  47
ENDBRANCH  39  41
ENDBRANCH  38  39
ENDBRANCH  37  38
ENDBRANCH  36  37
ENDBRANCH  35  36
ENDBRANCH  34  35
ENDBRANCH   1  34
TORSDOF 20
