REMARK SMILES CC[C@H]1CC[C@](C(=O)OCCOCCOCCOC(=O)c2ccc(-c3c4nc(c(-c5ccccc5)c5ccc([nH]5)c(-c5ccccc5)c5nc(c(-c6ccccc6)c6ccc3[nH]6)C=C5)C=C4)cc2)([C@H]2CCC[C@@H](S(C)(=O)=O)C2)CC1
REMARK SMILES IDX 13 1 12 2 11 3 10 4 9 5 7 6 8 7 6 8 3 9 80 10 4 11 79 12
REMARK SMILES IDX 5 13 2 14 1 15 69 16 70 17 78 18 71 19 73 20 72 21 74 22
REMARK SMILES IDX 75 23 76 24 77 25 14 26 15 27 16 28 17 29 18 30 19 31 20 32
REMARK SMILES IDX 21 33 22 34 68 35 23 36 67 37 24 38 25 39 26 40 61 41 27 42
REMARK SMILES IDX 66 43 60 44 62 45 28 46 65 47 59 48 58 49 29 51 51 52 36 53
REMARK SMILES IDX 50 54 37 55 40 56 49 57 63 58 38 59 39 60 48 62 64 63 41 64
REMARK SMILES IDX 30 65 31 66 35 67 32 68 34 69 33 70 52 71 53 72 57 73 54 74
REMARK SMILES IDX 56 75 55 76 42 77 43 78 47 79 44 80 46 81 45 82
REMARK H PARENT 62 50 40 61
REMARK Flexibility Score: inf
ROOT
ATOM      1  C   UNL     1       5.932   7.354  -7.383  1.00  0.00     0.188 C 
ENDROOT
BRANCH   1   2
ATOM      2  O   UNL     1       4.744   7.090  -8.133  1.00  0.00    -0.376 OA
BRANCH   2   3
ATOM      3  C   UNL     1       3.796   8.155  -7.952  1.00  0.00     0.202 C 
BRANCH   3   4
ATOM      4  C   UNL     1       2.595   7.886  -6.998  1.00  0.00     0.261 C 
BRANCH   4   5
ATOM      5  O   UNL     1       2.858   7.513  -5.592  1.00  0.00    -0.463 OA
BRANCH   5   6
ATOM      6  C   UNL     1       1.735   7.500  -4.798  1.00  0.00     0.312 C 
ATOM      7  O   UNL     1       0.658   7.825  -5.302  1.00  0.00    -0.252 OA
BRANCH   6   8
ATOM      8  C   UNL     1       1.806   6.899  -3.270  1.00  0.00     0.071 C 
ATOM      9  C   UNL     1       1.629   9.514  -1.527  1.00  0.00    -0.011 C 
ATOM     10  C   UNL     1       0.529   8.996  -2.500  1.00  0.00     0.005 C 
ATOM     11  C   UNL     1       2.744   8.532  -1.292  1.00  0.00     0.005 C 
ATOM     12  C   UNL     1       0.427   7.436  -2.721  1.00  0.00     0.019 C 
ATOM     13  C   UNL     1       2.581   7.194  -1.941  1.00  0.00     0.019 C 
BRANCH   9  14
ATOM     14  C   UNL     1       2.199  10.911  -1.917  1.00  0.00    -0.000 C 
ATOM     15  C   UNL     1       3.525  11.328  -1.255  1.00  0.00     0.004 C 
ENDBRANCH   9  14
BRANCH   8  16
ATOM     16  C   UNL     1       2.056   5.325  -3.368  1.00  0.00     0.008 C 
ATOM     17  C   UNL     1       1.621   4.603  -4.642  1.00  0.00     0.005 C 
ATOM     18  C   UNL     1       3.552   4.898  -3.135  1.00  0.00     0.024 C 
ATOM     19  C   UNL     1       2.619   4.659  -5.802  1.00  0.00     0.002 C 
ATOM     20  C   UNL     1       4.530   5.525  -4.130  1.00  0.00     0.108 C 
ATOM     21  C   UNL     1       4.099   5.064  -5.532  1.00  0.00     0.020 C 
BRANCH  20  22
ATOM     22  S   UNL     1       5.393   7.151  -3.666  1.00  0.00     0.150 S 
ATOM     23  C   UNL     1       4.561   8.701  -4.052  1.00  0.00     0.158 C 
ATOM     24  O   UNL     1       5.572   7.148  -2.222  1.00  0.00    -0.229 OA
ATOM     25  O   UNL     1       6.622   7.280  -4.407  1.00  0.00    -0.229 OA
ENDBRANCH  20  22
ENDBRANCH   8  16
ENDBRANCH   6   8
ENDBRANCH   5   6
ENDBRANCH   4   5
ENDBRANCH   3   4
ENDBRANCH   2   3
ENDBRANCH   1   2
BRANCH   1  26
ATOM     26  C   UNL     1       6.941   6.205  -7.340  1.00  0.00     0.188 C 
BRANCH  26  27
ATOM     27  O   UNL     1       7.863   6.479  -6.305  1.00  0.00    -0.376 OA
BRANCH  27  28
ATOM     28  C   UNL     1       9.195   6.807  -6.618  1.00  0.00     0.202 C 
BRANCH  28  29
ATOM     29  C   UNL     1      10.120   5.753  -6.000  1.00  0.00     0.261 C 
BRANCH  29  30
ATOM     30  O   UNL     1       9.435   4.502  -5.802  1.00  0.00    -0.460 OA
BRANCH  30  31
ATOM     31  C   UNL     1       8.785   4.352  -4.618  1.00  0.00     0.338 C 
ATOM     32  O   UNL     1       8.873   5.079  -3.629  1.00  0.00    -0.246 OA
BRANCH  31  33
ATOM     33  C   UNL     1       7.924   3.140  -4.659  1.00  0.00     0.060 A 
ATOM     34  C   UNL     1       6.949   2.930  -3.669  1.00  0.00     0.016 A 
ATOM     35  C   UNL     1       8.102   2.174  -5.652  1.00  0.00     0.016 A 
ATOM     36  C   UNL     1       6.152   1.774  -3.678  1.00  0.00     0.010 A 
ATOM     37  C   UNL     1       7.343   1.006  -5.639  1.00  0.00     0.010 A 
ATOM     38  C   UNL     1       6.382   0.785  -4.641  1.00  0.00    -0.014 A 
BRANCH  38  39
ATOM     39  C   UNL     1       5.865  -0.598  -4.499  1.00  0.00     0.031 A 
ATOM     40  C   UNL     1       6.713  -1.573  -3.728  1.00  0.00     0.074 A 
ATOM     41  C   UNL     1       4.765  -1.023  -5.145  1.00  0.00     0.049 A 
ATOM     42  N   UNL     1       6.653  -2.878  -3.688  1.00  0.00    -0.248 NA
ATOM     43  C   UNL     1       7.788  -0.990  -2.906  1.00  0.00     0.031 C 
ATOM     44  C   UNL     1       3.820  -0.178  -5.870  1.00  0.00     0.029 A 
ATOM     45  N   UNL     1       4.280  -2.299  -5.318  1.00  0.00    -0.354 N 
ATOM     46  C   UNL     1       7.686  -3.272  -2.846  1.00  0.00     0.074 A 
ATOM     47  C   UNL     1       8.367  -2.073  -2.412  1.00  0.00     0.031 C 
ATOM     48  C   UNL     1       2.881  -0.962  -6.434  1.00  0.00     0.029 A 
ATOM     49  C   UNL     1       3.195  -2.365  -6.160  1.00  0.00     0.049 A 
ATOM     50  H   UNL     1       4.673  -3.088  -4.881  1.00  0.00     0.167 HD
ATOM     51  C   UNL     1       8.045  -4.521  -2.473  1.00  0.00     0.031 A 
ATOM     52  C   UNL     1       2.563  -3.437  -6.681  1.00  0.00     0.031 A 
ATOM     53  C   UNL     1       7.407  -5.717  -2.947  1.00  0.00     0.049 A 
ATOM     54  C   UNL     1       3.067  -4.827  -6.360  1.00  0.00     0.074 A 
ATOM     55  C   UNL     1       7.721  -7.033  -2.662  1.00  0.00     0.029 A 
ATOM     56  N   UNL     1       6.327  -5.737  -3.815  1.00  0.00    -0.354 N 
ATOM     57  N   UNL     1       4.049  -5.192  -5.570  1.00  0.00    -0.248 NA
ATOM     58  C   UNL     1       2.379  -5.953  -7.011  1.00  0.00     0.031 C 
ATOM     59  C   UNL     1       6.864  -7.853  -3.400  1.00  0.00     0.029 A 
ATOM     60  C   UNL     1       5.971  -7.045  -4.087  1.00  0.00     0.049 A 
ATOM     61  H   UNL     1       5.881  -4.941  -4.183  1.00  0.00     0.167 HD
ATOM     62  C   UNL     1       4.059  -6.583  -5.591  1.00  0.00     0.074 A 
ATOM     63  C   UNL     1       2.989  -6.999  -6.471  1.00  0.00     0.031 C 
ATOM     64  C   UNL     1       4.878  -7.441  -4.935  1.00  0.00     0.031 A 
BRANCH  51  65
ATOM     65  C   UNL     1       9.212  -4.651  -1.537  1.00  0.00    -0.014 A 
ATOM     66  C   UNL     1       9.111  -4.255  -0.194  1.00  0.00     0.009 A 
ATOM     67  C   UNL     1      10.422  -5.192  -1.998  1.00  0.00     0.009 A 
ATOM     68  C   UNL     1      10.209  -4.369   0.660  1.00  0.00     0.001 A 
ATOM     69  C   UNL     1      11.509  -5.333  -1.134  1.00  0.00     0.001 A 
ATOM     70  C   UNL     1      11.405  -4.912   0.191  1.00  0.00     0.000 A 
ENDBRANCH  51  65
BRANCH  52  71
ATOM     71  C   UNL     1       1.404  -3.269  -7.604  1.00  0.00    -0.014 A 
ATOM     72  C   UNL     1       0.130  -3.734  -7.239  1.00  0.00     0.009 A 
ATOM     73  C   UNL     1       1.575  -2.713  -8.882  1.00  0.00     0.009 A 
ATOM     74  C   UNL     1      -0.934  -3.684  -8.144  1.00  0.00     0.001 A 
ATOM     75  C   UNL     1       0.501  -2.631  -9.773  1.00  0.00     0.001 A 
ATOM     76  C   UNL     1      -0.748  -3.130  -9.409  1.00  0.00     0.000 A 
ENDBRANCH  52  71
BRANCH  64  77
ATOM     77  C   UNL     1       4.609  -8.916  -5.060  1.00  0.00    -0.014 A 
ATOM     78  C   UNL     1       4.913  -9.627  -6.229  1.00  0.00     0.009 A 
ATOM     79  C   UNL     1       4.133  -9.619  -3.940  1.00  0.00     0.009 A 
ATOM     80  C   UNL     1       4.731 -11.012  -6.278  1.00  0.00     0.001 A 
ATOM     81  C   UNL     1       3.982 -11.005  -3.982  1.00  0.00     0.001 A 
ATOM     82  C   UNL     1       4.276 -11.700  -5.153  1.00  0.00     0.000 A 
ENDBRANCH  64  77
ENDBRANCH  38  39
ENDBRANCH  31  33
ENDBRANCH  30  31
ENDBRANCH  29  30
ENDBRANCH  28  29
ENDBRANCH  27  28
ENDBRANCH  26  27
ENDBRANCH   1  26
TORSDOF 20
