REMARK SMILES COc1ccc(N[C@H](C)[C@H](C)C(=O)OCCOCCOCCOC(=O)c2ccc(-c3c4nc(c(-c5ccccc5)c5ccc([nH]5)c(-c5ccccc5)c5nc(c(-c6ccccc6)c6ccc3[nH]6)C=C5)C=C4)cc2)c(OC)c1
REMARK SMILES IDX 18 1 17 2 16 3 15 4 14 5 12 6 13 7 10 8 11 9 8 10 9 11 7 12
REMARK SMILES IDX 6 14 3 15 4 16 77 17 5 18 74 19 2 20 1 21 75 22 76 23 19 24
REMARK SMILES IDX 20 25 21 26 22 27 23 28 24 29 25 30 26 31 27 32 73 33 28 34
REMARK SMILES IDX 72 35 29 36 30 37 31 38 66 39 32 40 71 41 65 42 67 43 33 44
REMARK SMILES IDX 70 45 64 46 63 47 34 49 56 50 41 51 55 52 42 53 45 54 54 55
REMARK SMILES IDX 68 56 43 57 44 58 53 60 69 61 46 62 35 63 36 64 40 65 37 66
REMARK SMILES IDX 39 67 38 68 57 69 58 70 62 71 59 72 61 73 60 74 47 75 48 76
REMARK SMILES IDX 52 77 49 78 51 79 50 80
REMARK H PARENT 7 13 67 48 45 59
REMARK Flexibility Score: inf
ROOT
ATOM      1  C   UNL     1       0.086  -6.128   9.398  1.00  0.00     0.188 C 
ENDROOT
BRANCH   1   2
ATOM      2  O   UNL     1      -0.897  -6.136  10.424  1.00  0.00    -0.376 OA
BRANCH   2   3
ATOM      3  C   UNL     1      -1.835  -5.060  10.494  1.00  0.00     0.202 C 
BRANCH   3   4
ATOM      4  C   UNL     1      -1.357  -3.610  10.296  1.00  0.00     0.261 C 
BRANCH   4   5
ATOM      5  O   UNL     1      -0.715  -3.378   9.029  1.00  0.00    -0.463 OA
BRANCH   5   6
ATOM      6  C   UNL     1       0.496  -2.765   9.065  1.00  0.00     0.310 C 
ATOM      7  O   UNL     1       0.993  -2.312  10.090  1.00  0.00    -0.252 OA
BRANCH   6   8
ATOM      8  C   UNL     1       1.263  -2.883   7.743  1.00  0.00     0.118 C 
ATOM      9  C   UNL     1       0.405  -2.930   6.466  1.00  0.00     0.022 C 
BRANCH   8  10
ATOM     10  C   UNL     1       2.452  -1.879   7.806  1.00  0.00     0.090 C 
ATOM     11  C   UNL     1       3.658  -2.637   8.413  1.00  0.00     0.031 C 
BRANCH  10  12
ATOM     12  N   UNL     1       2.770  -1.306   6.505  1.00  0.00    -0.379 N 
ATOM     13  H   UNL     1       2.103  -1.468   5.800  1.00  0.00     0.160 HD
BRANCH  12  14
ATOM     14  C   UNL     1       3.874  -0.566   6.116  1.00  0.00     0.077 A 
ATOM     15  C   UNL     1       6.241   0.588   5.144  1.00  0.00     0.122 A 
ATOM     16  C   UNL     1       6.075   0.372   6.507  1.00  0.00     0.049 A 
ATOM     17  C   UNL     1       5.216   0.270   4.252  1.00  0.00     0.095 A 
ATOM     18  C   UNL     1       4.888  -0.172   6.988  1.00  0.00     0.033 A 
ATOM     19  C   UNL     1       4.033  -0.297   4.733  1.00  0.00     0.145 A 
BRANCH  15  20
ATOM     20  O   UNL     1       7.471   1.050   4.767  1.00  0.00    -0.497 OA
ATOM     21  C   UNL     1       7.421   2.088   3.796  1.00  0.00     0.278 C 
ENDBRANCH  15  20
BRANCH  19  22
ATOM     22  O   UNL     1       2.956  -0.664   3.952  1.00  0.00    -0.494 OA
ATOM     23  C   UNL     1       3.011  -0.350   2.569  1.00  0.00     0.278 C 
ENDBRANCH  19  22
ENDBRANCH  12  14
ENDBRANCH  10  12
ENDBRANCH   8  10
ENDBRANCH   6   8
ENDBRANCH   5   6
ENDBRANCH   4   5
ENDBRANCH   3   4
ENDBRANCH   2   3
ENDBRANCH   1   2
BRANCH   1  24
ATOM     24  C   UNL     1      -0.379  -6.006   7.939  1.00  0.00     0.188 C 
BRANCH  24  25
ATOM     25  O   UNL     1      -1.720  -5.623   7.777  1.00  0.00    -0.376 OA
BRANCH  25  26
ATOM     26  C   UNL     1      -2.671  -6.591   7.370  1.00  0.00     0.202 C 
BRANCH  26  27
ATOM     27  C   UNL     1      -2.580  -8.086   7.746  1.00  0.00     0.261 C 
BRANCH  27  28
ATOM     28  O   UNL     1      -1.284  -8.665   7.966  1.00  0.00    -0.460 OA
BRANCH  28  29
ATOM     29  C   UNL     1      -0.572  -9.039   6.878  1.00  0.00     0.338 C 
ATOM     30  O   UNL     1      -0.911  -8.941   5.707  1.00  0.00    -0.246 OA
BRANCH  29  31
ATOM     31  C   UNL     1       0.802  -9.366   7.329  1.00  0.00     0.060 A 
ATOM     32  C   UNL     1       1.879  -8.584   6.881  1.00  0.00     0.016 A 
ATOM     33  C   UNL     1       1.025 -10.429   8.204  1.00  0.00     0.016 A 
ATOM     34  C   UNL     1       3.183  -8.879   7.289  1.00  0.00     0.010 A 
ATOM     35  C   UNL     1       2.333 -10.741   8.589  1.00  0.00     0.010 A 
ATOM     36  C   UNL     1       3.422  -9.986   8.112  1.00  0.00    -0.014 A 
BRANCH  36  37
ATOM     37  C   UNL     1       4.807 -10.481   8.324  1.00  0.00     0.031 A 
ATOM     38  C   UNL     1       5.286 -11.637   7.484  1.00  0.00     0.074 A 
ATOM     39  C   UNL     1       5.624  -9.937   9.243  1.00  0.00     0.049 A 
ATOM     40  N   UNL     1       6.409 -12.305   7.552  1.00  0.00    -0.248 NA
ATOM     41  C   UNL     1       4.370 -12.105   6.430  1.00  0.00     0.031 C 
ATOM     42  C   UNL     1       5.311  -8.784  10.086  1.00  0.00     0.029 A 
ATOM     43  N   UNL     1       6.892 -10.301   9.630  1.00  0.00    -0.354 N 
ATOM     44  C   UNL     1       6.324 -13.284   6.569  1.00  0.00     0.074 A 
ATOM     45  C   UNL     1       5.037 -13.134   5.928  1.00  0.00     0.031 C 
ATOM     46  C   UNL     1       6.355  -8.545  10.902  1.00  0.00     0.029 A 
ATOM     47  C   UNL     1       7.389  -9.552  10.669  1.00  0.00     0.049 A 
ATOM     48  H   UNL     1       7.397 -11.030   9.202  1.00  0.00     0.167 HD
ATOM     49  C   UNL     1       7.235 -14.226   6.232  1.00  0.00     0.031 A 
ATOM     50  C   UNL     1       8.533  -9.684  11.371  1.00  0.00     0.031 A 
ATOM     51  C   UNL     1       8.518 -14.377   6.864  1.00  0.00     0.049 A 
ATOM     52  C   UNL     1       9.493 -10.797  11.025  1.00  0.00     0.074 A 
ATOM     53  C   UNL     1       9.521 -15.282   6.562  1.00  0.00     0.029 A 
ATOM     54  N   UNL     1       8.969 -13.617   7.929  1.00  0.00    -0.354 N 
ATOM     55  N   UNL     1       9.421 -11.689  10.066  1.00  0.00    -0.248 NA
ATOM     56  C   UNL     1      10.699 -10.916  11.860  1.00  0.00     0.031 C 
ATOM     57  C   UNL     1      10.552 -15.115   7.491  1.00  0.00     0.029 A 
ATOM     58  C   UNL     1      10.222 -14.057   8.322  1.00  0.00     0.049 A 
ATOM     59  H   UNL     1       8.474 -12.874   8.345  1.00  0.00     0.167 HD
ATOM     60  C   UNL     1      10.586 -12.442  10.159  1.00  0.00     0.074 A 
ATOM     61  C   UNL     1      11.355 -11.895  11.255  1.00  0.00     0.031 C 
ATOM     62  C   UNL     1      10.986 -13.494   9.403  1.00  0.00     0.031 A 
BRANCH  49  63
ATOM     63  C   UNL     1       6.869 -15.204   5.152  1.00  0.00    -0.014 A 
ATOM     64  C   UNL     1       6.815 -14.822   3.803  1.00  0.00     0.009 A 
ATOM     65  C   UNL     1       6.650 -16.550   5.487  1.00  0.00     0.009 A 
ATOM     66  C   UNL     1       6.534 -15.767   2.814  1.00  0.00     0.001 A 
ATOM     67  C   UNL     1       6.398 -17.497   4.495  1.00  0.00     0.001 A 
ATOM     68  C   UNL     1       6.335 -17.104   3.159  1.00  0.00     0.000 A 
ENDBRANCH  49  63
BRANCH  50  69
ATOM     69  C   UNL     1       8.840  -8.773  12.510  1.00  0.00    -0.014 A 
ATOM     70  C   UNL     1       9.947  -7.910  12.460  1.00  0.00     0.009 A 
ATOM     71  C   UNL     1       8.074  -8.820  13.685  1.00  0.00     0.009 A 
ATOM     72  C   UNL     1      10.307  -7.153  13.578  1.00  0.00     0.001 A 
ATOM     73  C   UNL     1       8.415  -8.034  14.788  1.00  0.00     0.001 A 
ATOM     74  C   UNL     1       9.540  -7.214  14.740  1.00  0.00     0.000 A 
ENDBRANCH  50  69
BRANCH  62  75
ATOM     75  C   UNL     1      12.339 -14.087   9.690  1.00  0.00    -0.014 A 
ATOM     76  C   UNL     1      12.588 -14.824  10.858  1.00  0.00     0.009 A 
ATOM     77  C   UNL     1      13.370 -13.941   8.747  1.00  0.00     0.009 A 
ATOM     78  C   UNL     1      13.853 -15.369  11.093  1.00  0.00     0.001 A 
ATOM     79  C   UNL     1      14.622 -14.517   8.968  1.00  0.00     0.001 A 
ATOM     80  C   UNL     1      14.866 -15.221  10.146  1.00  0.00     0.000 A 
ENDBRANCH  62  75
ENDBRANCH  36  37
ENDBRANCH  29  31
ENDBRANCH  28  29
ENDBRANCH  27  28
ENDBRANCH  26  27
ENDBRANCH  25  26
ENDBRANCH  24  25
ENDBRANCH   1  24
TORSDOF 22
