REMARK SMILES C[C@@H](C(=O)OCCOCCOCCOC(=O)c1ccc(-c2c3nc(c(-c4ccccc4)c4ccc([nH]4)c(-c4ccccc4)c4nc(c(-c5ccccc5)c5ccc2[nH]5)C=C4)C=C3)cc1)c1ccc2c3cc(Cl)ccc3n(C(=O)c3ccc(Cl)cc3)c2c1
REMARK SMILES IDX 9 1 8 2 7 3 6 4 5 5 3 6 4 7 2 8 1 9 65 10 66 11 87 12 67 13
REMARK SMILES IDX 86 14 68 15 76 16 69 17 75 18 70 19 74 20 71 21 73 22 72 23
REMARK SMILES IDX 77 24 78 25 79 26 80 27 85 28 81 29 84 30 82 31 83 32 10 33
REMARK SMILES IDX 11 34 12 35 13 36 14 37 15 38 16 39 17 40 18 41 64 42 19 43
REMARK SMILES IDX 63 44 20 45 21 46 22 47 57 48 23 49 62 50 56 51 58 52 24 53
REMARK SMILES IDX 61 54 55 55 54 56 25 58 47 59 32 60 46 61 33 62 36 63 45 64
REMARK SMILES IDX 59 65 34 66 35 67 44 69 60 70 37 71 26 72 27 73 31 74 28 75
REMARK SMILES IDX 30 76 29 77 48 78 49 79 53 80 50 81 52 82 51 83 38 84 39 85
REMARK SMILES IDX 43 86 40 87 42 88 41 89
REMARK H PARENT 58 57 36 68
REMARK Flexibility Score: inf
ROOT
ATOM      1  C   UNL     1       0.210  -1.616   3.341  1.00  0.00     0.188 C 
ENDROOT
BRANCH   1   2
ATOM      2  O   UNL     1       0.962  -2.438   4.223  1.00  0.00    -0.376 OA
BRANCH   2   3
ATOM      3  C   UNL     1       2.244  -2.889   3.787  1.00  0.00     0.202 C 
BRANCH   3   4
ATOM      4  C   UNL     1       2.430  -3.369   2.333  1.00  0.00     0.261 C 
BRANCH   4   5
ATOM      5  O   UNL     1       2.041  -2.396   1.339  1.00  0.00    -0.463 OA
BRANCH   5   6
ATOM      6  C   UNL     1       1.430  -2.878   0.225  1.00  0.00     0.313 C 
ATOM      7  O   UNL     1       1.321  -4.074  -0.029  1.00  0.00    -0.252 OA
BRANCH   6   8
ATOM      8  C   UNL     1       0.821  -1.783  -0.670  1.00  0.00     0.126 C 
ATOM      9  C   UNL     1       1.704  -0.529  -0.769  1.00  0.00     0.025 C 
BRANCH   8  10
ATOM     10  C   UNL     1      -0.683  -1.539  -0.451  1.00  0.00    -0.032 A 
ATOM     11  C   UNL     1      -1.279  -0.284  -0.631  1.00  0.00     0.005 A 
ATOM     12  C   UNL     1      -1.529  -2.630  -0.173  1.00  0.00     0.032 A 
ATOM     13  C   UNL     1      -2.676  -0.122  -0.612  1.00  0.00     0.011 A 
ATOM     14  C   UNL     1      -2.931  -2.456  -0.099  1.00  0.00     0.057 A 
ATOM     15  C   UNL     1      -3.513  -1.232  -0.385  1.00  0.00     0.008 A 
ATOM     16  N   UNL     1      -3.947  -3.374   0.222  1.00  0.00    -0.276 N 
ATOM     17  C   UNL     1      -4.920  -1.432  -0.410  1.00  0.00     0.009 A 
ATOM     18  C   UNL     1      -5.182  -2.760  -0.027  1.00  0.00     0.057 A 
ATOM     19  C   UNL     1      -5.988  -0.562  -0.723  1.00  0.00     0.031 A 
ATOM     20  C   UNL     1      -6.513  -3.190   0.133  1.00  0.00     0.029 A 
ATOM     21  C   UNL     1      -7.296  -1.019  -0.628  1.00  0.00     0.041 A 
ATOM     22  C   UNL     1      -7.553  -2.312  -0.205  1.00  0.00     0.023 A 
ATOM     23  Cl  UNL     1      -8.602   0.030  -1.018  1.00  0.00    -0.084 Cl
BRANCH  16  24
ATOM     24  C   UNL     1      -3.649  -4.635   0.804  1.00  0.00     0.262 C 
ATOM     25  O   UNL     1      -2.675  -4.626   1.563  1.00  0.00    -0.268 OA
BRANCH  24  26
ATOM     26  C   UNL     1      -4.295  -5.972   0.620  1.00  0.00     0.040 A 
ATOM     27  C   UNL     1      -3.732  -7.041   1.354  1.00  0.00     0.015 A 
ATOM     28  C   UNL     1      -5.309  -6.269  -0.293  1.00  0.00     0.015 A 
ATOM     29  C   UNL     1      -4.185  -8.355   1.210  1.00  0.00     0.021 A 
ATOM     30  C   UNL     1      -5.795  -7.585  -0.409  1.00  0.00     0.021 A 
ATOM     31  C   UNL     1      -5.229  -8.620   0.337  1.00  0.00     0.041 A 
ATOM     32  Cl  UNL     1      -5.802 -10.231   0.159  1.00  0.00    -0.084 Cl
ENDBRANCH  24  26
ENDBRANCH  16  24
ENDBRANCH   8  10
ENDBRANCH   6   8
ENDBRANCH   5   6
ENDBRANCH   4   5
ENDBRANCH   3   4
ENDBRANCH   2   3
ENDBRANCH   1   2
BRANCH   1  33
ATOM     33  C   UNL     1       0.865  -0.326   2.823  1.00  0.00     0.188 C 
BRANCH  33  34
ATOM     34  O   UNL     1       2.253  -0.218   3.017  1.00  0.00    -0.376 OA
BRANCH  34  35
ATOM     35  C   UNL     1       2.779   0.623   4.030  1.00  0.00     0.202 C 
BRANCH  35  36
ATOM     36  C   UNL     1       2.026   1.054   5.309  1.00  0.00     0.261 C 
BRANCH  36  37
ATOM     37  O   UNL     1       0.596   1.008   5.311  1.00  0.00    -0.460 OA
BRANCH  37  38
ATOM     38  C   UNL     1      -0.049   2.087   4.800  1.00  0.00     0.338 C 
ATOM     39  O   UNL     1       0.447   3.094   4.340  1.00  0.00    -0.246 OA
BRANCH  38  40
ATOM     40  C   UNL     1      -1.480   1.722   4.674  1.00  0.00     0.060 A 
ATOM     41  C   UNL     1      -2.043   1.612   3.393  1.00  0.00     0.016 A 
ATOM     42  C   UNL     1      -2.251   1.470   5.809  1.00  0.00     0.016 A 
ATOM     43  C   UNL     1      -3.384   1.260   3.244  1.00  0.00     0.010 A 
ATOM     44  C   UNL     1      -3.604   1.152   5.659  1.00  0.00     0.010 A 
ATOM     45  C   UNL     1      -4.183   1.070   4.378  1.00  0.00    -0.014 A 
BRANCH  45  46
ATOM     46  C   UNL     1      -5.657   0.981   4.236  1.00  0.00     0.031 A 
ATOM     47  C   UNL     1      -6.461   2.239   4.417  1.00  0.00     0.074 A 
ATOM     48  C   UNL     1      -6.269  -0.184   3.959  1.00  0.00     0.049 A 
ATOM     49  N   UNL     1      -7.758   2.407   4.391  1.00  0.00    -0.248 NA
ATOM     50  C   UNL     1      -5.697   3.471   4.675  1.00  0.00     0.031 C 
ATOM     51  C   UNL     1      -5.593  -1.456   3.726  1.00  0.00     0.029 A 
ATOM     52  N   UNL     1      -7.605  -0.482   3.830  1.00  0.00    -0.354 N 
ATOM     53  C   UNL     1      -7.966   3.753   4.667  1.00  0.00     0.074 A 
ATOM     54  C   UNL     1      -6.666   4.355   4.859  1.00  0.00     0.031 C 
ATOM     55  C   UNL     1      -6.519  -2.399   3.476  1.00  0.00     0.029 A 
ATOM     56  C   UNL     1      -7.854  -1.806   3.550  1.00  0.00     0.049 A 
ATOM     57  H   UNL     1      -8.318   0.190   3.929  1.00  0.00     0.167 HD
ATOM     58  C   UNL     1      -9.137   4.424   4.765  1.00  0.00     0.031 A 
ATOM     59  C   UNL     1      -9.025  -2.454   3.372  1.00  0.00     0.031 A 
ATOM     60  C   UNL     1     -10.430   3.821   4.585  1.00  0.00     0.049 A 
ATOM     61  C   UNL     1     -10.315  -1.676   3.502  1.00  0.00     0.074 A 
ATOM     62  C   UNL     1     -11.677   4.415   4.665  1.00  0.00     0.029 A 
ATOM     63  N   UNL     1     -10.641   2.482   4.293  1.00  0.00    -0.354 N 
ATOM     64  N   UNL     1     -10.496  -0.394   3.713  1.00  0.00    -0.248 NA
ATOM     65  C   UNL     1     -11.565  -2.439   3.364  1.00  0.00     0.031 C 
ATOM     66  C   UNL     1     -12.645   3.422   4.489  1.00  0.00     0.029 A 
ATOM     67  C   UNL     1     -11.999   2.224   4.225  1.00  0.00     0.049 A 
ATOM     68  H   UNL     1      -9.931   1.814   4.156  1.00  0.00     0.167 HD
ATOM     69  C   UNL     1     -11.873  -0.196   3.709  1.00  0.00     0.074 A 
ATOM     70  C   UNL     1     -12.478  -1.481   3.429  1.00  0.00     0.031 C 
ATOM     71  C   UNL     1     -12.580   0.939   3.934  1.00  0.00     0.031 A 
BRANCH  58  72
ATOM     72  C   UNL     1      -9.072   5.875   5.153  1.00  0.00    -0.014 A 
ATOM     73  C   UNL     1      -8.579   6.853   4.276  1.00  0.00     0.009 A 
ATOM     74  C   UNL     1      -9.537   6.270   6.418  1.00  0.00     0.009 A 
ATOM     75  C   UNL     1      -8.518   8.192   4.673  1.00  0.00     0.001 A 
ATOM     76  C   UNL     1      -9.506   7.612   6.799  1.00  0.00     0.001 A 
ATOM     77  C   UNL     1      -8.987   8.570   5.931  1.00  0.00     0.000 A 
ENDBRANCH  58  72
BRANCH  59  78
ATOM     78  C   UNL     1      -9.052  -3.907   3.016  1.00  0.00    -0.014 A 
ATOM     79  C   UNL     1      -9.636  -4.335   1.811  1.00  0.00     0.009 A 
ATOM     80  C   UNL     1      -8.512  -4.881   3.868  1.00  0.00     0.009 A 
ATOM     81  C   UNL     1      -9.656  -5.685   1.453  1.00  0.00     0.001 A 
ATOM     82  C   UNL     1      -8.514  -6.232   3.502  1.00  0.00     0.001 A 
ATOM     83  C   UNL     1      -9.083  -6.633   2.295  1.00  0.00     0.000 A 
ENDBRANCH  59  78
BRANCH  71  84
ATOM     84  C   UNL     1     -14.082   0.848   3.864  1.00  0.00    -0.014 A 
ATOM     85  C   UNL     1     -14.818   0.152   4.836  1.00  0.00     0.009 A 
ATOM     86  C   UNL     1     -14.773   1.508   2.835  1.00  0.00     0.009 A 
ATOM     87  C   UNL     1     -16.211   0.085   4.756  1.00  0.00     0.001 A 
ATOM     88  C   UNL     1     -16.167   1.469   2.778  1.00  0.00     0.001 A 
ATOM     89  C   UNL     1     -16.884   0.748   3.731  1.00  0.00     0.000 A 
ENDBRANCH  71  84
ENDBRANCH  45  46
ENDBRANCH  38  40
ENDBRANCH  37  38
ENDBRANCH  36  37
ENDBRANCH  35  36
ENDBRANCH  34  35
ENDBRANCH  33  34
ENDBRANCH   1  33
TORSDOF 20
