REMARK SMILES Cc1cc(=O)n2cc(-c3ccccc3)nc2n1[C@H](C)C(=O)OCCOCCOCCOC(=O)c1ccc(-c2c3nc(c(-c4ccccc4)c4ccc([nH]4)c(-c4ccccc4)c4nc(c(-c5ccccc5)c5ccc2[nH]5)C=C4)C=C3)cc1
REMARK SMILES IDX 26 1 25 2 24 3 23 4 22 5 20 6 21 7 18 8 19 9 17 10 1 11 2 12
REMARK SMILES IDX 3 13 4 14 16 15 5 16 6 17 15 18 7 19 8 20 9 21 10 22 14 23
REMARK SMILES IDX 11 24 13 25 12 26 27 27 28 28 29 29 30 30 31 31 32 32 33 33
REMARK SMILES IDX 34 34 35 35 81 36 36 37 80 38 37 39 38 40 39 41 74 42 40 43
REMARK SMILES IDX 79 44 73 45 75 46 41 47 78 48 72 49 71 50 42 52 64 53 49 54
REMARK SMILES IDX 63 55 50 56 53 57 62 58 76 59 51 60 52 61 61 63 77 64 54 65
REMARK SMILES IDX 43 66 44 67 48 68 45 69 47 70 46 71 65 72 66 73 70 74 67 75
REMARK SMILES IDX 69 76 68 77 55 78 56 79 60 80 57 81 59 82 58 83
REMARK H PARENT 75 51 53 62
REMARK Flexibility Score: inf
ROOT
ATOM      1  C   UNL     1       3.155  -2.164  -3.141  1.00  0.00     0.188 C 
ENDROOT
BRANCH   1   2
ATOM      2  O   UNL     1       3.690  -2.634  -4.351  1.00  0.00    -0.376 OA
BRANCH   2   3
ATOM      3  C   UNL     1       2.816  -3.171  -5.334  1.00  0.00     0.202 C 
BRANCH   3   4
ATOM      4  C   UNL     1       1.278  -3.216  -5.207  1.00  0.00     0.261 C 
BRANCH   4   5
ATOM      5  O   UNL     1       0.654  -2.218  -4.390  1.00  0.00    -0.462 OA
BRANCH   5   6
ATOM      6  C   UNL     1      -0.008  -2.668  -3.286  1.00  0.00     0.329 C 
ATOM      7  O   UNL     1       0.050  -3.831  -2.884  1.00  0.00    -0.250 OA
BRANCH   6   8
ATOM      8  C   UNL     1      -0.837  -1.583  -2.542  1.00  0.00     0.197 C 
ATOM      9  C   UNL     1      -0.653  -0.107  -2.898  1.00  0.00     0.044 C 
BRANCH   8  10
ATOM     10  N   UNL     1      -2.289  -1.898  -2.590  1.00  0.00    -0.301 N 
ATOM     11  C   UNL     1      -2.717  -1.069  -0.233  1.00  0.00     0.065 C 
ATOM     12  C   UNL     1      -3.187  -1.687  -1.530  1.00  0.00     0.024 A 
ATOM     13  C   UNL     1      -4.492  -2.002  -1.657  1.00  0.00     0.093 A 
ATOM     14  C   UNL     1      -5.013  -2.556  -2.931  1.00  0.00     0.259 A 
ATOM     15  C   UNL     1      -2.749  -2.328  -3.803  1.00  0.00     0.218 A 
ATOM     16  O   UNL     1      -6.178  -2.879  -3.116  1.00  0.00    -0.269 OA
ATOM     17  N   UNL     1      -4.072  -2.670  -3.948  1.00  0.00    -0.251 N 
ATOM     18  N   UNL     1      -2.084  -2.502  -4.919  1.00  0.00    -0.212 NA
ATOM     19  C   UNL     1      -4.223  -3.133  -5.242  1.00  0.00     0.127 A 
ATOM     20  C   UNL     1      -2.972  -3.036  -5.806  1.00  0.00     0.091 A 
BRANCH  20  21
ATOM     21  C   UNL     1      -2.560  -3.458  -7.123  1.00  0.00     0.002 A 
ATOM     22  C   UNL     1      -3.039  -2.817  -8.267  1.00  0.00     0.010 A 
ATOM     23  C   UNL     1      -1.595  -4.468  -7.250  1.00  0.00     0.010 A 
ATOM     24  C   UNL     1      -2.565  -3.189  -9.527  1.00  0.00     0.001 A 
ATOM     25  C   UNL     1      -1.126  -4.843  -8.511  1.00  0.00     0.001 A 
ATOM     26  C   UNL     1      -1.613  -4.203  -9.649  1.00  0.00     0.000 A 
ENDBRANCH  20  21
ENDBRANCH   8  10
ENDBRANCH   6   8
ENDBRANCH   5   6
ENDBRANCH   4   5
ENDBRANCH   3   4
ENDBRANCH   2   3
ENDBRANCH   1   2
BRANCH   1  27
ATOM     27  C   UNL     1       2.652  -0.711  -3.105  1.00  0.00     0.188 C 
BRANCH  27  28
ATOM     28  O   UNL     1       2.164   0.028  -4.214  1.00  0.00    -0.376 OA
BRANCH  28  29
ATOM     29  C   UNL     1       2.777   0.114  -5.492  1.00  0.00     0.202 C 
BRANCH  29  30
ATOM     30  C   UNL     1       4.263   0.408  -5.669  1.00  0.00     0.261 C 
BRANCH  30  31
ATOM     31  O   UNL     1       5.037   0.008  -4.567  1.00  0.00    -0.460 OA
BRANCH  31  32
ATOM     32  C   UNL     1       5.058   0.917  -3.580  1.00  0.00     0.338 C 
ATOM     33  O   UNL     1       4.508   2.013  -3.542  1.00  0.00    -0.246 OA
BRANCH  32  34
ATOM     34  C   UNL     1       5.865   0.368  -2.497  1.00  0.00     0.060 A 
ATOM     35  C   UNL     1       5.798   1.019  -1.264  1.00  0.00     0.016 A 
ATOM     36  C   UNL     1       6.872  -0.546  -2.828  1.00  0.00     0.016 A 
ATOM     37  C   UNL     1       6.933   1.026  -0.500  1.00  0.00     0.010 A 
ATOM     38  C   UNL     1       8.011  -0.516  -2.084  1.00  0.00     0.010 A 
ATOM     39  C   UNL     1       8.056   0.378  -1.020  1.00  0.00    -0.014 A 
BRANCH  39  40
ATOM     40  C   UNL     1       9.341   0.685  -0.455  1.00  0.00     0.031 A 
ATOM     41  C   UNL     1       9.625  -0.120   0.739  1.00  0.00     0.074 A 
ATOM     42  C   UNL     1      10.179   1.538  -1.071  1.00  0.00     0.049 A 
ATOM     43  N   UNL     1       9.619   0.284   1.962  1.00  0.00    -0.248 NA
ATOM     44  C   UNL     1       9.695  -1.582   0.575  1.00  0.00     0.031 C 
ATOM     45  C   UNL     1      10.062   2.145  -2.402  1.00  0.00     0.029 A 
ATOM     46  N   UNL     1      11.402   1.951  -0.662  1.00  0.00    -0.354 N 
ATOM     47  C   UNL     1       9.910  -0.847   2.708  1.00  0.00     0.074 A 
ATOM     48  C   UNL     1       9.685  -1.977   1.846  1.00  0.00     0.031 C 
ATOM     49  C   UNL     1      11.273   2.622  -2.778  1.00  0.00     0.029 A 
ATOM     50  C   UNL     1      12.201   2.470  -1.670  1.00  0.00     0.049 A 
ATOM     51  H   UNL     1      11.699   1.888   0.274  1.00  0.00     0.167 HD
ATOM     52  C   UNL     1      10.634  -0.758   3.854  1.00  0.00     0.031 A 
ATOM     53  C   UNL     1      13.544   2.658  -1.597  1.00  0.00     0.031 A 
ATOM     54  C   UNL     1      10.697   0.596   4.340  1.00  0.00     0.049 A 
ATOM     55  C   UNL     1      13.909   2.646  -0.156  1.00  0.00     0.074 A 
ATOM     56  C   UNL     1       9.752   1.521   4.739  1.00  0.00     0.029 A 
ATOM     57  N   UNL     1      11.838   1.311   4.051  1.00  0.00    -0.354 N 
ATOM     58  N   UNL     1      13.533   3.568   0.684  1.00  0.00    -0.248 NA
ATOM     59  C   UNL     1      14.259   1.365   0.444  1.00  0.00     0.031 C 
ATOM     60  C   UNL     1      10.221   2.768   4.234  1.00  0.00     0.029 A 
ATOM     61  C   UNL     1      11.460   2.558   3.624  1.00  0.00     0.049 A 
ATOM     62  H   UNL     1      12.762   0.984   4.137  1.00  0.00     0.167 HD
ATOM     63  C   UNL     1      13.172   2.877   1.833  1.00  0.00     0.074 A 
ATOM     64  C   UNL     1      13.724   1.533   1.658  1.00  0.00     0.031 C 
ATOM     65  C   UNL     1      12.205   3.356   2.672  1.00  0.00     0.031 A 
BRANCH  52  66
ATOM     66  C   UNL     1      11.630  -1.811   4.255  1.00  0.00    -0.014 A 
ATOM     67  C   UNL     1      12.253  -1.704   5.506  1.00  0.00     0.009 A 
ATOM     68  C   UNL     1      12.169  -2.754   3.354  1.00  0.00     0.009 A 
ATOM     69  C   UNL     1      13.383  -2.468   5.817  1.00  0.00     0.001 A 
ATOM     70  C   UNL     1      13.266  -3.551   3.678  1.00  0.00     0.001 A 
ATOM     71  C   UNL     1      13.889  -3.389   4.904  1.00  0.00     0.000 A 
ENDBRANCH  52  66
BRANCH  53  72
ATOM     72  C   UNL     1      14.551   2.471  -2.670  1.00  0.00    -0.014 A 
ATOM     73  C   UNL     1      15.867   2.937  -2.513  1.00  0.00     0.009 A 
ATOM     74  C   UNL     1      14.298   1.590  -3.738  1.00  0.00     0.009 A 
ATOM     75  C   UNL     1      16.893   2.509  -3.370  1.00  0.00     0.001 A 
ATOM     76  C   UNL     1      15.320   1.165  -4.595  1.00  0.00     0.001 A 
ATOM     77  C   UNL     1      16.622   1.613  -4.401  1.00  0.00     0.000 A 
ENDBRANCH  53  72
BRANCH  65  78
ATOM     78  C   UNL     1      11.686   4.756   2.434  1.00  0.00    -0.014 A 
ATOM     79  C   UNL     1      10.996   5.136   1.268  1.00  0.00     0.009 A 
ATOM     80  C   UNL     1      11.727   5.661   3.505  1.00  0.00     0.009 A 
ATOM     81  C   UNL     1      10.377   6.389   1.177  1.00  0.00     0.001 A 
ATOM     82  C   UNL     1      11.091   6.902   3.422  1.00  0.00     0.001 A 
ATOM     83  C   UNL     1      10.418   7.266   2.259  1.00  0.00     0.000 A 
ENDBRANCH  65  78
ENDBRANCH  39  40
ENDBRANCH  32  34
ENDBRANCH  31  32
ENDBRANCH  30  31
ENDBRANCH  29  30
ENDBRANCH  28  29
ENDBRANCH  27  28
ENDBRANCH   1  27
TORSDOF 19
