REMARK SMILES O=C(OCCOCCOCCOC(=O)[C@@H]1CN(c2nc(-c3ccccc3)no2)CC[NH2+]1)c1ccc(-c2c3nc(c(-c4ccccc4)c4ccc([nH]4)c(-c4ccccc4)c4nc(c(-c5ccccc5)c5ccc2[nH]5)C=C4)C=C3)cc1
REMARK SMILES IDX 7 1 6 2 5 3 4 4 3 5 2 6 1 7 32 8 33 9 79 10 34 11 78 12
REMARK SMILES IDX 35 13 36 14 37 15 72 16 38 17 77 18 71 19 73 20 39 21 76 22
REMARK SMILES IDX 70 23 69 24 40 26 62 27 47 28 61 29 48 30 51 31 60 32 74 33
REMARK SMILES IDX 49 34 50 35 59 37 75 38 52 39 41 40 42 41 46 42 43 43 45 44
REMARK SMILES IDX 44 45 63 46 64 47 68 48 65 49 67 50 66 51 53 52 54 53 58 54
REMARK SMILES IDX 55 55 57 56 56 57 8 58 9 59 10 60 11 61 12 62 13 63 14 64
REMARK SMILES IDX 15 65 16 66 31 67 17 68 30 69 29 72 18 73 19 74 28 75 20 76
REMARK SMILES IDX 27 77 21 78 22 79 26 80 23 81 25 82 24 83
REMARK H PARENT 73 25 51 36 31 70 31 71
REMARK Flexibility Score: inf
ROOT
ATOM      1  C   UNL     1       2.507  -1.794  -0.038  1.00  0.00     0.188 C 
ENDROOT
BRANCH   1   2
ATOM      2  O   UNL     1       3.841  -1.403  -0.406  1.00  0.00    -0.376 OA
BRANCH   2   3
ATOM      3  C   UNL     1       4.728  -1.306   0.713  1.00  0.00     0.202 C 
BRANCH   3   4
ATOM      4  C   UNL     1       4.608  -0.022   1.543  1.00  0.00     0.261 C 
BRANCH   4   5
ATOM      5  O   UNL     1       3.283   0.521   1.570  1.00  0.00    -0.460 OA
BRANCH   5   6
ATOM      6  C   UNL     1       2.706   1.406   0.723  1.00  0.00     0.338 C 
ATOM      7  O   UNL     1       1.592   1.834   1.027  1.00  0.00    -0.246 OA
BRANCH   6   8
ATOM      8  C   UNL     1       3.309   1.899  -0.566  1.00  0.00     0.060 A 
ATOM      9  C   UNL     1       4.544   1.533  -1.113  1.00  0.00     0.016 A 
ATOM     10  C   UNL     1       2.547   2.845  -1.280  1.00  0.00     0.016 A 
ATOM     11  C   UNL     1       5.057   2.153  -2.254  1.00  0.00     0.010 A 
ATOM     12  C   UNL     1       3.039   3.451  -2.439  1.00  0.00     0.010 A 
ATOM     13  C   UNL     1       4.324   3.142  -2.897  1.00  0.00    -0.014 A 
BRANCH  13  14
ATOM     14  C   UNL     1       4.968   4.000  -3.909  1.00  0.00     0.031 A 
ATOM     15  C   UNL     1       5.415   5.364  -3.493  1.00  0.00     0.074 A 
ATOM     16  C   UNL     1       5.191   3.575  -5.163  1.00  0.00     0.049 A 
ATOM     17  N   UNL     1       5.901   6.328  -4.226  1.00  0.00    -0.248 NA
ATOM     18  C   UNL     1       5.359   5.660  -2.051  1.00  0.00     0.031 C 
ATOM     19  C   UNL     1       4.986   2.216  -5.646  1.00  0.00     0.029 A 
ATOM     20  N   UNL     1       5.577   4.275  -6.278  1.00  0.00    -0.354 N 
ATOM     21  C   UNL     1       6.272   7.317  -3.329  1.00  0.00     0.074 A 
ATOM     22  C   UNL     1       5.879   6.875  -2.009  1.00  0.00     0.031 C 
ATOM     23  C   UNL     1       5.093   2.212  -6.986  1.00  0.00     0.029 A 
ATOM     24  C   UNL     1       5.355   3.570  -7.436  1.00  0.00     0.049 A 
ATOM     25  H   UNL     1       5.968   5.178  -6.251  1.00  0.00     0.167 HD
ATOM     26  C   UNL     1       6.922   8.474  -3.585  1.00  0.00     0.031 A 
ATOM     27  C   UNL     1       5.287   3.999  -8.709  1.00  0.00     0.031 A 
ATOM     28  C   UNL     1       7.236   8.930  -4.909  1.00  0.00     0.049 A 
ATOM     29  C   UNL     1       5.689   5.411  -9.005  1.00  0.00     0.074 A 
ATOM     30  C   UNL     1       7.875  10.090  -5.302  1.00  0.00     0.029 A 
ATOM     31  N   UNL     1       6.894   8.245  -6.067  1.00  0.00    -0.354 N 
ATOM     32  N   UNL     1       6.060   6.345  -8.163  1.00  0.00    -0.248 NA
ATOM     33  C   UNL     1       5.731   5.811 -10.416  1.00  0.00     0.031 C 
ATOM     34  C   UNL     1       7.862  10.135  -6.702  1.00  0.00     0.029 A 
ATOM     35  C   UNL     1       7.265   8.977  -7.178  1.00  0.00     0.049 A 
ATOM     36  H   UNL     1       6.451   7.366  -6.093  1.00  0.00     0.167 HD
ATOM     37  C   UNL     1       6.471   7.414  -8.943  1.00  0.00     0.074 A 
ATOM     38  C   UNL     1       6.245   7.032 -10.325  1.00  0.00     0.031 C 
ATOM     39  C   UNL     1       7.036   8.579  -8.546  1.00  0.00     0.031 A 
BRANCH  26  40
ATOM     40  C   UNL     1       7.275   9.309  -2.392  1.00  0.00    -0.014 A 
ATOM     41  C   UNL     1       8.282   8.901  -1.499  1.00  0.00     0.009 A 
ATOM     42  C   UNL     1       6.538  10.466  -2.107  1.00  0.00     0.009 A 
ATOM     43  C   UNL     1       8.505   9.608  -0.316  1.00  0.00     0.001 A 
ATOM     44  C   UNL     1       6.779  11.183  -0.934  1.00  0.00     0.001 A 
ATOM     45  C   UNL     1       7.750  10.745  -0.033  1.00  0.00     0.000 A 
ENDBRANCH  26  40
BRANCH  27  46
ATOM     46  C   UNL     1       4.757   3.095  -9.758  1.00  0.00    -0.014 A 
ATOM     47  C   UNL     1       5.606   2.427 -10.649  1.00  0.00     0.009 A 
ATOM     48  C   UNL     1       3.371   2.870  -9.840  1.00  0.00     0.009 A 
ATOM     49  C   UNL     1       5.077   1.558 -11.607  1.00  0.00     0.001 A 
ATOM     50  C   UNL     1       2.847   1.990 -10.789  1.00  0.00     0.001 A 
ATOM     51  C   UNL     1       3.700   1.337 -11.674  1.00  0.00     0.000 A 
ENDBRANCH  27  46
BRANCH  39  52
ATOM     52  C   UNL     1       7.542   9.491  -9.622  1.00  0.00    -0.014 A 
ATOM     53  C   UNL     1       6.675  10.292 -10.376  1.00  0.00     0.009 A 
ATOM     54  C   UNL     1       8.927   9.585  -9.834  1.00  0.00     0.009 A 
ATOM     55  C   UNL     1       7.190  11.164 -11.338  1.00  0.00     0.001 A 
ATOM     56  C   UNL     1       9.438  10.474 -10.777  1.00  0.00     0.001 A 
ATOM     57  C   UNL     1       8.569  11.259 -11.531  1.00  0.00     0.000 A 
ENDBRANCH  39  52
ENDBRANCH  13  14
ENDBRANCH   6   8
ENDBRANCH   5   6
ENDBRANCH   4   5
ENDBRANCH   3   4
ENDBRANCH   2   3
ENDBRANCH   1   2
BRANCH   1  58
ATOM     58  C   UNL     1       1.905  -2.827  -0.993  1.00  0.00     0.188 C 
BRANCH  58  59
ATOM     59  O   UNL     1       2.455  -4.145  -0.956  1.00  0.00    -0.376 OA
BRANCH  59  60
ATOM     60  C   UNL     1       3.862  -4.278  -1.107  1.00  0.00     0.202 C 
BRANCH  60  61
ATOM     61  C   UNL     1       4.468  -4.035  -2.496  1.00  0.00     0.261 C 
BRANCH  61  62
ATOM     62  O   UNL     1       3.901  -2.936  -3.220  1.00  0.00    -0.459 OA
BRANCH  62  63
ATOM     63  C   UNL     1       2.975  -3.292  -4.155  1.00  0.00     0.366 C 
ATOM     64  O   UNL     1       2.695  -4.451  -4.454  1.00  0.00    -0.245 OA
BRANCH  63  65
ATOM     65  C   UNL     1       2.355  -2.103  -4.875  1.00  0.00     0.313 C 
ATOM     66  C   UNL     1       3.074  -1.948  -6.223  1.00  0.00     0.199 C 
ATOM     67  N   UNL     1       2.379  -0.828  -4.098  1.00  0.00    -0.332 N 
ATOM     68  N   UNL     1       2.439  -0.893  -7.007  1.00  0.00    -0.312 N 
ATOM     69  C   UNL     1       1.647   0.192  -4.876  1.00  0.00     0.283 C 
ATOM     70  H   UNL     1       3.344  -0.527  -3.954  1.00  0.00     0.347 HD
ATOM     71  H   UNL     1       1.944  -0.959  -3.185  1.00  0.00     0.347 HD
ATOM     72  C   UNL     1       2.040   0.349  -6.363  1.00  0.00     0.183 C 
BRANCH  68  73
ATOM     73  C   UNL     1       1.986  -1.196  -8.234  1.00  0.00     0.324 A 
ATOM     74  N   UNL     1       0.758  -1.183  -8.684  1.00  0.00    -0.171 NA
ATOM     75  O   UNL     1       2.886  -1.690  -9.135  1.00  0.00    -0.315 OA
ATOM     76  C   UNL     1       0.885  -1.829  -9.894  1.00  0.00     0.204 A 
ATOM     77  N   UNL     1       2.155  -2.082 -10.252  1.00  0.00    -0.055 NA
BRANCH  76  78
ATOM     78  C   UNL     1      -0.271  -2.301 -10.642  1.00  0.00     0.023 A 
ATOM     79  C   UNL     1      -0.126  -3.290 -11.627  1.00  0.00     0.012 A 
ATOM     80  C   UNL     1      -1.555  -1.830 -10.336  1.00  0.00     0.012 A 
ATOM     81  C   UNL     1      -1.243  -3.801 -12.289  1.00  0.00     0.001 A 
ATOM     82  C   UNL     1      -2.672  -2.337 -11.005  1.00  0.00     0.001 A 
ATOM     83  C   UNL     1      -2.515  -3.323 -11.978  1.00  0.00     0.000 A 
ENDBRANCH  76  78
ENDBRANCH  68  73
ENDBRANCH  63  65
ENDBRANCH  62  63
ENDBRANCH  61  62
ENDBRANCH  60  61
ENDBRANCH  59  60
ENDBRANCH  58  59
ENDBRANCH   1  58
TORSDOF 19
