REMARK SMILES C[C@@H]1CN(C(=O)N2CCC(CC(=O)OCCOCCOCCOC(=O)c3ccc(-c4c5nc(c(-c6ccccc6)c6ccc([nH]6)c(-c6ccccc6)c6nc(c(-c7ccccc7)c7ccc4[nH]7)C=C6)C=C5)cc3)CC2)C[C@@H](C)S1
REMARK SMILES IDX 19 1 18 2 17 3 16 4 15 5 14 6 12 7 13 8 11 9 10 10 1 11 2 12
REMARK SMILES IDX 3 13 79 14 4 15 77 16 5 17 76 18 78 19 6 20 7 21 8 22 75 23
REMARK SMILES IDX 9 24 74 25 20 26 21 27 22 28 23 29 24 30 25 31 26 32 27 33
REMARK SMILES IDX 73 34 28 35 72 36 29 37 30 38 31 39 66 40 32 41 71 42 65 43
REMARK SMILES IDX 67 44 33 45 70 46 64 47 63 48 34 50 56 51 41 52 55 53 42 54
REMARK SMILES IDX 45 55 54 56 68 57 43 58 44 59 53 61 69 62 46 63 35 64 36 65
REMARK SMILES IDX 40 66 37 67 39 68 38 69 57 70 58 71 62 72 59 73 61 74 60 75
REMARK SMILES IDX 47 76 48 77 52 78 49 79 51 80 50 81
REMARK H PARENT 67 49 45 60
REMARK Flexibility Score: inf
ROOT
ATOM      1  C   UNL     1      -3.302  -6.599   3.338  1.00  0.00     0.188 C 
ENDROOT
BRANCH   1   2
ATOM      2  C   UNL     1      -4.100  -5.463   3.975  1.00  0.00     0.188 C 
BRANCH   2   3
ATOM      3  O   UNL     1      -5.474  -5.381   3.615  1.00  0.00    -0.376 OA
BRANCH   3   4
ATOM      4  C   UNL     1      -5.764  -5.266   2.222  1.00  0.00     0.202 C 
BRANCH   4   5
ATOM      5  C   UNL     1      -5.267  -3.990   1.529  1.00  0.00     0.261 C 
BRANCH   5   6
ATOM      6  O   UNL     1      -3.855  -3.752   1.706  1.00  0.00    -0.463 OA
BRANCH   6   7
ATOM      7  C   UNL     1      -3.517  -2.591   2.320  1.00  0.00     0.306 C 
ATOM      8  O   UNL     1      -4.311  -1.710   2.632  1.00  0.00    -0.252 OA
BRANCH   7   9
ATOM      9  C   UNL     1      -2.046  -2.475   2.681  1.00  0.00     0.126 C 
BRANCH   9  10
ATOM     10  C   UNL     1      -0.992  -3.503   2.206  1.00  0.00     0.003 C 
ATOM     11  C   UNL     1       0.872   0.100  -0.060  1.00  0.00     0.021 C 
ATOM     12  C   UNL     1       0.533  -0.269  -1.504  1.00  0.00     0.063 C 
ATOM     13  C   UNL     1       0.557  -1.781  -1.769  1.00  0.00     0.135 C 
ATOM     14  S   UNL     1       1.642   0.595  -2.669  1.00  0.00    -0.152 SA
ATOM     15  N   UNL     1       1.870  -2.389  -1.558  1.00  0.00    -0.322 N 
ATOM     16  C   UNL     1       3.163  -0.419  -2.436  1.00  0.00     0.063 C 
ATOM     17  C   UNL     1       2.287  -2.992  -0.380  1.00  0.00     0.320 C 
ATOM     18  C   UNL     1       2.887  -1.936  -2.515  1.00  0.00     0.135 C 
ATOM     19  C   UNL     1       4.150   0.012  -3.518  1.00  0.00     0.021 C 
ATOM     20  O   UNL     1       3.477  -2.993  -0.058  1.00  0.00    -0.248 OA
ATOM     21  N   UNL     1       1.327  -3.519   0.462  1.00  0.00    -0.325 N 
ATOM     22  C   UNL     1       1.582  -3.584   1.890  1.00  0.00     0.121 C 
ATOM     23  C   UNL     1       0.180  -4.315   0.050  1.00  0.00     0.121 C 
ATOM     24  C   UNL     1       0.403  -2.954   2.623  1.00  0.00     0.026 C 
ATOM     25  C   UNL     1      -1.104  -3.796   0.699  1.00  0.00     0.026 C 
ENDBRANCH   9  10
ENDBRANCH   7   9
ENDBRANCH   6   7
ENDBRANCH   5   6
ENDBRANCH   4   5
ENDBRANCH   3   4
ENDBRANCH   2   3
ENDBRANCH   1   2
BRANCH   1  26
ATOM     26  O   UNL     1      -3.384  -6.713   1.925  1.00  0.00    -0.376 OA
BRANCH  26  27
ATOM     27  C   UNL     1      -2.668  -7.803   1.332  1.00  0.00     0.202 C 
BRANCH  27  28
ATOM     28  C   UNL     1      -2.818  -9.200   1.977  1.00  0.00     0.261 C 
BRANCH  28  29
ATOM     29  O   UNL     1      -2.441  -9.307   3.369  1.00  0.00    -0.460 OA
BRANCH  29  30
ATOM     30  C   UNL     1      -1.229  -8.835   3.743  1.00  0.00     0.338 C 
ATOM     31  O   UNL     1      -0.311  -8.533   2.998  1.00  0.00    -0.246 OA
BRANCH  30  32
ATOM     32  C   UNL     1      -1.284  -8.466   5.188  1.00  0.00     0.060 A 
ATOM     33  C   UNL     1      -0.609  -7.306   5.598  1.00  0.00     0.016 A 
ATOM     34  C   UNL     1      -2.045  -9.183   6.118  1.00  0.00     0.016 A 
ATOM     35  C   UNL     1      -0.652  -6.891   6.933  1.00  0.00     0.010 A 
ATOM     36  C   UNL     1      -2.076  -8.774   7.459  1.00  0.00     0.010 A 
ATOM     37  C   UNL     1      -1.349  -7.647   7.883  1.00  0.00    -0.014 A 
BRANCH  37  38
ATOM     38  C   UNL     1      -1.137  -7.389   9.334  1.00  0.00     0.031 A 
ATOM     39  C   UNL     1      -0.142  -8.250  10.069  1.00  0.00     0.074 A 
ATOM     40  C   UNL     1      -1.769  -6.401   9.993  1.00  0.00     0.049 A 
ATOM     41  N   UNL     1       0.200  -8.236  11.333  1.00  0.00    -0.248 NA
ATOM     42  C   UNL     1       0.564  -9.261   9.266  1.00  0.00     0.031 C 
ATOM     43  C   UNL     1      -2.715  -5.454   9.408  1.00  0.00     0.029 A 
ATOM     44  N   UNL     1      -1.703  -6.035  11.318  1.00  0.00    -0.354 N 
ATOM     45  C   UNL     1       1.150  -9.240  11.476  1.00  0.00     0.074 A 
ATOM     46  C   UNL     1       1.309  -9.862  10.180  1.00  0.00     0.031 C 
ATOM     47  C   UNL     1      -3.146  -4.618  10.371  1.00  0.00     0.029 A 
ATOM     48  C   UNL     1      -2.534  -4.991  11.647  1.00  0.00     0.049 A 
ATOM     49  H   UNL     1      -1.115  -6.480  11.970  1.00  0.00     0.167 HD
ATOM     50  C   UNL     1       1.838  -9.612  12.582  1.00  0.00     0.031 A 
ATOM     51  C   UNL     1      -2.789  -4.417  12.841  1.00  0.00     0.031 A 
ATOM     52  C   UNL     1       1.680  -9.014  13.880  1.00  0.00     0.049 A 
ATOM     53  C   UNL     1      -2.080  -4.911  14.078  1.00  0.00     0.074 A 
ATOM     54  C   UNL     1       2.343  -9.321  15.055  1.00  0.00     0.029 A 
ATOM     55  N   UNL     1       0.790  -7.995  14.177  1.00  0.00    -0.354 N 
ATOM     56  N   UNL     1      -1.167  -5.845  14.195  1.00  0.00    -0.248 NA
ATOM     57  C   UNL     1      -2.436  -4.262  15.351  1.00  0.00     0.031 C 
ATOM     58  C   UNL     1       1.808  -8.533  16.078  1.00  0.00     0.029 A 
ATOM     59  C   UNL     1       0.864  -7.684  15.525  1.00  0.00     0.049 A 
ATOM     60  H   UNL     1       0.194  -7.557  13.527  1.00  0.00     0.167 HD
ATOM     61  C   UNL     1      -0.818  -5.870  15.542  1.00  0.00     0.074 A 
ATOM     62  C   UNL     1      -1.605  -4.850  16.200  1.00  0.00     0.031 C 
ATOM     63  C   UNL     1       0.079  -6.667  16.175  1.00  0.00     0.031 A 
BRANCH  50  64
ATOM     64  C   UNL     1       2.800 -10.759  12.440  1.00  0.00    -0.014 A 
ATOM     65  C   UNL     1       3.999 -10.626  11.723  1.00  0.00     0.009 A 
ATOM     66  C   UNL     1       2.512 -11.985  13.060  1.00  0.00     0.009 A 
ATOM     67  C   UNL     1       4.872 -11.709  11.599  1.00  0.00     0.001 A 
ATOM     68  C   UNL     1       3.401 -13.056  12.961  1.00  0.00     0.001 A 
ATOM     69  C   UNL     1       4.575 -12.921  12.222  1.00  0.00     0.000 A 
ENDBRANCH  50  64
BRANCH  51  70
ATOM     70  C   UNL     1      -3.788  -3.317  12.947  1.00  0.00    -0.014 A 
ATOM     71  C   UNL     1      -3.392  -2.014  13.287  1.00  0.00     0.009 A 
ATOM     72  C   UNL     1      -5.154  -3.579  12.753  1.00  0.00     0.009 A 
ATOM     73  C   UNL     1      -4.344  -1.005  13.457  1.00  0.00     0.001 A 
ATOM     74  C   UNL     1      -6.100  -2.561  12.893  1.00  0.00     0.001 A 
ATOM     75  C   UNL     1      -5.696  -1.278  13.255  1.00  0.00     0.000 A 
ENDBRANCH  51  70
BRANCH  63  76
ATOM     76  C   UNL     1       0.297  -6.441  17.648  1.00  0.00    -0.014 A 
ATOM     77  C   UNL     1      -0.678  -6.780  18.598  1.00  0.00     0.009 A 
ATOM     78  C   UNL     1       1.524  -5.921  18.094  1.00  0.00     0.009 A 
ATOM     79  C   UNL     1      -0.444  -6.569  19.959  1.00  0.00     0.001 A 
ATOM     80  C   UNL     1       1.768  -5.742  19.456  1.00  0.00     0.001 A 
ATOM     81  C   UNL     1       0.780  -6.055  20.387  1.00  0.00     0.000 A 
ENDBRANCH  63  76
ENDBRANCH  37  38
ENDBRANCH  30  32
ENDBRANCH  29  30
ENDBRANCH  28  29
ENDBRANCH  27  28
ENDBRANCH  26  27
ENDBRANCH   1  26
TORSDOF 18
