REMARK SMILES CCn1c(C(=O)OCCOCCOCCOC(=O)c2ccc(-c3c4nc(c(-c5ccccc5)c5ccc([nH]5)c(-c5ccccc5)c5nc(c(-c6ccccc6)c6ccc3[nH]6)C=C5)C=C4)cc2)c(C[NH2+]Cc2ccccc2Cl)c2ccc(C)cc21
REMARK SMILES IDX 11 1 10 2 9 3 8 4 7 5 5 6 6 7 4 8 3 9 84 10 67 11 78 12
REMARK SMILES IDX 83 13 79 14 81 15 80 16 82 17 2 18 1 19 68 20 69 21 70 24
REMARK SMILES IDX 71 25 72 26 76 27 73 28 75 29 77 30 74 31 12 32 13 33 14 34
REMARK SMILES IDX 15 35 16 36 17 37 18 38 19 39 20 40 66 41 21 42 65 43 22 44
REMARK SMILES IDX 23 45 24 46 59 47 25 48 64 49 58 50 60 51 26 52 63 53 57 54
REMARK SMILES IDX 56 55 27 57 49 58 34 59 48 60 35 61 38 62 47 63 61 64 36 65
REMARK SMILES IDX 37 66 46 68 62 69 39 70 28 71 29 72 33 73 30 74 32 75 31 76
REMARK SMILES IDX 50 77 51 78 55 79 52 80 54 81 53 82 40 83 41 84 45 85 42 86
REMARK SMILES IDX 44 87 43 88
REMARK H PARENT 69 22 69 23 60 56 38 67
REMARK Flexibility Score: inf
ROOT
ATOM      1  C   UNL     1      -1.610  -4.831  -0.266  1.00  0.00     0.188 C 
ENDROOT
BRANCH   1   2
ATOM      2  O   UNL     1      -1.692  -6.200  -0.613  1.00  0.00    -0.376 OA
BRANCH   2   3
ATOM      3  C   UNL     1      -0.489  -6.793  -1.035  1.00  0.00     0.202 C 
BRANCH   3   4
ATOM      4  C   UNL     1       0.560  -6.908   0.072  1.00  0.00     0.261 C 
BRANCH   4   5
ATOM      5  O   UNL     1       0.482  -5.866   1.071  1.00  0.00    -0.459 OA
BRANCH   5   6
ATOM      6  C   UNL     1       1.462  -4.932   1.102  1.00  0.00     0.355 C 
ATOM      7  O   UNL     1       2.347  -4.902   0.246  1.00  0.00    -0.244 OA
BRANCH   6   8
ATOM      8  C   UNL     1       1.438  -4.133   2.333  1.00  0.00     0.137 A 
ATOM      9  N   UNL     1       1.212  -2.780   2.579  1.00  0.00    -0.335 N 
ATOM     10  C   UNL     1       1.839  -2.416   3.758  1.00  0.00     0.049 A 
ATOM     11  C   UNL     1       1.688  -4.659   3.601  1.00  0.00     0.047 A 
ATOM     12  C   UNL     1       2.002  -3.579   4.492  1.00  0.00     0.009 A 
ATOM     13  C   UNL     1       2.168  -1.153   4.276  1.00  0.00     0.030 A 
ATOM     14  C   UNL     1       2.413  -3.432   5.836  1.00  0.00     0.011 A 
ATOM     15  C   UNL     1       2.546  -1.003   5.601  1.00  0.00    -0.049 A 
ATOM     16  C   UNL     1       2.654  -2.146   6.381  1.00  0.00     0.004 A 
ATOM     17  C   UNL     1       2.839   0.395   6.065  1.00  0.00     0.044 C 
BRANCH   9  18
ATOM     18  C   UNL     1       0.134  -1.953   2.034  1.00  0.00     0.119 C 
ATOM     19  C   UNL     1       0.263  -0.440   2.270  1.00  0.00     0.027 C 
ENDBRANCH   9  18
BRANCH  11  20
ATOM     20  C   UNL     1       1.582  -6.116   3.884  1.00  0.00     0.300 C 
BRANCH  20  21
ATOM     21  N   UNL     1       0.145  -6.384   3.757  1.00  0.00    -0.339 N 
ATOM     22  H   UNL     1      -0.069  -6.480   2.765  1.00  0.00     0.346 HD
ATOM     23  H   UNL     1      -0.326  -5.600   4.207  1.00  0.00     0.346 HD
BRANCH  21  24
ATOM     24  C   UNL     1      -0.332  -7.576   4.435  1.00  0.00     0.299 C 
BRANCH  24  25
ATOM     25  C   UNL     1       0.087  -7.600   5.883  1.00  0.00     0.025 A 
ATOM     26  C   UNL     1       0.022  -6.409   6.642  1.00  0.00     0.011 A 
ATOM     27  C   UNL     1       0.688  -8.728   6.453  1.00  0.00     0.049 A 
ATOM     28  C   UNL     1       0.683  -6.305   7.860  1.00  0.00     0.001 A 
ATOM     29  C   UNL     1       1.326  -8.625   7.689  1.00  0.00     0.021 A 
ATOM     30  Cl  UNL     1       0.719 -10.260   5.657  1.00  0.00    -0.084 Cl
ATOM     31  C   UNL     1       1.355  -7.408   8.373  1.00  0.00     0.002 A 
ENDBRANCH  24  25
ENDBRANCH  21  24
ENDBRANCH  20  21
ENDBRANCH  11  20
ENDBRANCH   6   8
ENDBRANCH   5   6
ENDBRANCH   4   5
ENDBRANCH   3   4
ENDBRANCH   2   3
ENDBRANCH   1   2
BRANCH   1  32
ATOM     32  C   UNL     1      -2.222  -4.554   1.117  1.00  0.00     0.188 C 
BRANCH  32  33
ATOM     33  O   UNL     1      -3.180  -5.477   1.626  1.00  0.00    -0.376 OA
BRANCH  33  34
ATOM     34  C   UNL     1      -4.183  -5.965   0.736  1.00  0.00     0.202 C 
BRANCH  34  35
ATOM     35  C   UNL     1      -5.082  -4.894   0.105  1.00  0.00     0.261 C 
BRANCH  35  36
ATOM     36  O   UNL     1      -4.361  -4.097  -0.864  1.00  0.00    -0.460 OA
BRANCH  36  37
ATOM     37  C   UNL     1      -4.627  -2.766  -0.872  1.00  0.00     0.338 C 
ATOM     38  O   UNL     1      -5.606  -2.229  -0.379  1.00  0.00    -0.246 OA
BRANCH  37  39
ATOM     39  C   UNL     1      -3.369  -2.027  -1.209  1.00  0.00     0.060 A 
ATOM     40  C   UNL     1      -2.478  -2.317  -2.258  1.00  0.00     0.016 A 
ATOM     41  C   UNL     1      -2.977  -1.092  -0.271  1.00  0.00     0.016 A 
ATOM     42  C   UNL     1      -1.134  -1.823  -2.248  1.00  0.00     0.010 A 
ATOM     43  C   UNL     1      -1.686  -0.566  -0.327  1.00  0.00     0.010 A 
ATOM     44  C   UNL     1      -0.677  -0.995  -1.219  1.00  0.00    -0.014 A 
BRANCH  44  45
ATOM     45  C   UNL     1       0.702  -0.366  -1.103  1.00  0.00     0.031 A 
ATOM     46  C   UNL     1       0.719   1.016  -1.589  1.00  0.00     0.074 A 
ATOM     47  C   UNL     1       1.922  -0.776  -0.611  1.00  0.00     0.049 A 
ATOM     48  N   UNL     1       1.320   1.339  -2.683  1.00  0.00    -0.248 NA
ATOM     49  C   UNL     1      -0.008   2.107  -0.934  1.00  0.00     0.031 C 
ATOM     50  C   UNL     1       2.279  -2.121  -0.218  1.00  0.00     0.029 A 
ATOM     51  N   UNL     1       3.102  -0.097  -0.251  1.00  0.00    -0.354 N 
ATOM     52  C   UNL     1       1.306   2.710  -2.687  1.00  0.00     0.074 A 
ATOM     53  C   UNL     1       0.293   3.120  -1.747  1.00  0.00     0.031 C 
ATOM     54  C   UNL     1       3.386  -2.140   0.573  1.00  0.00     0.029 A 
ATOM     55  C   UNL     1       3.962  -0.812   0.631  1.00  0.00     0.049 A 
ATOM     56  H   UNL     1       3.317   0.805  -0.584  1.00  0.00     0.167 HD
ATOM     57  C   UNL     1       2.382   3.379  -3.164  1.00  0.00     0.031 A 
ATOM     58  C   UNL     1       5.193  -0.511   1.168  1.00  0.00     0.031 A 
ATOM     59  C   UNL     1       3.276   2.543  -3.927  1.00  0.00     0.049 A 
ATOM     60  C   UNL     1       5.934   0.081   0.051  1.00  0.00     0.074 A 
ATOM     61  C   UNL     1       3.201   1.860  -5.122  1.00  0.00     0.029 A 
ATOM     62  N   UNL     1       4.337   2.018  -3.235  1.00  0.00    -0.354 N 
ATOM     63  N   UNL     1       6.343  -0.614  -0.969  1.00  0.00    -0.248 NA
ATOM     64  C   UNL     1       6.128   1.519  -0.036  1.00  0.00     0.031 C 
ATOM     65  C   UNL     1       4.186   0.834  -5.081  1.00  0.00     0.029 A 
ATOM     66  C   UNL     1       4.864   0.915  -3.873  1.00  0.00     0.049 A 
ATOM     67  H   UNL     1       4.680   2.382  -2.388  1.00  0.00     0.167 HD
ATOM     68  C   UNL     1       6.302   0.306  -1.985  1.00  0.00     0.074 A 
ATOM     69  C   UNL     1       6.426   1.604  -1.334  1.00  0.00     0.031 C 
ATOM     70  C   UNL     1       5.712  -0.025  -3.165  1.00  0.00     0.031 A 
BRANCH  57  71
ATOM     71  C   UNL     1       2.805   4.683  -2.571  1.00  0.00    -0.014 A 
ATOM     72  C   UNL     1       2.588   5.011  -1.215  1.00  0.00     0.009 A 
ATOM     73  C   UNL     1       3.617   5.537  -3.322  1.00  0.00     0.009 A 
ATOM     74  C   UNL     1       3.093   6.182  -0.653  1.00  0.00     0.001 A 
ATOM     75  C   UNL     1       4.159   6.690  -2.750  1.00  0.00     0.001 A 
ATOM     76  C   UNL     1       3.886   7.019  -1.423  1.00  0.00     0.000 A 
ENDBRANCH  57  71
BRANCH  58  77
ATOM     77  C   UNL     1       6.026  -0.879   2.377  1.00  0.00    -0.014 A 
ATOM     78  C   UNL     1       5.425  -1.070   3.619  1.00  0.00     0.009 A 
ATOM     79  C   UNL     1       7.425  -0.688   2.421  1.00  0.00     0.009 A 
ATOM     80  C   UNL     1       6.113  -0.931   4.841  1.00  0.00     0.001 A 
ATOM     81  C   UNL     1       8.135  -0.569   3.637  1.00  0.00     0.001 A 
ATOM     82  C   UNL     1       7.469  -0.645   4.852  1.00  0.00     0.000 A 
ENDBRANCH  58  77
BRANCH  70  83
ATOM     83  C   UNL     1       5.716  -1.475  -3.596  1.00  0.00    -0.014 A 
ATOM     84  C   UNL     1       6.254  -1.795  -4.851  1.00  0.00     0.009 A 
ATOM     85  C   UNL     1       5.133  -2.518  -2.855  1.00  0.00     0.009 A 
ATOM     86  C   UNL     1       6.175  -3.095  -5.363  1.00  0.00     0.001 A 
ATOM     87  C   UNL     1       5.074  -3.825  -3.352  1.00  0.00     0.001 A 
ATOM     88  C   UNL     1       5.581  -4.109  -4.616  1.00  0.00     0.000 A 
ENDBRANCH  70  83
ENDBRANCH  44  45
ENDBRANCH  37  39
ENDBRANCH  36  37
ENDBRANCH  35  36
ENDBRANCH  34  35
ENDBRANCH  33  34
ENDBRANCH  32  33
ENDBRANCH   1  32
TORSDOF 22
