REMARK SMILES Nc1cc(C(=O)OCCOCCOCCOC(=O)c2ccc(-c3c4nc(c(-c5ccccc5)c5ccc([nH]5)c(-c5ccccc5)c5nc(c(-c6ccccc6)c6ccc3[nH]6)C=C5)C=C4)cc2)ccc1N1CC2(CCOCC2)C1
REMARK SMILES IDX 12 1 11 2 10 3 9 4 8 5 7 6 5 7 6 8 4 9 2 10 3 11 69 12 68 13
REMARK SMILES IDX 67 14 1 15 70 18 71 19 78 20 72 21 73 22 77 23 74 24 76 25
REMARK SMILES IDX 75 26 13 27 14 28 15 29 16 30 17 31 18 32 19 33 20 34 66 35
REMARK SMILES IDX 21 36 65 37 22 38 23 39 24 40 59 41 25 42 64 43 58 44 60 45
REMARK SMILES IDX 26 46 63 47 57 48 56 49 27 51 49 52 34 53 48 54 35 55 38 56
REMARK SMILES IDX 47 57 61 58 36 59 37 60 46 62 62 63 39 64 28 65 29 66 33 67
REMARK SMILES IDX 30 68 32 69 31 70 50 71 51 72 55 73 52 74 54 75 53 76 40 77
REMARK SMILES IDX 41 78 45 79 42 80 44 81 43 82
REMARK H PARENT 1 16 1 17 60 50 38 61
REMARK Flexibility Score: inf
ROOT
ATOM      1  C   UNL     1      -2.237  -2.630  -2.199  1.00  0.00     0.188 C 
ENDROOT
BRANCH   1   2
ATOM      2  C   UNL     1      -1.639  -3.833  -1.440  1.00  0.00     0.188 C 
BRANCH   2   3
ATOM      3  O   UNL     1      -2.467  -4.899  -1.002  1.00  0.00    -0.376 OA
BRANCH   3   4
ATOM      4  C   UNL     1      -3.660  -4.612  -0.286  1.00  0.00     0.202 C 
BRANCH   4   5
ATOM      5  C   UNL     1      -3.598  -3.740   0.971  1.00  0.00     0.261 C 
BRANCH   5   6
ATOM      6  O   UNL     1      -3.019  -2.446   0.744  1.00  0.00    -0.460 OA
BRANCH   6   7
ATOM      7  C   UNL     1      -1.915  -2.174   1.480  1.00  0.00     0.338 C 
ATOM      8  O   UNL     1      -1.418  -2.875   2.348  1.00  0.00    -0.246 OA
BRANCH   7   9
ATOM      9  C   UNL     1      -1.242  -0.967   0.964  1.00  0.00     0.062 A 
ATOM     10  C   UNL     1       0.877   0.050   0.292  1.00  0.00     0.056 A 
ATOM     11  C   UNL     1       0.131  -1.061   0.706  1.00  0.00     0.043 A 
ATOM     12  C   UNL     1       0.217   1.286   0.117  1.00  0.00     0.060 A 
ATOM     13  C   UNL     1      -1.179   1.347   0.343  1.00  0.00     0.029 A 
ATOM     14  C   UNL     1      -1.913   0.230   0.750  1.00  0.00     0.018 A 
BRANCH  10  15
ATOM     15  N   UNL     1       2.224  -0.157   0.012  1.00  0.00    -0.397 N 
ATOM     16  H   UNL     1       2.627  -1.044   0.156  1.00  0.00     0.156 HD
ATOM     17  H   UNL     1       2.775   0.584  -0.331  1.00  0.00     0.156 HD
ENDBRANCH  10  15
BRANCH  12  18
ATOM     18  N   UNL     1       0.859   2.511  -0.175  1.00  0.00    -0.369 N 
ATOM     19  C   UNL     1       1.989   2.892  -0.955  1.00  0.00     0.125 C 
ATOM     20  C   UNL     1       1.018   3.573   0.779  1.00  0.00     0.125 C 
ATOM     21  C   UNL     1       2.434   3.805   0.216  1.00  0.00     0.010 C 
ATOM     22  C   UNL     1       2.733   5.267  -0.120  1.00  0.00     0.039 C 
ATOM     23  C   UNL     1       3.550   3.239   1.107  1.00  0.00     0.039 C 
ATOM     24  C   UNL     1       4.125   5.366  -0.735  1.00  0.00     0.161 C 
ATOM     25  C   UNL     1       4.890   3.438   0.409  1.00  0.00     0.161 C 
ATOM     26  O   UNL     1       5.106   4.827   0.154  1.00  0.00    -0.381 OA
ENDBRANCH  12  18
ENDBRANCH   7   9
ENDBRANCH   6   7
ENDBRANCH   5   6
ENDBRANCH   4   5
ENDBRANCH   3   4
ENDBRANCH   2   3
ENDBRANCH   1   2
BRANCH   1  27
ATOM     27  O   UNL     1      -3.612  -2.621  -2.496  1.00  0.00    -0.376 OA
BRANCH  27  28
ATOM     28  C   UNL     1      -4.167  -3.415  -3.528  1.00  0.00     0.202 C 
BRANCH  28  29
ATOM     29  C   UNL     1      -3.385  -4.196  -4.598  1.00  0.00     0.261 C 
BRANCH  29  30
ATOM     30  O   UNL     1      -2.002  -4.450  -4.363  1.00  0.00    -0.460 OA
BRANCH  30  31
ATOM     31  C   UNL     1      -1.148  -3.723  -5.122  1.00  0.00     0.338 C 
ATOM     32  O   UNL     1      -1.421  -2.856  -5.931  1.00  0.00    -0.246 OA
BRANCH  31  33
ATOM     33  C   UNL     1       0.229  -4.044  -4.713  1.00  0.00     0.060 A 
ATOM     34  C   UNL     1       1.004  -3.041  -4.121  1.00  0.00     0.016 A 
ATOM     35  C   UNL     1       0.760  -5.312  -4.956  1.00  0.00     0.016 A 
ATOM     36  C   UNL     1       2.333  -3.298  -3.790  1.00  0.00     0.010 A 
ATOM     37  C   UNL     1       2.097  -5.562  -4.640  1.00  0.00     0.010 A 
ATOM     38  C   UNL     1       2.896  -4.548  -4.082  1.00  0.00    -0.014 A 
BRANCH  38  39
ATOM     39  C   UNL     1       4.359  -4.748  -3.958  1.00  0.00     0.031 A 
ATOM     40  C   UNL     1       5.214  -4.594  -5.185  1.00  0.00     0.074 A 
ATOM     41  C   UNL     1       4.919  -5.059  -2.776  1.00  0.00     0.049 A 
ATOM     42  N   UNL     1       6.504  -4.768  -5.323  1.00  0.00    -0.248 NA
ATOM     43  C   UNL     1       4.523  -4.189  -6.420  1.00  0.00     0.031 C 
ATOM     44  C   UNL     1       4.205  -5.199  -1.508  1.00  0.00     0.029 A 
ATOM     45  N   UNL     1       6.228  -5.326  -2.460  1.00  0.00    -0.354 N 
ATOM     46  C   UNL     1       6.776  -4.504  -6.659  1.00  0.00     0.074 A 
ATOM     47  C   UNL     1       5.518  -4.179  -7.295  1.00  0.00     0.031 C 
ATOM     48  C   UNL     1       5.087  -5.537  -0.550  1.00  0.00     0.029 A 
ATOM     49  C   UNL     1       6.415  -5.669  -1.144  1.00  0.00     0.049 A 
ATOM     50  H   UNL     1       6.962  -5.275  -3.114  1.00  0.00     0.167 HD
ATOM     51  C   UNL     1       7.968  -4.526  -7.300  1.00  0.00     0.031 A 
ATOM     52  C   UNL     1       7.530  -6.068  -0.501  1.00  0.00     0.031 A 
ATOM     53  C   UNL     1       9.218  -4.865  -6.676  1.00  0.00     0.049 A 
ATOM     54  C   UNL     1       8.829  -6.168  -1.259  1.00  0.00     0.074 A 
ATOM     55  C   UNL     1      10.481  -4.898  -7.241  1.00  0.00     0.029 A 
ATOM     56  N   UNL     1       9.361  -5.240  -5.351  1.00  0.00    -0.354 N 
ATOM     57  N   UNL     1       9.081  -5.879  -2.513  1.00  0.00    -0.248 NA
ATOM     58  C   UNL     1       9.999  -6.645  -0.506  1.00  0.00     0.031 C 
ATOM     59  C   UNL     1      11.382  -5.347  -6.269  1.00  0.00     0.029 A 
ATOM     60  C   UNL     1      10.687  -5.535  -5.085  1.00  0.00     0.049 A 
ATOM     61  H   UNL     1       8.628  -5.290  -4.695  1.00  0.00     0.167 HD
ATOM     62  C   UNL     1      10.441  -6.107  -2.689  1.00  0.00     0.074 A 
ATOM     63  C   UNL     1      10.962  -6.546  -1.411  1.00  0.00     0.031 C 
ATOM     64  C   UNL     1      11.193  -5.963  -3.808  1.00  0.00     0.031 A 
BRANCH  51  65
ATOM     65  C   UNL     1       7.970  -4.207  -8.768  1.00  0.00    -0.014 A 
ATOM     66  C   UNL     1       7.777  -2.896  -9.228  1.00  0.00     0.009 A 
ATOM     67  C   UNL     1       8.210  -5.228  -9.700  1.00  0.00     0.009 A 
ATOM     68  C   UNL     1       7.798  -2.618 -10.597  1.00  0.00     0.001 A 
ATOM     69  C   UNL     1       8.256  -4.944 -11.066  1.00  0.00     0.001 A 
ATOM     70  C   UNL     1       8.043  -3.641 -11.513  1.00  0.00     0.000 A 
ENDBRANCH  51  65
BRANCH  52  71
ATOM     71  C   UNL     1       7.477  -6.432   0.939  1.00  0.00    -0.014 A 
ATOM     72  C   UNL     1       8.120  -5.639   1.902  1.00  0.00     0.009 A 
ATOM     73  C   UNL     1       6.819  -7.601   1.353  1.00  0.00     0.009 A 
ATOM     74  C   UNL     1       8.132  -6.026   3.244  1.00  0.00     0.001 A 
ATOM     75  C   UNL     1       6.809  -7.970   2.700  1.00  0.00     0.001 A 
ATOM     76  C   UNL     1       7.475  -7.189   3.642  1.00  0.00     0.000 A 
ENDBRANCH  52  71
BRANCH  64  77
ATOM     77  C   UNL     1      12.666  -6.236  -3.692  1.00  0.00    -0.014 A 
ATOM     78  C   UNL     1      13.161  -7.542  -3.562  1.00  0.00     0.009 A 
ATOM     79  C   UNL     1      13.575  -5.168  -3.764  1.00  0.00     0.009 A 
ATOM     80  C   UNL     1      14.536  -7.770  -3.473  1.00  0.00     0.001 A 
ATOM     81  C   UNL     1      14.950  -5.402  -3.704  1.00  0.00     0.001 A 
ATOM     82  C   UNL     1      15.429  -6.701  -3.550  1.00  0.00     0.000 A 
ENDBRANCH  64  77
ENDBRANCH  38  39
ENDBRANCH  31  33
ENDBRANCH  30  31
ENDBRANCH  29  30
ENDBRANCH  28  29
ENDBRANCH  27  28
ENDBRANCH   1  27
TORSDOF 19
