REMARK SMILES Cc1ccc(OCCC(=O)N2C[C@H](O)C[C@@H]2C(=O)OCCOCCOCCOC(=O)c2ccc(-c3c4nc(c(-c5ccccc5)c5ccc([nH]5)c(-c5ccccc5)c5nc(c(-c6ccccc6)c6ccc3[nH]6)C=C5)C=C4)cc2)cc1
REMARK SMILES IDX 22 1 21 2 20 3 19 4 17 5 18 6 16 7 11 8 12 9 13 10 15 11
REMARK SMILES IDX 9 12 10 13 8 14 7 15 6 16 5 17 1 18 2 19 3 20 80 21 4 22
REMARK SMILES IDX 79 23 14 24 23 26 24 27 25 28 26 29 27 30 28 31 29 32 30 33
REMARK SMILES IDX 31 34 32 35 78 36 33 37 77 38 34 39 35 40 36 41 71 42 37 43
REMARK SMILES IDX 76 44 70 45 72 46 38 47 75 48 69 49 68 50 39 52 61 53 46 54
REMARK SMILES IDX 60 55 47 56 50 57 59 58 73 59 48 60 49 61 58 63 74 64 51 65
REMARK SMILES IDX 40 66 41 67 45 68 42 69 44 70 43 71 62 72 63 73 67 74 64 75
REMARK SMILES IDX 66 76 65 77 52 78 53 79 57 80 54 81 56 82 55 83
REMARK H PARENT 14 25 72 51 50 62
REMARK Flexibility Score: inf
ROOT
ATOM      1  O   UNL     1      -2.264  -0.725   6.745  1.00  0.00    -0.376 OA
ENDROOT
BRANCH   1   2
ATOM      2  C   UNL     1      -3.621  -1.115   6.540  1.00  0.00     0.202 C 
BRANCH   2   3
ATOM      3  C   UNL     1      -4.430  -0.178   5.557  1.00  0.00     0.261 C 
BRANCH   3   4
ATOM      4  O   UNL     1      -4.317  -0.397   4.073  1.00  0.00    -0.462 OA
BRANCH   4   5
ATOM      5  C   UNL     1      -3.244   0.238   3.572  1.00  0.00     0.329 C 
ATOM      6  O   UNL     1      -2.463   0.672   4.421  1.00  0.00    -0.250 OA
BRANCH   5   7
ATOM      7  C   UNL     1      -2.979   0.628   2.087  1.00  0.00     0.197 C 
ATOM      8  N   UNL     1      -3.709   0.305   0.867  1.00  0.00    -0.326 N 
ATOM      9  C   UNL     1      -3.037  -0.791   0.182  1.00  0.00     0.152 C 
ATOM     10  C   UNL     1      -1.577  -0.729   0.607  1.00  0.00     0.136 C 
ATOM     11  C   UNL     1      -1.540   0.467   1.537  1.00  0.00     0.070 C 
BRANCH   8  12
ATOM     12  C   UNL     1      -4.094   1.392   0.067  1.00  0.00     0.226 C 
ATOM     13  O   UNL     1      -3.803   2.564   0.307  1.00  0.00    -0.275 OA
BRANCH  12  14
ATOM     14  C   UNL     1      -4.917   1.052  -1.146  1.00  0.00     0.141 C 
BRANCH  14  15
ATOM     15  C   UNL     1      -4.222   1.456  -2.450  1.00  0.00     0.239 C 
BRANCH  15  16
ATOM     16  O   UNL     1      -3.400   0.411  -2.997  1.00  0.00    -0.493 OA
BRANCH  16  17
ATOM     17  C   UNL     1      -2.035   0.483  -2.901  1.00  0.00     0.119 A 
ATOM     18  C   UNL     1       2.169   0.161  -1.979  1.00  0.00     0.044 C 
ATOM     19  C   UNL     1       0.740   0.288  -2.422  1.00  0.00    -0.051 A 
ATOM     20  C   UNL     1       0.006  -0.847  -2.776  1.00  0.00     0.007 A 
ATOM     21  C   UNL     1       0.092   1.528  -2.402  1.00  0.00     0.007 A 
ATOM     22  C   UNL     1      -1.368  -0.745  -3.027  1.00  0.00     0.046 A 
ATOM     23  C   UNL     1      -1.286   1.626  -2.643  1.00  0.00     0.046 A 
ENDBRANCH  16  17
ENDBRANCH  15  16
ENDBRANCH  14  15
ENDBRANCH  12  14
ENDBRANCH   8  12
BRANCH  10  24
ATOM     24  O   UNL     1      -1.217  -1.944   1.224  1.00  0.00    -0.391 OA
ATOM     25  H   UNL     1      -1.816  -2.120   1.966  1.00  0.00     0.211 HD
ENDBRANCH  10  24
ENDBRANCH   5   7
ENDBRANCH   4   5
ENDBRANCH   3   4
ENDBRANCH   2   3
ENDBRANCH   1   2
BRANCH   1  26
ATOM     26  C   UNL     1      -1.260  -1.648   7.182  1.00  0.00     0.188 C 
BRANCH  26  27
ATOM     27  C   UNL     1      -1.383  -3.164   6.949  1.00  0.00     0.188 C 
BRANCH  27  28
ATOM     28  O   UNL     1      -1.996  -3.453   5.705  1.00  0.00    -0.376 OA
BRANCH  28  29
ATOM     29  C   UNL     1      -2.153  -4.827   5.367  1.00  0.00     0.202 C 
BRANCH  29  30
ATOM     30  C   UNL     1      -0.857  -5.529   4.900  1.00  0.00     0.261 C 
BRANCH  30  31
ATOM     31  O   UNL     1      -0.368  -4.974   3.649  1.00  0.00    -0.460 OA
BRANCH  31  32
ATOM     32  C   UNL     1       0.889  -4.442   3.645  1.00  0.00     0.338 C 
ATOM     33  O   UNL     1       1.922  -5.112   3.797  1.00  0.00    -0.246 OA
BRANCH  32  34
ATOM     34  C   UNL     1       0.858  -2.953   3.544  1.00  0.00     0.060 A 
ATOM     35  C   UNL     1       1.934  -2.058   3.488  1.00  0.00     0.016 A 
ATOM     36  C   UNL     1      -0.367  -2.387   3.724  1.00  0.00     0.016 A 
ATOM     37  C   UNL     1       1.743  -0.633   3.692  1.00  0.00     0.010 A 
ATOM     38  C   UNL     1      -0.472  -1.071   4.132  1.00  0.00     0.010 A 
ATOM     39  C   UNL     1       0.516  -0.092   4.088  1.00  0.00    -0.014 A 
BRANCH  39  40
ATOM     40  C   UNL     1       0.160   1.296   4.657  1.00  0.00     0.031 A 
ATOM     41  C   UNL     1      -0.748   2.413   4.066  1.00  0.00     0.074 A 
ATOM     42  C   UNL     1       0.295   1.359   6.001  1.00  0.00     0.049 A 
ATOM     43  N   UNL     1      -1.824   2.898   4.638  1.00  0.00    -0.248 NA
ATOM     44  C   UNL     1      -0.521   3.088   2.778  1.00  0.00     0.031 C 
ATOM     45  C   UNL     1      -0.240   2.341   6.942  1.00  0.00     0.029 A 
ATOM     46  N   UNL     1       1.345   0.771   6.712  1.00  0.00    -0.354 N 
ATOM     47  C   UNL     1      -2.540   3.706   3.770  1.00  0.00     0.074 A 
ATOM     48  C   UNL     1      -1.630   3.842   2.631  1.00  0.00     0.031 C 
ATOM     49  C   UNL     1       0.721   2.610   7.842  1.00  0.00     0.029 A 
ATOM     50  C   UNL     1       1.896   1.865   7.411  1.00  0.00     0.049 A 
ATOM     51  H   UNL     1       1.629  -0.171   6.721  1.00  0.00     0.167 HD
ATOM     52  C   UNL     1      -3.275   4.746   4.270  1.00  0.00     0.031 A 
ATOM     53  C   UNL     1       3.044   2.413   6.913  1.00  0.00     0.031 A 
ATOM     54  C   UNL     1      -2.547   5.384   5.327  1.00  0.00     0.049 A 
ATOM     55  C   UNL     1       2.843   3.856   6.478  1.00  0.00     0.074 A 
ATOM     56  C   UNL     1      -2.552   5.355   6.705  1.00  0.00     0.029 A 
ATOM     57  N   UNL     1      -1.373   5.975   4.930  1.00  0.00    -0.354 N 
ATOM     58  N   UNL     1       1.700   4.388   6.122  1.00  0.00    -0.248 NA
ATOM     59  C   UNL     1       3.922   4.836   6.492  1.00  0.00     0.031 C 
ATOM     60  C   UNL     1      -1.250   5.776   7.119  1.00  0.00     0.029 A 
ATOM     61  C   UNL     1      -0.516   6.097   5.988  1.00  0.00     0.049 A 
ATOM     62  H   UNL     1      -1.176   6.269   4.011  1.00  0.00     0.167 HD
ATOM     63  C   UNL     1       1.852   5.744   5.963  1.00  0.00     0.074 A 
ATOM     64  C   UNL     1       3.268   5.967   6.175  1.00  0.00     0.031 C 
ATOM     65  C   UNL     1       0.815   6.601   5.715  1.00  0.00     0.031 A 
BRANCH  52  66
ATOM     66  C   UNL     1      -4.698   5.076   3.885  1.00  0.00    -0.014 A 
ATOM     67  C   UNL     1      -5.428   6.032   4.628  1.00  0.00     0.009 A 
ATOM     68  C   UNL     1      -5.390   4.456   2.831  1.00  0.00     0.009 A 
ATOM     69  C   UNL     1      -6.761   6.364   4.328  1.00  0.00     0.001 A 
ATOM     70  C   UNL     1      -6.725   4.790   2.522  1.00  0.00     0.001 A 
ATOM     71  C   UNL     1      -7.409   5.747   3.267  1.00  0.00     0.000 A 
ENDBRANCH  52  66
BRANCH  53  72
ATOM     72  C   UNL     1       3.989   1.385   6.338  1.00  0.00    -0.014 A 
ATOM     73  C   UNL     1       4.184   0.192   7.088  1.00  0.00     0.009 A 
ATOM     74  C   UNL     1       4.452   1.387   5.018  1.00  0.00     0.009 A 
ATOM     75  C   UNL     1       4.652  -0.989   6.504  1.00  0.00     0.001 A 
ATOM     76  C   UNL     1       4.994   0.211   4.451  1.00  0.00     0.001 A 
ATOM     77  C   UNL     1       5.046  -0.983   5.176  1.00  0.00     0.000 A 
ENDBRANCH  53  72
BRANCH  65  78
ATOM     78  C   UNL     1       0.923   8.016   5.175  1.00  0.00    -0.014 A 
ATOM     79  C   UNL     1       2.087   8.555   4.621  1.00  0.00     0.009 A 
ATOM     80  C   UNL     1      -0.245   8.816   5.066  1.00  0.00     0.009 A 
ATOM     81  C   UNL     1       2.108   9.842   4.065  1.00  0.00     0.001 A 
ATOM     82  C   UNL     1      -0.247  10.069   4.448  1.00  0.00     0.001 A 
ATOM     83  C   UNL     1       0.942  10.594   3.969  1.00  0.00     0.000 A 
ENDBRANCH  65  78
ENDBRANCH  39  40
ENDBRANCH  32  34
ENDBRANCH  31  32
ENDBRANCH  30  31
ENDBRANCH  29  30
ENDBRANCH  28  29
ENDBRANCH  27  28
ENDBRANCH  26  27
ENDBRANCH   1  26
TORSDOF 23
