REMARK SMILES O=C(OCCOCCOCCOC(=O)[C@@H]([NH2+]C[C@@H]1CCCO1)c1cncn1C1CC1)c1ccc(-c2c3nc(c(-c4ccccc4)c4ccc([nH]4)c(-c4ccccc4)c4nc(c(-c5ccccc5)c5ccc2[nH]5)C=C4)C=C3)cc1
REMARK SMILES IDX 8 1 7 2 6 3 5 4 4 5 3 6 2 7 1 8 31 9 32 10 78 11 33 12 77 13
REMARK SMILES IDX 34 14 35 15 36 16 71 17 37 18 76 19 70 20 72 21 38 22 75 23
REMARK SMILES IDX 69 24 68 25 39 27 61 28 46 29 60 30 47 31 50 32 59 33 73 34
REMARK SMILES IDX 48 35 49 36 58 38 74 39 51 40 40 41 41 42 45 43 42 44 44 45
REMARK SMILES IDX 43 46 62 47 63 48 67 49 64 50 66 51 65 52 52 53 53 54 57 55
REMARK SMILES IDX 54 56 56 57 55 58 9 59 10 60 11 61 12 62 13 63 14 64 15 65
REMARK SMILES IDX 16 66 17 69 18 70 19 71 22 72 20 73 21 74 23 75 24 76 27 77
REMARK SMILES IDX 25 78 26 79 28 80 29 81 30 82
REMARK H PARENT 72 26 50 37 16 67 16 68
REMARK Flexibility Score: inf
ROOT
ATOM      1  C   UNL     1       2.585  -2.196  -0.319  1.00  0.00     0.188 C 
ENDROOT
BRANCH   1   2
ATOM      2  C   UNL     1       3.067  -0.864  -0.912  1.00  0.00     0.188 C 
BRANCH   2   3
ATOM      3  O   UNL     1       4.421  -0.461  -0.914  1.00  0.00    -0.376 OA
BRANCH   3   4
ATOM      4  C   UNL     1       5.247  -0.281   0.221  1.00  0.00     0.202 C 
BRANCH   4   5
ATOM      5  C   UNL     1       4.758  -0.131   1.664  1.00  0.00     0.261 C 
BRANCH   5   6
ATOM      6  O   UNL     1       3.386  -0.386   1.931  1.00  0.00    -0.460 OA
BRANCH   6   7
ATOM      7  C   UNL     1       2.311   0.417   1.840  1.00  0.00     0.338 C 
ATOM      8  O   UNL     1       1.233  -0.009   2.245  1.00  0.00    -0.246 OA
BRANCH   7   9
ATOM      9  C   UNL     1       2.317   1.741   1.157  1.00  0.00     0.060 A 
ATOM     10  C   UNL     1       3.425   2.564   0.957  1.00  0.00     0.016 A 
ATOM     11  C   UNL     1       1.046   2.191   0.741  1.00  0.00     0.016 A 
ATOM     12  C   UNL     1       3.244   3.872   0.543  1.00  0.00     0.010 A 
ATOM     13  C   UNL     1       0.859   3.491   0.315  1.00  0.00     0.010 A 
ATOM     14  C   UNL     1       1.953   4.344   0.319  1.00  0.00    -0.014 A 
BRANCH  14  15
ATOM     15  C   UNL     1       1.784   5.776   0.200  1.00  0.00     0.031 A 
ATOM     16  C   UNL     1       2.273   6.387  -1.053  1.00  0.00     0.074 A 
ATOM     17  C   UNL     1       1.208   6.484   1.190  1.00  0.00     0.049 A 
ATOM     18  N   UNL     1       3.264   7.203  -1.195  1.00  0.00    -0.248 NA
ATOM     19  C   UNL     1       1.647   5.962  -2.311  1.00  0.00     0.031 C 
ATOM     20  C   UNL     1       0.470   5.977   2.352  1.00  0.00     0.029 A 
ATOM     21  N   UNL     1       1.072   7.831   1.302  1.00  0.00    -0.354 N 
ATOM     22  C   UNL     1       3.285   7.541  -2.544  1.00  0.00     0.074 A 
ATOM     23  C   UNL     1       2.364   6.647  -3.203  1.00  0.00     0.031 C 
ATOM     24  C   UNL     1      -0.236   6.989   2.903  1.00  0.00     0.029 A 
ATOM     25  C   UNL     1       0.115   8.225   2.224  1.00  0.00     0.049 A 
ATOM     26  H   UNL     1       1.606   8.470   0.776  1.00  0.00     0.167 HD
ATOM     27  C   UNL     1       3.884   8.680  -2.986  1.00  0.00     0.031 A 
ATOM     28  C   UNL     1      -0.406   9.468   2.360  1.00  0.00     0.031 A 
ATOM     29  C   UNL     1       4.778   9.239  -2.008  1.00  0.00     0.049 A 
ATOM     30  C   UNL     1       0.530  10.422   1.722  1.00  0.00     0.074 A 
ATOM     31  C   UNL     1       5.926   8.808  -1.376  1.00  0.00     0.029 A 
ATOM     32  N   UNL     1       4.322  10.310  -1.277  1.00  0.00    -0.354 N 
ATOM     33  N   UNL     1       1.708  10.700   2.201  1.00  0.00    -0.248 NA
ATOM     34  C   UNL     1       0.342  10.739   0.314  1.00  0.00     0.031 C 
ATOM     35  C   UNL     1       5.836   9.329  -0.053  1.00  0.00     0.029 A 
ATOM     36  C   UNL     1       4.667  10.089   0.030  1.00  0.00     0.049 A 
ATOM     37  H   UNL     1       3.836  11.091  -1.628  1.00  0.00     0.167 HD
ATOM     38  C   UNL     1       2.529  10.802   1.087  1.00  0.00     0.074 A 
ATOM     39  C   UNL     1       1.615  10.929  -0.046  1.00  0.00     0.031 C 
ATOM     40  C   UNL     1       3.856  10.486   1.159  1.00  0.00     0.031 A 
BRANCH  27  41
ATOM     41  C   UNL     1       3.352   9.498  -4.133  1.00  0.00    -0.014 A 
ATOM     42  C   UNL     1       4.084  10.619  -4.564  1.00  0.00     0.009 A 
ATOM     43  C   UNL     1       2.030   9.384  -4.604  1.00  0.00     0.009 A 
ATOM     44  C   UNL     1       3.496  11.607  -5.364  1.00  0.00     0.001 A 
ATOM     45  C   UNL     1       1.454  10.346  -5.436  1.00  0.00     0.001 A 
ATOM     46  C   UNL     1       2.179  11.473  -5.792  1.00  0.00     0.000 A 
ENDBRANCH  27  41
BRANCH  28  47
ATOM     47  C   UNL     1      -1.787   9.834   2.736  1.00  0.00    -0.014 A 
ATOM     48  C   UNL     1      -2.102  11.142   3.132  1.00  0.00     0.009 A 
ATOM     49  C   UNL     1      -2.853   8.958   2.455  1.00  0.00     0.009 A 
ATOM     50  C   UNL     1      -3.436  11.567   3.206  1.00  0.00     0.001 A 
ATOM     51  C   UNL     1      -4.183   9.380   2.535  1.00  0.00     0.001 A 
ATOM     52  C   UNL     1      -4.474  10.690   2.896  1.00  0.00     0.000 A 
ENDBRANCH  28  47
BRANCH  40  53
ATOM     53  C   UNL     1       4.455  10.261   2.525  1.00  0.00    -0.014 A 
ATOM     54  C   UNL     1       4.017   9.246   3.394  1.00  0.00     0.009 A 
ATOM     55  C   UNL     1       5.596  10.995   2.881  1.00  0.00     0.009 A 
ATOM     56  C   UNL     1       4.683   8.997   4.599  1.00  0.00     0.001 A 
ATOM     57  C   UNL     1       6.274  10.731   4.073  1.00  0.00     0.001 A 
ATOM     58  C   UNL     1       5.814   9.737   4.935  1.00  0.00     0.000 A 
ENDBRANCH  40  53
ENDBRANCH  14  15
ENDBRANCH   7   9
ENDBRANCH   6   7
ENDBRANCH   5   6
ENDBRANCH   4   5
ENDBRANCH   3   4
ENDBRANCH   2   3
ENDBRANCH   1   2
BRANCH   1  59
ATOM     59  O   UNL     1       3.193  -3.416  -0.715  1.00  0.00    -0.376 OA
BRANCH  59  60
ATOM     60  C   UNL     1       4.605  -3.485  -0.725  1.00  0.00     0.202 C 
BRANCH  60  61
ATOM     61  C   UNL     1       5.211  -3.415  -2.141  1.00  0.00     0.261 C 
BRANCH  61  62
ATOM     62  O   UNL     1       4.699  -2.374  -3.005  1.00  0.00    -0.459 OA
BRANCH  62  63
ATOM     63  C   UNL     1       3.504  -2.710  -3.565  1.00  0.00     0.371 C 
ATOM     64  O   UNL     1       2.926  -3.745  -3.269  1.00  0.00    -0.245 OA
BRANCH  63  65
ATOM     65  C   UNL     1       2.909  -1.721  -4.611  1.00  0.00     0.343 C 
BRANCH  65  66
ATOM     66  N   UNL     1       3.426  -0.338  -4.495  1.00  0.00    -0.327 N 
ATOM     67  H   UNL     1       4.354  -0.324  -4.919  1.00  0.00     0.347 HD
ATOM     68  H   UNL     1       3.394  -0.137  -3.496  1.00  0.00     0.347 HD
BRANCH  66  69
ATOM     69  C   UNL     1       2.644   0.748  -5.115  1.00  0.00     0.293 C 
BRANCH  69  70
ATOM     70  C   UNL     1       1.094   0.754  -5.111  1.00  0.00     0.173 C 
ATOM     71  C   UNL     1       0.437  -0.165  -6.136  1.00  0.00     0.040 C 
ATOM     72  O   UNL     1       0.625   2.091  -5.426  1.00  0.00    -0.372 OA
ATOM     73  C   UNL     1      -0.839   0.565  -6.473  1.00  0.00     0.031 C 
ATOM     74  C   UNL     1      -0.385   2.004  -6.443  1.00  0.00     0.161 C 
ENDBRANCH  69  70
ENDBRANCH  66  69
ENDBRANCH  65  66
BRANCH  65  75
ATOM     75  C   UNL     1       3.166  -2.280  -5.974  1.00  0.00     0.108 A 
ATOM     76  C   UNL     1       3.928  -1.749  -7.007  1.00  0.00     0.141 A 
ATOM     77  N   UNL     1       2.800  -3.520  -6.458  1.00  0.00    -0.326 N 
ATOM     78  N   UNL     1       4.040  -2.608  -8.062  1.00  0.00    -0.245 NA
ATOM     79  C   UNL     1       3.388  -3.679  -7.684  1.00  0.00     0.200 A 
BRANCH  77  80
ATOM     80  C   UNL     1       2.062  -4.611  -5.861  1.00  0.00     0.089 C 
ATOM     81  C   UNL     1       1.029  -4.595  -4.765  1.00  0.00     0.027 C 
ATOM     82  C   UNL     1       0.602  -4.848  -6.172  1.00  0.00     0.027 C 
ENDBRANCH  77  80
ENDBRANCH  65  75
ENDBRANCH  63  65
ENDBRANCH  62  63
ENDBRANCH  61  62
ENDBRANCH  60  61
ENDBRANCH  59  60
ENDBRANCH   1  59
TORSDOF 22
