REMARK SMILES O=C(Nc1cccc(C(=O)OCCOCCOCCOC(=O)c2ccc(-c3c4nc(c(-c5ccccc5)c5ccc([nH]5)c(-c5ccccc5)c5nc(c(-c6ccccc6)c6ccc3[nH]6)C=C5)C=C4)cc2)c1)Nc1cc(Cl)c(Cl)cc1Cl
REMARK SMILES IDX 15 1 14 2 13 3 12 4 11 5 9 6 10 7 8 8 4 9 5 10 71 11 6 12
REMARK SMILES IDX 7 13 3 14 1 15 2 16 72 17 73 20 74 21 80 22 75 23 79 24
REMARK SMILES IDX 81 25 76 26 77 27 78 28 16 29 17 30 18 31 19 32 20 33 21 34
REMARK SMILES IDX 22 35 23 36 24 37 70 38 25 39 69 40 26 41 27 42 28 43 63 44
REMARK SMILES IDX 29 45 68 46 62 47 64 48 30 49 67 50 61 51 60 52 31 54 53 55
REMARK SMILES IDX 38 56 52 57 39 58 42 59 51 60 65 61 40 62 41 63 50 65 66 66
REMARK SMILES IDX 43 67 32 68 33 69 37 70 34 71 36 72 35 73 54 74 55 75 59 76
REMARK SMILES IDX 56 77 58 78 57 79 44 80 45 81 49 82 46 83 48 84 47 85
REMARK H PARENT 3 18 72 19 64 53 42 64
REMARK Flexibility Score: inf
ROOT
ATOM      1  C   UNL     1       8.340  -1.974  -2.697  1.00  0.00     0.188 C 
ENDROOT
BRANCH   1   2
ATOM      2  O   UNL     1       8.924  -3.233  -2.400  1.00  0.00    -0.376 OA
BRANCH   2   3
ATOM      3  C   UNL     1       8.215  -4.189  -1.623  1.00  0.00     0.202 C 
BRANCH   3   4
ATOM      4  C   UNL     1       7.485  -3.793  -0.328  1.00  0.00     0.261 C 
BRANCH   4   5
ATOM      5  O   UNL     1       6.705  -2.591  -0.400  1.00  0.00    -0.460 OA
BRANCH   5   6
ATOM      6  C   UNL     1       7.181  -1.531   0.296  1.00  0.00     0.338 C 
ATOM      7  O   UNL     1       8.158  -1.504   1.028  1.00  0.00    -0.246 OA
BRANCH   6   8
ATOM      8  C   UNL     1       6.442  -0.312  -0.102  1.00  0.00     0.062 A 
ATOM      9  C   UNL     1       4.368   0.852  -0.566  1.00  0.00     0.043 A 
ATOM     10  C   UNL     1       5.100   1.986  -0.932  1.00  0.00     0.026 A 
ATOM     11  C   UNL     1       5.051  -0.321  -0.227  1.00  0.00     0.041 A 
ATOM     12  C   UNL     1       6.495   1.986  -0.844  1.00  0.00     0.003 A 
ATOM     13  C   UNL     1       7.165   0.849  -0.395  1.00  0.00     0.016 A 
BRANCH   9  14
ATOM     14  N   UNL     1       2.965   0.958  -0.541  1.00  0.00    -0.308 N 
ATOM     15  O   UNL     1       0.839   0.393  -0.088  1.00  0.00    -0.248 OA
ATOM     16  C   UNL     1       2.030   0.204   0.131  1.00  0.00     0.323 C 
ATOM     17  N   UNL     1       2.531  -0.603   1.116  1.00  0.00    -0.306 N 
ATOM     18  H   UNL     1       2.594   1.685  -1.090  1.00  0.00     0.171 HD
ATOM     19  H   UNL     1       3.436  -0.372   1.427  1.00  0.00     0.171 HD
BRANCH  17  20
ATOM     20  C   UNL     1       1.943  -1.715   1.749  1.00  0.00     0.063 A 
ATOM     21  C   UNL     1       2.504  -2.044   2.996  1.00  0.00     0.049 A 
ATOM     22  C   UNL     1       0.929  -2.539   1.232  1.00  0.00     0.066 A 
ATOM     23  C   UNL     1       2.018  -3.115   3.750  1.00  0.00     0.061 A 
ATOM     24  C   UNL     1       0.427  -3.598   2.001  1.00  0.00     0.044 A 
ATOM     25  Cl  UNL     1       0.355  -2.467  -0.396  1.00  0.00    -0.082 Cl
ATOM     26  Cl  UNL     1       2.778  -3.439   5.267  1.00  0.00    -0.083 Cl
ATOM     27  C   UNL     1       0.960  -3.881   3.261  1.00  0.00     0.061 A 
ATOM     28  Cl  UNL     1       0.292  -5.207   4.141  1.00  0.00    -0.083 Cl
ENDBRANCH  17  20
ENDBRANCH   9  14
ENDBRANCH   6   8
ENDBRANCH   5   6
ENDBRANCH   4   5
ENDBRANCH   3   4
ENDBRANCH   2   3
ENDBRANCH   1   2
BRANCH   1  29
ATOM     29  C   UNL     1       6.906  -1.892  -3.263  1.00  0.00     0.188 C 
BRANCH  29  30
ATOM     30  O   UNL     1       6.226  -3.119  -3.325  1.00  0.00    -0.376 OA
BRANCH  30  31
ATOM     31  C   UNL     1       6.262  -3.882  -4.518  1.00  0.00     0.202 C 
BRANCH  31  32
ATOM     32  C   UNL     1       7.322  -3.753  -5.635  1.00  0.00     0.261 C 
BRANCH  32  33
ATOM     33  O   UNL     1       8.276  -2.687  -5.566  1.00  0.00    -0.460 OA
BRANCH  33  34
ATOM     34  C   UNL     1       8.012  -1.587  -6.311  1.00  0.00     0.338 C 
ATOM     35  O   UNL     1       7.026  -1.376  -6.995  1.00  0.00    -0.246 OA
BRANCH  34  36
ATOM     36  C   UNL     1       9.045  -0.570  -6.028  1.00  0.00     0.060 A 
ATOM     37  C   UNL     1       8.684   0.587  -5.324  1.00  0.00     0.016 A 
ATOM     38  C   UNL     1      10.355  -0.746  -6.475  1.00  0.00     0.016 A 
ATOM     39  C   UNL     1       9.631   1.583  -5.082  1.00  0.00     0.010 A 
ATOM     40  C   UNL     1      11.297   0.263  -6.251  1.00  0.00     0.010 A 
ATOM     41  C   UNL     1      10.934   1.444  -5.577  1.00  0.00    -0.014 A 
BRANCH  41  42
ATOM     42  C   UNL     1      11.873   2.594  -5.540  1.00  0.00     0.031 A 
ATOM     43  C   UNL     1      12.053   3.418  -6.787  1.00  0.00     0.074 A 
ATOM     44  C   UNL     1      12.550   2.911  -4.422  1.00  0.00     0.049 A 
ATOM     45  N   UNL     1      12.864   4.421  -7.010  1.00  0.00    -0.248 NA
ATOM     46  C   UNL     1      11.204   3.061  -7.936  1.00  0.00     0.031 C 
ATOM     47  C   UNL     1      12.432   2.229  -3.135  1.00  0.00     0.029 A 
ATOM     48  N   UNL     1      13.486   3.892  -4.199  1.00  0.00    -0.354 N 
ATOM     49  C   UNL     1      12.632   4.806  -8.325  1.00  0.00     0.074 A 
ATOM     50  C   UNL     1      11.626   3.913  -8.858  1.00  0.00     0.031 C 
ATOM     51  C   UNL     1      13.274   2.805  -2.259  1.00  0.00     0.029 A 
ATOM     52  C   UNL     1      14.019   3.867  -2.933  1.00  0.00     0.049 A 
ATOM     53  H   UNL     1      13.750   4.550  -4.882  1.00  0.00     0.167 HD
ATOM     54  C   UNL     1      13.202   5.814  -9.027  1.00  0.00     0.031 A 
ATOM     55  C   UNL     1      15.013   4.598  -2.391  1.00  0.00     0.031 A 
ATOM     56  C   UNL     1      14.217   6.691  -8.507  1.00  0.00     0.049 A 
ATOM     57  C   UNL     1      15.699   5.652  -3.225  1.00  0.00     0.074 A 
ATOM     58  C   UNL     1      14.848   7.748  -9.139  1.00  0.00     0.029 A 
ATOM     59  N   UNL     1      14.756   6.607  -7.233  1.00  0.00    -0.354 N 
ATOM     60  N   UNL     1      15.453   6.024  -4.458  1.00  0.00    -0.248 NA
ATOM     61  C   UNL     1      16.799   6.390  -2.585  1.00  0.00     0.031 C 
ATOM     62  C   UNL     1      15.815   8.263  -8.271  1.00  0.00     0.029 A 
ATOM     63  C   UNL     1      15.733   7.575  -7.071  1.00  0.00     0.049 A 
ATOM     64  H   UNL     1      14.484   5.957  -6.546  1.00  0.00     0.167 HD
ATOM     65  C   UNL     1      16.340   7.061  -4.726  1.00  0.00     0.074 A 
ATOM     66  C   UNL     1      17.117   7.270  -3.523  1.00  0.00     0.031 C 
ATOM     67  C   UNL     1      16.496   7.778  -5.866  1.00  0.00     0.031 A 
BRANCH  54  68
ATOM     68  C   UNL     1      12.765   6.002 -10.454  1.00  0.00    -0.014 A 
ATOM     69  C   UNL     1      11.487   6.490 -10.769  1.00  0.00     0.009 A 
ATOM     70  C   UNL     1      13.663   5.729 -11.497  1.00  0.00     0.009 A 
ATOM     71  C   UNL     1      11.109   6.673 -12.101  1.00  0.00     0.001 A 
ATOM     72  C   UNL     1      13.293   5.942 -12.826  1.00  0.00     0.001 A 
ATOM     73  C   UNL     1      12.014   6.405 -13.127  1.00  0.00     0.000 A 
ENDBRANCH  54  68
BRANCH  55  74
ATOM     74  C   UNL     1      15.455   4.349  -0.992  1.00  0.00    -0.014 A 
ATOM     75  C   UNL     1      15.279   5.325   0.002  1.00  0.00     0.009 A 
ATOM     76  C   UNL     1      16.104   3.150  -0.653  1.00  0.00     0.009 A 
ATOM     77  C   UNL     1      15.774   5.120   1.293  1.00  0.00     0.001 A 
ATOM     78  C   UNL     1      16.566   2.934   0.647  1.00  0.00     0.001 A 
ATOM     79  C   UNL     1      16.413   3.924   1.615  1.00  0.00     0.000 A 
ENDBRANCH  55  74
BRANCH  67  80
ATOM     80  C   UNL     1      17.508   8.892  -5.855  1.00  0.00    -0.014 A 
ATOM     81  C   UNL     1      18.887   8.634  -5.818  1.00  0.00     0.009 A 
ATOM     82  C   UNL     1      17.070  10.225  -5.929  1.00  0.00     0.009 A 
ATOM     83  C   UNL     1      19.804   9.689  -5.816  1.00  0.00     0.001 A 
ATOM     84  C   UNL     1      17.989  11.275  -5.962  1.00  0.00     0.001 A 
ATOM     85  C   UNL     1      19.355  11.007  -5.894  1.00  0.00     0.000 A 
ENDBRANCH  67  80
ENDBRANCH  41  42
ENDBRANCH  34  36
ENDBRANCH  33  34
ENDBRANCH  32  33
ENDBRANCH  31  32
ENDBRANCH  30  31
ENDBRANCH  29  30
ENDBRANCH   1  29
TORSDOF 19
