REMARK SMILES C[N@H+]1[C@H]2CC[C@@H]1c1sc(=O)n(CCCC(=O)OCCOCCOCCOC(=O)c3ccc(-c4c5nc(c(-c6ccccc6)c6ccc([nH]6)c(-c6ccccc6)c6nc(c(-c7ccccc7)c7ccc4[nH]7)C=C6)C=C5)cc3)c1C2
REMARK SMILES IDX 21 1 20 2 19 3 18 4 17 5 15 6 16 7 14 8 13 9 12 10 11 11
REMARK SMILES IDX 1 12 2 13 3 14 6 15 4 17 78 18 5 19 7 20 77 21 8 22 9 23
REMARK SMILES IDX 10 24 22 25 23 26 24 27 25 28 26 29 27 30 28 31 29 32 30 33
REMARK SMILES IDX 76 34 31 35 75 36 32 37 33 38 34 39 69 40 35 41 74 42 68 43
REMARK SMILES IDX 70 44 36 45 73 46 67 47 66 48 37 50 59 51 44 52 58 53 45 54
REMARK SMILES IDX 48 55 57 56 71 57 46 58 47 59 56 61 72 62 49 63 38 64 39 65
REMARK SMILES IDX 43 66 40 67 42 68 41 69 60 70 61 71 65 72 62 73 64 74 63 75
REMARK SMILES IDX 50 76 51 77 55 78 52 79 54 80 53 81
REMARK H PARENT 2 16 70 49 48 60
REMARK Flexibility Score: inf
ROOT
ATOM      1  C   UNL     1       0.202   9.958   3.912  1.00  0.00     0.188 C 
ENDROOT
BRANCH   1   2
ATOM      2  O   UNL     1       1.384  10.643   3.562  1.00  0.00    -0.376 OA
BRANCH   2   3
ATOM      3  C   UNL     1       2.550   9.865   3.330  1.00  0.00     0.202 C 
BRANCH   3   4
ATOM      4  C   UNL     1       2.907   8.667   4.237  1.00  0.00     0.261 C 
BRANCH   4   5
ATOM      5  O   UNL     1       1.823   7.762   4.522  1.00  0.00    -0.463 OA
BRANCH   5   6
ATOM      6  C   UNL     1       1.468   7.596   5.817  1.00  0.00     0.305 C 
ATOM      7  O   UNL     1       1.991   8.196   6.753  1.00  0.00    -0.252 OA
BRANCH   6   8
ATOM      8  C   UNL     1       0.251   6.704   6.041  1.00  0.00     0.124 C 
BRANCH   8   9
ATOM      9  C   UNL     1      -0.440   5.864   4.958  1.00  0.00     0.034 C 
BRANCH   9  10
ATOM     10  C   UNL     1       0.378   5.259   3.824  1.00  0.00     0.127 C 
BRANCH  10  11
ATOM     11  N   UNL     1       1.108   4.069   4.198  1.00  0.00    -0.302 N 
ATOM     12  C   UNL     1       2.119  -0.113   0.937  1.00  0.00     0.333 C 
ATOM     13  N   UNL     1       1.641   0.907   1.850  1.00  0.00    -0.328 N 
ATOM     14  C   UNL     1       0.179   1.128   1.844  1.00  0.00     0.190 C 
ATOM     15  C   UNL     1       1.914   0.603   3.280  1.00  0.00     0.227 C 
ATOM     16  H   UNL     1       2.149   1.720   1.500  1.00  0.00     0.348 HD
ATOM     17  C   UNL     1      -0.345  -0.041   2.682  1.00  0.00     0.072 C 
ATOM     18  C   UNL     1      -0.088   2.520   2.517  1.00  0.00     0.120 C 
ATOM     19  C   UNL     1       0.734  -0.268   3.741  1.00  0.00     0.077 C 
ATOM     20  C   UNL     1       1.826   1.923   3.979  1.00  0.00     0.087 A 
ATOM     21  C   UNL     1       0.915   2.835   3.607  1.00  0.00     0.047 A 
ATOM     22  S   UNL     1       2.956   2.527   5.127  1.00  0.00    -0.073 S 
ATOM     23  C   UNL     1       2.220   4.132   5.033  1.00  0.00     0.307 A 
ATOM     24  O   UNL     1       2.681   5.101   5.619  1.00  0.00    -0.257 OA
ENDBRANCH  10  11
ENDBRANCH   9  10
ENDBRANCH   8   9
ENDBRANCH   6   8
ENDBRANCH   5   6
ENDBRANCH   4   5
ENDBRANCH   3   4
ENDBRANCH   2   3
ENDBRANCH   1   2
BRANCH   1  25
ATOM     25  C   UNL     1      -0.325   8.834   3.006  1.00  0.00     0.188 C 
BRANCH  25  26
ATOM     26  O   UNL     1       0.535   8.032   2.231  1.00  0.00    -0.376 OA
BRANCH  26  27
ATOM     27  C   UNL     1       0.879   8.187   0.861  1.00  0.00     0.202 C 
BRANCH  27  28
ATOM     28  C   UNL     1       0.381   9.264  -0.103  1.00  0.00     0.261 C 
BRANCH  28  29
ATOM     29  O   UNL     1      -0.545  10.150   0.458  1.00  0.00    -0.460 OA
BRANCH  29  30
ATOM     30  C   UNL     1      -1.798   9.661   0.516  1.00  0.00     0.338 C 
ATOM     31  O   UNL     1      -2.223   8.620   0.054  1.00  0.00    -0.246 OA
BRANCH  30  32
ATOM     32  C   UNL     1      -2.564  10.603   1.345  1.00  0.00     0.060 A 
ATOM     33  C   UNL     1      -3.890  10.264   1.590  1.00  0.00     0.016 A 
ATOM     34  C   UNL     1      -2.047  11.889   1.558  1.00  0.00     0.016 A 
ATOM     35  C   UNL     1      -4.785  11.292   1.543  1.00  0.00     0.010 A 
ATOM     36  C   UNL     1      -2.933  12.914   1.498  1.00  0.00     0.010 A 
ATOM     37  C   UNL     1      -4.260  12.560   1.294  1.00  0.00    -0.014 A 
BRANCH  37  38
ATOM     38  C   UNL     1      -5.090  13.494   0.590  1.00  0.00     0.031 A 
ATOM     39  C   UNL     1      -5.889  14.308   1.505  1.00  0.00     0.074 A 
ATOM     40  C   UNL     1      -5.013  13.597  -0.750  1.00  0.00     0.049 A 
ATOM     41  N   UNL     1      -7.146  14.174   1.749  1.00  0.00    -0.248 NA
ATOM     42  C   UNL     1      -5.165  15.181   2.441  1.00  0.00     0.031 C 
ATOM     43  C   UNL     1      -4.047  13.008  -1.687  1.00  0.00     0.029 A 
ATOM     44  N   UNL     1      -5.761  14.377  -1.559  1.00  0.00    -0.354 N 
ATOM     45  C   UNL     1      -7.410  15.096   2.747  1.00  0.00     0.074 A 
ATOM     46  C   UNL     1      -6.137  15.477   3.300  1.00  0.00     0.031 C 
ATOM     47  C   UNL     1      -4.116  13.669  -2.869  1.00  0.00     0.029 A 
ATOM     48  C   UNL     1      -5.208  14.627  -2.803  1.00  0.00     0.049 A 
ATOM     49  H   UNL     1      -6.634  14.742  -1.285  1.00  0.00     0.167 HD
ATOM     50  C   UNL     1      -8.621  15.702   2.843  1.00  0.00     0.031 A 
ATOM     51  C   UNL     1      -5.586  15.627  -3.639  1.00  0.00     0.031 A 
ATOM     52  C   UNL     1      -9.607  15.044   2.025  1.00  0.00     0.049 A 
ATOM     53  C   UNL     1      -6.925  16.095  -3.179  1.00  0.00     0.074 A 
ATOM     54  C   UNL     1     -10.177  13.788   2.034  1.00  0.00     0.029 A 
ATOM     55  N   UNL     1      -9.806  15.555   0.761  1.00  0.00    -0.354 N 
ATOM     56  N   UNL     1      -7.997  15.356  -3.257  1.00  0.00    -0.248 NA
ATOM     57  C   UNL     1      -6.971  17.143  -2.164  1.00  0.00     0.031 C 
ATOM     58  C   UNL     1     -10.288  13.425   0.661  1.00  0.00     0.029 A 
ATOM     59  C   UNL     1      -9.854  14.501  -0.117  1.00  0.00     0.049 A 
ATOM     60  H   UNL     1      -9.897  16.507   0.529  1.00  0.00     0.167 HD
ATOM     61  C   UNL     1      -8.662  15.552  -2.052  1.00  0.00     0.074 A 
ATOM     62  C   UNL     1      -8.027  16.727  -1.454  1.00  0.00     0.031 C 
ATOM     63  C   UNL     1      -9.440  14.571  -1.504  1.00  0.00     0.031 A 
BRANCH  50  64
ATOM     64  C   UNL     1      -8.787  17.107   3.341  1.00  0.00    -0.014 A 
ATOM     65  C   UNL     1     -10.086  17.605   3.508  1.00  0.00     0.009 A 
ATOM     66  C   UNL     1      -7.731  18.038   3.414  1.00  0.00     0.009 A 
ATOM     67  C   UNL     1     -10.315  18.974   3.682  1.00  0.00     0.001 A 
ATOM     68  C   UNL     1      -7.952  19.397   3.632  1.00  0.00     0.001 A 
ATOM     69  C   UNL     1      -9.249  19.868   3.738  1.00  0.00     0.000 A 
ENDBRANCH  50  64
BRANCH  51  70
ATOM     70  C   UNL     1      -4.727  16.421  -4.549  1.00  0.00    -0.014 A 
ATOM     71  C   UNL     1      -5.277  17.201  -5.578  1.00  0.00     0.009 A 
ATOM     72  C   UNL     1      -3.364  16.613  -4.248  1.00  0.00     0.009 A 
ATOM     73  C   UNL     1      -4.499  18.150  -6.260  1.00  0.00     0.001 A 
ATOM     74  C   UNL     1      -2.588  17.559  -4.927  1.00  0.00     0.001 A 
ATOM     75  C   UNL     1      -3.159  18.337  -5.927  1.00  0.00     0.000 A 
ENDBRANCH  51  70
BRANCH  63  76
ATOM     76  C   UNL     1      -9.687  13.325  -2.325  1.00  0.00    -0.014 A 
ATOM     77  C   UNL     1      -8.664  12.424  -2.677  1.00  0.00     0.009 A 
ATOM     78  C   UNL     1     -11.014  12.948  -2.568  1.00  0.00     0.009 A 
ATOM     79  C   UNL     1      -8.965  11.189  -3.265  1.00  0.00     0.001 A 
ATOM     80  C   UNL     1     -11.316  11.708  -3.135  1.00  0.00     0.001 A 
ATOM     81  C   UNL     1     -10.293  10.830  -3.485  1.00  0.00     0.000 A 
ENDBRANCH  63  76
ENDBRANCH  37  38
ENDBRANCH  30  32
ENDBRANCH  29  30
ENDBRANCH  28  29
ENDBRANCH  27  28
ENDBRANCH  26  27
ENDBRANCH  25  26
ENDBRANCH   1  25
TORSDOF 20
