REMARK SMILES C[C@@H](C(=O)OCCOCCOCCOC(=O)c1ccc(-c2c3nc(c(-c4ccccc4)c4ccc([nH]4)c(-c4ccccc4)c4nc(c(-c5ccccc5)c5ccc2[nH]5)C=C4)C=C3)cc1)c1ccc2c3cc(Cl)ccc3n(C(=O)c3cocn3)c2c1
REMARK SMILES IDX 9 1 8 2 7 3 6 4 5 5 3 6 4 7 2 8 1 9 65 10 66 11 85 12 67 13
REMARK SMILES IDX 84 14 68 15 76 16 69 17 75 18 70 19 74 20 71 21 73 22 72 23
REMARK SMILES IDX 77 24 78 25 79 26 80 27 83 28 81 29 82 30 10 31 11 32 12 33
REMARK SMILES IDX 13 34 14 35 15 36 16 37 17 38 18 39 64 40 19 41 63 42 20 43
REMARK SMILES IDX 21 44 22 45 57 46 23 47 62 48 56 49 58 50 24 51 61 52 55 53
REMARK SMILES IDX 54 54 25 56 47 57 32 58 46 59 33 60 36 61 45 62 59 63 34 64
REMARK SMILES IDX 35 65 44 67 60 68 37 69 26 70 27 71 31 72 28 73 30 74 29 75
REMARK SMILES IDX 48 76 49 77 53 78 50 79 52 80 51 81 38 82 39 83 43 84 40 85
REMARK SMILES IDX 42 86 41 87
REMARK H PARENT 58 55 36 66
REMARK Flexibility Score: inf
ROOT
ATOM      1  C   UNL     1       1.102  -3.487  -2.607  1.00  0.00     0.188 C 
ENDROOT
BRANCH   1   2
ATOM      2  O   UNL     1       2.248  -3.856  -3.354  1.00  0.00    -0.376 OA
BRANCH   2   3
ATOM      3  C   UNL     1       3.239  -2.863  -3.607  1.00  0.00     0.202 C 
BRANCH   3   4
ATOM      4  C   UNL     1       2.766  -1.464  -4.026  1.00  0.00     0.261 C 
BRANCH   4   5
ATOM      5  O   UNL     1       2.422  -0.669  -2.870  1.00  0.00    -0.463 OA
BRANCH   5   6
ATOM      6  C   UNL     1       1.598   0.384  -3.116  1.00  0.00     0.313 C 
ATOM      7  O   UNL     1       1.244   0.712  -4.245  1.00  0.00    -0.252 OA
BRANCH   6   8
ATOM      8  C   UNL     1       1.126   1.127  -1.847  1.00  0.00     0.126 C 
ATOM      9  C   UNL     1       1.714   0.691  -0.501  1.00  0.00     0.025 C 
BRANCH   8  10
ATOM     10  C   UNL     1      -0.394   1.133  -1.812  1.00  0.00    -0.032 A 
ATOM     11  C   UNL     1      -1.127   2.290  -2.088  1.00  0.00     0.005 A 
ATOM     12  C   UNL     1      -1.065  -0.079  -1.652  1.00  0.00     0.032 A 
ATOM     13  C   UNL     1      -2.514   2.242  -2.282  1.00  0.00     0.011 A 
ATOM     14  C   UNL     1      -2.436  -0.125  -1.902  1.00  0.00     0.058 A 
ATOM     15  C   UNL     1      -3.174   1.003  -2.217  1.00  0.00     0.008 A 
ATOM     16  N   UNL     1      -3.272  -1.241  -2.061  1.00  0.00    -0.274 N 
ATOM     17  C   UNL     1      -4.532   0.603  -2.243  1.00  0.00     0.009 A 
ATOM     18  C   UNL     1      -4.538  -0.700  -1.702  1.00  0.00     0.057 A 
ATOM     19  C   UNL     1      -5.733   1.333  -2.391  1.00  0.00     0.031 A 
ATOM     20  C   UNL     1      -5.633  -0.990  -0.865  1.00  0.00     0.029 A 
ATOM     21  C   UNL     1      -6.883   0.879  -1.756  1.00  0.00     0.041 A 
ATOM     22  C   UNL     1      -6.811  -0.222  -0.926  1.00  0.00     0.023 A 
ATOM     23  Cl  UNL     1      -8.344   1.777  -1.875  1.00  0.00    -0.084 Cl
BRANCH  16  24
ATOM     24  C   UNL     1      -2.697  -2.441  -2.696  1.00  0.00     0.284 C 
ATOM     25  O   UNL     1      -1.667  -2.190  -3.323  1.00  0.00    -0.266 OA
BRANCH  24  26
ATOM     26  C   UNL     1      -3.039  -3.874  -2.761  1.00  0.00     0.167 A 
ATOM     27  C   UNL     1      -3.837  -4.540  -3.678  1.00  0.00     0.231 A 
ATOM     28  N   UNL     1      -2.258  -4.842  -2.133  1.00  0.00    -0.211 NA
ATOM     29  O   UNL     1      -3.698  -5.887  -3.505  1.00  0.00    -0.451 OA
ATOM     30  C   UNL     1      -2.708  -5.992  -2.586  1.00  0.00     0.308 A 
ENDBRANCH  24  26
ENDBRANCH  16  24
ENDBRANCH   8  10
ENDBRANCH   6   8
ENDBRANCH   5   6
ENDBRANCH   4   5
ENDBRANCH   3   4
ENDBRANCH   2   3
ENDBRANCH   1   2
BRANCH   1  31
ATOM     31  C   UNL     1       1.288  -2.915  -1.198  1.00  0.00     0.188 C 
BRANCH  31  32
ATOM     32  O   UNL     1       2.369  -3.299  -0.372  1.00  0.00    -0.376 OA
BRANCH  32  33
ATOM     33  C   UNL     1       2.756  -4.653  -0.375  1.00  0.00     0.202 C 
BRANCH  33  34
ATOM     34  C   UNL     1       1.753  -5.708   0.110  1.00  0.00     0.261 C 
BRANCH  34  35
ATOM     35  O   UNL     1       0.357  -5.377   0.065  1.00  0.00    -0.460 OA
BRANCH  35  36
ATOM     36  C   UNL     1      -0.174  -4.796   1.171  1.00  0.00     0.338 C 
ATOM     37  O   UNL     1       0.420  -4.405   2.162  1.00  0.00    -0.246 OA
BRANCH  36  38
ATOM     38  C   UNL     1      -1.640  -4.666   0.971  1.00  0.00     0.060 A 
ATOM     39  C   UNL     1      -2.262  -3.421   1.043  1.00  0.00     0.016 A 
ATOM     40  C   UNL     1      -2.418  -5.796   0.707  1.00  0.00     0.016 A 
ATOM     41  C   UNL     1      -3.648  -3.307   0.788  1.00  0.00     0.010 A 
ATOM     42  C   UNL     1      -3.790  -5.666   0.405  1.00  0.00     0.010 A 
ATOM     43  C   UNL     1      -4.437  -4.415   0.402  1.00  0.00    -0.014 A 
BRANCH  43  44
ATOM     44  C   UNL     1      -5.952  -4.382   0.226  1.00  0.00     0.031 A 
ATOM     45  C   UNL     1      -6.766  -4.844   1.381  1.00  0.00     0.074 A 
ATOM     46  C   UNL     1      -6.660  -4.026  -0.879  1.00  0.00     0.049 A 
ATOM     47  N   UNL     1      -8.063  -4.948   1.464  1.00  0.00    -0.248 NA
ATOM     48  C   UNL     1      -6.024  -5.291   2.565  1.00  0.00     0.031 C 
ATOM     49  C   UNL     1      -6.044  -3.511  -2.064  1.00  0.00     0.029 A 
ATOM     50  N   UNL     1      -7.999  -3.911  -1.204  1.00  0.00    -0.354 N 
ATOM     51  C   UNL     1      -8.293  -5.550   2.682  1.00  0.00     0.074 A 
ATOM     52  C   UNL     1      -7.003  -5.805   3.288  1.00  0.00     0.031 C 
ATOM     53  C   UNL     1      -6.919  -3.077  -2.973  1.00  0.00     0.029 A 
ATOM     54  C   UNL     1      -8.237  -3.304  -2.435  1.00  0.00     0.049 A 
ATOM     55  H   UNL     1      -8.721  -4.230  -0.616  1.00  0.00     0.167 HD
ATOM     56  C   UNL     1      -9.478  -5.863   3.245  1.00  0.00     0.031 A 
ATOM     57  C   UNL     1      -9.356  -2.891  -3.065  1.00  0.00     0.031 A 
ATOM     58  C   UNL     1     -10.760  -5.591   2.657  1.00  0.00     0.049 A 
ATOM     59  C   UNL     1     -10.651  -3.137  -2.374  1.00  0.00     0.074 A 
ATOM     60  C   UNL     1     -12.011  -5.858   3.180  1.00  0.00     0.029 A 
ATOM     61  N   UNL     1     -10.962  -4.979   1.427  1.00  0.00    -0.354 N 
ATOM     62  N   UNL     1     -10.838  -3.688  -1.202  1.00  0.00    -0.248 NA
ATOM     63  C   UNL     1     -11.876  -2.724  -3.066  1.00  0.00     0.031 C 
ATOM     64  C   UNL     1     -12.972  -5.430   2.257  1.00  0.00     0.029 A 
ATOM     65  C   UNL     1     -12.320  -4.859   1.177  1.00  0.00     0.049 A 
ATOM     66  H   UNL     1     -10.247  -4.676   0.823  1.00  0.00     0.167 HD
ATOM     67  C   UNL     1     -12.205  -3.707  -1.017  1.00  0.00     0.074 A 
ATOM     68  C   UNL     1     -12.798  -3.060  -2.174  1.00  0.00     0.031 C 
ATOM     69  C   UNL     1     -12.900  -4.239   0.014  1.00  0.00     0.031 A 
BRANCH  56  70
ATOM     70  C   UNL     1      -9.392  -6.580   4.553  1.00  0.00    -0.014 A 
ATOM     71  C   UNL     1      -8.928  -5.929   5.708  1.00  0.00     0.009 A 
ATOM     72  C   UNL     1      -9.687  -7.949   4.604  1.00  0.00     0.009 A 
ATOM     73  C   UNL     1      -8.707  -6.653   6.878  1.00  0.00     0.001 A 
ATOM     74  C   UNL     1      -9.501  -8.661   5.787  1.00  0.00     0.001 A 
ATOM     75  C   UNL     1      -8.998  -8.016   6.917  1.00  0.00     0.000 A 
ENDBRANCH  56  70
BRANCH  57  76
ATOM     76  C   UNL     1      -9.296  -2.174  -4.378  1.00  0.00    -0.014 A 
ATOM     77  C   UNL     1      -9.660  -0.820  -4.480  1.00  0.00     0.009 A 
ATOM     78  C   UNL     1      -8.844  -2.825  -5.539  1.00  0.00     0.009 A 
ATOM     79  C   UNL     1      -9.577  -0.141  -5.702  1.00  0.00     0.001 A 
ATOM     80  C   UNL     1      -8.734  -2.138  -6.754  1.00  0.00     0.001 A 
ATOM     81  C   UNL     1      -9.105  -0.798  -6.836  1.00  0.00     0.000 A 
ENDBRANCH  57  76
BRANCH  69  82
ATOM     82  C   UNL     1     -14.389  -4.142  -0.083  1.00  0.00    -0.014 A 
ATOM     83  C   UNL     1     -15.104  -4.938  -0.991  1.00  0.00     0.009 A 
ATOM     84  C   UNL     1     -15.080  -3.238   0.735  1.00  0.00     0.009 A 
ATOM     85  C   UNL     1     -16.487  -4.801  -1.105  1.00  0.00     0.001 A 
ATOM     86  C   UNL     1     -16.465  -3.123   0.637  1.00  0.00     0.001 A 
ATOM     87  C   UNL     1     -17.165  -3.896  -0.289  1.00  0.00     0.000 A 
ENDBRANCH  69  82
ENDBRANCH  43  44
ENDBRANCH  36  38
ENDBRANCH  35  36
ENDBRANCH  34  35
ENDBRANCH  33  34
ENDBRANCH  32  33
ENDBRANCH  31  32
ENDBRANCH   1  31
TORSDOF 20
