REMARK SMILES CS(=O)(=O)N1C[C@@H]2CN(C(=O)C3CCOCC3)C[C@@]2(C(=O)OCCOCCOCCOC(=O)c2ccc(-c3c4nc(c(-c5ccccc5)c5ccc([nH]5)c(-c5ccccc5)c5nc(c(-c6ccccc6)c6ccc3[nH]6)C=C5)C=C4)cc2)C1
REMARK SMILES IDX 26 1 25 2 24 3 23 4 22 5 20 6 21 7 19 8 5 9 6 10 82 11 7 12
REMARK SMILES IDX 8 13 18 14 9 15 2 16 1 17 3 18 4 19 10 20 11 21 12 22 13 23
REMARK SMILES IDX 17 24 14 25 16 26 15 27 27 28 28 29 29 30 30 31 31 32 32 33
REMARK SMILES IDX 33 34 34 35 35 36 81 37 36 38 80 39 37 40 38 41 39 42 74 43
REMARK SMILES IDX 40 44 79 45 73 46 75 47 41 48 78 49 72 50 71 51 42 53 64 54
REMARK SMILES IDX 49 55 63 56 50 57 53 58 62 59 76 60 51 61 52 62 61 64 77 65
REMARK SMILES IDX 54 66 43 67 44 68 48 69 45 70 47 71 46 72 65 73 66 74 70 75
REMARK SMILES IDX 67 76 69 77 68 78 55 79 56 80 60 81 57 82 59 83 58 84
REMARK H PARENT 75 52 53 63
REMARK Flexibility Score: inf
ROOT
ATOM      1  C   UNL     1      -1.656   7.347  -1.456  1.00  0.00     0.188 C 
ENDROOT
BRANCH   1   2
ATOM      2  O   UNL     1      -2.439   8.039  -0.494  1.00  0.00    -0.376 OA
BRANCH   2   3
ATOM      3  C   UNL     1      -2.592   7.457   0.801  1.00  0.00     0.202 C 
BRANCH   3   4
ATOM      4  C   UNL     1      -1.327   7.045   1.576  1.00  0.00     0.261 C 
BRANCH   4   5
ATOM      5  O   UNL     1      -0.486   6.284   0.701  1.00  0.00    -0.463 OA
BRANCH   5   6
ATOM      6  C   UNL     1       0.413   5.335   1.101  1.00  0.00     0.315 C 
ATOM      7  O   UNL     1       0.467   4.827   2.206  1.00  0.00    -0.251 OA
BRANCH   6   8
ATOM      8  C   UNL     1       1.368   5.162  -0.148  1.00  0.00     0.105 C 
ATOM      9  N   UNL     1       1.068   2.708  -0.122  1.00  0.00    -0.201 NA
ATOM     10  C   UNL     1       2.516   2.978  -0.075  1.00  0.00     0.109 C 
ATOM     11  C   UNL     1       0.397   3.991  -0.516  1.00  0.00     0.123 C 
ATOM     12  C   UNL     1       2.595   4.361  -0.664  1.00  0.00     0.044 C 
ATOM     13  C   UNL     1       3.902   5.105  -0.498  1.00  0.00     0.125 C 
ATOM     14  C   UNL     1       2.190   6.247   0.611  1.00  0.00     0.140 C 
ATOM     15  N   UNL     1       3.514   6.363   0.062  1.00  0.00    -0.341 N 
BRANCH   9  16
ATOM     16  S   UNL     1       0.536   1.337  -0.963  1.00  0.00     0.211 S 
ATOM     17  C   UNL     1       1.158   0.020   0.063  1.00  0.00     0.176 C 
ATOM     18  O   UNL     1       1.224   1.320  -2.236  1.00  0.00    -0.213 OA
ATOM     19  O   UNL     1      -0.909   1.327  -0.895  1.00  0.00    -0.213 OA
ENDBRANCH   9  16
BRANCH  15  20
ATOM     20  C   UNL     1       4.436   7.368   0.269  1.00  0.00     0.225 C 
ATOM     21  O   UNL     1       5.603   7.215  -0.110  1.00  0.00    -0.275 OA
BRANCH  20  22
ATOM     22  C   UNL     1       4.033   8.735   0.862  1.00  0.00     0.083 C 
ATOM     23  C   UNL     1       3.214   8.760   2.160  1.00  0.00     0.042 C 
ATOM     24  C   UNL     1       3.438   9.611  -0.244  1.00  0.00     0.042 C 
ATOM     25  C   UNL     1       2.733  10.163   2.507  1.00  0.00     0.161 C 
ATOM     26  C   UNL     1       2.930  10.941   0.289  1.00  0.00     0.161 C 
ATOM     27  O   UNL     1       2.058  10.752   1.400  1.00  0.00    -0.381 OA
ENDBRANCH  20  22
ENDBRANCH  15  20
ENDBRANCH   6   8
ENDBRANCH   5   6
ENDBRANCH   4   5
ENDBRANCH   3   4
ENDBRANCH   2   3
ENDBRANCH   1   2
BRANCH   1  28
ATOM     28  C   UNL     1      -0.223   7.894  -1.583  1.00  0.00     0.188 C 
BRANCH  28  29
ATOM     29  O   UNL     1       0.152   9.021  -0.812  1.00  0.00    -0.376 OA
BRANCH  29  30
ATOM     30  C   UNL     1      -0.605  10.219  -0.971  1.00  0.00     0.202 C 
BRANCH  30  31
ATOM     31  C   UNL     1      -0.598  10.894  -2.349  1.00  0.00     0.261 C 
BRANCH  31  32
ATOM     32  O   UNL     1      -1.070  10.041  -3.405  1.00  0.00    -0.460 OA
BRANCH  32  33
ATOM     33  C   UNL     1      -0.136   9.646  -4.308  1.00  0.00     0.338 C 
ATOM     34  O   UNL     1       1.037   9.980  -4.364  1.00  0.00    -0.246 OA
BRANCH  33  35
ATOM     35  C   UNL     1      -0.698   8.521  -5.085  1.00  0.00     0.060 A 
ATOM     36  C   UNL     1      -0.007   7.297  -5.109  1.00  0.00     0.016 A 
ATOM     37  C   UNL     1      -1.909   8.667  -5.756  1.00  0.00     0.016 A 
ATOM     38  C   UNL     1      -0.526   6.210  -5.811  1.00  0.00     0.010 A 
ATOM     39  C   UNL     1      -2.411   7.592  -6.485  1.00  0.00     0.010 A 
ATOM     40  C   UNL     1      -1.711   6.371  -6.536  1.00  0.00    -0.014 A 
BRANCH  40  41
ATOM     41  C   UNL     1      -2.136   5.374  -7.542  1.00  0.00     0.031 A 
ATOM     42  C   UNL     1      -1.777   5.647  -8.973  1.00  0.00     0.074 A 
ATOM     43  C   UNL     1      -2.906   4.323  -7.210  1.00  0.00     0.049 A 
ATOM     44  N   UNL     1      -2.243   5.103 -10.065  1.00  0.00    -0.248 NA
ATOM     45  C   UNL     1      -0.773   6.702  -9.203  1.00  0.00     0.031 C 
ATOM     46  C   UNL     1      -3.271   3.928  -5.852  1.00  0.00     0.029 A 
ATOM     47  N   UNL     1      -3.556   3.419  -8.013  1.00  0.00    -0.354 N 
ATOM     48  C   UNL     1      -1.622   5.777 -11.109  1.00  0.00     0.074 A 
ATOM     49  C   UNL     1      -0.750   6.770 -10.525  1.00  0.00     0.031 C 
ATOM     50  C   UNL     1      -4.117   2.884  -5.916  1.00  0.00     0.029 A 
ATOM     51  C   UNL     1      -4.391   2.577  -7.319  1.00  0.00     0.049 A 
ATOM     52  H   UNL     1      -3.436   3.378  -8.989  1.00  0.00     0.167 HD
ATOM     53  C   UNL     1      -1.782   5.590 -12.438  1.00  0.00     0.031 A 
ATOM     54  C   UNL     1      -5.310   1.701  -7.772  1.00  0.00     0.031 A 
ATOM     55  C   UNL     1      -2.654   4.601 -13.005  1.00  0.00     0.049 A 
ATOM     56  C   UNL     1      -5.514   1.555  -9.261  1.00  0.00     0.074 A 
ATOM     57  C   UNL     1      -2.865   4.304 -14.339  1.00  0.00     0.029 A 
ATOM     58  N   UNL     1      -3.465   3.753 -12.267  1.00  0.00    -0.354 N 
ATOM     59  N   UNL     1      -4.907   2.175 -10.245  1.00  0.00    -0.248 NA
ATOM     60  C   UNL     1      -6.531   0.588  -9.702  1.00  0.00     0.031 C 
ATOM     61  C   UNL     1      -3.851   3.319 -14.411  1.00  0.00     0.029 A 
ATOM     62  C   UNL     1      -4.199   2.952 -13.120  1.00  0.00     0.049 A 
ATOM     63  H   UNL     1      -3.510   3.726 -11.284  1.00  0.00     0.167 HD
ATOM     64  C   UNL     1      -5.436   1.643 -11.415  1.00  0.00     0.074 A 
ATOM     65  C   UNL     1      -6.411   0.649 -11.021  1.00  0.00     0.031 C 
ATOM     66  C   UNL     1      -5.141   1.947 -12.702  1.00  0.00     0.031 A 
BRANCH  53  67
ATOM     67  C   UNL     1      -1.036   6.500 -13.370  1.00  0.00    -0.014 A 
ATOM     68  C   UNL     1       0.353   6.401 -13.538  1.00  0.00     0.009 A 
ATOM     69  C   UNL     1      -1.750   7.435 -14.136  1.00  0.00     0.009 A 
ATOM     70  C   UNL     1       1.014   7.234 -14.443  1.00  0.00     0.001 A 
ATOM     71  C   UNL     1      -1.091   8.246 -15.059  1.00  0.00     0.001 A 
ATOM     72  C   UNL     1       0.291   8.149 -15.208  1.00  0.00     0.000 A 
ENDBRANCH  53  67
BRANCH  54  73
ATOM     73  C   UNL     1      -6.155   0.929  -6.820  1.00  0.00    -0.014 A 
ATOM     74  C   UNL     1      -6.042  -0.467  -6.731  1.00  0.00     0.009 A 
ATOM     75  C   UNL     1      -7.117   1.579  -6.030  1.00  0.00     0.009 A 
ATOM     76  C   UNL     1      -6.900  -1.198  -5.904  1.00  0.00     0.001 A 
ATOM     77  C   UNL     1      -7.950   0.850  -5.178  1.00  0.00     0.001 A 
ATOM     78  C   UNL     1      -7.851  -0.539  -5.127  1.00  0.00     0.000 A 
ENDBRANCH  54  73
BRANCH  66  79
ATOM     79  C   UNL     1      -5.816   1.152 -13.784  1.00  0.00    -0.014 A 
ATOM     80  C   UNL     1      -7.165   1.349 -14.110  1.00  0.00     0.009 A 
ATOM     81  C   UNL     1      -5.051   0.259 -14.554  1.00  0.00     0.009 A 
ATOM     82  C   UNL     1      -7.740   0.653 -15.175  1.00  0.00     0.001 A 
ATOM     83  C   UNL     1      -5.620  -0.411 -15.636  1.00  0.00     0.001 A 
ATOM     84  C   UNL     1      -6.966  -0.218 -15.942  1.00  0.00     0.000 A 
ENDBRANCH  66  79
ENDBRANCH  40  41
ENDBRANCH  33  35
ENDBRANCH  32  33
ENDBRANCH  31  32
ENDBRANCH  30  31
ENDBRANCH  29  30
ENDBRANCH  28  29
ENDBRANCH   1  28
TORSDOF 20
