REMARK SMILES Cc1ccc(C(=O)N2CCC(CC(=O)OCCOCCOCCOC(=O)c3ccc(-c4c5nc(c(-c6ccccc6)c6ccc([nH]6)c(-c6ccccc6)c6nc(c(-c7ccccc7)c7ccc4[nH]7)C=C6)C=C5)cc3)CC2)cn1
REMARK SMILES IDX 19 1 18 2 17 3 16 4 15 5 13 6 14 7 12 8 11 9 6 10 7 11 8 12
REMARK SMILES IDX 9 13 76 14 10 15 75 16 5 17 1 18 2 19 3 20 78 21 4 22 77 23
REMARK SMILES IDX 20 24 21 25 22 26 23 27 24 28 25 29 26 30 27 31 28 32 74 33
REMARK SMILES IDX 29 34 73 35 30 36 31 37 32 38 67 39 33 40 72 41 66 42 68 43
REMARK SMILES IDX 34 44 71 45 65 46 64 47 35 49 57 50 42 51 56 52 43 53 46 54
REMARK SMILES IDX 55 55 69 56 44 57 45 58 54 60 70 61 47 62 36 63 37 64 41 65
REMARK SMILES IDX 38 66 40 67 39 68 58 69 59 70 63 71 60 72 62 73 61 74 48 75
REMARK SMILES IDX 49 76 53 77 50 78 52 79 51 80
REMARK H PARENT 68 48 46 59
REMARK Flexibility Score: inf
ROOT
ATOM      1  C   UNL     1      -9.275  -4.696  -2.048  1.00  0.00     0.188 C 
ENDROOT
BRANCH   1   2
ATOM      2  O   UNL     1     -10.359  -4.390  -2.920  1.00  0.00    -0.376 OA
BRANCH   2   3
ATOM      3  C   UNL     1     -10.241  -3.188  -3.684  1.00  0.00     0.202 C 
BRANCH   3   4
ATOM      4  C   UNL     1     -10.150  -1.883  -2.879  1.00  0.00     0.261 C 
BRANCH   4   5
ATOM      5  O   UNL     1      -9.063  -1.860  -1.926  1.00  0.00    -0.463 OA
BRANCH   5   6
ATOM      6  C   UNL     1      -9.398  -1.609  -0.635  1.00  0.00     0.306 C 
ATOM      7  O   UNL     1     -10.536  -1.360  -0.249  1.00  0.00    -0.252 OA
BRANCH   6   8
ATOM      8  C   UNL     1      -8.255  -1.763   0.358  1.00  0.00     0.126 C 
BRANCH   8   9
ATOM      9  C   UNL     1      -6.801  -1.937  -0.114  1.00  0.00     0.003 C 
ATOM     10  C   UNL     1      -3.297   0.097  -0.024  1.00  0.00     0.255 C 
ATOM     11  O   UNL     1      -3.793   1.218  -0.096  1.00  0.00    -0.269 OA
ATOM     12  N   UNL     1      -4.027  -1.054  -0.288  1.00  0.00    -0.339 N 
ATOM     13  C   UNL     1      -4.881  -1.055  -1.460  1.00  0.00     0.120 C 
ATOM     14  C   UNL     1      -4.369  -2.006   0.760  1.00  0.00     0.120 C 
ATOM     15  C   UNL     1      -6.341  -0.843  -1.086  1.00  0.00     0.026 C 
ATOM     16  C   UNL     1      -5.860  -1.935   1.123  1.00  0.00     0.026 C 
BRANCH  10  17
ATOM     17  C   UNL     1      -1.825  -0.053   0.138  1.00  0.00     0.058 A 
ATOM     18  C   UNL     1       2.436  -0.067   0.057  1.00  0.00     0.066 C 
ATOM     19  C   UNL     1       0.939  -0.096   0.133  1.00  0.00     0.037 A 
ATOM     20  C   UNL     1       0.241  -1.298   0.065  1.00  0.00     0.024 A 
ATOM     21  N   UNL     1       0.312   1.100   0.220  1.00  0.00    -0.261 NA
ATOM     22  C   UNL     1      -1.155  -1.275   0.065  1.00  0.00     0.017 A 
ATOM     23  C   UNL     1      -1.047   1.096   0.216  1.00  0.00     0.125 A 
ENDBRANCH  10  17
ENDBRANCH   8   9
ENDBRANCH   6   8
ENDBRANCH   5   6
ENDBRANCH   4   5
ENDBRANCH   3   4
ENDBRANCH   2   3
ENDBRANCH   1   2
BRANCH   1  24
ATOM     24  C   UNL     1      -7.911  -4.844  -2.722  1.00  0.00     0.188 C 
BRANCH  24  25
ATOM     25  O   UNL     1      -7.534  -3.787  -3.589  1.00  0.00    -0.376 OA
BRANCH  25  26
ATOM     26  C   UNL     1      -6.381  -3.987  -4.410  1.00  0.00     0.202 C 
BRANCH  26  27
ATOM     27  C   UNL     1      -6.233  -5.331  -5.163  1.00  0.00     0.261 C 
BRANCH  27  28
ATOM     28  O   UNL     1      -6.261  -6.531  -4.358  1.00  0.00    -0.460 OA
BRANCH  28  29
ATOM     29  C   UNL     1      -5.444  -6.589  -3.283  1.00  0.00     0.338 C 
ATOM     30  O   UNL     1      -4.506  -5.844  -3.048  1.00  0.00    -0.246 OA
BRANCH  29  31
ATOM     31  C   UNL     1      -6.026  -7.526  -2.279  1.00  0.00     0.060 A 
ATOM     32  C   UNL     1      -5.918  -7.173  -0.925  1.00  0.00     0.016 A 
ATOM     33  C   UNL     1      -6.717  -8.690  -2.633  1.00  0.00     0.016 A 
ATOM     34  C   UNL     1      -6.431  -8.008   0.071  1.00  0.00     0.010 A 
ATOM     35  C   UNL     1      -7.221  -9.535  -1.631  1.00  0.00     0.010 A 
ATOM     36  C   UNL     1      -7.035  -9.223  -0.271  1.00  0.00    -0.014 A 
BRANCH  36  37
ATOM     37  C   UNL     1      -7.235 -10.251   0.788  1.00  0.00     0.031 A 
ATOM     38  C   UNL     1      -6.191 -11.332   0.930  1.00  0.00     0.074 A 
ATOM     39  C   UNL     1      -8.255 -10.199   1.664  1.00  0.00     0.049 A 
ATOM     40  N   UNL     1      -6.114 -12.309   1.799  1.00  0.00    -0.248 NA
ATOM     41  C   UNL     1      -5.081 -11.300  -0.037  1.00  0.00     0.031 C 
ATOM     42  C   UNL     1      -9.306  -9.185   1.690  1.00  0.00     0.029 A 
ATOM     43  N   UNL     1      -8.563 -11.028   2.718  1.00  0.00    -0.354 N 
ATOM     44  C   UNL     1      -4.954 -13.004   1.481  1.00  0.00     0.074 A 
ATOM     45  C   UNL     1      -4.380 -12.364   0.318  1.00  0.00     0.031 C 
ATOM     46  C   UNL     1     -10.142  -9.449   2.712  1.00  0.00     0.029 A 
ATOM     47  C   UNL     1      -9.703 -10.666   3.395  1.00  0.00     0.049 A 
ATOM     48  H   UNL     1      -8.017 -11.809   2.965  1.00  0.00     0.167 HD
ATOM     49  C   UNL     1      -4.400 -14.073   2.102  1.00  0.00     0.031 A 
ATOM     50  C   UNL     1     -10.327 -11.254   4.436  1.00  0.00     0.031 A 
ATOM     51  C   UNL     1      -4.966 -14.730   3.248  1.00  0.00     0.049 A 
ATOM     52  C   UNL     1      -9.745 -12.504   5.050  1.00  0.00     0.074 A 
ATOM     53  C   UNL     1      -4.471 -15.817   3.948  1.00  0.00     0.029 A 
ATOM     54  N   UNL     1      -6.157 -14.371   3.857  1.00  0.00    -0.354 N 
ATOM     55  N   UNL     1      -8.632 -13.132   4.757  1.00  0.00    -0.248 NA
ATOM     56  C   UNL     1     -10.507 -13.121   6.148  1.00  0.00     0.031 C 
ATOM     57  C   UNL     1      -5.396 -16.156   4.941  1.00  0.00     0.029 A 
ATOM     58  C   UNL     1      -6.431 -15.235   4.904  1.00  0.00     0.049 A 
ATOM     59  H   UNL     1      -6.725 -13.613   3.586  1.00  0.00     0.167 HD
ATOM     60  C   UNL     1      -8.546 -14.195   5.652  1.00  0.00     0.074 A 
ATOM     61  C   UNL     1      -9.709 -14.114   6.510  1.00  0.00     0.031 C 
ATOM     62  C   UNL     1      -7.590 -15.151   5.753  1.00  0.00     0.031 A 
BRANCH  49  63
ATOM     63  C   UNL     1      -3.126 -14.622   1.523  1.00  0.00    -0.014 A 
ATOM     64  C   UNL     1      -1.915 -13.918   1.619  1.00  0.00     0.009 A 
ATOM     65  C   UNL     1      -3.134 -15.877   0.895  1.00  0.00     0.009 A 
ATOM     66  C   UNL     1      -0.746 -14.445   1.065  1.00  0.00     0.001 A 
ATOM     67  C   UNL     1      -1.957 -16.416   0.371  1.00  0.00     0.001 A 
ATOM     68  C   UNL     1      -0.767 -15.695   0.448  1.00  0.00     0.000 A 
ENDBRANCH  49  63
BRANCH  50  69
ATOM     69  C   UNL     1     -11.599 -10.691   4.968  1.00  0.00    -0.014 A 
ATOM     70  C   UNL     1     -11.664 -10.153   6.264  1.00  0.00     0.009 A 
ATOM     71  C   UNL     1     -12.773 -10.739   4.199  1.00  0.00     0.009 A 
ATOM     72  C   UNL     1     -12.881  -9.705   6.786  1.00  0.00     0.001 A 
ATOM     73  C   UNL     1     -13.981 -10.260   4.711  1.00  0.00     0.001 A 
ATOM     74  C   UNL     1     -14.036  -9.754   6.008  1.00  0.00     0.000 A 
ENDBRANCH  50  69
BRANCH  62  75
ATOM     75  C   UNL     1      -7.736 -16.168   6.854  1.00  0.00    -0.014 A 
ATOM     76  C   UNL     1      -8.737 -17.151   6.817  1.00  0.00     0.009 A 
ATOM     77  C   UNL     1      -6.829 -16.167   7.926  1.00  0.00     0.009 A 
ATOM     78  C   UNL     1      -8.851 -18.085   7.851  1.00  0.00     0.001 A 
ATOM     79  C   UNL     1      -6.923 -17.122   8.940  1.00  0.00     0.001 A 
ATOM     80  C   UNL     1      -7.942 -18.072   8.908  1.00  0.00     0.000 A 
ENDBRANCH  62  75
ENDBRANCH  36  37
ENDBRANCH  29  31
ENDBRANCH  28  29
ENDBRANCH  27  28
ENDBRANCH  26  27
ENDBRANCH  25  26
ENDBRANCH  24  25
ENDBRANCH   1  24
TORSDOF 19
