REMARK SMILES O=C(OCCOCCOCCOC(=O)[C@H]1CCCN(C(=O)C2CCN(S(=O)(=O)c3ccccc3)CC2)C1)c1ccc(-c2c3nc(c(-c4ccccc4)c4ccc([nH]4)c(-c4ccccc4)c4nc(c(-c5ccccc5)c5ccc2[nH]5)C=C4)C=C3)cc1
REMARK SMILES IDX 8 1 7 2 6 3 5 4 4 5 3 6 2 7 1 8 38 9 39 10 85 11 40 12 84 13
REMARK SMILES IDX 41 14 42 15 43 16 78 17 44 18 83 19 77 20 79 21 45 22 82 23
REMARK SMILES IDX 76 24 75 25 46 27 68 28 53 29 67 30 54 31 57 32 66 33 80 34
REMARK SMILES IDX 55 35 56 36 65 38 81 39 58 40 47 41 48 42 52 43 49 44 51 45
REMARK SMILES IDX 50 46 69 47 70 48 74 49 71 50 73 51 72 52 59 53 60 54 64 55
REMARK SMILES IDX 61 56 63 57 62 58 9 59 10 60 11 61 12 62 13 63 14 64 15 65
REMARK SMILES IDX 16 66 37 67 17 68 19 69 18 70 20 71 21 72 22 73 23 74 36 75
REMARK SMILES IDX 24 76 35 77 25 78 26 79 27 80 28 81 29 82 30 83 34 84 31 85
REMARK SMILES IDX 33 86 32 87
REMARK H PARENT 79 26 57 37
REMARK Flexibility Score: inf
ROOT
ATOM      1  C   UNL     1       4.360  -3.755  -2.406  1.00  0.00     0.188 C 
ENDROOT
BRANCH   1   2
ATOM      2  C   UNL     1       4.930  -2.340  -2.283  1.00  0.00     0.188 C 
BRANCH   2   3
ATOM      3  O   UNL     1       3.944  -1.438  -1.756  1.00  0.00    -0.376 OA
BRANCH   3   4
ATOM      4  C   UNL     1       4.082  -0.102  -2.251  1.00  0.00     0.202 C 
BRANCH   4   5
ATOM      5  C   UNL     1       5.031   0.782  -1.431  1.00  0.00     0.261 C 
BRANCH   5   6
ATOM      6  O   UNL     1       6.101   0.027  -0.840  1.00  0.00    -0.460 OA
BRANCH   6   7
ATOM      7  C   UNL     1       6.210  -0.397   0.443  1.00  0.00     0.338 C 
ATOM      8  O   UNL     1       7.263  -0.918   0.806  1.00  0.00    -0.246 OA
BRANCH   7   9
ATOM      9  C   UNL     1       5.133  -0.214   1.467  1.00  0.00     0.060 A 
ATOM     10  C   UNL     1       3.768  -0.144   1.186  1.00  0.00     0.016 A 
ATOM     11  C   UNL     1       5.527  -0.173   2.816  1.00  0.00     0.016 A 
ATOM     12  C   UNL     1       2.834   0.088   2.194  1.00  0.00     0.010 A 
ATOM     13  C   UNL     1       4.585  -0.025   3.842  1.00  0.00     0.010 A 
ATOM     14  C   UNL     1       3.229   0.135   3.532  1.00  0.00    -0.014 A 
BRANCH  14  15
ATOM     15  C   UNL     1       2.217   0.387   4.586  1.00  0.00     0.031 A 
ATOM     16  C   UNL     1       2.207   1.712   5.290  1.00  0.00     0.074 A 
ATOM     17  C   UNL     1       1.240  -0.512   4.815  1.00  0.00     0.049 A 
ATOM     18  N   UNL     1       1.423   2.126   6.251  1.00  0.00    -0.248 NA
ATOM     19  C   UNL     1       3.174   2.719   4.822  1.00  0.00     0.031 C 
ATOM     20  C   UNL     1       1.032  -1.733   4.038  1.00  0.00     0.029 A 
ATOM     21  N   UNL     1       0.203  -0.519   5.715  1.00  0.00    -0.354 N 
ATOM     22  C   UNL     1       1.792   3.443   6.491  1.00  0.00     0.074 A 
ATOM     23  C   UNL     1       2.889   3.752   5.601  1.00  0.00     0.031 C 
ATOM     24  C   UNL     1      -0.102  -2.325   4.443  1.00  0.00     0.029 A 
ATOM     25  C   UNL     1      -0.632  -1.607   5.591  1.00  0.00     0.049 A 
ATOM     26  H   UNL     1       0.069   0.189   6.386  1.00  0.00     0.167 HD
ATOM     27  C   UNL     1       1.248   4.321   7.366  1.00  0.00     0.031 A 
ATOM     28  C   UNL     1      -1.680  -1.998   6.344  1.00  0.00     0.031 A 
ATOM     29  C   UNL     1       0.166   3.998   8.253  1.00  0.00     0.049 A 
ATOM     30  C   UNL     1      -2.010  -1.140   7.538  1.00  0.00     0.074 A 
ATOM     31  C   UNL     1      -0.440   4.793   9.209  1.00  0.00     0.029 A 
ATOM     32  N   UNL     1      -0.466   2.766   8.292  1.00  0.00    -0.354 N 
ATOM     33  N   UNL     1      -1.619   0.083   7.805  1.00  0.00    -0.248 NA
ATOM     34  C   UNL     1      -2.885  -1.729   8.561  1.00  0.00     0.031 C 
ATOM     35  C   UNL     1      -1.405   4.019   9.865  1.00  0.00     0.029 A 
ATOM     36  C   UNL     1      -1.421   2.757   9.291  1.00  0.00     0.049 A 
ATOM     37  H   UNL     1      -0.264   2.008   7.697  1.00  0.00     0.167 HD
ATOM     38  C   UNL     1      -2.259   0.438   8.983  1.00  0.00     0.074 A 
ATOM     39  C   UNL     1      -3.042  -0.710   9.396  1.00  0.00     0.031 C 
ATOM     40  C   UNL     1      -2.217   1.614   9.655  1.00  0.00     0.031 A 
BRANCH  27  41
ATOM     41  C   UNL     1       1.857   5.690   7.426  1.00  0.00    -0.014 A 
ATOM     42  C   UNL     1       1.572   6.655   6.449  1.00  0.00     0.009 A 
ATOM     43  C   UNL     1       2.731   6.016   8.474  1.00  0.00     0.009 A 
ATOM     44  C   UNL     1       2.172   7.915   6.506  1.00  0.00     0.001 A 
ATOM     45  C   UNL     1       3.317   7.281   8.537  1.00  0.00     0.001 A 
ATOM     46  C   UNL     1       3.043   8.227   7.550  1.00  0.00     0.000 A 
ENDBRANCH  27  41
BRANCH  28  47
ATOM     47  C   UNL     1      -2.439  -3.261   6.074  1.00  0.00    -0.014 A 
ATOM     48  C   UNL     1      -3.841  -3.263   6.003  1.00  0.00     0.009 A 
ATOM     49  C   UNL     1      -1.784  -4.498   5.952  1.00  0.00     0.009 A 
ATOM     50  C   UNL     1      -4.555  -4.461   5.869  1.00  0.00     0.001 A 
ATOM     51  C   UNL     1      -2.492  -5.691   5.783  1.00  0.00     0.001 A 
ATOM     52  C   UNL     1      -3.880  -5.674   5.760  1.00  0.00     0.000 A 
ENDBRANCH  28  47
BRANCH  40  53
ATOM     53  C   UNL     1      -3.117   1.742  10.845  1.00  0.00    -0.014 A 
ATOM     54  C   UNL     1      -2.785   1.161  12.076  1.00  0.00     0.009 A 
ATOM     55  C   UNL     1      -4.303   2.484  10.732  1.00  0.00     0.009 A 
ATOM     56  C   UNL     1      -3.642   1.299  13.169  1.00  0.00     0.001 A 
ATOM     57  C   UNL     1      -5.145   2.640  11.832  1.00  0.00     0.001 A 
ATOM     58  C   UNL     1      -4.817   2.042  13.048  1.00  0.00     0.000 A 
ENDBRANCH  40  53
ENDBRANCH  14  15
ENDBRANCH   7   9
ENDBRANCH   6   7
ENDBRANCH   5   6
ENDBRANCH   4   5
ENDBRANCH   3   4
ENDBRANCH   2   3
ENDBRANCH   1   2
BRANCH   1  59
ATOM     59  O   UNL     1       3.429  -3.954  -3.475  1.00  0.00    -0.376 OA
BRANCH  59  60
ATOM     60  C   UNL     1       2.246  -3.159  -3.480  1.00  0.00     0.202 C 
BRANCH  60  61
ATOM     61  C   UNL     1       1.151  -3.574  -2.494  1.00  0.00     0.261 C 
BRANCH  61  62
ATOM     62  O   UNL     1       1.587  -3.547  -1.125  1.00  0.00    -0.463 OA
BRANCH  62  63
ATOM     63  C   UNL     1       1.738  -4.770  -0.546  1.00  0.00     0.310 C 
ATOM     64  O   UNL     1       1.494  -5.843  -1.082  1.00  0.00    -0.252 OA
BRANCH  63  65
ATOM     65  C   UNL     1       2.201  -4.643   0.889  1.00  0.00     0.119 C 
ATOM     66  C   UNL     1       0.967  -4.894   1.761  1.00  0.00     0.019 C 
ATOM     67  C   UNL     1       3.378  -5.617   1.115  1.00  0.00     0.134 C 
ATOM     68  C   UNL     1       1.333  -5.325   3.167  1.00  0.00     0.022 C 
ATOM     69  N   UNL     1       3.536  -6.068   2.507  1.00  0.00    -0.342 N 
ATOM     70  C   UNL     1       2.295  -6.495   3.106  1.00  0.00     0.119 C 
BRANCH  69  71
ATOM     71  C   UNL     1       4.801  -6.188   3.051  1.00  0.00     0.225 C 
ATOM     72  O   UNL     1       5.781  -5.818   2.388  1.00  0.00    -0.275 OA
BRANCH  71  73
ATOM     73  C   UNL     1       5.095  -6.739   4.475  1.00  0.00     0.081 C 
ATOM     74  C   UNL     1       4.786  -8.192   4.795  1.00  0.00     0.030 C 
ATOM     75  C   UNL     1       4.778  -5.837   5.650  1.00  0.00     0.030 C 
ATOM     76  C   UNL     1       3.514  -8.491   5.577  1.00  0.00     0.103 C 
ATOM     77  C   UNL     1       3.414  -6.039   6.274  1.00  0.00     0.103 C 
ATOM     78  N   UNL     1       3.026  -7.443   6.553  1.00  0.00    -0.198 NA
BRANCH  78  79
ATOM     79  S   UNL     1       1.314  -7.709   6.810  1.00  0.00     0.243 S 
ATOM     80  O   UNL     1       0.635  -7.320   5.592  1.00  0.00    -0.207 OA
ATOM     81  O   UNL     1       1.197  -9.074   7.290  1.00  0.00    -0.207 OA
BRANCH  79  82
ATOM     82  C   UNL     1       0.654  -6.646   8.077  1.00  0.00     0.082 A 
ATOM     83  C   UNL     1      -0.322  -7.195   8.922  1.00  0.00     0.022 A 
ATOM     84  C   UNL     1       0.867  -5.265   8.091  1.00  0.00     0.022 A 
ATOM     85  C   UNL     1      -1.070  -6.371   9.765  1.00  0.00     0.001 A 
ATOM     86  C   UNL     1       0.140  -4.447   8.961  1.00  0.00     0.001 A 
ATOM     87  C   UNL     1      -0.835  -4.998   9.788  1.00  0.00     0.000 A 
ENDBRANCH  79  82
ENDBRANCH  78  79
ENDBRANCH  71  73
ENDBRANCH  69  71
ENDBRANCH  63  65
ENDBRANCH  62  63
ENDBRANCH  61  62
ENDBRANCH  60  61
ENDBRANCH  59  60
ENDBRANCH   1  59
TORSDOF 21
