REMARK SMILES COC(=O)[C@H]1CN(C(=O)[C@@H]2CC=CC[C@@H]2C(=O)OCCOCCOCCOC(=O)c2ccc(-c3c4nc(c(-c5ccccc5)c5ccc([nH]5)c(-c5ccccc5)c5nc(c(-c6ccccc6)c6ccc3[nH]6)C=C5)C=C4)cc2)C[C@H]1C
REMARK SMILES IDX 22 1 21 2 20 3 19 4 18 5 16 6 17 7 15 8 10 9 11 10 12 11
REMARK SMILES IDX 14 12 13 13 8 14 9 15 7 16 5 17 6 18 79 19 78 20 80 21 3 22
REMARK SMILES IDX 4 23 2 24 1 25 23 26 24 27 25 28 26 29 27 30 28 31 29 32
REMARK SMILES IDX 30 33 31 34 77 35 32 36 76 37 33 38 34 39 35 40 70 41 36 42
REMARK SMILES IDX 75 43 69 44 71 45 37 46 74 47 68 48 67 49 38 51 60 52 45 53
REMARK SMILES IDX 59 54 46 55 49 56 58 57 72 58 47 59 48 60 57 62 73 63 50 64
REMARK SMILES IDX 39 65 40 66 44 67 41 68 43 69 42 70 61 71 62 72 66 73 63 74
REMARK SMILES IDX 65 75 64 76 51 77 52 78 56 79 53 80 55 81 54 82
REMARK H PARENT 71 50 49 61
REMARK Flexibility Score: inf
ROOT
ATOM      1  C   UNL     1       1.807   7.107  -9.266  1.00  0.00     0.188 C 
ENDROOT
BRANCH   1   2
ATOM      2  O   UNL     1       1.776   8.520  -9.193  1.00  0.00    -0.376 OA
BRANCH   2   3
ATOM      3  C   UNL     1       0.598   9.065  -8.627  1.00  0.00     0.202 C 
BRANCH   3   4
ATOM      4  C   UNL     1       0.474   8.955  -7.104  1.00  0.00     0.261 C 
BRANCH   4   5
ATOM      5  O   UNL     1       0.074   7.730  -6.437  1.00  0.00    -0.463 OA
BRANCH   5   6
ATOM      6  C   UNL     1      -0.507   6.639  -6.977  1.00  0.00     0.310 C 
ATOM      7  O   UNL     1      -0.751   6.460  -8.162  1.00  0.00    -0.252 OA
BRANCH   6   8
ATOM      8  C   UNL     1      -0.899   5.622  -5.941  1.00  0.00     0.115 C 
ATOM      9  C   UNL     1      -2.331   5.880  -5.451  1.00  0.00     0.097 C 
ATOM     10  C   UNL     1      -2.462   6.929  -4.341  1.00  0.00     0.041 C 
ATOM     11  C   UNL     1      -1.240   7.098  -3.483  1.00  0.00    -0.030 C 
ATOM     12  C   UNL     1       0.137   5.497  -4.812  1.00  0.00     0.043 C 
ATOM     13  C   UNL     1      -0.085   6.449  -3.679  1.00  0.00    -0.030 C 
BRANCH   9  14
ATOM     14  C   UNL     1      -3.356   5.976  -6.605  1.00  0.00     0.226 C 
ATOM     15  O   UNL     1      -4.001   4.950  -6.864  1.00  0.00    -0.275 OA
BRANCH  14  16
ATOM     16  N   UNL     1      -3.541   7.107  -7.377  1.00  0.00    -0.341 N 
ATOM     17  C   UNL     1      -4.770   8.457  -8.867  1.00  0.00     0.123 C 
ATOM     18  C   UNL     1      -4.330   7.024  -8.597  1.00  0.00     0.135 C 
ATOM     19  C   UNL     1      -3.739   9.365  -8.166  1.00  0.00     0.021 C 
ATOM     20  C   UNL     1      -2.866   8.389  -7.385  1.00  0.00     0.123 C 
ATOM     21  C   UNL     1      -2.869  10.274  -9.037  1.00  0.00     0.010 C 
BRANCH  17  22
ATOM     22  C   UNL     1      -4.986   8.695 -10.341  1.00  0.00     0.310 C 
ATOM     23  O   UNL     1      -4.106   8.751 -11.187  1.00  0.00    -0.252 OA
BRANCH  22  24
ATOM     24  O   UNL     1      -6.314   8.871 -10.580  1.00  0.00    -0.469 OA
ATOM     25  C   UNL     1      -6.652   9.274 -11.907  1.00  0.00     0.282 C 
ENDBRANCH  22  24
ENDBRANCH  17  22
ENDBRANCH  14  16
ENDBRANCH   9  14
ENDBRANCH   6   8
ENDBRANCH   5   6
ENDBRANCH   4   5
ENDBRANCH   3   4
ENDBRANCH   2   3
ENDBRANCH   1   2
BRANCH   1  26
ATOM     26  C   UNL     1       2.404   6.437  -8.015  1.00  0.00     0.188 C 
BRANCH  26  27
ATOM     27  O   UNL     1       3.256   7.173  -7.154  1.00  0.00    -0.376 OA
BRANCH  27  28
ATOM     28  C   UNL     1       4.188   8.060  -7.748  1.00  0.00     0.202 C 
BRANCH  28  29
ATOM     29  C   UNL     1       5.130   7.563  -8.867  1.00  0.00     0.261 C 
BRANCH  29  30
ATOM     30  O   UNL     1       4.592   6.630  -9.827  1.00  0.00    -0.460 OA
BRANCH  30  31
ATOM     31  C   UNL     1       4.824   5.310  -9.608  1.00  0.00     0.338 C 
ATOM     32  O   UNL     1       5.517   4.829  -8.723  1.00  0.00    -0.246 OA
BRANCH  31  33
ATOM     33  C   UNL     1       3.914   4.494 -10.462  1.00  0.00     0.060 A 
ATOM     34  C   UNL     1       3.015   3.595  -9.854  1.00  0.00     0.016 A 
ATOM     35  C   UNL     1       3.947   4.599 -11.850  1.00  0.00     0.016 A 
ATOM     36  C   UNL     1       2.167   2.793 -10.623  1.00  0.00     0.010 A 
ATOM     37  C   UNL     1       3.136   3.757 -12.622  1.00  0.00     0.010 A 
ATOM     38  C   UNL     1       2.268   2.827 -12.015  1.00  0.00    -0.014 A 
BRANCH  38  39
ATOM     39  C   UNL     1       1.691   1.738 -12.842  1.00  0.00     0.031 A 
ATOM     40  C   UNL     1       2.608   0.617 -13.253  1.00  0.00     0.074 A 
ATOM     41  C   UNL     1       0.412   1.744 -13.258  1.00  0.00     0.049 A 
ATOM     42  N   UNL     1       2.424  -0.332 -14.133  1.00  0.00    -0.248 NA
ATOM     43  C   UNL     1       3.920   0.576 -12.585  1.00  0.00     0.031 C 
ATOM     44  C   UNL     1      -0.608   2.713 -12.867  1.00  0.00     0.029 A 
ATOM     45  N   UNL     1      -0.233   0.907 -14.137  1.00  0.00    -0.354 N 
ATOM     46  C   UNL     1       3.608  -1.060 -14.150  1.00  0.00     0.074 A 
ATOM     47  C   UNL     1       4.506  -0.436 -13.204  1.00  0.00     0.031 C 
ATOM     48  C   UNL     1      -1.744   2.437 -13.532  1.00  0.00     0.029 A 
ATOM     49  C   UNL     1      -1.514   1.306 -14.431  1.00  0.00     0.049 A 
ATOM     50  H   UNL     1       0.182   0.100 -14.518  1.00  0.00     0.167 HD
ATOM     51  C   UNL     1       3.924  -2.145 -14.894  1.00  0.00     0.031 A 
ATOM     52  C   UNL     1      -2.382   0.841 -15.353  1.00  0.00     0.031 A 
ATOM     53  C   UNL     1       3.036  -2.754 -15.846  1.00  0.00     0.049 A 
ATOM     54  C   UNL     1      -1.974  -0.306 -16.246  1.00  0.00     0.074 A 
ATOM     55  C   UNL     1       3.259  -3.861 -16.646  1.00  0.00     0.029 A 
ATOM     56  N   UNL     1       1.756  -2.303 -16.129  1.00  0.00    -0.354 N 
ATOM     57  N   UNL     1      -0.853  -0.986 -16.264  1.00  0.00    -0.248 NA
ATOM     58  C   UNL     1      -2.957  -0.750 -17.248  1.00  0.00     0.031 C 
ATOM     59  C   UNL     1       2.138  -4.040 -17.461  1.00  0.00     0.029 A 
ATOM     60  C   UNL     1       1.188  -3.093 -17.113  1.00  0.00     0.049 A 
ATOM     61  H   UNL     1       1.318  -1.536 -15.696  1.00  0.00     0.167 HD
ATOM     62  C   UNL     1      -1.012  -1.961 -17.243  1.00  0.00     0.074 A 
ATOM     63  C   UNL     1      -2.338  -1.787 -17.796  1.00  0.00     0.031 C 
ATOM     64  C   UNL     1      -0.141  -2.920 -17.642  1.00  0.00     0.031 A 
BRANCH  51  65
ATOM     65  C   UNL     1       5.311  -2.708 -14.746  1.00  0.00    -0.014 A 
ATOM     66  C   UNL     1       5.717  -3.365 -13.574  1.00  0.00     0.009 A 
ATOM     67  C   UNL     1       6.217  -2.600 -15.813  1.00  0.00     0.009 A 
ATOM     68  C   UNL     1       7.014  -3.870 -13.462  1.00  0.00     0.001 A 
ATOM     69  C   UNL     1       7.501  -3.136 -15.711  1.00  0.00     0.001 A 
ATOM     70  C   UNL     1       7.902  -3.761 -14.531  1.00  0.00     0.000 A 
ENDBRANCH  51  65
BRANCH  52  71
ATOM     71  C   UNL     1      -3.716   1.479 -15.517  1.00  0.00    -0.014 A 
ATOM     72  C   UNL     1      -4.889   0.779 -15.194  1.00  0.00     0.009 A 
ATOM     73  C   UNL     1      -3.828   2.783 -16.026  1.00  0.00     0.009 A 
ATOM     74  C   UNL     1      -6.143   1.359 -15.403  1.00  0.00     0.001 A 
ATOM     75  C   UNL     1      -5.082   3.373 -16.203  1.00  0.00     0.001 A 
ATOM     76  C   UNL     1      -6.239   2.657 -15.902  1.00  0.00     0.000 A 
ENDBRANCH  52  71
BRANCH  64  77
ATOM     77  C   UNL     1      -0.607  -3.907 -18.678  1.00  0.00    -0.014 A 
ATOM     78  C   UNL     1      -0.776  -3.545 -20.022  1.00  0.00     0.009 A 
ATOM     79  C   UNL     1      -0.808  -5.247 -18.305  1.00  0.00     0.009 A 
ATOM     80  C   UNL     1      -1.163  -4.500 -20.967  1.00  0.00     0.001 A 
ATOM     81  C   UNL     1      -1.163  -6.205 -19.256  1.00  0.00     0.001 A 
ATOM     82  C   UNL     1      -1.348  -5.829 -20.585  1.00  0.00     0.000 A 
ENDBRANCH  64  77
ENDBRANCH  38  39
ENDBRANCH  31  33
ENDBRANCH  30  31
ENDBRANCH  29  30
ENDBRANCH  28  29
ENDBRANCH  27  28
ENDBRANCH  26  27
ENDBRANCH   1  26
TORSDOF 21
