REMARK SMILES O=C(OCCOCCOCCOC(=O)c1cc2c(c(S(=O)(=O)Nc3cc(C(F)(F)F)ccc3-n3cccn3)c1)CCC2)c1ccc(-c2c3nc(c(-c4ccccc4)c4ccc([nH]4)c(-c4ccccc4)c4nc(c(-c5ccccc5)c5ccc2[nH]5)C=C4)C=C3)cc1
REMARK SMILES IDX 8 1 7 2 6 3 5 4 4 5 3 6 2 7 1 8 43 9 44 10 90 11 45 12 89 13
REMARK SMILES IDX 46 14 47 15 48 16 83 17 49 18 88 19 82 20 84 21 50 22 87 23
REMARK SMILES IDX 81 24 80 25 51 27 73 28 58 29 72 30 59 31 62 32 71 33 85 34
REMARK SMILES IDX 60 35 61 36 70 38 86 39 63 40 52 41 53 42 57 43 54 44 56 45
REMARK SMILES IDX 55 46 74 47 75 48 79 49 76 50 78 51 77 52 64 53 65 54 69 55
REMARK SMILES IDX 66 56 68 57 67 58 9 59 10 60 11 61 12 62 13 63 14 64 15 65
REMARK SMILES IDX 16 66 39 67 17 68 19 69 18 70 42 71 40 72 41 73 20 74 21 75
REMARK SMILES IDX 22 76 23 77 24 79 25 80 33 81 26 82 32 83 31 84 34 85 35 86
REMARK SMILES IDX 38 87 36 88 37 89 27 90 28 91 29 92 30 93
REMARK H PARENT 84 26 62 37 23 78
REMARK Flexibility Score: inf
ROOT
ATOM      1  C   UNL     1       2.356  -0.810   2.262  1.00  0.00     0.188 C 
ENDROOT
BRANCH   1   2
ATOM      2  C   UNL     1       3.281  -1.205   1.095  1.00  0.00     0.188 C 
BRANCH   2   3
ATOM      3  O   UNL     1       4.625  -0.788   1.261  1.00  0.00    -0.376 OA
BRANCH   3   4
ATOM      4  C   UNL     1       5.189  -0.048   0.197  1.00  0.00     0.202 C 
BRANCH   4   5
ATOM      5  C   UNL     1       4.736   1.412   0.157  1.00  0.00     0.261 C 
BRANCH   5   6
ATOM      6  O   UNL     1       3.318   1.639   0.287  1.00  0.00    -0.460 OA
BRANCH   6   7
ATOM      7  C   UNL     1       2.310   1.581  -0.603  1.00  0.00     0.338 C 
ATOM      8  O   UNL     1       1.239   2.120  -0.331  1.00  0.00    -0.246 OA
BRANCH   7   9
ATOM      9  C   UNL     1       2.369   0.765  -1.843  1.00  0.00     0.060 A 
ATOM     10  C   UNL     1       3.504   0.584  -2.631  1.00  0.00     0.016 A 
ATOM     11  C   UNL     1       1.142   0.222  -2.278  1.00  0.00     0.016 A 
ATOM     12  C   UNL     1       3.404  -0.060  -3.860  1.00  0.00     0.010 A 
ATOM     13  C   UNL     1       1.034  -0.404  -3.514  1.00  0.00     0.010 A 
ATOM     14  C   UNL     1       2.158  -0.483  -4.331  1.00  0.00    -0.014 A 
BRANCH  14  15
ATOM     15  C   UNL     1       2.074  -0.845  -5.742  1.00  0.00     0.031 A 
ATOM     16  C   UNL     1       2.751  -2.086  -6.198  1.00  0.00     0.074 A 
ATOM     17  C   UNL     1       1.413  -0.073  -6.628  1.00  0.00     0.049 A 
ATOM     18  N   UNL     1       3.701  -2.198  -7.072  1.00  0.00    -0.248 NA
ATOM     19  C   UNL     1       2.322  -3.357  -5.602  1.00  0.00     0.031 C 
ATOM     20  C   UNL     1       0.479   1.023  -6.351  1.00  0.00     0.029 A 
ATOM     21  N   UNL     1       1.383  -0.177  -7.988  1.00  0.00    -0.354 N 
ATOM     22  C   UNL     1       3.907  -3.564  -7.247  1.00  0.00     0.074 A 
ATOM     23  C   UNL     1       3.077  -4.230  -6.270  1.00  0.00     0.031 C 
ATOM     24  C   UNL     1      -0.185   1.334  -7.485  1.00  0.00     0.029 A 
ATOM     25  C   UNL     1       0.378   0.567  -8.582  1.00  0.00     0.049 A 
ATOM     26  H   UNL     1       2.017  -0.729  -8.499  1.00  0.00     0.167 HD
ATOM     27  C   UNL     1       4.635  -4.080  -8.275  1.00  0.00     0.031 A 
ATOM     28  C   UNL     1      -0.011   0.519  -9.876  1.00  0.00     0.031 A 
ATOM     29  C   UNL     1       5.493  -3.112  -8.897  1.00  0.00     0.049 A 
ATOM     30  C   UNL     1       1.090  -0.058 -10.675  1.00  0.00     0.074 A 
ATOM     31  C   UNL     1       6.573  -2.357  -8.487  1.00  0.00     0.029 A 
ATOM     32  N   UNL     1       5.102  -2.578 -10.099  1.00  0.00    -0.354 N 
ATOM     33  N   UNL     1       2.215   0.553 -10.907  1.00  0.00    -0.248 NA
ATOM     34  C   UNL     1       1.094  -1.487 -10.938  1.00  0.00     0.031 C 
ATOM     35  C   UNL     1       6.476  -1.137  -9.217  1.00  0.00     0.029 A 
ATOM     36  C   UNL     1       5.349  -1.230 -10.037  1.00  0.00     0.049 A 
ATOM     37  H   UNL     1       4.717  -3.069 -10.861  1.00  0.00     0.167 HD
ATOM     38  C   UNL     1       3.168  -0.453 -10.939  1.00  0.00     0.074 A 
ATOM     39  C   UNL     1       2.405  -1.687 -11.092  1.00  0.00     0.031 C 
ATOM     40  C   UNL     1       4.459  -0.216 -10.561  1.00  0.00     0.031 A 
BRANCH  27  41
ATOM     41  C   UNL     1       4.366  -5.425  -8.893  1.00  0.00    -0.014 A 
ATOM     42  C   UNL     1       5.300  -5.985  -9.783  1.00  0.00     0.009 A 
ATOM     43  C   UNL     1       3.105  -6.047  -8.818  1.00  0.00     0.009 A 
ATOM     44  C   UNL     1       4.978  -7.100 -10.569  1.00  0.00     0.001 A 
ATOM     45  C   UNL     1       2.795  -7.182  -9.572  1.00  0.00     0.001 A 
ATOM     46  C   UNL     1       3.727  -7.699 -10.461  1.00  0.00     0.000 A 
ENDBRANCH  27  41
BRANCH  28  47
ATOM     47  C   UNL     1      -1.372   0.713 -10.409  1.00  0.00    -0.014 A 
ATOM     48  C   UNL     1      -1.589   1.013 -11.760  1.00  0.00     0.009 A 
ATOM     49  C   UNL     1      -2.487   0.358  -9.625  1.00  0.00     0.009 A 
ATOM     50  C   UNL     1      -2.874   0.935 -12.312  1.00  0.00     0.001 A 
ATOM     51  C   UNL     1      -3.769   0.286 -10.174  1.00  0.00     0.001 A 
ATOM     52  C   UNL     1      -3.960   0.562 -11.522  1.00  0.00     0.000 A 
ENDBRANCH  28  47
BRANCH  40  53
ATOM     53  C   UNL     1       4.878   1.222 -10.359  1.00  0.00    -0.014 A 
ATOM     54  C   UNL     1       4.263   2.056  -9.408  1.00  0.00     0.009 A 
ATOM     55  C   UNL     1       6.006   1.708 -11.036  1.00  0.00     0.009 A 
ATOM     56  C   UNL     1       4.735   3.351  -9.173  1.00  0.00     0.001 A 
ATOM     57  C   UNL     1       6.492   2.994 -10.784  1.00  0.00     0.001 A 
ATOM     58  C   UNL     1       5.853   3.818  -9.860  1.00  0.00     0.000 A 
ENDBRANCH  40  53
ENDBRANCH  14  15
ENDBRANCH   7   9
ENDBRANCH   6   7
ENDBRANCH   5   6
ENDBRANCH   4   5
ENDBRANCH   3   4
ENDBRANCH   2   3
ENDBRANCH   1   2
BRANCH   1  59
ATOM     59  O   UNL     1       2.890  -0.363   3.503  1.00  0.00    -0.376 OA
BRANCH  59  60
ATOM     60  C   UNL     1       4.131  -0.864   3.970  1.00  0.00     0.202 C 
BRANCH  60  61
ATOM     61  C   UNL     1       4.235  -2.365   4.267  1.00  0.00     0.261 C 
BRANCH  61  62
ATOM     62  O   UNL     1       3.903  -3.245   3.177  1.00  0.00    -0.460 OA
BRANCH  62  63
ATOM     63  C   UNL     1       2.715  -3.898   3.267  1.00  0.00     0.338 C 
ATOM     64  O   UNL     1       1.861  -3.778   4.125  1.00  0.00    -0.246 OA
BRANCH  63  65
ATOM     65  C   UNL     1       2.563  -4.801   2.104  1.00  0.00     0.061 A 
ATOM     66  C   UNL     1       3.454  -5.867   1.978  1.00  0.00     0.019 A 
ATOM     67  C   UNL     1       1.506  -4.615   1.178  1.00  0.00     0.038 A 
ATOM     68  C   UNL     1       3.263  -6.742   0.926  1.00  0.00    -0.043 A 
ATOM     69  C   UNL     1       1.351  -5.490   0.082  1.00  0.00     0.092 A 
ATOM     70  C   UNL     1       2.257  -6.538  -0.040  1.00  0.00    -0.024 A 
ATOM     71  C   UNL     1       4.048  -7.987   0.634  1.00  0.00     0.036 C 
ATOM     72  C   UNL     1       2.418  -7.574  -1.111  1.00  0.00     0.037 C 
ATOM     73  C   UNL     1       3.075  -8.699  -0.308  1.00  0.00     0.010 C 
BRANCH  69  74
ATOM     74  S   UNL     1       0.181  -5.109  -1.209  1.00  0.00     0.262 S 
ATOM     75  O   UNL     1      -0.281  -3.753  -0.986  1.00  0.00    -0.201 OA
ATOM     76  O   UNL     1       0.788  -5.442  -2.483  1.00  0.00    -0.201 OA
BRANCH  74  77
ATOM     77  N   UNL     1      -1.214  -6.084  -1.063  1.00  0.00    -0.277 N 
ATOM     78  H   UNL     1      -2.107  -5.671  -1.114  1.00  0.00     0.180 HD
BRANCH  77  79
ATOM     79  C   UNL     1      -1.096  -7.502  -0.865  1.00  0.00     0.075 A 
ATOM     80  C   UNL     1      -0.954  -8.338  -1.986  1.00  0.00     0.042 A 
ATOM     81  C   UNL     1      -0.971  -8.049   0.422  1.00  0.00     0.089 A 
ATOM     82  C   UNL     1      -0.632  -9.704  -1.834  1.00  0.00     0.058 A 
ATOM     83  C   UNL     1      -0.653  -9.408   0.579  1.00  0.00     0.031 A 
ATOM     84  C   UNL     1      -0.495 -10.229  -0.541  1.00  0.00     0.015 A 
BRANCH  81  85
ATOM     85  N   UNL     1      -1.134  -7.253   1.583  1.00  0.00    -0.239 N 
ATOM     86  C   UNL     1      -1.920  -6.133   1.742  1.00  0.00     0.115 A 
ATOM     87  N   UNL     1      -0.413  -7.510   2.703  1.00  0.00    -0.177 NA
ATOM     88  C   UNL     1      -1.551  -5.549   2.928  1.00  0.00     0.042 A 
ATOM     89  C   UNL     1      -0.599  -6.428   3.464  1.00  0.00     0.135 A 
ENDBRANCH  81  85
BRANCH  82  90
ATOM     90  C   UNL     1      -0.376 -10.571  -3.046  1.00  0.00     0.416 C 
ATOM     91  F   UNL     1      -1.516 -10.875  -3.721  1.00  0.00    -0.166 F 
ATOM     92  F   UNL     1       0.447  -9.966  -3.949  1.00  0.00    -0.166 F 
ATOM     93  F   UNL     1       0.216 -11.760  -2.748  1.00  0.00    -0.166 F 
ENDBRANCH  82  90
ENDBRANCH  77  79
ENDBRANCH  74  77
ENDBRANCH  69  74
ENDBRANCH  63  65
ENDBRANCH  62  63
ENDBRANCH  61  62
ENDBRANCH  60  61
ENDBRANCH  59  60
ENDBRANCH   1  59
TORSDOF 22
