REMARK SMILES COc1ccc(NC(=O)N[C@@H]2C=C[C@H](C(=O)OCCOCCOCCOC(=O)c3ccc(-c4c5nc(c(-c6ccccc6)c6ccc([nH]6)c(-c6ccccc6)c6nc(c(-c7ccccc7)c7ccc4[nH]7)C=C6)C=C5)cc3)C2)c(C)c1
REMARK SMILES IDX 21 1 20 2 19 3 18 4 17 5 15 6 16 7 14 8 11 9 12 10 77 11
REMARK SMILES IDX 13 12 10 13 7 14 8 15 9 17 6 19 3 20 4 21 80 22 5 23 78 24
REMARK SMILES IDX 79 25 2 26 1 27 22 28 23 29 24 30 25 31 26 32 27 33 28 34
REMARK SMILES IDX 29 35 30 36 76 37 31 38 75 39 32 40 33 41 34 42 69 43 35 44
REMARK SMILES IDX 74 45 68 46 70 47 36 48 73 49 67 50 66 51 37 53 59 54 44 55
REMARK SMILES IDX 58 56 45 57 48 58 57 59 71 60 46 61 47 62 56 64 72 65 49 66
REMARK SMILES IDX 38 67 39 68 43 69 40 70 42 71 41 72 60 73 61 74 65 75 62 76
REMARK SMILES IDX 64 77 63 78 50 79 51 80 55 81 52 82 54 83 53 84
REMARK H PARENT 7 16 10 18 70 52 48 63
REMARK Flexibility Score: inf
ROOT
ATOM      1  C   UNL     1       1.775   0.083  -3.804  1.00  0.00     0.188 C 
ENDROOT
BRANCH   1   2
ATOM      2  O   UNL     1       0.950   1.221  -3.692  1.00  0.00    -0.376 OA
BRANCH   2   3
ATOM      3  C   UNL     1       0.694   1.538  -2.341  1.00  0.00     0.202 C 
BRANCH   3   4
ATOM      4  C   UNL     1       1.761   1.135  -1.287  1.00  0.00     0.261 C 
BRANCH   4   5
ATOM      5  O   UNL     1       2.402  -0.504  -0.787  1.00  0.00    -0.463 OA
BRANCH   5   6
ATOM      6  C   UNL     1       3.087  -1.819  -0.628  1.00  0.00     0.312 C 
ATOM      7  O   UNL     1       3.382  -2.430  -1.655  1.00  0.00    -0.252 OA
BRANCH   6   8
ATOM      8  C   UNL     1       3.586  -2.737   1.019  1.00  0.00     0.124 C 
ATOM      9  C   UNL     1       5.230  -5.518   1.128  1.00  0.00     0.107 C 
ATOM     10  C   UNL     1       3.925  -5.566   2.630  1.00  0.00    -0.006 C 
ATOM     11  C   UNL     1       5.282  -3.677   0.363  1.00  0.00     0.048 C 
ATOM     12  C   UNL     1       2.892  -4.258   2.534  1.00  0.00    -0.014 C 
BRANCH   9  13
ATOM     13  N   UNL     1       4.521  -6.340  -0.267  1.00  0.00    -0.332 N 
ATOM     14  N   UNL     1       2.468  -4.999  -0.902  1.00  0.00    -0.308 N 
ATOM     15  C   UNL     1       3.465  -5.978  -1.210  1.00  0.00     0.319 C 
ATOM     16  H   UNL     1       1.840  -4.753  -1.619  1.00  0.00     0.171 HD
ATOM     17  O   UNL     1       3.398  -6.548  -2.301  1.00  0.00    -0.248 OA
ATOM     18  H   UNL     1       4.919  -7.222  -0.445  1.00  0.00     0.165 HD
BRANCH  14  19
ATOM     19  C   UNL     1       2.313  -4.368   0.325  1.00  0.00     0.046 A 
ATOM     20  C   UNL     1       3.641  -2.401   3.178  1.00  0.00     0.119 A 
ATOM     21  C   UNL     1       4.614  -3.582   2.334  1.00  0.00     0.048 A 
ATOM     22  C   UNL     1       2.072  -2.248   2.493  1.00  0.00     0.052 A 
ATOM     23  C   UNL     1       3.589  -4.552   0.873  1.00  0.00     0.030 A 
ATOM     24  C   UNL     1       1.543  -3.245   1.107  1.00  0.00    -0.024 A 
ATOM     25  C   UNL     1       0.552  -2.750   0.249  1.00  0.00     0.047 C 
BRANCH  20  26
ATOM     26  O   UNL     1       4.008  -1.693   4.266  1.00  0.00    -0.497 OA
ATOM     27  C   UNL     1       5.417  -1.585   4.412  1.00  0.00     0.278 C 
ENDBRANCH  20  26
ENDBRANCH  14  19
ENDBRANCH   9  13
ENDBRANCH   6   8
ENDBRANCH   5   6
ENDBRANCH   4   5
ENDBRANCH   3   4
ENDBRANCH   2   3
ENDBRANCH   1   2
BRANCH   1  28
ATOM     28  C   UNL     1       3.240   0.382  -3.588  1.00  0.00     0.188 C 
BRANCH  28  29
ATOM     29  O   UNL     1       3.472   1.541  -2.831  1.00  0.00    -0.376 OA
BRANCH  29  30
ATOM     30  C   UNL     1       3.492   2.845  -3.352  1.00  0.00     0.202 C 
BRANCH  30  31
ATOM     31  C   UNL     1       4.709   2.844  -4.215  1.00  0.00     0.261 C 
BRANCH  31  32
ATOM     32  O   UNL     1       5.910   2.503  -3.406  1.00  0.00    -0.460 OA
BRANCH  32  33
ATOM     33  C   UNL     1       6.045   1.338  -2.677  1.00  0.00     0.338 C 
ATOM     34  O   UNL     1       6.543   0.322  -3.151  1.00  0.00    -0.246 OA
BRANCH  33  35
ATOM     35  C   UNL     1       5.567   1.379  -1.220  1.00  0.00     0.060 A 
ATOM     36  C   UNL     1       5.498   0.232  -0.448  1.00  0.00     0.016 A 
ATOM     37  C   UNL     1       5.005   2.498  -0.606  1.00  0.00     0.016 A 
ATOM     38  C   UNL     1       4.613   0.209   0.666  1.00  0.00     0.010 A 
ATOM     39  C   UNL     1       3.952   2.345   0.363  1.00  0.00     0.010 A 
ATOM     40  C   UNL     1       3.518   1.074   0.772  1.00  0.00    -0.014 A 
BRANCH  40  41
ATOM     41  C   UNL     1       1.941   0.763   1.387  1.00  0.00     0.031 A 
ATOM     42  C   UNL     1       2.078   1.004   2.830  1.00  0.00     0.074 A 
ATOM     43  C   UNL     1       0.577   0.321   0.883  1.00  0.00     0.049 A 
ATOM     44  N   UNL     1       1.276   0.457   3.654  1.00  0.00    -0.248 NA
ATOM     45  C   UNL     1       3.236   1.640   3.470  1.00  0.00     0.031 C 
ATOM     46  C   UNL     1      -0.785   0.465   1.484  1.00  0.00     0.029 A 
ATOM     47  N   UNL     1       0.046  -0.268  -0.422  1.00  0.00    -0.354 N 
ATOM     48  C   UNL     1       1.699   0.761   4.906  1.00  0.00     0.074 A 
ATOM     49  C   UNL     1       2.986   1.382   4.754  1.00  0.00     0.031 C 
ATOM     50  C   UNL     1      -1.778  -0.127   0.750  1.00  0.00     0.029 A 
ATOM     51  C   UNL     1      -1.266  -0.814  -0.438  1.00  0.00     0.049 A 
ATOM     52  H   UNL     1       0.601  -0.269  -1.235  1.00  0.00     0.167 HD
ATOM     53  C   UNL     1       0.765   0.629   5.871  1.00  0.00     0.031 A 
ATOM     54  C   UNL     1      -1.715  -2.033  -1.004  1.00  0.00     0.031 A 
ATOM     55  C   UNL     1      -0.396  -0.146   5.362  1.00  0.00     0.049 A 
ATOM     56  C   UNL     1      -2.139  -2.965   0.276  1.00  0.00     0.074 A 
ATOM     57  C   UNL     1      -1.569   0.307   4.780  1.00  0.00     0.029 A 
ATOM     58  N   UNL     1      -0.278  -1.491   4.961  1.00  0.00    -0.354 N 
ATOM     59  N   UNL     1      -1.933  -2.530   1.506  1.00  0.00    -0.248 NA
ATOM     60  C   UNL     1      -2.493  -4.397   0.325  1.00  0.00     0.031 C 
ATOM     61  C   UNL     1      -2.177  -0.764   4.079  1.00  0.00     0.029 A 
ATOM     62  C   UNL     1      -1.376  -1.886   4.176  1.00  0.00     0.049 A 
ATOM     63  H   UNL     1       0.475  -2.079   5.200  1.00  0.00     0.167 HD
ATOM     64  C   UNL     1      -1.976  -3.524   2.446  1.00  0.00     0.074 A 
ATOM     65  C   UNL     1      -2.413  -4.670   1.653  1.00  0.00     0.031 C 
ATOM     66  C   UNL     1      -1.639  -3.289   3.767  1.00  0.00     0.031 A 
BRANCH  53  67
ATOM     67  C   UNL     1       0.721   1.675   6.963  1.00  0.00    -0.014 A 
ATOM     68  C   UNL     1      -0.512   1.896   7.590  1.00  0.00     0.009 A 
ATOM     69  C   UNL     1       1.756   2.574   7.311  1.00  0.00     0.009 A 
ATOM     70  C   UNL     1      -0.710   2.952   8.486  1.00  0.00     0.001 A 
ATOM     71  C   UNL     1       1.566   3.634   8.207  1.00  0.00     0.001 A 
ATOM     72  C   UNL     1       0.329   3.820   8.798  1.00  0.00     0.000 A 
ENDBRANCH  53  67
BRANCH  54  73
ATOM     73  C   UNL     1      -1.044  -2.612  -2.371  1.00  0.00    -0.014 A 
ATOM     74  C   UNL     1      -1.225  -1.929  -3.592  1.00  0.00     0.009 A 
ATOM     75  C   UNL     1      -0.074  -3.642  -2.491  1.00  0.00     0.009 A 
ATOM     76  C   UNL     1      -0.338  -2.062  -4.706  1.00  0.00     0.001 A 
ATOM     77  C   UNL     1       0.895  -3.693  -3.547  1.00  0.00     0.001 A 
ATOM     78  C   UNL     1       0.798  -2.853  -4.631  1.00  0.00     0.000 A 
ENDBRANCH  54  73
BRANCH  66  79
ATOM     79  C   UNL     1      -1.775  -4.285   4.904  1.00  0.00    -0.014 A 
ATOM     80  C   UNL     1      -1.906  -5.667   4.771  1.00  0.00     0.009 A 
ATOM     81  C   UNL     1      -1.833  -3.782   6.231  1.00  0.00     0.009 A 
ATOM     82  C   UNL     1      -2.210  -6.473   5.880  1.00  0.00     0.001 A 
ATOM     83  C   UNL     1      -2.052  -4.585   7.345  1.00  0.00     0.001 A 
ATOM     84  C   UNL     1      -2.284  -5.933   7.162  1.00  0.00     0.000 A 
ENDBRANCH  66  79
ENDBRANCH  40  41
ENDBRANCH  33  35
ENDBRANCH  32  33
ENDBRANCH  31  32
ENDBRANCH  30  31
ENDBRANCH  29  30
ENDBRANCH  28  29
ENDBRANCH   1  28
TORSDOF 20
