REMARK SMILES C[C@H]1CCc2sc3ncn4nc(/C=C\C(=O)OCCOCCOCCOC(=O)c5ccc(-c6c7nc(c(-c8ccccc8)c8ccc([nH]8)c(-c8ccccc8)c8nc(c(-c9ccccc9)c9ccc6[nH]9)C=C8)C=C7)cc5)nc4c3c2C1
REMARK SMILES IDX 22 1 21 2 20 3 19 4 18 5 17 6 15 7 16 8 14 9 13 10 12 11
REMARK SMILES IDX 1 12 2 13 3 14 81 15 4 16 80 17 5 18 79 19 6 20 7 21 78 22
REMARK SMILES IDX 8 23 10 24 77 25 9 26 11 27 23 28 24 29 25 30 26 31 27 32
REMARK SMILES IDX 28 33 29 34 30 35 76 36 31 37 75 38 32 39 33 40 34 41 69 42
REMARK SMILES IDX 35 43 74 44 68 45 70 46 36 47 73 48 67 49 66 50 37 52 59 53
REMARK SMILES IDX 44 54 58 55 45 56 48 57 57 58 71 59 46 60 47 61 56 63 72 64
REMARK SMILES IDX 49 65 38 66 39 67 43 68 40 69 42 70 41 71 60 72 61 73 65 74
REMARK SMILES IDX 62 75 64 76 63 77 50 78 51 79 55 80 52 81 54 82 53 83
REMARK H PARENT 70 51 48 62
REMARK Flexibility Score: inf
ROOT
ATOM      1  C   UNL     1       1.144  -4.699   3.295  1.00  0.00     0.188 C 
ENDROOT
BRANCH   1   2
ATOM      2  C   UNL     1       1.925  -3.522   3.937  1.00  0.00     0.188 C 
BRANCH   2   3
ATOM      3  O   UNL     1       1.555  -2.179   3.692  1.00  0.00    -0.376 OA
BRANCH   3   4
ATOM      4  C   UNL     1       1.735  -1.645   2.387  1.00  0.00     0.202 C 
BRANCH   4   5
ATOM      5  C   UNL     1       2.887  -2.103   1.480  1.00  0.00     0.261 C 
BRANCH   5   6
ATOM      6  O   UNL     1       3.059  -3.518   1.425  1.00  0.00    -0.460 OA
BRANCH   6   7
ATOM      7  C   UNL     1       4.317  -3.989   1.538  1.00  0.00     0.330 C 
ATOM      8  O   UNL     1       5.325  -3.323   1.723  1.00  0.00    -0.247 OA
BRANCH   7   9
ATOM      9  C   UNL     1       4.340  -5.459   1.649  1.00  0.00     0.097 C 
ATOM     10  C   UNL     1       3.670  -6.385   0.948  1.00  0.00     0.058 C 
BRANCH  10  11
ATOM     11  C   UNL     1       2.750  -6.260  -0.134  1.00  0.00     0.175 A 
ATOM     12  C   UNL     1       1.327  -0.118  -2.730  1.00  0.00     0.008 C 
ATOM     13  C   UNL     1       0.340  -0.729  -1.735  1.00  0.00    -0.009 C 
ATOM     14  C   UNL     1      -1.123  -0.651  -2.224  1.00  0.00     0.009 C 
ATOM     15  C   UNL     1       0.756  -2.170  -1.393  1.00  0.00     0.041 C 
ATOM     16  C   UNL     1      -1.429  -1.574  -3.419  1.00  0.00     0.047 C 
ATOM     17  C   UNL     1       0.164  -3.204  -2.283  1.00  0.00    -0.020 A 
ATOM     18  C   UNL     1      -0.836  -2.930  -3.193  1.00  0.00     0.011 A 
ATOM     19  C   UNL     1       0.480  -4.577  -2.297  1.00  0.00     0.060 A 
ATOM     20  S   UNL     1      -1.319  -4.313  -4.076  1.00  0.00    -0.120 S 
ATOM     21  C   UNL     1      -0.232  -5.327  -3.219  1.00  0.00     0.129 A 
ATOM     22  C   UNL     1       1.421  -5.363  -1.483  1.00  0.00     0.168 A 
ATOM     23  N   UNL     1      -0.139  -6.681  -3.451  1.00  0.00    -0.225 NA
ATOM     24  N   UNL     1       1.452  -6.704  -1.695  1.00  0.00    -0.201 N 
ATOM     25  N   UNL     1       2.274  -5.036  -0.548  1.00  0.00    -0.207 NA
ATOM     26  C   UNL     1       0.695  -7.338  -2.679  1.00  0.00     0.227 A 
ATOM     27  N   UNL     1       2.292  -7.314  -0.841  1.00  0.00    -0.145 NA
ENDBRANCH  10  11
ENDBRANCH   7   9
ENDBRANCH   6   7
ENDBRANCH   5   6
ENDBRANCH   4   5
ENDBRANCH   3   4
ENDBRANCH   2   3
ENDBRANCH   1   2
BRANCH   1  28
ATOM     28  O   UNL     1       0.520  -4.604   2.032  1.00  0.00    -0.376 OA
BRANCH  28  29
ATOM     29  C   UNL     1      -0.726  -3.981   1.766  1.00  0.00     0.202 C 
BRANCH  29  30
ATOM     30  C   UNL     1      -1.797  -3.659   2.794  1.00  0.00     0.261 C 
BRANCH  30  31
ATOM     31  O   UNL     1      -1.251  -3.169   3.994  1.00  0.00    -0.460 OA
BRANCH  31  32
ATOM     32  C   UNL     1      -1.247  -4.094   4.972  1.00  0.00     0.338 C 
ATOM     33  O   UNL     1      -1.641  -5.244   4.917  1.00  0.00    -0.246 OA
BRANCH  32  34
ATOM     34  C   UNL     1      -0.714  -3.485   6.187  1.00  0.00     0.060 A 
ATOM     35  C   UNL     1      -0.478  -4.375   7.234  1.00  0.00     0.016 A 
ATOM     36  C   UNL     1      -0.924  -2.114   6.372  1.00  0.00     0.016 A 
ATOM     37  C   UNL     1      -0.845  -3.963   8.484  1.00  0.00     0.010 A 
ATOM     38  C   UNL     1      -1.299  -1.707   7.618  1.00  0.00     0.010 A 
ATOM     39  C   UNL     1      -1.388  -2.681   8.606  1.00  0.00    -0.014 A 
BRANCH  39  40
ATOM     40  C   UNL     1      -2.100  -2.377   9.816  1.00  0.00     0.031 A 
ATOM     41  C   UNL     1      -1.194  -2.063  10.928  1.00  0.00     0.074 A 
ATOM     42  C   UNL     1      -3.443  -2.337   9.857  1.00  0.00     0.049 A 
ATOM     43  N   UNL     1      -0.955  -2.794  11.961  1.00  0.00    -0.248 NA
ATOM     44  C   UNL     1      -0.301  -0.905  10.766  1.00  0.00     0.031 C 
ATOM     45  C   UNL     1      -4.410  -2.370   8.755  1.00  0.00     0.029 A 
ATOM     46  N   UNL     1      -4.229  -2.138  10.940  1.00  0.00    -0.354 N 
ATOM     47  C   UNL     1       0.003  -2.098  12.680  1.00  0.00     0.074 A 
ATOM     48  C   UNL     1       0.507  -1.063  11.812  1.00  0.00     0.031 C 
ATOM     49  C   UNL     1      -5.609  -1.930   9.210  1.00  0.00     0.029 A 
ATOM     50  C   UNL     1      -5.519  -1.727  10.648  1.00  0.00     0.049 A 
ATOM     51  H   UNL     1      -3.909  -2.273  11.861  1.00  0.00     0.167 HD
ATOM     52  C   UNL     1       0.131  -2.252  14.022  1.00  0.00     0.031 A 
ATOM     53  C   UNL     1      -6.384  -1.175  11.535  1.00  0.00     0.031 A 
ATOM     54  C   UNL     1      -0.563  -3.416  14.503  1.00  0.00     0.049 A 
ATOM     55  C   UNL     1      -5.894  -1.514  12.897  1.00  0.00     0.074 A 
ATOM     56  C   UNL     1      -0.427  -4.774  14.295  1.00  0.00     0.029 A 
ATOM     57  N   UNL     1      -1.836  -3.229  14.990  1.00  0.00    -0.354 N 
ATOM     58  N   UNL     1      -5.887  -2.727  13.373  1.00  0.00    -0.248 NA
ATOM     59  C   UNL     1      -4.967  -0.591  13.538  1.00  0.00     0.031 C 
ATOM     60  C   UNL     1      -1.760  -5.274  14.229  1.00  0.00     0.029 A 
ATOM     61  C   UNL     1      -2.636  -4.212  14.463  1.00  0.00     0.049 A 
ATOM     62  H   UNL     1      -2.122  -2.517  15.607  1.00  0.00     0.167 HD
ATOM     63  C   UNL     1      -4.679  -2.839  14.047  1.00  0.00     0.074 A 
ATOM     64  C   UNL     1      -4.196  -1.466  14.193  1.00  0.00     0.031 C 
ATOM     65  C   UNL     1      -4.042  -4.042  14.160  1.00  0.00     0.031 A 
BRANCH  52  66
ATOM     66  C   UNL     1       0.551  -1.124  14.912  1.00  0.00    -0.014 A 
ATOM     67  C   UNL     1       0.894  -1.394  16.242  1.00  0.00     0.009 A 
ATOM     68  C   UNL     1       0.383   0.229  14.550  1.00  0.00     0.009 A 
ATOM     69  C   UNL     1       1.040  -0.356  17.169  1.00  0.00     0.001 A 
ATOM     70  C   UNL     1       0.571   1.268  15.459  1.00  0.00     0.001 A 
ATOM     71  C   UNL     1       0.879   0.972  16.777  1.00  0.00     0.000 A 
ENDBRANCH  52  66
BRANCH  53  72
ATOM     72  C   UNL     1      -7.344  -0.071  11.310  1.00  0.00    -0.014 A 
ATOM     73  C   UNL     1      -8.339   0.211  12.261  1.00  0.00     0.009 A 
ATOM     74  C   UNL     1      -7.097   0.895  10.317  1.00  0.00     0.009 A 
ATOM     75  C   UNL     1      -9.024   1.435  12.247  1.00  0.00     0.001 A 
ATOM     76  C   UNL     1      -7.782   2.115  10.302  1.00  0.00     0.001 A 
ATOM     77  C   UNL     1      -8.733   2.392  11.278  1.00  0.00     0.000 A 
ENDBRANCH  53  72
BRANCH  65  78
ATOM     78  C   UNL     1      -4.788  -5.275  13.700  1.00  0.00    -0.014 A 
ATOM     79  C   UNL     1      -5.212  -5.472  12.372  1.00  0.00     0.009 A 
ATOM     80  C   UNL     1      -4.935  -6.337  14.604  1.00  0.00     0.009 A 
ATOM     81  C   UNL     1      -5.792  -6.682  11.974  1.00  0.00     0.001 A 
ATOM     82  C   UNL     1      -5.495  -7.551  14.202  1.00  0.00     0.001 A 
ATOM     83  C   UNL     1      -5.929  -7.723  12.889  1.00  0.00     0.000 A 
ENDBRANCH  65  78
ENDBRANCH  39  40
ENDBRANCH  32  34
ENDBRANCH  31  32
ENDBRANCH  30  31
ENDBRANCH  29  30
ENDBRANCH  28  29
ENDBRANCH   1  28
TORSDOF 18
