REMARK SMILES CC(C)(C)[C@H]1CCC[C@H]([NH+]2CCC(CC(=O)OCCOCCOCCOC(=O)c3ccc(-c4c5nc(c(-c6ccccc6)c6ccc([nH]6)c(-c6ccccc6)c6nc(c(-c7ccccc7)c7ccc4[nH]7)C=C6)C=C5)cc3)CC2)CC1
REMARK SMILES IDX 19 1 18 2 17 3 15 4 16 5 14 6 13 7 10 8 11 9 78 10 12 12
REMARK SMILES IDX 77 13 9 14 79 15 80 16 5 17 2 18 1 19 3 20 4 21 6 22 8 24
REMARK SMILES IDX 7 25 20 27 21 28 22 29 23 30 24 31 25 32 26 33 27 34 28 35
REMARK SMILES IDX 29 36 30 37 76 38 31 39 75 40 32 41 33 42 34 43 69 44 35 45
REMARK SMILES IDX 74 46 68 47 70 48 36 49 73 50 67 51 66 52 37 54 59 55 44 56
REMARK SMILES IDX 58 57 45 58 48 59 57 60 71 61 46 62 47 63 56 65 72 66 49 67
REMARK SMILES IDX 38 68 39 69 43 70 40 71 42 72 41 73 60 74 61 75 65 76 62 77
REMARK SMILES IDX 64 78 63 79 50 80 51 81 55 82 52 83 54 84 53 85
REMARK H PARENT 10 11 70 53 48 64
REMARK Flexibility Score: 80.00
ROOT
ATOM      1  C   UNL     1      -6.498   9.045  -3.623  1.00  0.00     0.202 C 
ENDROOT
BRANCH   1   2
ATOM      2  C   UNL     1      -5.806   8.450  -4.858  1.00  0.00     0.261 C 
BRANCH   2   3
ATOM      3  O   UNL     1      -4.368   8.401  -4.755  1.00  0.00    -0.463 OA
BRANCH   3   4
ATOM      4  C   UNL     1      -3.668   9.061  -5.713  1.00  0.00     0.306 C 
ATOM      5  O   UNL     1      -4.173   9.640  -6.670  1.00  0.00    -0.252 OA
BRANCH   4   6
ATOM      6  C   UNL     1      -2.169   9.120  -5.464  1.00  0.00     0.126 C 
BRANCH   6   7
ATOM      7  C   UNL     1      -1.541   8.284  -4.340  1.00  0.00     0.011 C 
ATOM      8  N   UNL     1       0.302   6.174  -3.377  1.00  0.00    -0.332 N 
ATOM      9  C   UNL     1      -1.159   6.019  -3.331  1.00  0.00     0.262 C 
ATOM     10  C   UNL     1       0.688   7.593  -3.295  1.00  0.00     0.262 C 
ATOM     11  H   UNL     1       0.606   5.825  -4.286  1.00  0.00     0.348 HD
ATOM     12  C   UNL     1      -1.843   6.791  -4.455  1.00  0.00     0.066 C 
ATOM     13  C   UNL     1      -0.007   8.459  -4.353  1.00  0.00     0.066 C 
BRANCH   8  14
ATOM     14  C   UNL     1       1.017   5.328  -2.370  1.00  0.00     0.184 C 
BRANCH  14  15
ATOM     15  C   UNL     1       0.773   3.818  -2.674  1.00  0.00     0.065 C 
BRANCH  15  16
ATOM     16  C   UNL     1       1.659   2.841  -1.884  1.00  0.00     0.010 C 
BRANCH  16  17
ATOM     17  C   UNL     1       1.139   2.455  -0.472  1.00  0.00    -0.005 C 
BRANCH  17  18
ATOM     18  C   UNL     1       2.246   1.807   0.478  1.00  0.00    -0.035 C 
ATOM     19  C   UNL     1       2.027   2.130   1.974  1.00  0.00     0.011 C 
ATOM     20  C   UNL     1       3.693   2.219   0.130  1.00  0.00     0.011 C 
ATOM     21  C   UNL     1       2.171   0.269   0.343  1.00  0.00     0.011 C 
ENDBRANCH  17  18
BRANCH  17  22
ATOM     22  C   UNL     1       0.326   3.595   0.165  1.00  0.00     0.004 CG0
ATOM     23  G   UNL     1       1.102   4.897   0.232  1.00  0.00     0.000 G0
ENDBRANCH  17  22
ENDBRANCH  16  17
ENDBRANCH  15  16
ENDBRANCH  14  15
BRANCH  14  24
ATOM     24  C   UNL     1       0.766   5.824  -0.922  1.00  0.00     0.065 C 
BRANCH  24  25
ATOM     25  C   UNL     1       1.102   4.897   0.232  1.00  0.00     0.006 CG0
ATOM     26  G   UNL     1       0.326   3.595   0.165  1.00  0.00     0.000 G0
ENDBRANCH  24  25
ENDBRANCH  14  24
ENDBRANCH   8  14
ENDBRANCH   6   7
ENDBRANCH   4   6
ENDBRANCH   3   4
ENDBRANCH   2   3
ENDBRANCH   1   2
BRANCH   1  27
ATOM     27  O   UNL     1      -6.032  10.325  -3.196  1.00  0.00    -0.376 OA
BRANCH  27  28
ATOM     28  C   UNL     1      -4.678  10.396  -2.764  1.00  0.00     0.188 C 
BRANCH  28  29
ATOM     29  C   UNL     1      -4.300   9.483  -1.598  1.00  0.00     0.188 C 
BRANCH  29  30
ATOM     30  O   UNL     1      -4.695   8.124  -1.696  1.00  0.00    -0.376 OA
BRANCH  30  31
ATOM     31  C   UNL     1      -4.488   7.320  -0.529  1.00  0.00     0.202 C 
BRANCH  31  32
ATOM     32  C   UNL     1      -5.010   7.858   0.826  1.00  0.00     0.261 C 
BRANCH  32  33
ATOM     33  O   UNL     1      -4.523   9.152   1.253  1.00  0.00    -0.460 OA
BRANCH  33  34
ATOM     34  C   UNL     1      -3.188   9.371   1.244  1.00  0.00     0.338 C 
ATOM     35  O   UNL     1      -2.318   8.521   1.146  1.00  0.00    -0.246 OA
BRANCH  34  36
ATOM     36  C   UNL     1      -2.942  10.836   1.084  1.00  0.00     0.060 A 
ATOM     37  C   UNL     1      -1.901  11.241   0.232  1.00  0.00     0.016 A 
ATOM     38  C   UNL     1      -3.751  11.807   1.684  1.00  0.00     0.016 A 
ATOM     39  C   UNL     1      -1.638  12.598   0.018  1.00  0.00     0.010 A 
ATOM     40  C   UNL     1      -3.476  13.169   1.483  1.00  0.00     0.010 A 
ATOM     41  C   UNL     1      -2.394  13.574   0.679  1.00  0.00    -0.014 A 
BRANCH  41  42
ATOM     42  C   UNL     1      -1.915  14.984   0.716  1.00  0.00     0.031 A 
ATOM     43  C   UNL     1      -1.136  15.437   1.925  1.00  0.00     0.074 A 
ATOM     44  C   UNL     1      -2.120  15.850  -0.294  1.00  0.00     0.049 A 
ATOM     45  N   UNL     1      -0.642  16.615   2.209  1.00  0.00    -0.248 NA
ATOM     46  C   UNL     1      -0.884  14.414   2.953  1.00  0.00     0.031 C 
ATOM     47  C   UNL     1      -2.799  15.548  -1.552  1.00  0.00     0.029 A 
ATOM     48  N   UNL     1      -1.769  17.175  -0.411  1.00  0.00    -0.354 N 
ATOM     49  C   UNL     1      -0.032  16.478   3.450  1.00  0.00     0.074 A 
ATOM     50  C   UNL     1      -0.247  15.113   3.879  1.00  0.00     0.031 C 
ATOM     51  C   UNL     1      -2.818  16.658  -2.313  1.00  0.00     0.029 A 
ATOM     52  C   UNL     1      -2.188  17.758  -1.583  1.00  0.00     0.049 A 
ATOM     53  H   UNL     1      -1.264  17.661   0.281  1.00  0.00     0.167 HD
ATOM     54  C   UNL     1       0.652  17.397   4.173  1.00  0.00     0.031 A 
ATOM     55  C   UNL     1      -2.093  19.035  -2.011  1.00  0.00     0.031 A 
ATOM     56  C   UNL     1       0.856  18.762   3.770  1.00  0.00     0.049 A 
ATOM     57  C   UNL     1      -1.417  20.070  -1.144  1.00  0.00     0.074 A 
ATOM     58  C   UNL     1       1.542  19.764   4.435  1.00  0.00     0.029 A 
ATOM     59  N   UNL     1       0.363  19.323   2.603  1.00  0.00    -0.354 N 
ATOM     60  N   UNL     1      -0.828  19.923   0.018  1.00  0.00    -0.248 NA
ATOM     61  C   UNL     1      -1.390  21.449  -1.657  1.00  0.00     0.031 C 
ATOM     62  C   UNL     1       1.408  20.947   3.703  1.00  0.00     0.029 A 
ATOM     63  C   UNL     1       0.702  20.665   2.545  1.00  0.00     0.049 A 
ATOM     64  H   UNL     1      -0.152  18.840   1.917  1.00  0.00     0.167 HD
ATOM     65  C   UNL     1      -0.333  21.178   0.356  1.00  0.00     0.074 A 
ATOM     66  C   UNL     1      -0.680  22.072  -0.727  1.00  0.00     0.031 C 
ATOM     67  C   UNL     1       0.354  21.553   1.464  1.00  0.00     0.031 A 
BRANCH  54  68
ATOM     68  C   UNL     1       1.188  16.957   5.508  1.00  0.00    -0.014 A 
ATOM     69  C   UNL     1       2.244  16.037   5.609  1.00  0.00     0.009 A 
ATOM     70  C   UNL     1       0.630  17.480   6.685  1.00  0.00     0.009 A 
ATOM     71  C   UNL     1       2.697  15.615   6.861  1.00  0.00     0.001 A 
ATOM     72  C   UNL     1       1.108  17.083   7.935  1.00  0.00     0.001 A 
ATOM     73  C   UNL     1       2.132  16.141   8.022  1.00  0.00     0.000 A 
ENDBRANCH  54  68
BRANCH  55  74
ATOM     74  C   UNL     1      -2.671  19.428  -3.325  1.00  0.00    -0.014 A 
ATOM     75  C   UNL     1      -1.840  19.818  -4.388  1.00  0.00     0.009 A 
ATOM     76  C   UNL     1      -4.062  19.448  -3.514  1.00  0.00     0.009 A 
ATOM     77  C   UNL     1      -2.390  20.238  -5.602  1.00  0.00     0.001 A 
ATOM     78  C   UNL     1      -4.609  19.838  -4.739  1.00  0.00     0.001 A 
ATOM     79  C   UNL     1      -3.773  20.242  -5.779  1.00  0.00     0.000 A 
ENDBRANCH  55  74
BRANCH  67  80
ATOM     80  C   UNL     1       0.822  22.982   1.549  1.00  0.00    -0.014 A 
ATOM     81  C   UNL     1      -0.076  24.042   1.746  1.00  0.00     0.009 A 
ATOM     82  C   UNL     1       2.197  23.265   1.480  1.00  0.00     0.009 A 
ATOM     83  C   UNL     1       0.389  25.357   1.835  1.00  0.00     0.001 A 
ATOM     84  C   UNL     1       2.662  24.576   1.603  1.00  0.00     0.001 A 
ATOM     85  C   UNL     1       1.757  25.622   1.770  1.00  0.00     0.000 A 
ENDBRANCH  67  80
ENDBRANCH  41  42
ENDBRANCH  34  36
ENDBRANCH  33  34
ENDBRANCH  32  33
ENDBRANCH  31  32
ENDBRANCH  30  31
ENDBRANCH  29  30
ENDBRANCH  28  29
ENDBRANCH  27  28
ENDBRANCH   1  27
TORSDOF 20
