REMARK SMILES COc1ccc(-c2noc(CC(=O)OCCOCCOCCOC(=O)c3ccc(-c4c5nc(c(-c6ccccc6)c6ccc([nH]6)c(-c6ccccc6)c6nc(c(-c7ccccc7)c7ccc4[nH]7)C=C6)C=C5)cc3)c2-c2ccc(OC)cc2)cc1
REMARK SMILES IDX 18 1 17 2 16 3 15 4 14 5 12 6 13 7 11 8 10 9 7 10 8 11 74 12
REMARK SMILES IDX 9 13 6 14 3 15 4 16 84 17 5 18 83 19 2 20 1 21 75 22 76 23
REMARK SMILES IDX 82 24 77 25 81 26 78 27 79 28 80 29 19 30 20 31 21 32 22 33
REMARK SMILES IDX 23 34 24 35 25 36 26 37 27 38 73 39 28 40 72 41 29 42 30 43
REMARK SMILES IDX 31 44 66 45 32 46 71 47 65 48 67 49 33 50 70 51 64 52 63 53
REMARK SMILES IDX 34 55 56 56 41 57 55 58 42 59 45 60 54 61 68 62 43 63 44 64
REMARK SMILES IDX 53 66 69 67 46 68 35 69 36 70 40 71 37 72 39 73 38 74 57 75
REMARK SMILES IDX 58 76 62 77 59 78 61 79 60 80 47 81 48 82 52 83 49 84 51 85
REMARK SMILES IDX 50 86
REMARK H PARENT 67 54 45 65
REMARK Flexibility Score: inf
ROOT
ATOM      1  C   UNL     1       2.016 -12.044   3.318  1.00  0.00     0.188 C 
ENDROOT
BRANCH   1   2
ATOM      2  O   UNL     1       1.692 -12.662   4.554  1.00  0.00    -0.376 OA
BRANCH   2   3
ATOM      3  C   UNL     1       1.356 -11.816   5.652  1.00  0.00     0.202 C 
BRANCH   3   4
ATOM      4  C   UNL     1       2.356 -10.704   6.010  1.00  0.00     0.261 C 
BRANCH   4   5
ATOM      5  O   UNL     1       2.646  -9.788   4.924  1.00  0.00    -0.463 OA
BRANCH   5   6
ATOM      6  C   UNL     1       3.959  -9.493   4.723  1.00  0.00     0.313 C 
ATOM      7  O   UNL     1       4.857  -9.844   5.485  1.00  0.00    -0.252 OA
BRANCH   6   8
ATOM      8  C   UNL     1       4.284  -8.881   3.375  1.00  0.00     0.201 C 
BRANCH   8   9
ATOM      9  C   UNL     1       3.360  -7.842   2.845  1.00  0.00     0.156 A 
ATOM     10  C   UNL     1       2.224  -6.097   2.048  1.00  0.00     0.122 A 
ATOM     11  N   UNL     1       1.811  -7.167   1.355  1.00  0.00    -0.079 NA
ATOM     12  C   UNL     1       3.213  -6.479   3.004  1.00  0.00     0.053 A 
ATOM     13  O   UNL     1       2.564  -8.227   1.808  1.00  0.00    -0.359 OA
BRANCH  10  14
ATOM     14  C   UNL     1       1.740  -4.758   1.739  1.00  0.00     0.005 A 
ATOM     15  C   UNL     1       0.846  -2.140   1.249  1.00  0.00     0.118 A 
ATOM     16  C   UNL     1      -0.041  -3.117   1.706  1.00  0.00     0.047 A 
ATOM     17  C   UNL     1       2.184  -2.472   1.036  1.00  0.00     0.047 A 
ATOM     18  C   UNL     1       0.397  -4.426   1.935  1.00  0.00     0.014 A 
ATOM     19  C   UNL     1       2.628  -3.776   1.280  1.00  0.00     0.014 A 
BRANCH  15  20
ATOM     20  O   UNL     1       0.314  -0.889   1.098  1.00  0.00    -0.497 OA
ATOM     21  C   UNL     1       0.919  -0.078   0.097  1.00  0.00     0.278 C 
ENDBRANCH  15  20
ENDBRANCH  10  14
BRANCH  12  22
ATOM     22  C   UNL     1       4.075  -5.659   3.817  1.00  0.00    -0.012 A 
ATOM     23  C   UNL     1       3.567  -4.828   4.815  1.00  0.00     0.013 A 
ATOM     24  C   UNL     1       5.445  -5.648   3.534  1.00  0.00     0.013 A 
ATOM     25  C   UNL     1       4.441  -4.014   5.543  1.00  0.00     0.047 A 
ATOM     26  C   UNL     1       6.312  -4.847   4.268  1.00  0.00     0.047 A 
ATOM     27  C   UNL     1       5.815  -4.030   5.281  1.00  0.00     0.118 A 
BRANCH  27  28
ATOM     28  O   UNL     1       6.572  -3.200   6.062  1.00  0.00    -0.497 OA
ATOM     29  C   UNL     1       7.983  -3.318   5.911  1.00  0.00     0.278 C 
ENDBRANCH  27  28
ENDBRANCH  12  22
ENDBRANCH   8   9
ENDBRANCH   6   8
ENDBRANCH   5   6
ENDBRANCH   4   5
ENDBRANCH   3   4
ENDBRANCH   2   3
ENDBRANCH   1   2
BRANCH   1  30
ATOM     30  C   UNL     1       1.123 -10.905   2.816  1.00  0.00     0.188 C 
BRANCH  30  31
ATOM     31  O   UNL     1      -0.032 -10.674   3.596  1.00  0.00    -0.376 OA
BRANCH  31  32
ATOM     32  C   UNL     1      -1.116 -10.041   2.931  1.00  0.00     0.202 C 
BRANCH  32  33
ATOM     33  C   UNL     1      -1.933 -11.069   2.136  1.00  0.00     0.261 C 
BRANCH  33  34
ATOM     34  O   UNL     1      -1.199 -11.739   1.090  1.00  0.00    -0.460 OA
BRANCH  34  35
ATOM     35  C   UNL     1      -0.761 -10.975   0.059  1.00  0.00     0.338 C 
ATOM     36  O   UNL     1      -1.051  -9.810  -0.156  1.00  0.00    -0.246 OA
BRANCH  35  37
ATOM     37  C   UNL     1       0.331 -11.716  -0.627  1.00  0.00     0.060 A 
ATOM     38  C   UNL     1       1.578 -11.091  -0.797  1.00  0.00     0.016 A 
ATOM     39  C   UNL     1       0.160 -13.042  -1.027  1.00  0.00     0.016 A 
ATOM     40  C   UNL     1       2.646 -11.788  -1.380  1.00  0.00     0.010 A 
ATOM     41  C   UNL     1       1.220 -13.728  -1.630  1.00  0.00     0.010 A 
ATOM     42  C   UNL     1       2.466 -13.104  -1.828  1.00  0.00    -0.014 A 
BRANCH  42  43
ATOM     43  C   UNL     1       3.508 -13.795  -2.635  1.00  0.00     0.031 A 
ATOM     44  C   UNL     1       3.352 -13.832  -4.133  1.00  0.00     0.074 A 
ATOM     45  C   UNL     1       4.559 -14.415  -2.066  1.00  0.00     0.049 A 
ATOM     46  N   UNL     1       4.052 -14.482  -5.028  1.00  0.00    -0.248 NA
ATOM     47  C   UNL     1       2.255 -13.026  -4.694  1.00  0.00     0.031 C 
ATOM     48  C   UNL     1       4.874 -14.422  -0.640  1.00  0.00     0.029 A 
ATOM     49  N   UNL     1       5.553 -15.181  -2.633  1.00  0.00    -0.354 N 
ATOM     50  C   UNL     1       3.474 -14.175  -6.254  1.00  0.00     0.074 A 
ATOM     51  C   UNL     1       2.354 -13.300  -5.986  1.00  0.00     0.031 C 
ATOM     52  C   UNL     1       5.974 -15.171  -0.440  1.00  0.00     0.029 A 
ATOM     53  C   UNL     1       6.415 -15.735  -1.716  1.00  0.00     0.049 A 
ATOM     54  H   UNL     1       5.638 -15.319  -3.604  1.00  0.00     0.167 HD
ATOM     55  C   UNL     1       3.841 -14.582  -7.493  1.00  0.00     0.031 A 
ATOM     56  C   UNL     1       7.418 -16.622  -1.880  1.00  0.00     0.031 A 
ATOM     57  C   UNL     1       4.941 -15.467  -7.769  1.00  0.00     0.049 A 
ATOM     58  C   UNL     1       7.733 -17.152  -3.258  1.00  0.00     0.074 A 
ATOM     59  C   UNL     1       5.391 -15.923  -8.997  1.00  0.00     0.029 A 
ATOM     60  N   UNL     1       5.756 -16.040  -6.807  1.00  0.00    -0.354 N 
ATOM     61  N   UNL     1       7.196 -16.836  -4.412  1.00  0.00    -0.248 NA
ATOM     62  C   UNL     1       8.794 -18.169  -3.353  1.00  0.00     0.031 C 
ATOM     63  C   UNL     1       6.436 -16.823  -8.774  1.00  0.00     0.029 A 
ATOM     64  C   UNL     1       6.682 -16.875  -7.412  1.00  0.00     0.049 A 
ATOM     65  H   UNL     1       5.688 -15.878  -5.839  1.00  0.00     0.167 HD
ATOM     66  C   UNL     1       7.871 -17.591  -5.366  1.00  0.00     0.074 A 
ATOM     67  C   UNL     1       8.869 -18.365  -4.662  1.00  0.00     0.031 C 
ATOM     68  C   UNL     1       7.676 -17.640  -6.707  1.00  0.00     0.031 A 
BRANCH  55  69
ATOM     69  C   UNL     1       3.018 -14.099  -8.654  1.00  0.00    -0.014 A 
ATOM     70  C   UNL     1       3.077 -12.764  -9.084  1.00  0.00     0.009 A 
ATOM     71  C   UNL     1       2.217 -15.007  -9.364  1.00  0.00     0.009 A 
ATOM     72  C   UNL     1       2.328 -12.343 -10.185  1.00  0.00     0.001 A 
ATOM     73  C   UNL     1       1.492 -14.590 -10.482  1.00  0.00     0.001 A 
ATOM     74  C   UNL     1       1.542 -13.258 -10.886  1.00  0.00     0.000 A 
ENDBRANCH  55  69
BRANCH  56  75
ATOM     75  C   UNL     1       8.185 -17.122  -0.705  1.00  0.00    -0.014 A 
ATOM     76  C   UNL     1       9.552 -16.833  -0.564  1.00  0.00     0.009 A 
ATOM     77  C   UNL     1       7.569 -17.944   0.252  1.00  0.00     0.009 A 
ATOM     78  C   UNL     1      10.290 -17.381   0.489  1.00  0.00     0.001 A 
ATOM     79  C   UNL     1       8.300 -18.463   1.323  1.00  0.00     0.001 A 
ATOM     80  C   UNL     1       9.662 -18.192   1.434  1.00  0.00     0.000 A 
ENDBRANCH  56  75
BRANCH  68  81
ATOM     81  C   UNL     1       8.580 -18.533  -7.513  1.00  0.00    -0.014 A 
ATOM     82  C   UNL     1       8.466 -19.931  -7.457  1.00  0.00     0.009 A 
ATOM     83  C   UNL     1       9.522 -17.965  -8.387  1.00  0.00     0.009 A 
ATOM     84  C   UNL     1       9.296 -20.741  -8.237  1.00  0.00     0.001 A 
ATOM     85  C   UNL     1      10.328 -18.776  -9.189  1.00  0.00     0.001 A 
ATOM     86  C   UNL     1      10.220 -20.163  -9.107  1.00  0.00     0.000 A 
ENDBRANCH  68  81
ENDBRANCH  42  43
ENDBRANCH  35  37
ENDBRANCH  34  35
ENDBRANCH  33  34
ENDBRANCH  32  33
ENDBRANCH  31  32
ENDBRANCH  30  31
ENDBRANCH   1  30
TORSDOF 22
