REMARK SMILES CCOc1ccc(-c2cnc(N)cc2C(=O)OCCOCCOCCOC(=O)c2ccc(-c3c4nc(c(-c5ccccc5)c5ccc([nH]5)c(-c5ccccc5)c5nc(c(-c6ccccc6)c6ccc3[nH]6)C=C5)C=C4)cc2)c(Cl)c1
REMARK SMILES IDX 21 1 20 2 19 3 18 4 17 5 15 6 16 7 14 8 8 9 9 10 10 11 13 12
REMARK SMILES IDX 11 13 7 14 4 15 5 16 79 17 6 18 77 19 78 20 3 21 2 22 1 23
REMARK SMILES IDX 12 24 22 27 23 28 24 29 25 30 26 31 27 32 28 33 29 34 30 35
REMARK SMILES IDX 76 36 31 37 75 38 32 39 33 40 34 41 69 42 35 43 74 44 68 45
REMARK SMILES IDX 70 46 36 47 73 48 67 49 66 50 37 52 59 53 44 54 58 55 45 56
REMARK SMILES IDX 48 57 57 58 71 59 46 60 47 61 56 63 72 64 49 65 38 66 39 67
REMARK SMILES IDX 43 68 40 69 42 70 41 71 60 72 61 73 65 74 62 75 64 76 63 77
REMARK SMILES IDX 50 78 51 79 55 80 52 81 54 82 53 83
REMARK H PARENT 12 25 12 26 70 51 48 62
REMARK Flexibility Score: inf
ROOT
ATOM      1  C   UNL     1       5.292  -1.664  -5.872  1.00  0.00     0.188 C 
ENDROOT
BRANCH   1   2
ATOM      2  O   UNL     1       5.102  -0.545  -6.701  1.00  0.00    -0.376 OA
BRANCH   2   3
ATOM      3  C   UNL     1       6.003   0.543  -6.682  1.00  0.00     0.202 C 
BRANCH   3   4
ATOM      4  C   UNL     1       7.053   0.833  -5.592  1.00  0.00     0.261 C 
BRANCH   4   5
ATOM      5  O   UNL     1       7.468  -0.232  -4.729  1.00  0.00    -0.460 OA
BRANCH   5   6
ATOM      6  C   UNL     1       7.125  -0.112  -3.419  1.00  0.00     0.339 C 
ATOM      7  O   UNL     1       6.422   0.762  -2.941  1.00  0.00    -0.246 OA
BRANCH   6   8
ATOM      8  C   UNL     1       7.707  -1.226  -2.617  1.00  0.00     0.073 A 
ATOM      9  C   UNL     1       6.963  -1.844  -1.591  1.00  0.00     0.016 A 
ATOM     10  C   UNL     1       7.613  -2.838  -0.873  1.00  0.00     0.123 A 
ATOM     11  N   UNL     1       8.871  -3.263  -1.125  1.00  0.00    -0.239 NA
ATOM     12  C   UNL     1       9.001  -1.669  -2.904  1.00  0.00     0.062 A 
ATOM     13  C   UNL     1       9.535  -2.693  -2.143  1.00  0.00     0.124 A 
BRANCH   9  14
ATOM     14  C   UNL     1       5.511  -1.677  -1.473  1.00  0.00     0.003 A 
ATOM     15  C   UNL     1       2.756  -1.112  -1.606  1.00  0.00     0.120 A 
ATOM     16  C   UNL     1       3.525  -0.639  -0.547  1.00  0.00     0.047 A 
ATOM     17  C   UNL     1       3.345  -1.953  -2.542  1.00  0.00     0.067 A 
ATOM     18  C   UNL     1       4.907  -0.875  -0.505  1.00  0.00     0.014 A 
ATOM     19  C   UNL     1       4.675  -2.318  -2.395  1.00  0.00     0.052 A 
ATOM     20  Cl  UNL     1       5.257  -3.680  -3.273  1.00  0.00    -0.084 Cl
BRANCH  15  21
ATOM     21  O   UNL     1       1.401  -1.007  -1.711  1.00  0.00    -0.494 OA
BRANCH  21  22
ATOM     22  C   UNL     1       0.768   0.247  -1.481  1.00  0.00     0.226 C 
ATOM     23  C   UNL     1       0.629   0.610  -0.015  1.00  0.00     0.049 C 
ENDBRANCH  21  22
ENDBRANCH  15  21
ENDBRANCH   9  14
BRANCH  13  24
ATOM     24  N   UNL     1      10.754  -3.249  -2.458  1.00  0.00    -0.384 N 
ATOM     25  H   UNL     1      11.120  -3.978  -1.906  1.00  0.00     0.158 HD
ATOM     26  H   UNL     1      11.261  -2.919  -3.235  1.00  0.00     0.158 HD
ENDBRANCH  13  24
ENDBRANCH   6   8
ENDBRANCH   5   6
ENDBRANCH   4   5
ENDBRANCH   3   4
ENDBRANCH   2   3
ENDBRANCH   1   2
BRANCH   1  27
ATOM     27  C   UNL     1       6.452  -2.641  -6.163  1.00  0.00     0.188 C 
BRANCH  27  28
ATOM     28  O   UNL     1       7.099  -2.626  -7.422  1.00  0.00    -0.376 OA
BRANCH  28  29
ATOM     29  C   UNL     1       6.304  -2.527  -8.589  1.00  0.00     0.202 C 
BRANCH  29  30
ATOM     30  C   UNL     1       5.232  -3.591  -8.870  1.00  0.00     0.261 C 
BRANCH  30  31
ATOM     31  O   UNL     1       4.289  -3.835  -7.809  1.00  0.00    -0.460 OA
BRANCH  31  32
ATOM     32  C   UNL     1       4.357  -5.071  -7.245  1.00  0.00     0.338 C 
ATOM     33  O   UNL     1       5.157  -5.946  -7.513  1.00  0.00    -0.246 OA
BRANCH  32  34
ATOM     34  C   UNL     1       3.369  -5.218  -6.143  1.00  0.00     0.060 A 
ATOM     35  C   UNL     1       3.776  -5.915  -4.999  1.00  0.00     0.016 A 
ATOM     36  C   UNL     1       2.054  -4.750  -6.229  1.00  0.00     0.016 A 
ATOM     37  C   UNL     1       2.891  -6.118  -3.933  1.00  0.00     0.010 A 
ATOM     38  C   UNL     1       1.151  -4.998  -5.178  1.00  0.00     0.010 A 
ATOM     39  C   UNL     1       1.560  -5.691  -4.025  1.00  0.00    -0.014 A 
BRANCH  39  40
ATOM     40  C   UNL     1       0.582  -6.153  -2.998  1.00  0.00     0.031 A 
ATOM     41  C   UNL     1       0.024  -7.535  -3.119  1.00  0.00     0.074 A 
ATOM     42  C   UNL     1       0.236  -5.415  -1.926  1.00  0.00     0.049 A 
ATOM     43  N   UNL     1      -0.773  -8.172  -2.303  1.00  0.00    -0.248 NA
ATOM     44  C   UNL     1       0.441  -8.308  -4.298  1.00  0.00     0.031 C 
ATOM     45  C   UNL     1       0.783  -4.110  -1.630  1.00  0.00     0.029 A 
ATOM     46  N   UNL     1      -0.629  -5.646  -0.883  1.00  0.00    -0.354 N 
ATOM     47  C   UNL     1      -0.926  -9.434  -2.849  1.00  0.00     0.074 A 
ATOM     48  C   UNL     1      -0.171  -9.462  -4.084  1.00  0.00     0.031 C 
ATOM     49  C   UNL     1       0.246  -3.632  -0.497  1.00  0.00     0.029 A 
ATOM     50  C   UNL     1      -0.721  -4.593   0.002  1.00  0.00     0.049 A 
ATOM     51  H   UNL     1      -1.135  -6.483  -0.777  1.00  0.00     0.167 HD
ATOM     52  C   UNL     1      -1.632 -10.479  -2.361  1.00  0.00     0.031 A 
ATOM     53  C   UNL     1      -1.499  -4.404   1.084  1.00  0.00     0.031 A 
ATOM     54  C   UNL     1      -2.446 -10.427  -1.176  1.00  0.00     0.049 A 
ATOM     55  C   UNL     1      -2.405  -5.520   1.509  1.00  0.00     0.074 A 
ATOM     56  C   UNL     1      -3.234 -11.425  -0.631  1.00  0.00     0.029 A 
ATOM     57  N   UNL     1      -2.600  -9.309  -0.369  1.00  0.00    -0.354 N 
ATOM     58  N   UNL     1      -2.530  -6.716   0.989  1.00  0.00    -0.248 NA
ATOM     59  C   UNL     1      -3.257  -5.276   2.680  1.00  0.00     0.031 C 
ATOM     60  C   UNL     1      -3.920 -10.890   0.464  1.00  0.00     0.029 A 
ATOM     61  C   UNL     1      -3.500  -9.582   0.649  1.00  0.00     0.049 A 
ATOM     62  H   UNL     1      -2.139  -8.449  -0.500  1.00  0.00     0.167 HD
ATOM     63  C   UNL     1      -3.438  -7.384   1.794  1.00  0.00     0.074 A 
ATOM     64  C   UNL     1      -3.829  -6.461   2.841  1.00  0.00     0.031 C 
ATOM     65  C   UNL     1      -3.893  -8.655   1.681  1.00  0.00     0.031 A 
BRANCH  52  66
ATOM     66  C   UNL     1      -1.597 -11.741  -3.171  1.00  0.00    -0.014 A 
ATOM     67  C   UNL     1      -0.435 -12.526  -3.250  1.00  0.00     0.009 A 
ATOM     68  C   UNL     1      -2.737 -12.132  -3.888  1.00  0.00     0.009 A 
ATOM     69  C   UNL     1      -0.405 -13.658  -4.066  1.00  0.00     0.001 A 
ATOM     70  C   UNL     1      -2.712 -13.281  -4.679  1.00  0.00     0.001 A 
ATOM     71  C   UNL     1      -1.544 -14.035  -4.777  1.00  0.00     0.000 A 
ENDBRANCH  52  66
BRANCH  53  72
ATOM     72  C   UNL     1      -1.488  -3.113   1.830  1.00  0.00    -0.014 A 
ATOM     73  C   UNL     1      -1.001  -3.037   3.145  1.00  0.00     0.009 A 
ATOM     74  C   UNL     1      -2.026  -1.955   1.246  1.00  0.00     0.009 A 
ATOM     75  C   UNL     1      -1.084  -1.841   3.866  1.00  0.00     0.001 A 
ATOM     76  C   UNL     1      -2.089  -0.756   1.962  1.00  0.00     0.001 A 
ATOM     77  C   UNL     1      -1.626  -0.701   3.274  1.00  0.00     0.000 A 
ENDBRANCH  53  72
BRANCH  65  78
ATOM     78  C   UNL     1      -4.830  -9.139   2.750  1.00  0.00    -0.014 A 
ATOM     79  C   UNL     1      -6.140  -8.649   2.861  1.00  0.00     0.009 A 
ATOM     80  C   UNL     1      -4.393 -10.123   3.651  1.00  0.00     0.009 A 
ATOM     81  C   UNL     1      -6.979  -9.105   3.879  1.00  0.00     0.001 A 
ATOM     82  C   UNL     1      -5.245 -10.603   4.645  1.00  0.00     0.001 A 
ATOM     83  C   UNL     1      -6.533 -10.085   4.765  1.00  0.00     0.000 A 
ENDBRANCH  65  78
ENDBRANCH  39  40
ENDBRANCH  32  34
ENDBRANCH  31  32
ENDBRANCH  30  31
ENDBRANCH  29  30
ENDBRANCH  28  29
ENDBRANCH  27  28
ENDBRANCH   1  27
TORSDOF 21
