REMARK SMILES Cc1ccc(S(=O)(=O)n2cc(C(=O)C(=O)N[C@@H](Cc3c[nH]c4ccccc34)C(=O)OCCOCCOCCOC(=O)c3ccc(-c4c5nc(c(-c6ccccc6)c6ccc([nH]6)c(-c6ccccc6)c6nc(c(-c7ccccc7)c7ccc4[nH]7)C=C6)C=C5)cc3)c3ccccc32)cc1
REMARK SMILES IDX 33 1 32 2 31 3 30 4 28 5 29 6 17 7 16 8 14 9 15 10 12 12
REMARK SMILES IDX 13 13 11 14 9 15 10 16 95 17 90 18 94 19 91 20 93 21 92 22
REMARK SMILES IDX 6 23 7 24 8 25 5 26 1 27 2 28 3 29 97 30 4 31 96 32 18 33
REMARK SMILES IDX 19 34 20 35 27 36 21 37 22 38 26 39 23 41 25 42 24 43 34 44
REMARK SMILES IDX 35 45 36 46 37 47 38 48 39 49 40 50 41 51 42 52 43 53 89 54
REMARK SMILES IDX 44 55 88 56 45 57 46 58 47 59 82 60 48 61 87 62 81 63 83 64
REMARK SMILES IDX 49 65 86 66 80 67 79 68 50 70 72 71 57 72 71 73 58 74 61 75
REMARK SMILES IDX 70 76 84 77 59 78 60 79 69 81 85 82 62 83 51 84 52 85 56 86
REMARK SMILES IDX 53 87 55 88 54 89 73 90 74 91 78 92 75 93 77 94 76 95 63 96
REMARK SMILES IDX 64 97 68 98 65 99 67 100 66 101
REMARK H PARENT 16 11 21 40 83 69 61 80
REMARK Flexibility Score: inf
ROOT
ATOM      1  O   UNL     1     -12.096   1.181  -6.105  1.00  0.00    -0.376 OA
ENDROOT
BRANCH   1   2
ATOM      2  C   UNL     1     -12.881   2.020  -5.307  1.00  0.00     0.202 C 
BRANCH   2   3
ATOM      3  C   UNL     1     -12.483   2.345  -3.827  1.00  0.00     0.261 C 
BRANCH   3   4
ATOM      4  O   UNL     1     -11.375   1.415  -2.704  1.00  0.00    -0.462 OA
BRANCH   4   5
ATOM      5  C   UNL     1     -11.333   0.513  -1.451  1.00  0.00     0.329 C 
ATOM      6  O   UNL     1     -11.920  -0.578  -1.474  1.00  0.00    -0.250 OA
BRANCH   5   7
ATOM      7  C   UNL     1     -10.701   0.694   0.132  1.00  0.00     0.197 C 
BRANCH   7   8
ATOM      8  N   UNL     1      -9.724   1.544   0.867  1.00  0.00    -0.335 N 
ATOM      9  C   UNL     1      -8.378   1.660   0.706  1.00  0.00     0.293 C 
ATOM     10  O   UNL     1      -7.724   2.449   1.373  1.00  0.00    -0.265 OA
ATOM     11  H   UNL     1     -10.111   2.106   1.577  1.00  0.00     0.164 HD
BRANCH   9  12
ATOM     12  C   UNL     1      -7.775   0.838  -0.416  1.00  0.00     0.252 C 
ATOM     13  O   UNL     1      -8.533   0.297  -1.219  1.00  0.00    -0.283 OA
BRANCH  12  14
ATOM     14  C   UNL     1      -6.405   0.447  -0.328  1.00  0.00     0.054 A 
ATOM     15  N   UNL     1      -4.481   0.019   0.618  1.00  0.00    -0.240 N 
ATOM     16  C   UNL     1      -5.237   1.065   0.109  1.00  0.00     0.117 A 
ATOM     17  C   UNL     1      -5.326  -1.122   0.635  1.00  0.00     0.065 A 
ATOM     18  C   UNL     1      -6.134  -0.913  -0.465  1.00  0.00     0.012 A 
ATOM     19  C   UNL     1      -5.133  -2.411   1.153  1.00  0.00     0.028 A 
ATOM     20  C   UNL     1      -6.700  -1.988  -1.159  1.00  0.00     0.011 A 
ATOM     21  C   UNL     1      -5.581  -3.476   0.368  1.00  0.00     0.002 A 
ATOM     22  C   UNL     1      -6.339  -3.273  -0.782  1.00  0.00     0.001 A 
BRANCH  15  23
ATOM     23  S   UNL     1      -2.940  -0.532   0.176  1.00  0.00     0.268 S 
ATOM     24  O   UNL     1      -3.205  -1.175  -1.106  1.00  0.00    -0.201 OA
ATOM     25  O   UNL     1      -2.651  -1.301   1.386  1.00  0.00    -0.201 OA
BRANCH  23  26
ATOM     26  C   UNL     1      -1.366   0.110  -0.078  1.00  0.00     0.088 A 
ATOM     27  C   UNL     1       2.901   0.256  -0.014  1.00  0.00     0.044 C 
ATOM     28  C   UNL     1       1.410   0.270  -0.099  1.00  0.00    -0.051 A 
ATOM     29  C   UNL     1       0.825  -0.974  -0.211  1.00  0.00     0.005 A 
ATOM     30  C   UNL     1       0.602   1.435  -0.042  1.00  0.00     0.005 A 
ATOM     31  C   UNL     1      -0.534  -1.033  -0.245  1.00  0.00     0.022 A 
ATOM     32  C   UNL     1      -0.813   1.368  -0.018  1.00  0.00     0.022 A 
ENDBRANCH  23  26
ENDBRANCH  15  23
ENDBRANCH  12  14
ENDBRANCH   9  12
ENDBRANCH   7   8
BRANCH   7  33
ATOM     33  C   UNL     1     -11.887   0.762   1.136  1.00  0.00     0.074 C 
BRANCH  33  34
ATOM     34  C   UNL     1     -12.618   2.006   0.834  1.00  0.00    -0.020 A 
ATOM     35  C   UNL     1     -14.267   1.925   0.184  1.00  0.00     0.087 A 
ATOM     36  C   UNL     1     -11.957   3.822   0.575  1.00  0.00     0.003 A 
ATOM     37  N   UNL     1     -14.634   3.594  -0.732  1.00  0.00    -0.361 N 
ATOM     38  C   UNL     1     -13.218   4.757  -0.328  1.00  0.00     0.046 A 
ATOM     39  C   UNL     1     -10.832   4.578   1.040  1.00  0.00     0.010 A 
ATOM     40  H   UNL     1     -15.414   3.793  -1.299  1.00  0.00     0.166 HD
ATOM     41  C   UNL     1     -13.161   6.148  -0.105  1.00  0.00     0.026 A 
ATOM     42  C   UNL     1     -10.847   5.975   0.917  1.00  0.00     0.001 A 
ATOM     43  C   UNL     1     -11.970   6.702   0.455  1.00  0.00     0.002 A 
ENDBRANCH  33  34
ENDBRANCH   7  33
ENDBRANCH   5   7
ENDBRANCH   4   5
ENDBRANCH   3   4
ENDBRANCH   2   3
ENDBRANCH   1   2
BRANCH   1  44
ATOM     44  C   UNL     1     -10.848   0.940  -5.519  1.00  0.00     0.188 C 
BRANCH  44  45
ATOM     45  C   UNL     1      -9.997   2.151  -5.173  1.00  0.00     0.188 C 
BRANCH  45  46
ATOM     46  O   UNL     1     -10.656   3.335  -4.777  1.00  0.00    -0.376 OA
BRANCH  46  47
ATOM     47  C   UNL     1     -10.811   4.534  -5.488  1.00  0.00     0.202 C 
BRANCH  47  48
ATOM     48  C   UNL     1      -9.547   4.855  -6.196  1.00  0.00     0.261 C 
BRANCH  48  49
ATOM     49  O   UNL     1      -8.320   4.896  -5.391  1.00  0.00    -0.460 OA
BRANCH  49  50
ATOM     50  C   UNL     1      -7.996   4.232  -4.246  1.00  0.00     0.338 C 
ATOM     51  O   UNL     1      -6.970   3.557  -4.186  1.00  0.00    -0.246 OA
BRANCH  50  52
ATOM     52  C   UNL     1      -8.904   4.281  -3.058  1.00  0.00     0.060 A 
ATOM     53  C   UNL     1      -8.943   3.167  -2.273  1.00  0.00     0.016 A 
ATOM     54  C   UNL     1      -9.887   5.225  -2.798  1.00  0.00     0.016 A 
ATOM     55  C   UNL     1     -10.081   2.977  -1.470  1.00  0.00     0.010 A 
ATOM     56  C   UNL     1     -11.149   4.809  -2.225  1.00  0.00     0.010 A 
ATOM     57  C   UNL     1     -11.362   3.543  -1.630  1.00  0.00    -0.014 A 
BRANCH  57  58
ATOM     58  C   UNL     1     -12.943   2.818  -0.965  1.00  0.00     0.031 A 
ATOM     59  C   UNL     1     -13.829   3.529   0.973  1.00  0.00     0.074 A 
ATOM     60  C   UNL     1     -13.727   1.635  -1.899  1.00  0.00     0.049 A 
ATOM     61  N   UNL     1     -15.164   3.675   1.182  1.00  0.00    -0.248 NA
ATOM     62  C   UNL     1     -13.377   4.032   2.472  1.00  0.00     0.031 C 
ATOM     63  C   UNL     1     -15.254   1.464  -2.282  1.00  0.00     0.029 A 
ATOM     64  N   UNL     1     -13.405   0.510  -2.862  1.00  0.00    -0.354 N 
ATOM     65  C   UNL     1     -15.584   3.544   2.434  1.00  0.00     0.074 A 
ATOM     66  C   UNL     1     -14.528   4.157   3.161  1.00  0.00     0.031 C 
ATOM     67  C   UNL     1     -15.537   0.310  -2.951  1.00  0.00     0.029 A 
ATOM     68  C   UNL     1     -14.334  -0.445  -3.191  1.00  0.00     0.049 A 
ATOM     69  H   UNL     1     -12.507   0.464  -3.262  1.00  0.00     0.167 HD
ATOM     70  C   UNL     1     -16.910   3.329   2.308  1.00  0.00     0.031 A 
ATOM     71  C   UNL     1     -14.137  -1.808  -3.292  1.00  0.00     0.031 A 
ATOM     72  C   UNL     1     -17.235   2.239   1.307  1.00  0.00     0.049 A 
ATOM     73  C   UNL     1     -14.949  -2.337  -2.127  1.00  0.00     0.074 A 
ATOM     74  C   UNL     1     -17.689   2.242  -0.011  1.00  0.00     0.029 A 
ATOM     75  N   UNL     1     -16.805   0.924   1.525  1.00  0.00    -0.354 N 
ATOM     76  N   UNL     1     -15.249  -1.547  -1.125  1.00  0.00    -0.248 NA
ATOM     77  C   UNL     1     -15.591  -3.648  -2.026  1.00  0.00     0.031 C 
ATOM     78  C   UNL     1     -17.672   0.901  -0.510  1.00  0.00     0.029 A 
ATOM     79  C   UNL     1     -17.095   0.076   0.444  1.00  0.00     0.049 A 
ATOM     80  H   UNL     1     -16.350   0.627   2.346  1.00  0.00     0.167 HD
ATOM     81  C   UNL     1     -16.258  -2.092  -0.412  1.00  0.00     0.074 A 
ATOM     82  C   UNL     1     -16.392  -3.441  -0.961  1.00  0.00     0.031 C 
ATOM     83  C   UNL     1     -16.934  -1.390   0.545  1.00  0.00     0.031 A 
BRANCH  70  84
ATOM     84  C   UNL     1     -17.728   4.582   2.407  1.00  0.00    -0.014 A 
ATOM     85  C   UNL     1     -19.077   4.498   2.064  1.00  0.00     0.009 A 
ATOM     86  C   UNL     1     -17.214   5.857   2.734  1.00  0.00     0.009 A 
ATOM     87  C   UNL     1     -19.919   5.591   2.225  1.00  0.00     0.001 A 
ATOM     88  C   UNL     1     -18.057   6.945   2.930  1.00  0.00     0.001 A 
ATOM     89  C   UNL     1     -19.420   6.793   2.720  1.00  0.00     0.000 A 
ENDBRANCH  70  84
BRANCH  71  90
ATOM     90  C   UNL     1     -12.805  -2.391  -3.759  1.00  0.00    -0.014 A 
ATOM     91  C   UNL     1     -12.434  -2.336  -5.119  1.00  0.00     0.009 A 
ATOM     92  C   UNL     1     -11.765  -2.637  -2.859  1.00  0.00     0.009 A 
ATOM     93  C   UNL     1     -11.082  -2.213  -5.506  1.00  0.00     0.001 A 
ATOM     94  C   UNL     1     -10.433  -2.344  -3.216  1.00  0.00     0.001 A 
ATOM     95  C   UNL     1     -10.092  -2.093  -4.535  1.00  0.00     0.000 A 
ENDBRANCH  71  90
BRANCH  83  96
ATOM     96  C   UNL     1     -17.613  -2.091   1.669  1.00  0.00    -0.014 A 
ATOM     97  C   UNL     1     -17.369  -3.424   2.008  1.00  0.00     0.009 A 
ATOM     98  C   UNL     1     -18.418  -1.337   2.541  1.00  0.00     0.009 A 
ATOM     99  C   UNL     1     -18.001  -4.003   3.102  1.00  0.00     0.001 A 
ATOM    100  C   UNL     1     -18.936  -1.871   3.706  1.00  0.00     0.001 A 
ATOM    101  C   UNL     1     -18.767  -3.221   3.959  1.00  0.00     0.000 A 
ENDBRANCH  83  96
ENDBRANCH  57  58
ENDBRANCH  50  52
ENDBRANCH  49  50
ENDBRANCH  48  49
ENDBRANCH  47  48
ENDBRANCH  46  47
ENDBRANCH  45  46
ENDBRANCH  44  45
ENDBRANCH   1  44
TORSDOF 24
