REMARK SMILES C[C@@H](SC1CCOCC1)c1ccc(C(=O)OCCOCCOCCOC(=O)c2ccc(-c3c4nc(c(-c5ccccc5)c5ccc([nH]5)c(-c5ccccc5)c5nc(c(-c6ccccc6)c6ccc3[nH]6)C=C5)C=C4)cc2)o1
REMARK SMILES IDX 20 1 19 2 18 3 17 4 16 5 14 6 15 7 13 8 10 9 11 10 76 11
REMARK SMILES IDX 12 12 2 13 1 14 3 15 4 16 5 17 9 18 6 19 8 20 7 21 21 22
REMARK SMILES IDX 22 23 23 24 24 25 25 26 26 27 27 28 28 29 29 30 75 31 30 32
REMARK SMILES IDX 74 33 31 34 32 35 33 36 68 37 34 38 73 39 67 40 69 41 35 42
REMARK SMILES IDX 72 43 66 44 65 45 36 47 58 48 43 49 57 50 44 51 47 52 56 53
REMARK SMILES IDX 70 54 45 55 46 56 55 58 71 59 48 60 37 61 38 62 42 63 39 64
REMARK SMILES IDX 41 65 40 66 59 67 60 68 64 69 61 70 63 71 62 72 49 73 50 74
REMARK SMILES IDX 54 75 51 76 53 77 52 78
REMARK H PARENT 69 46 47 57
REMARK Flexibility Score: inf
ROOT
ATOM      1  C   UNL     1      -4.661   1.577   0.511  1.00  0.00     0.188 C 
ENDROOT
BRANCH   1   2
ATOM      2  O   UNL     1      -5.708   2.265  -0.167  1.00  0.00    -0.376 OA
BRANCH   2   3
ATOM      3  C   UNL     1      -6.695   1.526  -0.873  1.00  0.00     0.202 C 
BRANCH   3   4
ATOM      4  C   UNL     1      -6.230   0.805  -2.139  1.00  0.00     0.261 C 
BRANCH   4   5
ATOM      5  O   UNL     1      -5.287  -0.243  -1.856  1.00  0.00    -0.457 OA
BRANCH   5   6
ATOM      6  C   UNL     1      -4.042  -0.087  -2.395  1.00  0.00     0.374 C 
ATOM      7  O   UNL     1      -3.726   0.803  -3.176  1.00  0.00    -0.242 OA
BRANCH   6   8
ATOM      8  C   UNL     1      -3.132  -1.046  -1.809  1.00  0.00     0.211 A 
ATOM      9  C   UNL     1      -1.151  -1.648  -1.009  1.00  0.00     0.117 A 
ATOM     10  C   UNL     1      -2.027  -2.677  -0.721  1.00  0.00     0.048 A 
ATOM     11  O   UNL     1      -1.815  -0.690  -1.725  1.00  0.00    -0.453 OA
ATOM     12  C   UNL     1      -3.299  -2.282  -1.214  1.00  0.00     0.058 A 
BRANCH   9  13
ATOM     13  C   UNL     1       0.297  -1.340  -0.718  1.00  0.00     0.110 C 
ATOM     14  C   UNL     1       0.405   0.094  -0.177  1.00  0.00     0.028 C 
BRANCH  13  15
ATOM     15  S   UNL     1       0.983  -2.480   0.556  1.00  0.00    -0.147 SA
BRANCH  15  16
ATOM     16  C   UNL     1       2.787  -2.579   0.171  1.00  0.00     0.052 C 
ATOM     17  C   UNL     1       3.453  -1.373  -0.491  1.00  0.00     0.043 C 
ATOM     18  C   UNL     1       3.089  -3.857  -0.618  1.00  0.00     0.043 C 
ATOM     19  C   UNL     1       4.935  -1.649  -0.725  1.00  0.00     0.161 C 
ATOM     20  C   UNL     1       4.595  -3.990  -0.822  1.00  0.00     0.161 C 
ATOM     21  O   UNL     1       5.112  -2.840  -1.489  1.00  0.00    -0.381 OA
ENDBRANCH  15  16
ENDBRANCH  13  15
ENDBRANCH   9  13
ENDBRANCH   6   8
ENDBRANCH   5   6
ENDBRANCH   4   5
ENDBRANCH   3   4
ENDBRANCH   2   3
ENDBRANCH   1   2
BRANCH   1  22
ATOM     22  C   UNL     1      -4.964   0.261   1.250  1.00  0.00     0.188 C 
BRANCH  22  23
ATOM     23  O   UNL     1      -6.317   0.131   1.667  1.00  0.00    -0.376 OA
BRANCH  23  24
ATOM     24  C   UNL     1      -6.529   0.070   3.071  1.00  0.00     0.202 C 
BRANCH  24  25
ATOM     25  C   UNL     1      -6.608   1.462   3.699  1.00  0.00     0.261 C 
BRANCH  25  26
ATOM     26  O   UNL     1      -5.387   2.215   3.609  1.00  0.00    -0.460 OA
BRANCH  26  27
ATOM     27  C   UNL     1      -4.328   1.730   4.291  1.00  0.00     0.338 C 
ATOM     28  O   UNL     1      -4.287   0.729   4.983  1.00  0.00    -0.246 OA
BRANCH  27  29
ATOM     29  C   UNL     1      -3.152   2.547   3.939  1.00  0.00     0.060 A 
ATOM     30  C   UNL     1      -2.005   1.909   3.455  1.00  0.00     0.016 A 
ATOM     31  C   UNL     1      -3.185   3.935   4.097  1.00  0.00     0.016 A 
ATOM     32  C   UNL     1      -0.872   2.663   3.148  1.00  0.00     0.010 A 
ATOM     33  C   UNL     1      -2.046   4.686   3.803  1.00  0.00     0.010 A 
ATOM     34  C   UNL     1      -0.877   4.051   3.351  1.00  0.00    -0.014 A 
BRANCH  34  35
ATOM     35  C   UNL     1       0.380   4.826   3.242  1.00  0.00     0.031 A 
ATOM     36  C   UNL     1       1.192   5.064   4.484  1.00  0.00     0.074 A 
ATOM     37  C   UNL     1       0.790   5.323   2.063  1.00  0.00     0.049 A 
ATOM     38  N   UNL     1       2.310   5.729   4.628  1.00  0.00    -0.248 NA
ATOM     39  C   UNL     1       0.673   4.474   5.728  1.00  0.00     0.031 C 
ATOM     40  C   UNL     1       0.109   5.146   0.782  1.00  0.00     0.029 A 
ATOM     41  N   UNL     1       1.887   6.092   1.761  1.00  0.00    -0.354 N 
ATOM     42  C   UNL     1       2.630   5.634   5.976  1.00  0.00     0.074 A 
ATOM     43  C   UNL     1       1.575   4.873   6.611  1.00  0.00     0.031 C 
ATOM     44  C   UNL     1       0.801   5.798  -0.170  1.00  0.00     0.029 A 
ATOM     45  C   UNL     1       1.956   6.455   0.440  1.00  0.00     0.049 A 
ATOM     46  H   UNL     1       2.559   6.358   2.430  1.00  0.00     0.167 HD
ATOM     47  C   UNL     1       3.706   6.131   6.629  1.00  0.00     0.031 A 
ATOM     48  C   UNL     1       2.842   7.242  -0.200  1.00  0.00     0.031 A 
ATOM     49  C   UNL     1       4.742   6.914   6.013  1.00  0.00     0.049 A 
ATOM     50  C   UNL     1       3.985   7.856   0.564  1.00  0.00     0.074 A 
ATOM     51  C   UNL     1       5.882   7.444   6.592  1.00  0.00     0.029 A 
ATOM     52  N   UNL     1       4.753   7.294   4.681  1.00  0.00    -0.354 N 
ATOM     53  N   UNL     1       4.302   7.719   1.829  1.00  0.00    -0.248 NA
ATOM     54  C   UNL     1       4.893   8.731  -0.193  1.00  0.00     0.031 C 
ATOM     55  C   UNL     1       6.560   8.187   5.618  1.00  0.00     0.029 A 
ATOM     56  C   UNL     1       5.865   8.078   4.424  1.00  0.00     0.049 A 
ATOM     57  H   UNL     1       4.071   7.044   4.016  1.00  0.00     0.167 HD
ATOM     58  C   UNL     1       5.458   8.468   2.013  1.00  0.00     0.074 A 
ATOM     59  C   UNL     1       5.792   9.050   0.729  1.00  0.00     0.031 C 
ATOM     60  C   UNL     1       6.182   8.653   3.144  1.00  0.00     0.031 A 
BRANCH  47  61
ATOM     61  C   UNL     1       3.791   5.861   8.102  1.00  0.00    -0.014 A 
ATOM     62  C   UNL     1       4.123   4.585   8.586  1.00  0.00     0.009 A 
ATOM     63  C   UNL     1       3.544   6.895   9.017  1.00  0.00     0.009 A 
ATOM     64  C   UNL     1       4.171   4.344   9.960  1.00  0.00     0.001 A 
ATOM     65  C   UNL     1       3.615   6.656  10.390  1.00  0.00     0.001 A 
ATOM     66  C   UNL     1       3.919   5.379  10.860  1.00  0.00     0.000 A 
ENDBRANCH  47  61
BRANCH  48  67
ATOM     67  C   UNL     1       2.684   7.511  -1.652  1.00  0.00    -0.014 A 
ATOM     68  C   UNL     1       3.562   6.935  -2.583  1.00  0.00     0.009 A 
ATOM     69  C   UNL     1       1.667   8.362  -2.111  1.00  0.00     0.009 A 
ATOM     70  C   UNL     1       3.436   7.223  -3.944  1.00  0.00     0.001 A 
ATOM     71  C   UNL     1       1.530   8.630  -3.474  1.00  0.00     0.001 A 
ATOM     72  C   UNL     1       2.418   8.066  -4.389  1.00  0.00     0.000 A 
ENDBRANCH  48  67
BRANCH  60  73
ATOM     73  C   UNL     1       7.423   9.494   3.040  1.00  0.00    -0.014 A 
ATOM     74  C   UNL     1       7.348  10.891   2.936  1.00  0.00     0.009 A 
ATOM     75  C   UNL     1       8.684   8.881   3.094  1.00  0.00     0.009 A 
ATOM     76  C   UNL     1       8.514  11.656   2.862  1.00  0.00     0.001 A 
ATOM     77  C   UNL     1       9.848   9.650   3.044  1.00  0.00     0.001 A 
ATOM     78  C   UNL     1       9.762  11.036   2.921  1.00  0.00     0.000 A 
ENDBRANCH  60  73
ENDBRANCH  34  35
ENDBRANCH  27  29
ENDBRANCH  26  27
ENDBRANCH  25  26
ENDBRANCH  24  25
ENDBRANCH  23  24
ENDBRANCH  22  23
ENDBRANCH   1  22
TORSDOF 20
