REMARK SMILES O=C(OCCOCCOCCOC(=O)[C@@]1(c2ccccc2)CCCC[NH2+]1)c1ccc(-c2c3nc(c(-c4ccccc4)c4ccc([nH]4)c(-c4ccccc4)c4nc(c(-c5ccccc5)c5ccc2[nH]5)C=C4)C=C3)cc1
REMARK SMILES IDX 7 1 6 2 5 3 4 4 3 5 2 6 1 7 27 8 28 9 74 10 29 11 73 12
REMARK SMILES IDX 30 13 31 14 32 15 67 16 33 17 72 18 66 19 68 20 34 21 71 22
REMARK SMILES IDX 65 23 64 24 35 26 57 27 42 28 56 29 43 30 46 31 55 32 69 33
REMARK SMILES IDX 44 34 45 35 54 37 70 38 47 39 36 40 37 41 41 42 38 43 40 44
REMARK SMILES IDX 39 45 58 46 59 47 63 48 60 49 62 50 61 51 48 52 49 53 53 54
REMARK SMILES IDX 50 55 52 56 51 57 8 58 9 59 10 60 11 61 12 62 13 63 14 64
REMARK SMILES IDX 15 65 22 66 26 67 23 68 25 69 24 72 16 73 17 74 21 75 18 76
REMARK SMILES IDX 20 77 19 78
REMARK H PARENT 68 25 46 36 26 70 26 71
REMARK Flexibility Score: inf
ROOT
ATOM      1  C   UNL     1      -1.881   4.442  -2.552  1.00  0.00     0.188 C 
ENDROOT
BRANCH   1   2
ATOM      2  O   UNL     1      -1.815   3.013  -2.451  1.00  0.00    -0.376 OA
BRANCH   2   3
ATOM      3  C   UNL     1      -2.998   2.429  -1.886  1.00  0.00     0.202 C 
BRANCH   3   4
ATOM      4  C   UNL     1      -3.214   2.670  -0.379  1.00  0.00     0.261 C 
BRANCH   4   5
ATOM      5  O   UNL     1      -2.587   3.864   0.121  1.00  0.00    -0.460 OA
BRANCH   5   6
ATOM      6  C   UNL     1      -1.347   4.022   0.640  1.00  0.00     0.338 C 
ATOM      7  O   UNL     1      -1.024   5.143   1.052  1.00  0.00    -0.246 OA
BRANCH   6   8
ATOM      8  C   UNL     1      -0.332   2.933   0.748  1.00  0.00     0.060 A 
ATOM      9  C   UNL     1      -0.310   1.773  -0.027  1.00  0.00     0.016 A 
ATOM     10  C   UNL     1       0.717   3.126   1.666  1.00  0.00     0.016 A 
ATOM     11  C   UNL     1       0.642   0.783   0.173  1.00  0.00     0.010 A 
ATOM     12  C   UNL     1       1.706   2.155   1.847  1.00  0.00     0.010 A 
ATOM     13  C   UNL     1       1.636   0.956   1.133  1.00  0.00    -0.014 A 
BRANCH  13  14
ATOM     14  C   UNL     1       2.472  -0.208   1.475  1.00  0.00     0.031 A 
ATOM     15  C   UNL     1       2.136  -0.982   2.711  1.00  0.00     0.074 A 
ATOM     16  C   UNL     1       3.412  -0.639   0.620  1.00  0.00     0.049 A 
ATOM     17  N   UNL     1       2.686  -2.070   3.178  1.00  0.00    -0.248 NA
ATOM     18  C   UNL     1       1.022  -0.467   3.523  1.00  0.00     0.031 C 
ATOM     19  C   UNL     1       3.739   0.000  -0.651  1.00  0.00     0.029 A 
ATOM     20  N   UNL     1       4.235  -1.733   0.672  1.00  0.00    -0.354 N 
ATOM     21  C   UNL     1       2.003  -2.354   4.352  1.00  0.00     0.074 A 
ATOM     22  C   UNL     1       1.008  -1.322   4.532  1.00  0.00     0.031 C 
ATOM     23  C   UNL     1       4.673  -0.733  -1.273  1.00  0.00     0.029 A 
ATOM     24  C   UNL     1       5.037  -1.863  -0.435  1.00  0.00     0.049 A 
ATOM     25  H   UNL     1       4.250  -2.363   1.428  1.00  0.00     0.167 HD
ATOM     26  C   UNL     1       2.202  -3.382   5.208  1.00  0.00     0.031 A 
ATOM     27  C   UNL     1       5.971  -2.784  -0.731  1.00  0.00     0.031 A 
ATOM     28  C   UNL     1       3.224  -4.375   5.028  1.00  0.00     0.049 A 
ATOM     29  C   UNL     1       6.234  -3.865   0.275  1.00  0.00     0.074 A 
ATOM     30  C   UNL     1       3.566  -5.428   5.856  1.00  0.00     0.029 A 
ATOM     31  N   UNL     1       4.083  -4.426   3.937  1.00  0.00    -0.354 N 
ATOM     32  N   UNL     1       5.615  -4.104   1.407  1.00  0.00    -0.248 NA
ATOM     33  C   UNL     1       7.330  -4.793  -0.025  1.00  0.00     0.031 C 
ATOM     34  C   UNL     1       4.670  -6.079   5.295  1.00  0.00     0.029 A 
ATOM     35  C   UNL     1       4.973  -5.475   4.083  1.00  0.00     0.049 A 
ATOM     36  H   UNL     1       4.061  -3.806   3.173  1.00  0.00     0.167 HD
ATOM     37  C   UNL     1       6.242  -5.211   1.956  1.00  0.00     0.074 A 
ATOM     38  C   UNL     1       7.270  -5.615   1.014  1.00  0.00     0.031 C 
ATOM     39  C   UNL     1       5.997  -5.836   3.134  1.00  0.00     0.031 A 
BRANCH  26  40
ATOM     40  C   UNL     1       1.355  -3.390   6.449  1.00  0.00    -0.014 A 
ATOM     41  C   UNL     1      -0.025  -3.654   6.402  1.00  0.00     0.009 A 
ATOM     42  C   UNL     1       1.938  -3.048   7.678  1.00  0.00     0.009 A 
ATOM     43  C   UNL     1      -0.809  -3.518   7.550  1.00  0.00     0.001 A 
ATOM     44  C   UNL     1       1.157  -2.943   8.829  1.00  0.00     0.001 A 
ATOM     45  C   UNL     1      -0.218  -3.161   8.762  1.00  0.00     0.000 A 
ENDBRANCH  26  40
BRANCH  27  46
ATOM     46  C   UNL     1       6.742  -2.702  -2.002  1.00  0.00    -0.014 A 
ATOM     47  C   UNL     1       6.583  -3.670  -3.005  1.00  0.00     0.009 A 
ATOM     48  C   UNL     1       7.646  -1.649  -2.219  1.00  0.00     0.009 A 
ATOM     49  C   UNL     1       7.324  -3.594  -4.189  1.00  0.00     0.001 A 
ATOM     50  C   UNL     1       8.367  -1.562  -3.412  1.00  0.00     0.001 A 
ATOM     51  C   UNL     1       8.210  -2.537  -4.394  1.00  0.00     0.000 A 
ENDBRANCH  27  46
BRANCH  39  52
ATOM     52  C   UNL     1       6.848  -7.030   3.448  1.00  0.00    -0.014 A 
ATOM     53  C   UNL     1       8.200  -6.890   3.799  1.00  0.00     0.009 A 
ATOM     54  C   UNL     1       6.277  -8.311   3.418  1.00  0.00     0.009 A 
ATOM     55  C   UNL     1       8.973  -8.017   4.078  1.00  0.00     0.001 A 
ATOM     56  C   UNL     1       7.045  -9.433   3.730  1.00  0.00     0.001 A 
ATOM     57  C   UNL     1       8.394  -9.286   4.048  1.00  0.00     0.000 A 
ENDBRANCH  39  52
ENDBRANCH  13  14
ENDBRANCH   6   8
ENDBRANCH   5   6
ENDBRANCH   4   5
ENDBRANCH   3   4
ENDBRANCH   2   3
ENDBRANCH   1   2
BRANCH   1  58
ATOM     58  C   UNL     1      -1.230   5.016  -3.812  1.00  0.00     0.188 C 
BRANCH  58  59
ATOM     59  O   UNL     1      -1.827   4.669  -5.055  1.00  0.00    -0.376 OA
BRANCH  59  60
ATOM     60  C   UNL     1      -1.973   3.283  -5.327  1.00  0.00     0.202 C 
BRANCH  60  61
ATOM     61  C   UNL     1      -0.702   2.437  -5.485  1.00  0.00     0.261 C 
BRANCH  61  62
ATOM     62  O   UNL     1       0.327   2.626  -4.494  1.00  0.00    -0.458 OA
BRANCH  62  63
ATOM     63  C   UNL     1       1.470   3.222  -4.963  1.00  0.00     0.373 C 
ATOM     64  O   UNL     1       1.537   3.764  -6.069  1.00  0.00    -0.244 OA
BRANCH  63  65
ATOM     65  C   UNL     1       2.716   3.031  -4.015  1.00  0.00     0.219 C 
ATOM     66  C   UNL     1       3.707   4.181  -4.372  1.00  0.00     0.087 C 
ATOM     67  N   UNL     1       2.380   3.091  -2.565  1.00  0.00    -0.328 N 
ATOM     68  C   UNL     1       3.199   5.550  -3.935  1.00  0.00     0.013 C 
ATOM     69  C   UNL     1       2.138   4.404  -1.972  1.00  0.00     0.261 C 
ATOM     70  H   UNL     1       3.154   2.665  -2.056  1.00  0.00     0.347 HD
ATOM     71  H   UNL     1       1.484   2.608  -2.491  1.00  0.00     0.347 HD
ATOM     72  C   UNL     1       3.059   5.534  -2.425  1.00  0.00     0.062 C 
BRANCH  65  73
ATOM     73  C   UNL     1       3.327   1.630  -4.311  1.00  0.00     0.024 A 
ATOM     74  C   UNL     1       4.711   1.423  -4.444  1.00  0.00     0.011 A 
ATOM     75  C   UNL     1       2.501   0.494  -4.461  1.00  0.00     0.011 A 
ATOM     76  C   UNL     1       5.232   0.180  -4.817  1.00  0.00     0.001 A 
ATOM     77  C   UNL     1       3.021  -0.750  -4.831  1.00  0.00     0.001 A 
ATOM     78  C   UNL     1       4.386  -0.903  -5.027  1.00  0.00     0.000 A 
ENDBRANCH  65  73
ENDBRANCH  63  65
ENDBRANCH  62  63
ENDBRANCH  61  62
ENDBRANCH  60  61
ENDBRANCH  59  60
ENDBRANCH  58  59
ENDBRANCH   1  58
TORSDOF 18
