REMARK SMILES C[N@H+]1CCO[C@](C)(C(=O)OCCOCCOCCOC(=O)c2ccc(-c3c4nc(c(-c5ccccc5)c5ccc([nH]5)c(-c5ccccc5)c5nc(c(-c6ccccc6)c6ccc3[nH]6)C=C5)C=C4)cc2)C1
REMARK SMILES IDX 15 1 14 2 13 3 12 4 11 5 10 6 8 7 9 8 6 9 1 10 2 11 3 12
REMARK SMILES IDX 70 13 4 15 5 16 7 17 16 18 17 19 18 20 19 21 20 22 21 23
REMARK SMILES IDX 22 24 23 25 69 26 24 27 68 28 25 29 26 30 27 31 62 32 28 33
REMARK SMILES IDX 67 34 61 35 63 36 29 37 66 38 60 39 59 40 30 42 52 43 37 44
REMARK SMILES IDX 51 45 38 46 41 47 50 48 64 49 39 50 40 51 49 53 65 54 42 55
REMARK SMILES IDX 31 56 32 57 36 58 33 59 35 60 34 61 53 62 54 63 58 64 55 65
REMARK SMILES IDX 57 66 56 67 43 68 44 69 48 70 45 71 47 72 46 73
REMARK H PARENT 2 14 63 41 41 52
REMARK Flexibility Score: inf
ROOT
ATOM      1  C   UNL     1       1.598   5.341  -1.500  1.00  0.00     0.188 C 
ENDROOT
BRANCH   1   2
ATOM      2  C   UNL     1       1.841   6.230  -0.276  1.00  0.00     0.188 C 
BRANCH   2   3
ATOM      3  O   UNL     1       2.981   7.074  -0.264  1.00  0.00    -0.376 OA
BRANCH   3   4
ATOM      4  C   UNL     1       4.239   6.523  -0.640  1.00  0.00     0.202 C 
BRANCH   4   5
ATOM      5  C   UNL     1       4.720   5.193  -0.022  1.00  0.00     0.261 C 
BRANCH   5   6
ATOM      6  O   UNL     1       3.838   4.048  -0.140  1.00  0.00    -0.461 OA
BRANCH   6   7
ATOM      7  C   UNL     1       3.318   3.593   1.033  1.00  0.00     0.344 C 
ATOM      8  O   UNL     1       3.564   4.123   2.118  1.00  0.00    -0.249 OA
BRANCH   7   9
ATOM      9  C   UNL     1       2.365   2.372   0.924  1.00  0.00     0.211 C 
ATOM     10  C   UNL     1       1.167  -0.502  -0.250  1.00  0.00     0.332 C 
ATOM     11  N   UNL     1       0.936   0.882  -0.643  1.00  0.00    -0.333 N 
ATOM     12  C   UNL     1      -0.242   1.454   0.033  1.00  0.00     0.290 C 
ATOM     13  C   UNL     1       2.118   1.772  -0.489  1.00  0.00     0.310 C 
ATOM     14  H   UNL     1       0.752   0.837  -1.646  1.00  0.00     0.348 HD
ATOM     15  C   UNL     1       0.041   1.963   1.452  1.00  0.00     0.223 C 
ATOM     16  O   UNL     1       1.125   2.890   1.475  1.00  0.00    -0.353 OA
ATOM     17  C   UNL     1       2.993   1.317   1.849  1.00  0.00     0.061 C 
ENDBRANCH   7   9
ENDBRANCH   6   7
ENDBRANCH   5   6
ENDBRANCH   4   5
ENDBRANCH   3   4
ENDBRANCH   2   3
ENDBRANCH   1   2
BRANCH   1  18
ATOM     18  O   UNL     1       2.676   5.263  -2.403  1.00  0.00    -0.376 OA
BRANCH  18  19
ATOM     19  C   UNL     1       2.479   5.612  -3.766  1.00  0.00     0.202 C 
BRANCH  19  20
ATOM     20  C   UNL     1       1.764   6.926  -4.152  1.00  0.00     0.261 C 
BRANCH  20  21
ATOM     21  O   UNL     1       0.544   7.245  -3.460  1.00  0.00    -0.460 OA
BRANCH  21  22
ATOM     22  C   UNL     1      -0.538   6.470  -3.714  1.00  0.00     0.338 C 
ATOM     23  O   UNL     1      -0.620   5.578  -4.543  1.00  0.00    -0.246 OA
BRANCH  22  24
ATOM     24  C   UNL     1      -1.510   6.691  -2.611  1.00  0.00     0.060 A 
ATOM     25  C   UNL     1      -1.899   5.592  -1.827  1.00  0.00     0.016 A 
ATOM     26  C   UNL     1      -1.974   7.970  -2.300  1.00  0.00     0.016 A 
ATOM     27  C   UNL     1      -2.773   5.765  -0.750  1.00  0.00     0.010 A 
ATOM     28  C   UNL     1      -2.874   8.137  -1.241  1.00  0.00     0.010 A 
ATOM     29  C   UNL     1      -3.303   7.033  -0.480  1.00  0.00    -0.014 A 
BRANCH  29  30
ATOM     30  C   UNL     1      -4.459   7.175   0.443  1.00  0.00     0.031 A 
ATOM     31  C   UNL     1      -5.837   7.256  -0.158  1.00  0.00     0.074 A 
ATOM     32  C   UNL     1      -4.312   7.220   1.779  1.00  0.00     0.049 A 
ATOM     33  N   UNL     1      -6.992   7.450   0.426  1.00  0.00    -0.248 NA
ATOM     34  C   UNL     1      -5.920   7.098  -1.620  1.00  0.00     0.031 C 
ATOM     35  C   UNL     1      -3.049   7.095   2.503  1.00  0.00     0.029 A 
ATOM     36  N   UNL     1      -5.251   7.396   2.768  1.00  0.00    -0.354 N 
ATOM     37  C   UNL     1      -7.933   7.454  -0.597  1.00  0.00     0.074 A 
ATOM     38  C   UNL     1      -7.214   7.271  -1.838  1.00  0.00     0.031 C 
ATOM     39  C   UNL     1      -3.290   7.211   3.821  1.00  0.00     0.029 A 
ATOM     40  C   UNL     1      -4.716   7.458   4.032  1.00  0.00     0.049 A 
ATOM     41  H   UNL     1      -6.216   7.472   2.587  1.00  0.00     0.167 HD
ATOM     42  C   UNL     1      -9.277   7.593  -0.515  1.00  0.00     0.031 A 
ATOM     43  C   UNL     1      -5.306   7.710   5.218  1.00  0.00     0.031 A 
ATOM     44  C   UNL     1      -9.999   7.793   0.713  1.00  0.00     0.049 A 
ATOM     45  C   UNL     1      -6.793   7.960   5.275  1.00  0.00     0.074 A 
ATOM     46  C   UNL     1     -11.363   7.934   0.896  1.00  0.00     0.029 A 
ATOM     47  N   UNL     1      -9.414   7.894   1.965  1.00  0.00    -0.354 N 
ATOM     48  N   UNL     1      -7.676   7.938   4.306  1.00  0.00    -0.248 NA
ATOM     49  C   UNL     1      -7.365   8.263   6.597  1.00  0.00     0.031 C 
ATOM     50  C   UNL     1     -11.598   8.186   2.251  1.00  0.00     0.029 A 
ATOM     51  C   UNL     1     -10.387   8.127   2.922  1.00  0.00     0.049 A 
ATOM     52  H   UNL     1      -8.450   7.812   2.147  1.00  0.00     0.167 HD
ATOM     53  C   UNL     1      -8.907   8.189   4.905  1.00  0.00     0.074 A 
ATOM     54  C   UNL     1      -8.659   8.344   6.322  1.00  0.00     0.031 C 
ATOM     55  C   UNL     1     -10.133   8.278   4.332  1.00  0.00     0.031 A 
BRANCH  42  56
ATOM     56  C   UNL     1     -10.053   7.578  -1.803  1.00  0.00    -0.014 A 
ATOM     57  C   UNL     1     -10.196   6.405  -2.561  1.00  0.00     0.009 A 
ATOM     58  C   UNL     1     -10.674   8.755  -2.252  1.00  0.00     0.009 A 
ATOM     59  C   UNL     1     -10.914   6.420  -3.758  1.00  0.00     0.001 A 
ATOM     60  C   UNL     1     -11.419   8.759  -3.431  1.00  0.00     0.001 A 
ATOM     61  C   UNL     1     -11.530   7.595  -4.189  1.00  0.00     0.000 A 
ENDBRANCH  42  56
BRANCH  43  62
ATOM     62  C   UNL     1      -4.492   7.772   6.464  1.00  0.00    -0.014 A 
ATOM     63  C   UNL     1      -4.655   6.814   7.477  1.00  0.00     0.009 A 
ATOM     64  C   UNL     1      -3.574   8.816   6.663  1.00  0.00     0.009 A 
ATOM     65  C   UNL     1      -3.939   6.917   8.673  1.00  0.00     0.001 A 
ATOM     66  C   UNL     1      -2.835   8.897   7.845  1.00  0.00     0.001 A 
ATOM     67  C   UNL     1      -3.026   7.955   8.854  1.00  0.00     0.000 A 
ENDBRANCH  43  62
BRANCH  55  68
ATOM     68  C   UNL     1     -11.313   8.507   5.239  1.00  0.00    -0.014 A 
ATOM     69  C   UNL     1     -11.516   9.734   5.889  1.00  0.00     0.009 A 
ATOM     70  C   UNL     1     -12.263   7.486   5.409  1.00  0.00     0.009 A 
ATOM     71  C   UNL     1     -12.625   9.919   6.720  1.00  0.00     0.001 A 
ATOM     72  C   UNL     1     -13.387   7.685   6.211  1.00  0.00     0.001 A 
ATOM     73  C   UNL     1     -13.562   8.898   6.875  1.00  0.00     0.000 A 
ENDBRANCH  55  68
ENDBRANCH  29  30
ENDBRANCH  22  24
ENDBRANCH  21  22
ENDBRANCH  20  21
ENDBRANCH  19  20
ENDBRANCH  18  19
ENDBRANCH   1  18
TORSDOF 17
