REMARK SMILES COc1ccc(CCn2cc(C(=O)OCCOCCOCCOC(=O)c3ccc(-c4c5nc(c(-c6ccccc6)c6ccc([nH]6)c(-c6ccccc6)c6nc(c(-c7ccccc7)c7ccc4[nH]7)C=C6)C=C5)cc3)ccc2=O)cc1OC
REMARK SMILES IDX 18 1 17 2 16 3 15 4 14 5 12 6 13 7 11 8 9 9 10 10 76 11
REMARK SMILES IDX 75 12 77 13 74 14 8 15 7 16 6 17 3 18 4 19 79 20 5 21 78 22
REMARK SMILES IDX 2 23 1 24 80 25 81 26 19 27 20 28 21 29 22 30 23 31 24 32
REMARK SMILES IDX 25 33 26 34 27 35 73 36 28 37 72 38 29 39 30 40 31 41 66 42
REMARK SMILES IDX 32 43 71 44 65 45 67 46 33 47 70 48 64 49 63 50 34 52 56 53
REMARK SMILES IDX 41 54 55 55 42 56 45 57 54 58 68 59 43 60 44 61 53 63 69 64
REMARK SMILES IDX 46 65 35 66 36 67 40 68 37 69 39 70 38 71 57 72 58 73 62 74
REMARK SMILES IDX 59 75 61 76 60 77 47 78 48 79 52 80 49 81 51 82 50 83
REMARK H PARENT 67 51 45 62
REMARK Flexibility Score: inf
ROOT
ATOM      1  C   UNL     1      -4.425  -5.752   7.957  1.00  0.00     0.188 C 
ENDROOT
BRANCH   1   2
ATOM      2  O   UNL     1      -5.235  -6.803   7.443  1.00  0.00    -0.376 OA
BRANCH   2   3
ATOM      3  C   UNL     1      -4.643  -7.902   6.763  1.00  0.00     0.202 C 
BRANCH   3   4
ATOM      4  C   UNL     1      -3.703  -7.646   5.577  1.00  0.00     0.261 C 
BRANCH   4   5
ATOM      5  O   UNL     1      -2.644  -6.723   5.861  1.00  0.00    -0.460 OA
BRANCH   5   6
ATOM      6  C   UNL     1      -2.716  -5.536   5.210  1.00  0.00     0.339 C 
ATOM      7  O   UNL     1      -3.519  -5.223   4.344  1.00  0.00    -0.246 OA
BRANCH   6   8
ATOM      8  C   UNL     1      -1.766  -4.563   5.802  1.00  0.00     0.076 A 
ATOM      9  N   UNL     1       0.470  -3.923   6.277  1.00  0.00    -0.314 N 
ATOM     10  C   UNL     1      -0.471  -4.885   5.927  1.00  0.00     0.104 A 
ATOM     11  C   UNL     1       0.109  -2.641   6.703  1.00  0.00     0.250 A 
ATOM     12  C   UNL     1      -1.343  -2.321   6.622  1.00  0.00     0.072 A 
ATOM     13  O   UNL     1       0.887  -1.775   7.091  1.00  0.00    -0.269 OA
ATOM     14  C   UNL     1      -2.208  -3.229   6.153  1.00  0.00     0.023 A 
BRANCH   9  15
ATOM     15  C   UNL     1       1.882  -4.190   5.984  1.00  0.00     0.130 C 
BRANCH  15  16
ATOM     16  C   UNL     1       2.144  -4.477   4.484  1.00  0.00     0.057 C 
BRANCH  16  17
ATOM     17  C   UNL     1       1.821  -3.339   3.536  1.00  0.00    -0.042 A 
ATOM     18  C   UNL     1       1.262  -1.150   1.842  1.00  0.00     0.160 A 
ATOM     19  C   UNL     1       0.223  -1.839   2.466  1.00  0.00     0.051 A 
ATOM     20  C   UNL     1       2.583  -1.576   2.026  1.00  0.00     0.160 A 
ATOM     21  C   UNL     1       0.503  -2.947   3.267  1.00  0.00     0.008 A 
ATOM     22  C   UNL     1       2.852  -2.648   2.890  1.00  0.00     0.054 A 
BRANCH  18  23
ATOM     23  O   UNL     1       0.998  -0.003   1.144  1.00  0.00    -0.493 OA
ATOM     24  C   UNL     1       0.066  -0.186   0.081  1.00  0.00     0.278 C 
ENDBRANCH  18  23
BRANCH  20  25
ATOM     25  O   UNL     1       3.707  -1.037   1.455  1.00  0.00    -0.493 OA
ATOM     26  C   UNL     1       3.529  -0.432   0.180  1.00  0.00     0.278 C 
ENDBRANCH  20  25
ENDBRANCH  16  17
ENDBRANCH  15  16
ENDBRANCH   9  15
ENDBRANCH   6   8
ENDBRANCH   5   6
ENDBRANCH   4   5
ENDBRANCH   3   4
ENDBRANCH   2   3
ENDBRANCH   1   2
BRANCH   1  27
ATOM     27  C   UNL     1      -3.123  -6.067   8.726  1.00  0.00     0.188 C 
BRANCH  27  28
ATOM     28  O   UNL     1      -2.846  -7.439   8.857  1.00  0.00    -0.376 OA
BRANCH  28  29
ATOM     29  C   UNL     1      -3.207  -8.122  10.042  1.00  0.00     0.202 C 
BRANCH  29  30
ATOM     30  C   UNL     1      -4.387  -7.734  10.957  1.00  0.00     0.261 C 
BRANCH  30  31
ATOM     31  O   UNL     1      -4.977  -6.439  10.804  1.00  0.00    -0.460 OA
BRANCH  31  32
ATOM     32  C   UNL     1      -4.528  -5.461  11.616  1.00  0.00     0.338 C 
ATOM     33  O   UNL     1      -3.617  -5.537  12.437  1.00  0.00    -0.246 OA
BRANCH  32  34
ATOM     34  C   UNL     1      -5.198  -4.202  11.247  1.00  0.00     0.060 A 
ATOM     35  C   UNL     1      -4.434  -3.154  10.714  1.00  0.00     0.016 A 
ATOM     36  C   UNL     1      -6.573  -4.050  11.437  1.00  0.00     0.016 A 
ATOM     37  C   UNL     1      -5.042  -1.938  10.396  1.00  0.00     0.010 A 
ATOM     38  C   UNL     1      -7.177  -2.825  11.136  1.00  0.00     0.010 A 
ATOM     39  C   UNL     1      -6.410  -1.755  10.641  1.00  0.00    -0.014 A 
BRANCH  39  40
ATOM     40  C   UNL     1      -7.010  -0.401  10.546  1.00  0.00     0.031 A 
ATOM     41  C   UNL     1      -7.165   0.407  11.805  1.00  0.00     0.074 A 
ATOM     42  C   UNL     1      -7.415   0.105   9.368  1.00  0.00     0.049 A 
ATOM     43  N   UNL     1      -7.714   1.583  11.975  1.00  0.00    -0.248 NA
ATOM     44  C   UNL     1      -6.630  -0.194  13.037  1.00  0.00     0.031 C 
ATOM     45  C   UNL     1      -7.284  -0.554   8.071  1.00  0.00     0.029 A 
ATOM     46  N   UNL     1      -8.031   1.298   9.081  1.00  0.00    -0.354 N 
ATOM     47  C   UNL     1      -7.600   1.857  13.332  1.00  0.00     0.074 A 
ATOM     48  C   UNL     1      -6.954   0.715  13.943  1.00  0.00     0.031 C 
ATOM     49  C   UNL     1      -7.816   0.240   7.125  1.00  0.00     0.029 A 
ATOM     50  C   UNL     1      -8.355   1.444   7.755  1.00  0.00     0.049 A 
ATOM     51  H   UNL     1      -8.223   1.983   9.762  1.00  0.00     0.167 HD
ATOM     52  C   UNL     1      -7.993   2.960  14.011  1.00  0.00     0.031 A 
ATOM     53  C   UNL     1      -9.031   2.426   7.127  1.00  0.00     0.031 A 
ATOM     54  C   UNL     1      -8.655   4.088  13.412  1.00  0.00     0.049 A 
ATOM     55  C   UNL     1      -9.537   3.605   7.918  1.00  0.00     0.074 A 
ATOM     56  C   UNL     1      -9.081   5.258  14.016  1.00  0.00     0.029 A 
ATOM     57  N   UNL     1      -8.996   4.181  12.072  1.00  0.00    -0.354 N 
ATOM     58  N   UNL     1      -9.400   3.866   9.195  1.00  0.00    -0.248 NA
ATOM     59  C   UNL     1     -10.288   4.629   7.174  1.00  0.00     0.031 C 
ATOM     60  C   UNL     1      -9.734   6.034  13.052  1.00  0.00     0.029 A 
ATOM     61  C   UNL     1      -9.655   5.375  11.836  1.00  0.00     0.049 A 
ATOM     62  H   UNL     1      -8.800   3.499  11.390  1.00  0.00     0.167 HD
ATOM     63  C   UNL     1     -10.017   5.095   9.401  1.00  0.00     0.074 A 
ATOM     64  C   UNL     1     -10.519   5.533   8.116  1.00  0.00     0.031 C 
ATOM     65  C   UNL     1     -10.150   5.800  10.552  1.00  0.00     0.031 A 
BRANCH  52  66
ATOM     66  C   UNL     1      -7.752   2.978  15.495  1.00  0.00    -0.014 A 
ATOM     67  C   UNL     1      -6.457   3.101  16.024  1.00  0.00     0.009 A 
ATOM     68  C   UNL     1      -8.841   2.890  16.377  1.00  0.00     0.009 A 
ATOM     69  C   UNL     1      -6.256   3.098  17.406  1.00  0.00     0.001 A 
ATOM     70  C   UNL     1      -8.639   2.918  17.757  1.00  0.00     0.001 A 
ATOM     71  C   UNL     1      -7.347   3.011  18.271  1.00  0.00     0.000 A 
ENDBRANCH  52  66
BRANCH  53  72
ATOM     72  C   UNL     1      -9.294   2.334   5.666  1.00  0.00    -0.014 A 
ATOM     73  C   UNL     1      -8.666   3.211   4.768  1.00  0.00     0.009 A 
ATOM     74  C   UNL     1     -10.195   1.382   5.164  1.00  0.00     0.009 A 
ATOM     75  C   UNL     1      -8.954   3.152   3.402  1.00  0.00     0.001 A 
ATOM     76  C   UNL     1     -10.459   1.306   3.795  1.00  0.00     0.001 A 
ATOM     77  C   UNL     1      -9.845   2.197   2.916  1.00  0.00     0.000 A 
ENDBRANCH  53  72
BRANCH  65  78
ATOM     78  C   UNL     1     -10.827   7.141  10.470  1.00  0.00    -0.014 A 
ATOM     79  C   UNL     1     -12.210   7.253  10.263  1.00  0.00     0.009 A 
ATOM     80  C   UNL     1     -10.071   8.310  10.653  1.00  0.00     0.009 A 
ATOM     81  C   UNL     1     -12.817   8.511  10.210  1.00  0.00     0.001 A 
ATOM     82  C   UNL     1     -10.684   9.564  10.630  1.00  0.00     0.001 A 
ATOM     83  C   UNL     1     -12.055   9.664  10.399  1.00  0.00     0.000 A 
ENDBRANCH  65  78
ENDBRANCH  39  40
ENDBRANCH  32  34
ENDBRANCH  31  32
ENDBRANCH  30  31
ENDBRANCH  29  30
ENDBRANCH  28  29
ENDBRANCH  27  28
ENDBRANCH   1  27
TORSDOF 22
