REMARK SMILES O=C(OCCOCCOCCOC(=O)C1(C/C=C/c2ccccc2)CCCCC1)c1ccc(-c2c3nc(c(-c4ccccc4)c4ccc([nH]4)c(-c4ccccc4)c4nc(c(-c5ccccc5)c5ccc2[nH]5)C=C4)C=C3)cc1
REMARK SMILES IDX 8 1 7 2 6 3 5 4 4 5 3 6 2 7 1 8 30 9 31 10 77 11 32 12 76 13
REMARK SMILES IDX 33 14 34 15 35 16 70 17 36 18 75 19 69 20 71 21 37 22 74 23
REMARK SMILES IDX 68 24 67 25 38 27 60 28 45 29 59 30 46 31 49 32 58 33 72 34
REMARK SMILES IDX 47 35 48 36 57 38 73 39 50 40 39 41 40 42 44 43 41 44 43 45
REMARK SMILES IDX 42 46 61 47 62 48 66 49 63 50 65 51 64 52 51 53 52 54 56 55
REMARK SMILES IDX 53 56 55 57 54 58 9 59 10 60 11 61 12 62 13 63 14 64 15 65
REMARK SMILES IDX 25 66 29 67 26 68 28 69 27 70 16 71 17 72 18 73 19 74 20 75
REMARK SMILES IDX 24 76 21 77 23 78 22 79
REMARK H PARENT 71 26 49 37
REMARK Flexibility Score: inf
ROOT
ATOM      1  C   UNL     1       2.376  -1.343   3.993  1.00  0.00     0.188 C 
ENDROOT
BRANCH   1   2
ATOM      2  C   UNL     1       2.794  -0.287   2.972  1.00  0.00     0.188 C 
BRANCH   2   3
ATOM      3  O   UNL     1       4.147  -0.279   2.546  1.00  0.00    -0.376 OA
BRANCH   3   4
ATOM      4  C   UNL     1       4.585   0.897   1.856  1.00  0.00     0.202 C 
BRANCH   4   5
ATOM      5  C   UNL     1       3.760   1.419   0.654  1.00  0.00     0.261 C 
BRANCH   5   6
ATOM      6  O   UNL     1       2.341   1.152   0.699  1.00  0.00    -0.460 OA
BRANCH   6   7
ATOM      7  C   UNL     1       1.666   0.146   0.076  1.00  0.00     0.338 C 
ATOM      8  O   UNL     1       0.442   0.086   0.107  1.00  0.00    -0.246 OA
BRANCH   7   9
ATOM      9  C   UNL     1       2.388  -0.888  -0.691  1.00  0.00     0.060 A 
ATOM     10  C   UNL     1       4.146  -1.378  -0.301  1.00  0.00     0.016 A 
ATOM     11  C   UNL     1       1.601  -1.480  -2.299  1.00  0.00     0.016 A 
ATOM     12  C   UNL     1       5.134  -2.410  -1.486  1.00  0.00     0.010 A 
ATOM     13  C   UNL     1       2.618  -2.511  -3.478  1.00  0.00     0.010 A 
ATOM     14  C   UNL     1       4.371  -2.971  -3.071  1.00  0.00    -0.014 A 
BRANCH  14  15
ATOM     15  C   UNL     1       5.178  -3.883  -3.945  1.00  0.00     0.031 A 
ATOM     16  C   UNL     1       5.812  -3.439  -5.228  1.00  0.00     0.074 A 
ATOM     17  C   UNL     1       5.472  -5.134  -3.535  1.00  0.00     0.049 A 
ATOM     18  N   UNL     1       6.476  -4.169  -6.090  1.00  0.00    -0.248 NA
ATOM     19  C   UNL     1       5.839  -2.000  -5.519  1.00  0.00     0.031 C 
ATOM     20  C   UNL     1       5.396  -5.630  -2.176  1.00  0.00     0.029 A 
ATOM     21  N   UNL     1       5.819  -6.263  -4.235  1.00  0.00    -0.354 N 
ATOM     22  C   UNL     1       7.053  -3.284  -6.986  1.00  0.00     0.074 A 
ATOM     23  C   UNL     1       6.631  -1.955  -6.588  1.00  0.00     0.031 C 
ATOM     24  C   UNL     1       5.345  -6.964  -2.162  1.00  0.00     0.029 A 
ATOM     25  C   UNL     1       5.551  -7.414  -3.518  1.00  0.00     0.049 A 
ATOM     26  H   UNL     1       6.212  -6.255  -5.138  1.00  0.00     0.167 HD
ATOM     27  C   UNL     1       7.874  -3.577  -8.024  1.00  0.00     0.031 A 
ATOM     28  C   UNL     1       5.485  -8.700  -3.893  1.00  0.00     0.031 A 
ATOM     29  C   UNL     1       8.239  -4.923  -8.405  1.00  0.00     0.049 A 
ATOM     30  C   UNL     1       6.103  -9.023  -5.204  1.00  0.00     0.074 A 
ATOM     31  C   UNL     1       9.033  -5.337  -9.462  1.00  0.00     0.029 A 
ATOM     32  N   UNL     1       7.810  -6.076  -7.760  1.00  0.00    -0.354 N 
ATOM     33  N   UNL     1       6.633  -8.186  -6.060  1.00  0.00    -0.248 NA
ATOM     34  C   UNL     1       6.236 -10.437  -5.556  1.00  0.00     0.031 C 
ATOM     35  C   UNL     1       9.001  -6.735  -9.513  1.00  0.00     0.029 A 
ATOM     36  C   UNL     1       8.243  -7.199  -8.449  1.00  0.00     0.049 A 
ATOM     37  H   UNL     1       7.275  -6.094  -6.933  1.00  0.00     0.167 HD
ATOM     38  C   UNL     1       7.226  -8.968  -7.026  1.00  0.00     0.074 A 
ATOM     39  C   UNL     1       6.977 -10.350  -6.652  1.00  0.00     0.031 C 
ATOM     40  C   UNL     1       7.939  -8.566  -8.103  1.00  0.00     0.031 A 
BRANCH  27  41
ATOM     41  C   UNL     1       8.364  -2.441  -8.881  1.00  0.00    -0.014 A 
ATOM     42  C   UNL     1       9.392  -1.579  -8.467  1.00  0.00     0.009 A 
ATOM     43  C   UNL     1       7.828  -2.282 -10.170  1.00  0.00     0.009 A 
ATOM     44  C   UNL     1       9.857  -0.572  -9.321  1.00  0.00     0.001 A 
ATOM     45  C   UNL     1       8.306  -1.288 -11.026  1.00  0.00     0.001 A 
ATOM     46  C   UNL     1       9.317  -0.430 -10.599  1.00  0.00     0.000 A 
ENDBRANCH  27  41
BRANCH  28  47
ATOM     47  C   UNL     1       4.868  -9.715  -3.003  1.00  0.00    -0.014 A 
ATOM     48  C   UNL     1       5.626 -10.680  -2.329  1.00  0.00     0.009 A 
ATOM     49  C   UNL     1       3.474  -9.697  -2.810  1.00  0.00     0.009 A 
ATOM     50  C   UNL     1       4.999 -11.628  -1.513  1.00  0.00     0.001 A 
ATOM     51  C   UNL     1       2.852 -10.633  -1.981  1.00  0.00     0.001 A 
ATOM     52  C   UNL     1       3.614 -11.605  -1.341  1.00  0.00     0.000 A 
ENDBRANCH  28  47
BRANCH  40  53
ATOM     53  C   UNL     1       8.458  -9.661  -8.979  1.00  0.00    -0.014 A 
ATOM     54  C   UNL     1       7.577 -10.417  -9.768  1.00  0.00     0.009 A 
ATOM     55  C   UNL     1       9.830  -9.945  -9.012  1.00  0.00     0.009 A 
ATOM     56  C   UNL     1       8.058 -11.464 -10.549  1.00  0.00     0.001 A 
ATOM     57  C   UNL     1      10.313 -10.972  -9.822  1.00  0.00     0.001 A 
ATOM     58  C   UNL     1       9.426 -11.736 -10.581  1.00  0.00     0.000 A 
ENDBRANCH  40  53
ENDBRANCH  14  15
ENDBRANCH   7   9
ENDBRANCH   6   7
ENDBRANCH   5   6
ENDBRANCH   4   5
ENDBRANCH   3   4
ENDBRANCH   2   3
ENDBRANCH   1   2
BRANCH   1  59
ATOM     59  O   UNL     1       3.299  -1.740   4.982  1.00  0.00    -0.376 OA
BRANCH  59  60
ATOM     60  C   UNL     1       4.573  -2.188   4.541  1.00  0.00     0.202 C 
BRANCH  60  61
ATOM     61  C   UNL     1       4.682  -3.394   3.584  1.00  0.00     0.261 C 
BRANCH  61  62
ATOM     62  O   UNL     1       4.061  -3.332   2.272  1.00  0.00    -0.463 OA
BRANCH  62  63
ATOM     63  C   UNL     1       2.953  -4.110   2.142  1.00  0.00     0.312 C 
ATOM     64  O   UNL     1       2.334  -4.535   3.118  1.00  0.00    -0.252 OA
BRANCH  63  65
ATOM     65  C   UNL     1       2.595  -4.586   0.708  1.00  0.00     0.071 C 
ATOM     66  C   UNL     1       2.986  -6.118   0.803  1.00  0.00     0.019 C 
ATOM     67  C   UNL     1       1.059  -4.458   0.551  1.00  0.00     0.019 C 
ATOM     68  C   UNL     1       2.311  -7.035  -0.215  1.00  0.00     0.001 C 
ATOM     69  C   UNL     1       0.452  -5.389  -0.498  1.00  0.00     0.001 C 
ATOM     70  C   UNL     1       0.805  -6.845  -0.222  1.00  0.00     0.000 C 
BRANCH  65  71
ATOM     71  C   UNL     1       3.430  -4.000  -0.513  1.00  0.00     0.046 C 
BRANCH  71  72
ATOM     72  C   UNL     1       3.041  -2.660  -1.450  1.00  0.00    -0.025 C 
ATOM     73  C   UNL     1       3.639  -1.152  -2.284  1.00  0.00     0.004 C 
BRANCH  73  74
ATOM     74  C   UNL     1       3.229   0.432  -2.910  1.00  0.00    -0.026 A 
ATOM     75  C   UNL     1       4.332   1.252  -3.244  1.00  0.00     0.008 A 
ATOM     76  C   UNL     1       2.003   1.145  -2.772  1.00  0.00     0.008 A 
ATOM     77  C   UNL     1       4.244   2.659  -3.267  1.00  0.00     0.001 A 
ATOM     78  C   UNL     1       1.917   2.545  -2.767  1.00  0.00     0.001 A 
ATOM     79  C   UNL     1       3.048   3.306  -2.979  1.00  0.00     0.000 A 
ENDBRANCH  73  74
ENDBRANCH  71  72
ENDBRANCH  65  71
ENDBRANCH  63  65
ENDBRANCH  62  63
ENDBRANCH  61  62
ENDBRANCH  60  61
ENDBRANCH  59  60
ENDBRANCH   1  59
TORSDOF 20
