REMARK SMILES COc1ccc2c(c1)c(CC(=O)OCCOCCOCCOC(=O)c1ccc(-c3c4nc(c(-c5ccccc5)c5ccc([nH]5)c(-c5ccccc5)c5nc(c(-c6ccccc6)c6ccc3[nH]6)C=C5)C=C4)cc1)c(C(F)(F)F)n2C(=O)c1ccc(Cl)cc1
REMARK SMILES IDX 17 1 16 2 15 3 14 4 13 5 11 6 12 7 10 8 9 9 3 10 4 11 8 12
REMARK SMILES IDX 5 13 7 14 6 15 78 16 73 17 2 18 1 19 79 20 80 21 81 22 82 23
REMARK SMILES IDX 87 24 83 25 86 26 84 27 85 28 74 29 75 30 76 31 77 32 18 33
REMARK SMILES IDX 19 34 20 35 21 36 22 37 23 38 24 39 25 40 26 41 72 42 27 43
REMARK SMILES IDX 71 44 28 45 29 46 30 47 65 48 31 49 70 50 64 51 66 52 32 53
REMARK SMILES IDX 69 54 63 55 62 56 33 58 55 59 40 60 54 61 41 62 44 63 53 64
REMARK SMILES IDX 67 65 42 66 43 67 52 69 68 70 45 71 34 72 35 73 39 74 36 75
REMARK SMILES IDX 38 76 37 77 56 78 57 79 61 80 58 81 60 82 59 83 46 84 47 85
REMARK SMILES IDX 51 86 48 87 50 88 49 89
REMARK H PARENT 66 57 44 68
REMARK Flexibility Score: inf
ROOT
ATOM      1  C   UNL     1      -2.048   1.603  -5.233  1.00  0.00     0.188 C 
ENDROOT
BRANCH   1   2
ATOM      2  O   UNL     1      -2.469   1.445  -6.567  1.00  0.00    -0.376 OA
BRANCH   2   3
ATOM      3  C   UNL     1      -1.716   2.045  -7.596  1.00  0.00     0.202 C 
BRANCH   3   4
ATOM      4  C   UNL     1      -1.526   3.561  -7.506  1.00  0.00     0.261 C 
BRANCH   4   5
ATOM      5  O   UNL     1      -0.773   3.979  -6.336  1.00  0.00    -0.463 OA
BRANCH   5   6
ATOM      6  C   UNL     1      -1.366   4.934  -5.575  1.00  0.00     0.310 C 
ATOM      7  O   UNL     1      -2.363   5.535  -5.971  1.00  0.00    -0.252 OA
BRANCH   6   8
ATOM      8  C   UNL     1      -0.891   5.057  -4.119  1.00  0.00     0.161 C 
BRANCH   8   9
ATOM      9  C   UNL     1       0.559   5.103  -3.685  1.00  0.00     0.002 A 
ATOM     10  C   UNL     1       1.799   2.240  -1.375  1.00  0.00     0.119 A 
ATOM     11  C   UNL     1       2.975   2.834  -1.003  1.00  0.00     0.048 A 
ATOM     12  C   UNL     1       0.926   2.945  -2.216  1.00  0.00     0.057 A 
ATOM     13  C   UNL     1       3.282   4.102  -1.495  1.00  0.00     0.031 A 
ATOM     14  C   UNL     1       1.241   4.184  -2.817  1.00  0.00     0.008 A 
ATOM     15  C   UNL     1       2.459   4.746  -2.458  1.00  0.00     0.057 A 
ATOM     16  N   UNL     1       2.609   5.935  -3.195  1.00  0.00    -0.271 N 
ATOM     17  C   UNL     1       1.369   6.241  -3.757  1.00  0.00     0.135 A 
BRANCH  10  18
ATOM     18  O   UNL     1       1.439   0.970  -1.043  1.00  0.00    -0.497 OA
ATOM     19  C   UNL     1       1.857   0.472   0.226  1.00  0.00     0.278 C 
ENDBRANCH  10  18
BRANCH  16  20
ATOM     20  C   UNL     1       3.833   6.641  -3.303  1.00  0.00     0.262 C 
ATOM     21  O   UNL     1       3.842   7.783  -3.751  1.00  0.00    -0.268 OA
BRANCH  20  22
ATOM     22  C   UNL     1       5.126   6.064  -2.897  1.00  0.00     0.040 A 
ATOM     23  C   UNL     1       5.597   4.912  -3.543  1.00  0.00     0.015 A 
ATOM     24  C   UNL     1       5.724   6.538  -1.725  1.00  0.00     0.015 A 
ATOM     25  C   UNL     1       6.631   4.181  -2.959  1.00  0.00     0.021 A 
ATOM     26  C   UNL     1       6.753   5.795  -1.145  1.00  0.00     0.021 A 
ATOM     27  C   UNL     1       7.188   4.613  -1.752  1.00  0.00     0.041 A 
ATOM     28  Cl  UNL     1       8.368   3.640  -0.967  1.00  0.00    -0.084 Cl
ENDBRANCH  20  22
ENDBRANCH  16  20
BRANCH  17  29
ATOM     29  C   UNL     1       0.913   7.576  -4.254  1.00  0.00     0.432 C 
ATOM     30  F   UNL     1       0.166   7.419  -5.381  1.00  0.00    -0.165 F 
ATOM     31  F   UNL     1       0.080   8.132  -3.331  1.00  0.00    -0.165 F 
ATOM     32  F   UNL     1       1.835   8.505  -4.549  1.00  0.00    -0.165 F 
ENDBRANCH  17  29
ENDBRANCH   8   9
ENDBRANCH   6   8
ENDBRANCH   5   6
ENDBRANCH   4   5
ENDBRANCH   3   4
ENDBRANCH   2   3
ENDBRANCH   1   2
BRANCH   1  33
ATOM     33  C   UNL     1      -0.571   1.668  -4.822  1.00  0.00     0.188 C 
BRANCH  33  34
ATOM     34  O   UNL     1       0.445   1.176  -5.657  1.00  0.00    -0.376 OA
BRANCH  34  35
ATOM     35  C   UNL     1       0.495  -0.232  -5.814  1.00  0.00     0.202 C 
BRANCH  35  36
ATOM     36  C   UNL     1       0.245  -1.119  -4.568  1.00  0.00     0.261 C 
BRANCH  36  37
ATOM     37  O   UNL     1      -1.075  -0.926  -3.980  1.00  0.00    -0.460 OA
BRANCH  37  38
ATOM     38  C   UNL     1      -1.163  -1.009  -2.616  1.00  0.00     0.338 C 
ATOM     39  O   UNL     1      -0.357  -1.575  -1.894  1.00  0.00    -0.246 OA
BRANCH  38  40
ATOM     40  C   UNL     1      -2.150   0.016  -2.111  1.00  0.00     0.060 A 
ATOM     41  C   UNL     1      -3.421   0.268  -2.635  1.00  0.00     0.016 A 
ATOM     42  C   UNL     1      -1.636   0.945  -1.220  1.00  0.00     0.016 A 
ATOM     43  C   UNL     1      -4.044   1.537  -2.451  1.00  0.00     0.010 A 
ATOM     44  C   UNL     1      -2.189   2.222  -1.126  1.00  0.00     0.010 A 
ATOM     45  C   UNL     1      -3.374   2.571  -1.786  1.00  0.00    -0.014 A 
BRANCH  45  46
ATOM     46  C   UNL     1      -3.919   3.903  -1.417  1.00  0.00     0.031 A 
ATOM     47  C   UNL     1      -4.469   3.875  -0.059  1.00  0.00     0.074 A 
ATOM     48  C   UNL     1      -4.013   5.100  -2.047  1.00  0.00     0.049 A 
ATOM     49  N   UNL     1      -5.706   3.578   0.149  1.00  0.00    -0.248 NA
ATOM     50  C   UNL     1      -3.637   3.951   1.140  1.00  0.00     0.031 C 
ATOM     51  C   UNL     1      -3.821   5.391  -3.450  1.00  0.00     0.029 A 
ATOM     52  N   UNL     1      -4.286   6.357  -1.527  1.00  0.00    -0.354 N 
ATOM     53  C   UNL     1      -5.875   3.669   1.508  1.00  0.00     0.074 A 
ATOM     54  C   UNL     1      -4.544   3.631   2.067  1.00  0.00     0.031 C 
ATOM     55  C   UNL     1      -3.768   6.730  -3.652  1.00  0.00     0.029 A 
ATOM     56  C   UNL     1      -4.002   7.426  -2.391  1.00  0.00     0.049 A 
ATOM     57  H   UNL     1      -4.651   6.489  -0.622  1.00  0.00     0.167 HD
ATOM     58  C   UNL     1      -7.069   4.076   2.010  1.00  0.00     0.031 A 
ATOM     59  C   UNL     1      -4.476   8.706  -2.418  1.00  0.00     0.031 A 
ATOM     60  C   UNL     1      -8.094   4.120   0.983  1.00  0.00     0.049 A 
ATOM     61  C   UNL     1      -5.843   8.651  -1.868  1.00  0.00     0.074 A 
ATOM     62  C   UNL     1      -8.644   3.199   0.112  1.00  0.00     0.029 A 
ATOM     63  N   UNL     1      -8.403   5.359   0.467  1.00  0.00    -0.354 N 
ATOM     64  N   UNL     1      -6.843   8.123  -2.510  1.00  0.00    -0.248 NA
ATOM     65  C   UNL     1      -6.019   8.797  -0.434  1.00  0.00     0.031 C 
ATOM     66  C   UNL     1      -8.895   3.915  -1.094  1.00  0.00     0.029 A 
ATOM     67  C   UNL     1      -8.556   5.253  -0.892  1.00  0.00     0.049 A 
ATOM     68  H   UNL     1      -8.499   6.188   0.989  1.00  0.00     0.167 HD
ATOM     69  C   UNL     1      -7.545   7.437  -1.534  1.00  0.00     0.074 A 
ATOM     70  C   UNL     1      -7.061   7.980  -0.267  1.00  0.00     0.031 C 
ATOM     71  C   UNL     1      -8.253   6.311  -1.839  1.00  0.00     0.031 A 
BRANCH  58  72
ATOM     72  C   UNL     1      -7.195   4.830   3.303  1.00  0.00    -0.014 A 
ATOM     73  C   UNL     1      -6.109   5.397   3.997  1.00  0.00     0.009 A 
ATOM     74  C   UNL     1      -8.479   5.191   3.738  1.00  0.00     0.009 A 
ATOM     75  C   UNL     1      -6.286   6.288   5.054  1.00  0.00     0.001 A 
ATOM     76  C   UNL     1      -8.662   6.118   4.768  1.00  0.00     0.001 A 
ATOM     77  C   UNL     1      -7.565   6.668   5.423  1.00  0.00     0.000 A 
ENDBRANCH  58  72
BRANCH  59  78
ATOM     78  C   UNL     1      -3.651   9.947  -2.335  1.00  0.00    -0.014 A 
ATOM     79  C   UNL     1      -2.291   9.913  -1.985  1.00  0.00     0.009 A 
ATOM     80  C   UNL     1      -4.242  11.218  -2.487  1.00  0.00     0.009 A 
ATOM     81  C   UNL     1      -1.564  11.091  -1.751  1.00  0.00     0.001 A 
ATOM     82  C   UNL     1      -3.514  12.399  -2.254  1.00  0.00     0.001 A 
ATOM     83  C   UNL     1      -2.178  12.334  -1.872  1.00  0.00     0.000 A 
ENDBRANCH  59  78
BRANCH  71  84
ATOM     84  C   UNL     1      -8.524   5.999  -3.298  1.00  0.00    -0.014 A 
ATOM     85  C   UNL     1      -9.847   5.734  -3.684  1.00  0.00     0.009 A 
ATOM     86  C   UNL     1      -7.509   5.770  -4.242  1.00  0.00     0.009 A 
ATOM     87  C   UNL     1     -10.140   5.212  -4.948  1.00  0.00     0.001 A 
ATOM     88  C   UNL     1      -7.801   5.266  -5.516  1.00  0.00     0.001 A 
ATOM     89  C   UNL     1      -9.116   4.970  -5.861  1.00  0.00     0.000 A 
ENDBRANCH  71  84
ENDBRANCH  45  46
ENDBRANCH  38  40
ENDBRANCH  37  38
ENDBRANCH  36  37
ENDBRANCH  35  36
ENDBRANCH  34  35
ENDBRANCH  33  34
ENDBRANCH   1  33
TORSDOF 22
