REMARK SMILES Cc1ccc(S(=O)(=O)/[NH+]=C(/N[C@@H](Cc2ccc(O)cc2)C(=O)[O-])OCCOCCOCCOC(=O)c2ccc(-c3c4nc(c(-c5ccccc5)c5ccc([nH]5)c(-c5ccccc5)c5nc(c(-c6ccccc6)c6ccc3[nH]6)C=C5)C=C4)cc2)cc1
REMARK SMILES IDX 28 1 27 2 26 3 25 4 24 5 10 6 9 7 11 9 6 11 7 12 8 13 5 14
REMARK SMILES IDX 1 15 2 16 3 17 85 18 4 19 84 20 12 21 13 22 14 23 15 24
REMARK SMILES IDX 20 25 16 26 19 27 17 28 18 29 21 31 22 32 23 33 29 34 30 35
REMARK SMILES IDX 31 36 32 37 33 38 34 39 35 40 36 41 37 42 83 43 38 44 82 45
REMARK SMILES IDX 39 46 40 47 41 48 76 49 42 50 81 51 75 52 77 53 43 54 80 55
REMARK SMILES IDX 74 56 73 57 44 59 66 60 51 61 65 62 52 63 55 64 64 65 78 66
REMARK SMILES IDX 53 67 54 68 63 70 79 71 56 72 45 73 46 74 50 75 47 76 49 77
REMARK SMILES IDX 48 78 67 79 68 80 72 81 69 82 71 83 70 84 57 85 58 86 62 87
REMARK SMILES IDX 59 88 61 89 60 90
REMARK H PARENT 9 8 11 10 18 30 77 58 55 69
REMARK Flexibility Score: inf
ROOT
ATOM      1  C   UNL     1      -8.978   0.446   3.404  1.00  0.00     0.188 C 
ENDROOT
BRANCH   1   2
ATOM      2  O   UNL     1      -8.752   0.449   1.992  1.00  0.00    -0.376 OA
BRANCH   2   3
ATOM      3  C   UNL     1      -8.314  -0.683   1.239  1.00  0.00     0.202 C 
BRANCH   3   4
ATOM      4  C   UNL     1      -6.761  -1.085   1.178  1.00  0.00     0.266 C 
BRANCH   4   5
ATOM      5  O   UNL     1      -5.413  -0.189   0.368  1.00  0.00    -0.428 OA
BRANCH   5   6
ATOM      6  C   UNL     1      -4.545   0.908  -0.061  1.00  0.00     0.458 C 
ATOM      7  N   UNL     1      -3.410   0.646  -0.626  1.00  0.00    -0.129 N 
ATOM      8  H   UNL     1      -2.880   1.406  -0.959  1.00  0.00     0.331 HD
ATOM      9  N   UNL     1      -4.627   2.320   0.248  1.00  0.00    -0.232 N 
ATOM     10  H   UNL     1      -4.032   2.599   0.981  1.00  0.00     0.309 HD
BRANCH   7  11
ATOM     11  S   UNL     1      -2.807  -0.823  -0.822  1.00  0.00     0.331 S 
ATOM     12  O   UNL     1      -2.861  -1.200  -2.220  1.00  0.00    -0.179 OA
ATOM     13  O   UNL     1      -3.256  -1.735   0.213  1.00  0.00    -0.179 OA
BRANCH  11  14
ATOM     14  C   UNL     1      -1.074  -0.534  -0.476  1.00  0.00     0.109 A 
ATOM     15  C   UNL     1       3.099   0.091   0.286  1.00  0.00     0.044 C 
ATOM     16  C   UNL     1       1.629  -0.116   0.069  1.00  0.00    -0.051 A 
ATOM     17  C   UNL     1       1.102  -1.416   0.042  1.00  0.00     0.005 A 
ATOM     18  C   UNL     1       0.784   0.977  -0.155  1.00  0.00     0.005 A 
ATOM     19  C   UNL     1      -0.251  -1.629  -0.223  1.00  0.00     0.025 A 
ATOM     20  C   UNL     1      -0.567   0.771  -0.427  1.00  0.00     0.025 A 
ENDBRANCH  11  14
ENDBRANCH   7  11
BRANCH   9  21
ATOM     21  C   UNL     1      -5.482   3.501  -0.358  1.00  0.00     0.227 C 
BRANCH  21  22
ATOM     22  C   UNL     1      -6.508   4.612   0.714  1.00  0.00     0.091 C 
BRANCH  22  23
ATOM     23  C   UNL     1      -7.980   4.475   1.703  1.00  0.00    -0.043 A 
ATOM     24  C   UNL     1      -8.088   5.203   2.905  1.00  0.00     0.008 A 
ATOM     25  C   UNL     1      -9.114   3.606   1.528  1.00  0.00     0.008 A 
ATOM     26  C   UNL     1      -9.180   5.007   3.821  1.00  0.00     0.046 A 
ATOM     27  C   UNL     1     -10.247   3.494   2.349  1.00  0.00     0.046 A 
ATOM     28  C   UNL     1     -10.251   4.164   3.534  1.00  0.00     0.115 A 
BRANCH  28  29
ATOM     29  O   UNL     1     -11.256   3.962   4.430  1.00  0.00    -0.508 OA
ATOM     30  H   UNL     1     -11.258   4.424   5.245  1.00  0.00     0.293 HD
ENDBRANCH  28  29
ENDBRANCH  22  23
ENDBRANCH  21  22
BRANCH  21  31
ATOM     31  C   UNL     1      -4.610   4.205  -1.402  1.00  0.00     0.086 C 
ATOM     32  O   UNL     1      -4.862   4.344  -2.592  1.00  0.00    -0.546 OA
ATOM     33  O   UNL     1      -3.366   4.519  -0.998  1.00  0.00    -0.546 OA
ENDBRANCH  21  31
ENDBRANCH   9  21
ENDBRANCH   5   6
ENDBRANCH   4   5
ENDBRANCH   3   4
ENDBRANCH   2   3
ENDBRANCH   1   2
BRANCH   1  34
ATOM     34  C   UNL     1      -8.308  -0.623   4.253  1.00  0.00     0.188 C 
BRANCH  34  35
ATOM     35  O   UNL     1      -8.736  -0.758   5.597  1.00  0.00    -0.376 OA
BRANCH  35  36
ATOM     36  C   UNL     1      -8.791   0.340   6.500  1.00  0.00     0.202 C 
BRANCH  36  37
ATOM     37  C   UNL     1      -7.734   1.449   6.528  1.00  0.00     0.261 C 
BRANCH  37  38
ATOM     38  O   UNL     1      -6.383   0.986   6.459  1.00  0.00    -0.460 OA
BRANCH  38  39
ATOM     39  C   UNL     1      -5.575   1.997   6.028  1.00  0.00     0.338 C 
ATOM     40  O   UNL     1      -5.146   2.919   6.703  1.00  0.00    -0.246 OA
BRANCH  39  41
ATOM     41  C   UNL     1      -5.606   1.951   4.572  1.00  0.00     0.060 A 
ATOM     42  C   UNL     1      -5.952   3.010   3.807  1.00  0.00     0.016 A 
ATOM     43  C   UNL     1      -5.335   0.834   3.866  1.00  0.00     0.016 A 
ATOM     44  C   UNL     1      -6.260   2.781   2.406  1.00  0.00     0.010 A 
ATOM     45  C   UNL     1      -5.747   0.770   2.487  1.00  0.00     0.010 A 
ATOM     46  C   UNL     1      -6.542   1.650   1.610  1.00  0.00    -0.014 A 
BRANCH  46  47
ATOM     47  C   UNL     1      -7.293   1.560  -0.139  1.00  0.00     0.031 A 
ATOM     48  C   UNL     1      -6.896   0.431  -1.488  1.00  0.00     0.074 A 
ATOM     49  C   UNL     1      -8.060   2.498  -0.951  1.00  0.00     0.049 A 
ATOM     50  N   UNL     1      -6.770   0.809  -2.772  1.00  0.00    -0.248 NA
ATOM     51  C   UNL     1      -6.531  -1.034  -1.470  1.00  0.00     0.031 C 
ATOM     52  C   UNL     1      -8.795   2.281  -2.220  1.00  0.00     0.029 A 
ATOM     53  N   UNL     1      -8.139   3.945  -0.967  1.00  0.00    -0.354 N 
ATOM     54  C   UNL     1      -6.585  -0.339  -3.553  1.00  0.00     0.074 A 
ATOM     55  C   UNL     1      -6.065  -1.280  -2.675  1.00  0.00     0.031 C 
ATOM     56  C   UNL     1      -8.859   3.422  -2.944  1.00  0.00     0.029 A 
ATOM     57  C   UNL     1      -8.226   4.524  -2.235  1.00  0.00     0.049 A 
ATOM     58  H   UNL     1      -8.131   4.482  -0.142  1.00  0.00     0.167 HD
ATOM     59  C   UNL     1      -7.105  -0.653  -4.774  1.00  0.00     0.031 A 
ATOM     60  C   UNL     1      -7.736   5.741  -2.670  1.00  0.00     0.031 A 
ATOM     61  C   UNL     1      -7.625   0.487  -5.465  1.00  0.00     0.049 A 
ATOM     62  C   UNL     1      -7.371   5.734  -4.138  1.00  0.00     0.074 A 
ATOM     63  C   UNL     1      -8.885   0.954  -5.776  1.00  0.00     0.029 A 
ATOM     64  N   UNL     1      -6.728   1.472  -5.811  1.00  0.00    -0.354 N 
ATOM     65  N   UNL     1      -7.686   4.776  -4.952  1.00  0.00    -0.248 NA
ATOM     66  C   UNL     1      -6.487   6.720  -4.776  1.00  0.00     0.031 C 
ATOM     67  C   UNL     1      -8.736   2.252  -6.329  1.00  0.00     0.029 A 
ATOM     68  C   UNL     1      -7.387   2.549  -6.356  1.00  0.00     0.049 A 
ATOM     69  H   UNL     1      -5.753   1.413  -5.687  1.00  0.00     0.167 HD
ATOM     70  C   UNL     1      -6.809   4.810  -6.006  1.00  0.00     0.074 A 
ATOM     71  C   UNL     1      -6.176   6.105  -5.927  1.00  0.00     0.031 C 
ATOM     72  C   UNL     1      -6.585   3.693  -6.750  1.00  0.00     0.031 A 
BRANCH  59  73
ATOM     73  C   UNL     1      -7.396  -2.123  -5.173  1.00  0.00    -0.014 A 
ATOM     74  C   UNL     1      -8.510  -2.415  -5.978  1.00  0.00     0.009 A 
ATOM     75  C   UNL     1      -6.709  -3.266  -4.701  1.00  0.00     0.009 A 
ATOM     76  C   UNL     1      -8.989  -3.728  -6.157  1.00  0.00     0.001 A 
ATOM     77  C   UNL     1      -7.211  -4.573  -4.815  1.00  0.00     0.001 A 
ATOM     78  C   UNL     1      -8.370  -4.803  -5.531  1.00  0.00     0.000 A 
ENDBRANCH  59  73
BRANCH  60  79
ATOM     79  C   UNL     1      -7.110   6.777  -1.735  1.00  0.00    -0.014 A 
ATOM     80  C   UNL     1      -7.836   7.381  -0.689  1.00  0.00     0.009 A 
ATOM     81  C   UNL     1      -5.714   7.003  -1.720  1.00  0.00     0.009 A 
ATOM     82  C   UNL     1      -7.173   8.000   0.399  1.00  0.00     0.001 A 
ATOM     83  C   UNL     1      -5.049   7.582  -0.625  1.00  0.00     0.001 A 
ATOM     84  C   UNL     1      -5.780   8.050   0.457  1.00  0.00     0.000 A 
ENDBRANCH  60  79
BRANCH  72  85
ATOM     85  C   UNL     1      -5.551   3.495  -7.827  1.00  0.00    -0.014 A 
ATOM     86  C   UNL     1      -4.399   4.268  -8.005  1.00  0.00     0.009 A 
ATOM     87  C   UNL     1      -5.697   2.373  -8.677  1.00  0.00     0.009 A 
ATOM     88  C   UNL     1      -3.474   3.969  -9.017  1.00  0.00     0.001 A 
ATOM     89  C   UNL     1      -4.756   2.042  -9.650  1.00  0.00     0.001 A 
ATOM     90  C   UNL     1      -3.650   2.856  -9.835  1.00  0.00     0.000 A 
ENDBRANCH  72  85
ENDBRANCH  46  47
ENDBRANCH  39  41
ENDBRANCH  38  39
ENDBRANCH  37  38
ENDBRANCH  36  37
ENDBRANCH  35  36
ENDBRANCH  34  35
ENDBRANCH   1  34
TORSDOF 23
