REMARK SMILES Cc1nc(C)c(C(=O)N[C@@H](Cc2ccccc2)C(=O)OCCOCCOCCOC(=O)c2ccc(-c3c4nc(c(-c5ccccc5)c5ccc([nH]5)c(-c5ccccc5)c5nc(c(-c6ccccc6)c6ccc3[nH]6)C=C5)C=C4)cc2)s1
REMARK SMILES IDX 24 1 23 2 22 3 21 4 20 5 18 6 19 7 10 8 9 9 7 10 8 11 6 13
REMARK SMILES IDX 1 14 2 15 3 16 80 17 4 18 5 19 11 20 12 21 13 22 17 23 14 24
REMARK SMILES IDX 16 25 15 26 25 27 26 28 27 29 28 30 29 31 30 32 31 33 32 34
REMARK SMILES IDX 33 35 79 36 34 37 78 38 35 39 36 40 37 41 72 42 38 43 77 44
REMARK SMILES IDX 71 45 73 46 39 47 76 48 70 49 69 50 40 52 62 53 47 54 61 55
REMARK SMILES IDX 48 56 51 57 60 58 74 59 49 60 50 61 59 63 75 64 52 65 41 66
REMARK SMILES IDX 42 67 46 68 43 69 45 70 44 71 63 72 64 73 68 74 65 75 67 76
REMARK SMILES IDX 66 77 53 78 54 79 58 80 55 81 57 82 56 83
REMARK H PARENT 9 12 73 51 51 62
REMARK Flexibility Score: inf
ROOT
ATOM      1  C   UNL     1       0.763  -3.766  -3.359  1.00  0.00     0.188 C 
ENDROOT
BRANCH   1   2
ATOM      2  O   UNL     1       1.597  -4.704  -4.035  1.00  0.00    -0.376 OA
BRANCH   2   3
ATOM      3  C   UNL     1       1.559  -6.071  -3.647  1.00  0.00     0.202 C 
BRANCH   3   4
ATOM      4  C   UNL     1       1.873  -6.401  -2.183  1.00  0.00     0.261 C 
BRANCH   4   5
ATOM      5  O   UNL     1       1.185  -5.581  -1.217  1.00  0.00    -0.462 OA
BRANCH   5   6
ATOM      6  C   UNL     1       1.969  -4.933  -0.316  1.00  0.00     0.329 C 
ATOM      7  O   UNL     1       3.192  -5.035  -0.264  1.00  0.00    -0.250 OA
BRANCH   6   8
ATOM      8  C   UNL     1       1.185  -4.119   0.737  1.00  0.00     0.197 C 
BRANCH   8   9
ATOM      9  N   UNL     1      -0.228  -3.783   0.482  1.00  0.00    -0.338 N 
ATOM     10  C   UNL     1      -0.991  -2.635   0.474  1.00  0.00     0.263 C 
ATOM     11  O   UNL     1      -2.202  -2.863   0.379  1.00  0.00    -0.268 OA
ATOM     12  H   UNL     1      -0.762  -4.580   0.263  1.00  0.00     0.164 HD
BRANCH  10  13
ATOM     13  C   UNL     1      -0.479  -1.267   0.498  1.00  0.00     0.115 A 
ATOM     14  C   UNL     1       1.948   1.784   0.350  1.00  0.00     0.079 C 
ATOM     15  C   UNL     1       0.838   0.796   0.430  1.00  0.00     0.091 A 
ATOM     16  N   UNL     1      -0.428   1.079   0.249  1.00  0.00    -0.246 NA
ATOM     17  S   UNL     1       1.159  -0.839   0.762  1.00  0.00    -0.113 S 
ATOM     18  C   UNL     1      -1.199  -0.081   0.306  1.00  0.00     0.061 A 
ATOM     19  C   UNL     1      -2.661   0.126   0.090  1.00  0.00     0.068 C 
ENDBRANCH  10  13
ENDBRANCH   8   9
BRANCH   8  20
ATOM     20  C   UNL     1       1.307  -4.840   2.095  1.00  0.00     0.072 C 
BRANCH  20  21
ATOM     21  C   UNL     1       0.682  -6.219   2.081  1.00  0.00    -0.045 A 
ATOM     22  C   UNL     1      -0.680  -6.395   2.358  1.00  0.00     0.004 A 
ATOM     23  C   UNL     1       1.449  -7.331   1.702  1.00  0.00     0.004 A 
ATOM     24  C   UNL     1      -1.268  -7.653   2.227  1.00  0.00     0.000 A 
ATOM     25  C   UNL     1       0.858  -8.586   1.568  1.00  0.00     0.000 A 
ATOM     26  C   UNL     1      -0.502  -8.745   1.825  1.00  0.00     0.000 A 
ENDBRANCH  20  21
ENDBRANCH   8  20
ENDBRANCH   6   8
ENDBRANCH   5   6
ENDBRANCH   4   5
ENDBRANCH   3   4
ENDBRANCH   2   3
ENDBRANCH   1   2
BRANCH   1  27
ATOM     27  C   UNL     1      -0.652  -4.180  -2.906  1.00  0.00     0.188 C 
BRANCH  27  28
ATOM     28  O   UNL     1      -1.090  -5.411  -3.443  1.00  0.00    -0.376 OA
BRANCH  28  29
ATOM     29  C   UNL     1      -2.268  -5.372  -4.227  1.00  0.00     0.202 C 
BRANCH  29  30
ATOM     30  C   UNL     1      -2.133  -4.643  -5.571  1.00  0.00     0.261 C 
BRANCH  30  31
ATOM     31  O   UNL     1      -1.532  -3.335  -5.514  1.00  0.00    -0.460 OA
BRANCH  31  32
ATOM     32  C   UNL     1      -2.307  -2.321  -5.064  1.00  0.00     0.338 C 
ATOM     33  O   UNL     1      -3.468  -2.386  -4.710  1.00  0.00    -0.246 OA
BRANCH  32  34
ATOM     34  C   UNL     1      -1.438  -1.133  -4.882  1.00  0.00     0.060 A 
ATOM     35  C   UNL     1      -1.277  -0.604  -3.596  1.00  0.00     0.016 A 
ATOM     36  C   UNL     1      -0.787  -0.546  -5.969  1.00  0.00     0.016 A 
ATOM     37  C   UNL     1      -0.480   0.527  -3.398  1.00  0.00     0.010 A 
ATOM     38  C   UNL     1      -0.009   0.602  -5.771  1.00  0.00     0.010 A 
ATOM     39  C   UNL     1       0.131   1.158  -4.487  1.00  0.00    -0.014 A 
BRANCH  39  40
ATOM     40  C   UNL     1       0.744   2.500  -4.313  1.00  0.00     0.031 A 
ATOM     41  C   UNL     1      -0.092   3.712  -4.622  1.00  0.00     0.074 A 
ATOM     42  C   UNL     1       2.003   2.655  -3.866  1.00  0.00     0.049 A 
ATOM     43  N   UNL     1       0.245   4.977  -4.627  1.00  0.00    -0.248 NA
ATOM     44  C   UNL     1      -1.499   3.460  -4.972  1.00  0.00     0.031 C 
ATOM     45  C   UNL     1       2.902   1.578  -3.459  1.00  0.00     0.029 A 
ATOM     46  N   UNL     1       2.744   3.799  -3.685  1.00  0.00    -0.354 N 
ATOM     47  C   UNL     1      -0.904   5.669  -4.993  1.00  0.00     0.074 A 
ATOM     48  C   UNL     1      -1.939   4.684  -5.220  1.00  0.00     0.031 C 
ATOM     49  C   UNL     1       4.079   2.111  -3.083  1.00  0.00     0.029 A 
ATOM     50  C   UNL     1       4.030   3.562  -3.264  1.00  0.00     0.049 A 
ATOM     51  H   UNL     1       2.387   4.703  -3.842  1.00  0.00     0.167 HD
ATOM     52  C   UNL     1      -1.085   7.004  -5.131  1.00  0.00     0.031 A 
ATOM     53  C   UNL     1       5.057   4.416  -3.077  1.00  0.00     0.031 A 
ATOM     54  C   UNL     1      -0.058   7.989  -4.923  1.00  0.00     0.049 A 
ATOM     55  C   UNL     1       4.862   5.888  -3.341  1.00  0.00     0.074 A 
ATOM     56  C   UNL     1      -0.145   9.364  -5.048  1.00  0.00     0.029 A 
ATOM     57  N   UNL     1       1.245   7.701  -4.551  1.00  0.00    -0.354 N 
ATOM     58  N   UNL     1       3.775   6.531  -3.692  1.00  0.00    -0.248 NA
ATOM     59  C   UNL     1       6.043   6.753  -3.184  1.00  0.00     0.031 C 
ATOM     60  C   UNL     1       1.121   9.905  -4.808  1.00  0.00     0.029 A 
ATOM     61  C   UNL     1       1.980   8.872  -4.471  1.00  0.00     0.049 A 
ATOM     62  H   UNL     1       1.596   6.799  -4.371  1.00  0.00     0.167 HD
ATOM     63  C   UNL     1       4.134   7.873  -3.772  1.00  0.00     0.074 A 
ATOM     64  C   UNL     1       5.535   7.955  -3.414  1.00  0.00     0.031 C 
ATOM     65  C   UNL     1       3.372   8.942  -4.110  1.00  0.00     0.031 A 
BRANCH  52  66
ATOM     66  C   UNL     1      -2.441   7.470  -5.577  1.00  0.00    -0.014 A 
ATOM     67  C   UNL     1      -3.551   7.422  -4.719  1.00  0.00     0.009 A 
ATOM     68  C   UNL     1      -2.604   7.986  -6.873  1.00  0.00     0.009 A 
ATOM     69  C   UNL     1      -4.804   7.850  -5.163  1.00  0.00     0.001 A 
ATOM     70  C   UNL     1      -3.852   8.439  -7.303  1.00  0.00     0.001 A 
ATOM     71  C   UNL     1      -4.952   8.362  -6.452  1.00  0.00     0.000 A 
ENDBRANCH  52  66
BRANCH  53  72
ATOM     72  C   UNL     1       6.391   3.908  -2.654  1.00  0.00    -0.014 A 
ATOM     73  C   UNL     1       6.915   4.235  -1.394  1.00  0.00     0.009 A 
ATOM     74  C   UNL     1       7.168   3.132  -3.529  1.00  0.00     0.009 A 
ATOM     75  C   UNL     1       8.200   3.819  -1.031  1.00  0.00     0.001 A 
ATOM     76  C   UNL     1       8.438   2.692  -3.152  1.00  0.00     0.001 A 
ATOM     77  C   UNL     1       8.957   3.045  -1.908  1.00  0.00     0.000 A 
ENDBRANCH  53  72
BRANCH  65  78
ATOM     78  C   UNL     1       4.021  10.299  -4.072  1.00  0.00    -0.014 A 
ATOM     79  C   UNL     1       4.961  10.688  -5.039  1.00  0.00     0.009 A 
ATOM     80  C   UNL     1       3.645  11.220  -3.081  1.00  0.00     0.009 A 
ATOM     81  C   UNL     1       5.535  11.961  -4.993  1.00  0.00     0.001 A 
ATOM     82  C   UNL     1       4.199  12.501  -3.055  1.00  0.00     0.001 A 
ATOM     83  C   UNL     1       5.150  12.867  -4.005  1.00  0.00     0.000 A 
ENDBRANCH  65  78
ENDBRANCH  39  40
ENDBRANCH  32  34
ENDBRANCH  31  32
ENDBRANCH  30  31
ENDBRANCH  29  30
ENDBRANCH  28  29
ENDBRANCH  27  28
ENDBRANCH   1  27
TORSDOF 21
