REMARK SMILES CC(C)(Br)[C@H](Br)C(=O)OCCOCCOCCOC(=O)c1ccc(-c2c3nc(c(-c4ccccc4)c4ccc([nH]4)c(-c4ccccc4)c4nc(c(-c5ccccc5)c5ccc2[nH]5)C=C4)C=C3)cc1
REMARK SMILES IDX 14 1 13 2 12 3 11 4 10 5 9 6 7 7 8 8 5 9 6 10 2 11 1 12 3 13
REMARK SMILES IDX 4 14 15 15 16 16 17 17 18 18 19 19 20 20 21 21 22 22 68 23
REMARK SMILES IDX 23 24 67 25 24 26 25 27 26 28 61 29 27 30 66 31 60 32 62 33
REMARK SMILES IDX 28 34 65 35 59 36 58 37 29 39 51 40 36 41 50 42 37 43 40 44
REMARK SMILES IDX 49 45 63 46 38 47 39 48 48 50 64 51 41 52 30 53 31 54 35 55
REMARK SMILES IDX 32 56 34 57 33 58 52 59 53 60 57 61 54 62 56 63 55 64 42 65
REMARK SMILES IDX 43 66 47 67 44 68 46 69 45 70
REMARK H PARENT 62 38 40 49
REMARK Flexibility Score: inf
ROOT
ATOM      1  C   UNL     1       3.285   0.779   2.384  1.00  0.00     0.188 C 
ENDROOT
BRANCH   1   2
ATOM      2  C   UNL     1       4.001  -0.135   3.385  1.00  0.00     0.188 C 
BRANCH   2   3
ATOM      3  O   UNL     1       5.233  -0.745   3.028  1.00  0.00    -0.376 OA
BRANCH   3   4
ATOM      4  C   UNL     1       5.503  -1.073   1.673  1.00  0.00     0.202 C 
BRANCH   4   5
ATOM      5  C   UNL     1       4.581  -2.054   0.920  1.00  0.00     0.261 C 
BRANCH   5   6
ATOM      6  O   UNL     1       3.165  -1.756   0.829  1.00  0.00    -0.462 OA
BRANCH   6   7
ATOM      7  C   UNL     1       2.366  -2.464   1.669  1.00  0.00     0.321 C 
ATOM      8  O   UNL     1       2.811  -3.196   2.552  1.00  0.00    -0.251 OA
BRANCH   7   9
ATOM      9  C   UNL     1       0.861  -2.336   1.464  1.00  0.00     0.183 C 
ATOM     10  Br  UNL     1       0.274  -0.512   1.001  1.00  0.00    -0.075 Br
BRANCH   9  11
ATOM     11  C   UNL     1       0.167  -3.356   0.544  1.00  0.00     0.043 C 
ATOM     12  C   UNL     1       0.232  -3.018  -0.952  1.00  0.00     0.025 C 
ATOM     13  C   UNL     1      -1.296  -3.540   0.991  1.00  0.00     0.025 C 
ATOM     14  Br  UNL     1       0.990  -5.158   0.737  1.00  0.00    -0.084 Br
ENDBRANCH   9  11
ENDBRANCH   7   9
ENDBRANCH   6   7
ENDBRANCH   5   6
ENDBRANCH   4   5
ENDBRANCH   3   4
ENDBRANCH   2   3
ENDBRANCH   1   2
BRANCH   1  15
ATOM     15  O   UNL     1       4.046   1.145   1.259  1.00  0.00    -0.376 OA
BRANCH  15  16
ATOM     16  C   UNL     1       4.435   2.496   1.121  1.00  0.00     0.202 C 
BRANCH  16  17
ATOM     17  C   UNL     1       5.128   3.200   2.299  1.00  0.00     0.261 C 
BRANCH  17  18
ATOM     18  O   UNL     1       4.608   2.935   3.614  1.00  0.00    -0.460 OA
BRANCH  18  19
ATOM     19  C   UNL     1       3.475   3.584   3.977  1.00  0.00     0.338 C 
ATOM     20  O   UNL     1       2.847   4.385   3.317  1.00  0.00    -0.246 OA
BRANCH  19  21
ATOM     21  C   UNL     1       2.999   2.982   5.249  1.00  0.00     0.060 A 
ATOM     22  C   UNL     1       1.750   2.344   5.274  1.00  0.00     0.016 A 
ATOM     23  C   UNL     1       3.778   3.044   6.405  1.00  0.00     0.016 A 
ATOM     24  C   UNL     1       1.264   1.794   6.463  1.00  0.00     0.010 A 
ATOM     25  C   UNL     1       3.280   2.515   7.601  1.00  0.00     0.010 A 
ATOM     26  C   UNL     1       2.006   1.916   7.645  1.00  0.00    -0.014 A 
BRANCH  26  27
ATOM     27  C   UNL     1       1.380   1.607   8.956  1.00  0.00     0.031 A 
ATOM     28  C   UNL     1       0.824   2.747   9.768  1.00  0.00     0.074 A 
ATOM     29  C   UNL     1       1.295   0.349   9.426  1.00  0.00     0.049 A 
ATOM     30  N   UNL     1       0.302   2.738  10.968  1.00  0.00    -0.248 NA
ATOM     31  C   UNL     1       0.867   4.077   9.139  1.00  0.00     0.031 C 
ATOM     32  C   UNL     1       1.742  -0.852   8.726  1.00  0.00     0.029 A 
ATOM     33  N   UNL     1       0.808  -0.119  10.623  1.00  0.00    -0.354 N 
ATOM     34  C   UNL     1      -0.028   4.060  11.243  1.00  0.00     0.074 A 
ATOM     35  C   UNL     1       0.374   4.846  10.097  1.00  0.00     0.031 C 
ATOM     36  C   UNL     1       1.522  -1.921   9.513  1.00  0.00     0.029 A 
ATOM     37  C   UNL     1       0.955  -1.475  10.785  1.00  0.00     0.049 A 
ATOM     38  H   UNL     1       0.392   0.463  11.300  1.00  0.00     0.167 HD
ATOM     39  C   UNL     1      -0.615   4.577  12.349  1.00  0.00     0.031 A 
ATOM     40  C   UNL     1       0.690  -2.261  11.848  1.00  0.00     0.031 A 
ATOM     41  C   UNL     1      -1.002   3.803  13.498  1.00  0.00     0.049 A 
ATOM     42  C   UNL     1       0.117  -1.650  13.102  1.00  0.00     0.074 A 
ATOM     43  C   UNL     1      -1.616   4.237  14.661  1.00  0.00     0.029 A 
ATOM     44  N   UNL     1      -0.802   2.439  13.636  1.00  0.00    -0.354 N 
ATOM     45  N   UNL     1      -0.212  -0.404  13.343  1.00  0.00    -0.248 NA
ATOM     46  C   UNL     1      -0.128  -2.562  14.231  1.00  0.00     0.031 C 
ATOM     47  C   UNL     1      -1.729   3.146  15.528  1.00  0.00     0.029 A 
ATOM     48  C   UNL     1      -1.253   2.019  14.876  1.00  0.00     0.049 A 
ATOM     49  H   UNL     1      -0.399   1.855  12.953  1.00  0.00     0.167 HD
ATOM     50  C   UNL     1      -0.733  -0.389  14.633  1.00  0.00     0.074 A 
ATOM     51  C   UNL     1      -0.689  -1.752  15.118  1.00  0.00     0.031 C 
ATOM     52  C   UNL     1      -1.207   0.660  15.350  1.00  0.00     0.031 A 
BRANCH  39  53
ATOM     53  C   UNL     1      -0.834   6.064  12.385  1.00  0.00    -0.014 A 
ATOM     54  C   UNL     1      -1.791   6.685  11.567  1.00  0.00     0.009 A 
ATOM     55  C   UNL     1      -0.090   6.853  13.277  1.00  0.00     0.009 A 
ATOM     56  C   UNL     1      -1.974   8.069  11.618  1.00  0.00     0.001 A 
ATOM     57  C   UNL     1      -0.297   8.231  13.349  1.00  0.00     0.001 A 
ATOM     58  C   UNL     1      -1.232   8.839  12.513  1.00  0.00     0.000 A 
ENDBRANCH  39  53
BRANCH  40  59
ATOM     59  C   UNL     1       0.988  -3.718  11.794  1.00  0.00    -0.014 A 
ATOM     60  C   UNL     1      -0.048  -4.665  11.816  1.00  0.00     0.009 A 
ATOM     61  C   UNL     1       2.316  -4.172  11.757  1.00  0.00     0.009 A 
ATOM     62  C   UNL     1       0.240  -6.032  11.829  1.00  0.00     0.001 A 
ATOM     63  C   UNL     1       2.601  -5.539  11.736  1.00  0.00     0.001 A 
ATOM     64  C   UNL     1       1.564  -6.468  11.784  1.00  0.00     0.000 A 
ENDBRANCH  40  59
BRANCH  52  65
ATOM     65  C   UNL     1      -1.765   0.373  16.718  1.00  0.00    -0.014 A 
ATOM     66  C   UNL     1      -0.936   0.007  17.790  1.00  0.00     0.009 A 
ATOM     67  C   UNL     1      -3.144   0.516  16.947  1.00  0.00     0.009 A 
ATOM     68  C   UNL     1      -1.482  -0.246  19.051  1.00  0.00     0.001 A 
ATOM     69  C   UNL     1      -3.682   0.295  18.216  1.00  0.00     0.001 A 
ATOM     70  C   UNL     1      -2.852  -0.097  19.264  1.00  0.00     0.000 A 
ENDBRANCH  52  65
ENDBRANCH  26  27
ENDBRANCH  19  21
ENDBRANCH  18  19
ENDBRANCH  17  18
ENDBRANCH  16  17
ENDBRANCH  15  16
ENDBRANCH   1  15
TORSDOF 18
