REMARK SMILES O=C(C[NH2+][C@H]1CC[C@@H]([N@@H+](Cc2ccccc2)C2CC2)CC1)OCCOCCOCCOC(=O)c1ccc(-c2c3nc(c(-c4ccccc4)c4ccc([nH]4)c(-c4ccccc4)c4nc(c(-c5ccccc5)c5ccc2[nH]5)C=C4)C=C3)cc1
REMARK SMILES IDX 25 1 24 2 23 3 22 4 2 5 1 6 3 7 4 8 5 11 6 12 21 13 7 14
REMARK SMILES IDX 20 15 8 16 9 17 10 19 11 20 12 21 16 22 13 23 15 24 14 25
REMARK SMILES IDX 17 26 18 27 19 28 26 29 27 30 28 31 29 32 30 33 31 34 32 35
REMARK SMILES IDX 33 36 34 37 35 38 81 39 36 40 80 41 37 42 38 43 39 44 74 45
REMARK SMILES IDX 40 46 79 47 73 48 75 49 41 50 78 51 72 52 71 53 42 55 64 56
REMARK SMILES IDX 49 57 63 58 50 59 53 60 62 61 76 62 51 63 52 64 61 66 77 67
REMARK SMILES IDX 54 68 43 69 44 70 48 71 45 72 47 73 46 74 65 75 66 76 70 77
REMARK SMILES IDX 67 78 69 79 68 80 55 81 56 82 60 83 57 84 59 85 58 86
REMARK H PARENT 4 9 4 10 9 18 75 54 53 65
REMARK Flexibility Score: inf
ROOT
ATOM      1  O   UNL     1       4.276   1.790   0.807  1.00  0.00    -0.376 OA
ENDROOT
BRANCH   1   2
ATOM      2  C   UNL     1       5.017   0.803   0.117  1.00  0.00     0.202 C 
BRANCH   2   3
ATOM      3  C   UNL     1       4.634   0.493  -1.330  1.00  0.00     0.261 C 
BRANCH   3   4
ATOM      4  O   UNL     1       3.283   0.065  -1.583  1.00  0.00    -0.459 OA
BRANCH   4   5
ATOM      5  C   UNL     1       2.760  -1.143  -1.278  1.00  0.00     0.361 C 
ATOM      6  O   UNL     1       1.745  -1.528  -1.861  1.00  0.00    -0.245 OA
BRANCH   5   7
ATOM      7  C   UNL     1       3.272  -1.896  -0.060  1.00  0.00     0.385 C 
BRANCH   7   8
ATOM      8  N   UNL     1       4.689  -2.305  -0.100  1.00  0.00    -0.335 N 
ATOM      9  H   UNL     1       5.257  -1.480  -0.294  1.00  0.00     0.347 HD
ATOM     10  H   UNL     1       4.773  -3.017  -0.826  1.00  0.00     0.347 HD
BRANCH   8  11
ATOM     11  C   UNL     1       5.174  -2.921   1.169  1.00  0.00     0.183 C 
ATOM     12  C   UNL     1       5.152  -1.994   2.399  1.00  0.00     0.071 C 
ATOM     13  C   UNL     1       4.549  -4.305   1.412  1.00  0.00     0.071 C 
ATOM     14  C   UNL     1       5.514  -2.731   3.676  1.00  0.00     0.071 C 
ATOM     15  C   UNL     1       4.732  -4.905   2.812  1.00  0.00     0.071 C 
ATOM     16  C   UNL     1       4.609  -3.940   4.006  1.00  0.00     0.184 C 
BRANCH  16  17
ATOM     17  N   UNL     1       3.291  -3.751   4.659  1.00  0.00    -0.326 N 
ATOM     18  H   UNL     1       3.258  -4.708   4.308  1.00  0.00     0.348 HD
BRANCH  17  19
ATOM     19  C   UNL     1       3.351  -3.215   6.044  1.00  0.00     0.299 C 
BRANCH  19  20
ATOM     20  C   UNL     1       3.803  -1.776   6.145  1.00  0.00     0.006 A 
ATOM     21  C   UNL     1       4.798  -1.419   7.066  1.00  0.00     0.009 A 
ATOM     22  C   UNL     1       3.350  -0.812   5.236  1.00  0.00     0.009 A 
ATOM     23  C   UNL     1       5.414  -0.169   6.989  1.00  0.00     0.001 A 
ATOM     24  C   UNL     1       4.016   0.401   5.113  1.00  0.00     0.001 A 
ATOM     25  C   UNL     1       5.048   0.725   5.987  1.00  0.00     0.000 A 
ENDBRANCH  19  20
ENDBRANCH  17  19
BRANCH  17  26
ATOM     26  C   UNL     1       1.939  -3.686   4.085  1.00  0.00     0.184 C 
ATOM     27  C   UNL     1       1.623  -2.900   2.860  1.00  0.00     0.071 C 
ATOM     28  C   UNL     1       1.419  -4.385   2.872  1.00  0.00     0.071 C 
ENDBRANCH  17  26
ENDBRANCH  16  17
ENDBRANCH   8  11
ENDBRANCH   7   8
ENDBRANCH   5   7
ENDBRANCH   4   5
ENDBRANCH   3   4
ENDBRANCH   2   3
ENDBRANCH   1   2
BRANCH   1  29
ATOM     29  C   UNL     1       2.885   1.617   0.968  1.00  0.00     0.188 C 
BRANCH  29  30
ATOM     30  C   UNL     1       2.068   2.828   0.489  1.00  0.00     0.188 C 
BRANCH  30  31
ATOM     31  O   UNL     1       2.708   3.919  -0.159  1.00  0.00    -0.376 OA
BRANCH  31  32
ATOM     32  C   UNL     1       3.975   4.366   0.299  1.00  0.00     0.202 C 
BRANCH  32  33
ATOM     33  C   UNL     1       4.171   4.747   1.779  1.00  0.00     0.261 C 
BRANCH  33  34
ATOM     34  O   UNL     1       3.558   3.897   2.767  1.00  0.00    -0.460 OA
BRANCH  34  35
ATOM     35  C   UNL     1       2.458   4.401   3.375  1.00  0.00     0.338 C 
ATOM     36  O   UNL     1       1.891   5.457   3.131  1.00  0.00    -0.246 OA
BRANCH  35  37
ATOM     37  C   UNL     1       1.970   3.458   4.399  1.00  0.00     0.060 A 
ATOM     38  C   UNL     1       0.770   2.762   4.206  1.00  0.00     0.016 A 
ATOM     39  C   UNL     1       2.663   3.329   5.600  1.00  0.00     0.016 A 
ATOM     40  C   UNL     1       0.247   1.951   5.227  1.00  0.00     0.010 A 
ATOM     41  C   UNL     1       2.155   2.490   6.601  1.00  0.00     0.010 A 
ATOM     42  C   UNL     1       0.920   1.823   6.449  1.00  0.00    -0.014 A 
BRANCH  42  43
ATOM     43  C   UNL     1       0.296   1.170   7.644  1.00  0.00     0.031 A 
ATOM     44  C   UNL     1      -0.002   2.028   8.853  1.00  0.00     0.074 A 
ATOM     45  C   UNL     1      -0.001  -0.144   7.716  1.00  0.00     0.049 A 
ATOM     46  N   UNL     1      -0.469   1.681  10.027  1.00  0.00    -0.248 NA
ATOM     47  C   UNL     1       0.261   3.470   8.716  1.00  0.00     0.031 C 
ATOM     48  C   UNL     1       0.125  -1.120   6.638  1.00  0.00     0.029 A 
ATOM     49  N   UNL     1      -0.453  -0.895   8.784  1.00  0.00    -0.354 N 
ATOM     50  C   UNL     1      -0.565   2.861  10.753  1.00  0.00     0.074 A 
ATOM     51  C   UNL     1       0.003   3.909   9.935  1.00  0.00     0.031 C 
ATOM     52  C   UNL     1      -0.174  -2.342   7.115  1.00  0.00     0.029 A 
ATOM     53  C   UNL     1      -0.494  -2.245   8.532  1.00  0.00     0.049 A 
ATOM     54  H   UNL     1      -0.720  -0.499   9.645  1.00  0.00     0.167 HD
ATOM     55  C   UNL     1      -1.136   3.084  11.960  1.00  0.00     0.031 A 
ATOM     56  C   UNL     1      -0.748  -3.296   9.339  1.00  0.00     0.031 A 
ATOM     57  C   UNL     1      -1.723   2.068  12.786  1.00  0.00     0.049 A 
ATOM     58  C   UNL     1      -1.218  -3.059  10.747  1.00  0.00     0.074 A 
ATOM     59  C   UNL     1      -2.396   2.215  13.986  1.00  0.00     0.029 A 
ATOM     60  N   UNL     1      -1.696   0.713  12.504  1.00  0.00    -0.354 N 
ATOM     61  N   UNL     1      -1.400  -1.925  11.376  1.00  0.00    -0.248 NA
ATOM     62  C   UNL     1      -1.592  -4.247  11.530  1.00  0.00     0.031 C 
ATOM     63  C   UNL     1      -2.724   0.940  14.461  1.00  0.00     0.029 A 
ATOM     64  C   UNL     1      -2.309   0.007  13.526  1.00  0.00     0.049 A 
ATOM     65  H   UNL     1      -1.300   0.311  11.697  1.00  0.00     0.167 HD
ATOM     66  C   UNL     1      -1.999  -2.256  12.585  1.00  0.00     0.074 A 
ATOM     67  C   UNL     1      -2.117  -3.698  12.617  1.00  0.00     0.031 C 
ATOM     68  C   UNL     1      -2.448  -1.426  13.558  1.00  0.00     0.031 A 
BRANCH  55  69
ATOM     69  C   UNL     1      -1.161   4.510  12.434  1.00  0.00    -0.014 A 
ATOM     70  C   UNL     1      -1.944   5.476  11.778  1.00  0.00     0.009 A 
ATOM     71  C   UNL     1      -0.373   4.900  13.526  1.00  0.00     0.009 A 
ATOM     72  C   UNL     1      -1.886   6.815  12.165  1.00  0.00     0.001 A 
ATOM     73  C   UNL     1      -0.346   6.234  13.934  1.00  0.00     0.001 A 
ATOM     74  C   UNL     1      -1.088   7.192  13.243  1.00  0.00     0.000 A 
ENDBRANCH  55  69
BRANCH  56  75
ATOM     75  C   UNL     1      -0.613  -4.689   8.832  1.00  0.00    -0.014 A 
ATOM     76  C   UNL     1      -1.749  -5.463   8.552  1.00  0.00     0.009 A 
ATOM     77  C   UNL     1       0.657  -5.272   8.685  1.00  0.00     0.009 A 
ATOM     78  C   UNL     1      -1.620  -6.801   8.169  1.00  0.00     0.001 A 
ATOM     79  C   UNL     1       0.783  -6.604   8.281  1.00  0.00     0.001 A 
ATOM     80  C   UNL     1      -0.355  -7.370   8.034  1.00  0.00     0.000 A 
ENDBRANCH  56  75
BRANCH  68  81
ATOM     81  C   UNL     1      -3.200  -2.041  14.706  1.00  0.00    -0.014 A 
ATOM     82  C   UNL     1      -2.567  -2.835  15.672  1.00  0.00     0.009 A 
ATOM     83  C   UNL     1      -4.577  -1.787  14.833  1.00  0.00     0.009 A 
ATOM     84  C   UNL     1      -3.303  -3.393  16.721  1.00  0.00     0.001 A 
ATOM     85  C   UNL     1      -5.303  -2.317  15.899  1.00  0.00     0.001 A 
ATOM     86  C   UNL     1      -4.668  -3.129  16.836  1.00  0.00     0.000 A 
ENDBRANCH  68  81
ENDBRANCH  42  43
ENDBRANCH  35  37
ENDBRANCH  34  35
ENDBRANCH  33  34
ENDBRANCH  32  33
ENDBRANCH  31  32
ENDBRANCH  30  31
ENDBRANCH  29  30
ENDBRANCH   1  29
TORSDOF 23
