REMARK SMILES O=C(C[C@H]1C[C@H]2CC[C@@H](C1)N2C(=O)NCc1ncn[nH]1)OCCOCCOCCOC(=O)c1ccc(-c2c3nc(c(-c4ccccc4)c4ccc([nH]4)c(-c4ccccc4)c4nc(c(-c5ccccc5)c5ccc2[nH]5)C=C4)C=C3)cc1
REMARK SMILES IDX 25 1 24 2 23 3 22 4 21 5 2 6 1 7 3 8 4 9 5 10 10 11 6 12
REMARK SMILES IDX 9 13 7 14 11 15 8 16 12 17 13 18 14 19 15 21 16 22 17 23
REMARK SMILES IDX 20 24 18 25 19 26 26 28 27 29 28 30 29 31 30 32 31 33 32 34
REMARK SMILES IDX 33 35 34 36 80 37 35 38 79 39 36 40 37 41 38 42 73 43 39 44
REMARK SMILES IDX 78 45 72 46 74 47 40 48 77 49 71 50 70 51 41 53 63 54 48 55
REMARK SMILES IDX 62 56 49 57 52 58 61 59 75 60 50 61 51 62 60 64 76 65 53 66
REMARK SMILES IDX 42 67 43 68 47 69 44 70 46 71 45 72 64 73 65 74 69 75 66 76
REMARK SMILES IDX 68 77 67 78 54 79 55 80 59 81 56 82 58 83 57 84
REMARK H PARENT 14 20 20 27 74 52 52 63
REMARK Flexibility Score: inf
ROOT
ATOM      1  C   UNL     1       2.335  -0.605   1.684  1.00  0.00     0.188 C 
ENDROOT
BRANCH   1   2
ATOM      2  O   UNL     1       3.711  -0.482   1.349  1.00  0.00    -0.376 OA
BRANCH   2   3
ATOM      3  C   UNL     1       4.307   0.795   1.506  1.00  0.00     0.202 C 
BRANCH   3   4
ATOM      4  C   UNL     1       3.889   1.870   0.494  1.00  0.00     0.261 C 
BRANCH   4   5
ATOM      5  O   UNL     1       2.659   1.625  -0.201  1.00  0.00    -0.463 OA
BRANCH   5   6
ATOM      6  C   UNL     1       2.643   1.149  -1.469  1.00  0.00     0.306 C 
ATOM      7  O   UNL     1       1.992   1.726  -2.337  1.00  0.00    -0.252 OA
BRANCH   6   8
ATOM      8  C   UNL     1       3.235  -0.227  -1.724  1.00  0.00     0.126 C 
BRANCH   8   9
ATOM      9  C   UNL     1       4.508  -0.242  -2.588  1.00  0.00     0.004 C 
ATOM     10  C   UNL     1       5.804  -0.081  -1.756  1.00  0.00     0.029 C 
ATOM     11  C   UNL     1       4.581  -1.491  -3.515  1.00  0.00     0.029 C 
ATOM     12  C   UNL     1       6.531  -1.386  -1.378  1.00  0.00     0.087 C 
ATOM     13  C   UNL     1       5.441  -2.648  -2.964  1.00  0.00     0.087 C 
ATOM     14  C   UNL     1       5.720  -2.392  -0.572  1.00  0.00     0.027 C 
ATOM     15  N   UNL     1       6.750  -2.111  -2.612  1.00  0.00    -0.319 N 
ATOM     16  C   UNL     1       4.900  -3.154  -1.616  1.00  0.00     0.027 C 
BRANCH  15  17
ATOM     17  C   UNL     1       7.954  -2.006  -3.217  1.00  0.00     0.318 C 
ATOM     18  O   UNL     1       8.868  -1.345  -2.711  1.00  0.00    -0.249 OA
ATOM     19  N   UNL     1       8.264  -2.604  -4.367  1.00  0.00    -0.331 N 
ATOM     20  H   UNL     1       9.197  -2.432  -4.630  1.00  0.00     0.165 HD
BRANCH  19  21
ATOM     21  C   UNL     1       7.583  -3.436  -5.321  1.00  0.00     0.194 C 
BRANCH  21  22
ATOM     22  C   UNL     1       7.079  -2.601  -6.441  1.00  0.00     0.143 A 
ATOM     23  N   UNL     1       7.237  -1.309  -6.654  1.00  0.00    -0.218 NA
ATOM     24  N   UNL     1       6.394  -3.134  -7.495  1.00  0.00    -0.262 N 
ATOM     25  C   UNL     1       6.630  -1.109  -7.858  1.00  0.00     0.246 A 
ATOM     26  N   UNL     1       6.106  -2.203  -8.415  1.00  0.00    -0.162 NA
ATOM     27  H   UNL     1       6.143  -4.083  -7.570  1.00  0.00     0.192 HD
ENDBRANCH  21  22
ENDBRANCH  19  21
ENDBRANCH  15  17
ENDBRANCH   8   9
ENDBRANCH   6   8
ENDBRANCH   5   6
ENDBRANCH   4   5
ENDBRANCH   3   4
ENDBRANCH   2   3
ENDBRANCH   1   2
BRANCH   1  28
ATOM     28  C   UNL     1       1.993  -0.590   3.173  1.00  0.00     0.188 C 
BRANCH  28  29
ATOM     29  O   UNL     1       3.089  -0.246   4.007  1.00  0.00    -0.376 OA
BRANCH  29  30
ATOM     30  C   UNL     1       3.651  -1.348   4.717  1.00  0.00     0.202 C 
BRANCH  30  31
ATOM     31  C   UNL     1       4.574  -2.248   3.886  1.00  0.00     0.261 C 
BRANCH  31  32
ATOM     32  O   UNL     1       3.961  -2.993   2.816  1.00  0.00    -0.460 OA
BRANCH  32  33
ATOM     33  C   UNL     1       3.048  -3.922   3.144  1.00  0.00     0.338 C 
ATOM     34  O   UNL     1       2.548  -4.129   4.243  1.00  0.00    -0.246 OA
BRANCH  33  35
ATOM     35  C   UNL     1       2.762  -4.732   1.952  1.00  0.00     0.060 A 
ATOM     36  C   UNL     1       1.597  -4.525   1.205  1.00  0.00     0.016 A 
ATOM     37  C   UNL     1       3.633  -5.777   1.637  1.00  0.00     0.016 A 
ATOM     38  C   UNL     1       1.288  -5.390   0.147  1.00  0.00     0.010 A 
ATOM     39  C   UNL     1       3.321  -6.638   0.586  1.00  0.00     0.010 A 
ATOM     40  C   UNL     1       2.132  -6.471  -0.146  1.00  0.00    -0.014 A 
BRANCH  40  41
ATOM     41  C   UNL     1       1.735  -7.535  -1.102  1.00  0.00     0.031 A 
ATOM     42  C   UNL     1       1.206  -8.835  -0.561  1.00  0.00     0.074 A 
ATOM     43  C   UNL     1       1.918  -7.391  -2.426  1.00  0.00     0.049 A 
ATOM     44  N   UNL     1       0.967  -9.960  -1.186  1.00  0.00    -0.248 NA
ATOM     45  C   UNL     1       0.922  -8.870   0.882  1.00  0.00     0.031 C 
ATOM     46  C   UNL     1       2.390  -6.179  -3.092  1.00  0.00     0.029 A 
ATOM     47  N   UNL     1       1.756  -8.298  -3.444  1.00  0.00    -0.354 N 
ATOM     48  C   UNL     1       0.531 -10.846  -0.208  1.00  0.00     0.074 A 
ATOM     49  C   UNL     1       0.553 -10.131   1.050  1.00  0.00     0.031 C 
ATOM     50  C   UNL     1       2.510  -6.428  -4.409  1.00  0.00     0.029 A 
ATOM     51  C   UNL     1       2.162  -7.826  -4.667  1.00  0.00     0.049 A 
ATOM     52  H   UNL     1       1.384  -9.200  -3.310  1.00  0.00     0.167 HD
ATOM     53  C   UNL     1       0.151 -12.140  -0.341  1.00  0.00     0.031 A 
ATOM     54  C   UNL     1       2.279  -8.456  -5.852  1.00  0.00     0.031 A 
ATOM     55  C   UNL     1       0.145 -12.863  -1.584  1.00  0.00     0.049 A 
ATOM     56  C   UNL     1       1.916  -9.912  -5.972  1.00  0.00     0.074 A 
ATOM     57  C   UNL     1      -0.249 -14.168  -1.821  1.00  0.00     0.029 A 
ATOM     58  N   UNL     1       0.567 -12.345  -2.799  1.00  0.00    -0.354 N 
ATOM     59  N   UNL     1       1.488 -10.735  -5.047  1.00  0.00    -0.248 NA
ATOM     60  C   UNL     1       2.052 -10.523  -7.303  1.00  0.00     0.031 C 
ATOM     61  C   UNL     1      -0.009 -14.459  -3.168  1.00  0.00     0.029 A 
ATOM     62  C   UNL     1       0.473 -13.315  -3.783  1.00  0.00     0.049 A 
ATOM     63  H   UNL     1       0.886 -11.425  -2.941  1.00  0.00     0.167 HD
ATOM     64  C   UNL     1       1.276 -11.952  -5.687  1.00  0.00     0.074 A 
ATOM     65  C   UNL     1       1.623 -11.759  -7.080  1.00  0.00     0.031 C 
ATOM     66  C   UNL     1       0.825 -13.119  -5.166  1.00  0.00     0.031 A 
BRANCH  53  67
ATOM     67  C   UNL     1      -0.235 -12.872   0.915  1.00  0.00    -0.014 A 
ATOM     68  C   UNL     1      -1.421 -12.572   1.605  1.00  0.00     0.009 A 
ATOM     69  C   UNL     1       0.603 -13.882   1.413  1.00  0.00     0.009 A 
ATOM     70  C   UNL     1      -1.732 -13.235   2.794  1.00  0.00     0.001 A 
ATOM     71  C   UNL     1       0.274 -14.564   2.584  1.00  0.00     0.001 A 
ATOM     72  C   UNL     1      -0.886 -14.231   3.281  1.00  0.00     0.000 A 
ENDBRANCH  53  67
BRANCH  54  73
ATOM     73  C   UNL     1       2.804  -7.712  -7.025  1.00  0.00    -0.014 A 
ATOM     74  C   UNL     1       1.944  -7.297  -8.051  1.00  0.00     0.009 A 
ATOM     75  C   UNL     1       4.173  -7.413  -7.119  1.00  0.00     0.009 A 
ATOM     76  C   UNL     1       2.446  -6.601  -9.153  1.00  0.00     0.001 A 
ATOM     77  C   UNL     1       4.670  -6.708  -8.216  1.00  0.00     0.001 A 
ATOM     78  C   UNL     1       3.806  -6.300  -9.231  1.00  0.00     0.000 A 
ENDBRANCH  54  73
BRANCH  66  79
ATOM     79  C   UNL     1       0.637 -14.279  -6.105  1.00  0.00    -0.014 A 
ATOM     80  C   UNL     1       1.731 -14.998  -6.612  1.00  0.00     0.009 A 
ATOM     81  C   UNL     1      -0.662 -14.703  -6.427  1.00  0.00     0.009 A 
ATOM     82  C   UNL     1       1.525 -16.105  -7.440  1.00  0.00     0.001 A 
ATOM     83  C   UNL     1      -0.865 -15.825  -7.234  1.00  0.00     0.001 A 
ATOM     84  C   UNL     1       0.229 -16.521  -7.744  1.00  0.00     0.000 A 
ENDBRANCH  66  79
ENDBRANCH  40  41
ENDBRANCH  33  35
ENDBRANCH  32  33
ENDBRANCH  31  32
ENDBRANCH  30  31
ENDBRANCH  29  30
ENDBRANCH  28  29
ENDBRANCH   1  28
TORSDOF 21
