REMARK SMILES O=C(COc1ccccc1C[NH+]1CCC2(CC[NH2+]CC2)CC1)OCCOCCOCCOC(=O)c1ccc(-c2c3nc(c(-c4ccccc4)c4ccc([nH]4)c(-c4ccccc4)c4nc(c(-c5ccccc5)c5ccc2[nH]5)C=C4)C=C3)cc1
REMARK SMILES IDX 27 1 26 2 25 3 24 4 23 5 2 6 1 7 3 8 4 9 5 10 6 11 10 12
REMARK SMILES IDX 7 13 9 14 8 15 11 16 12 17 13 18 22 19 14 21 21 22 15 23
REMARK SMILES IDX 16 24 20 25 17 26 19 27 18 28 28 31 29 32 30 33 31 34 32 35
REMARK SMILES IDX 33 36 34 37 35 38 36 39 82 40 37 41 81 42 38 43 39 44 40 45
REMARK SMILES IDX 75 46 41 47 80 48 74 49 76 50 42 51 79 52 73 53 72 54 43 56
REMARK SMILES IDX 65 57 50 58 64 59 51 60 54 61 63 62 77 63 52 64 53 65 62 67
REMARK SMILES IDX 78 68 55 69 44 70 45 71 49 72 46 73 48 74 47 75 66 76 67 77
REMARK SMILES IDX 71 78 68 79 70 80 69 81 56 82 57 83 61 84 58 85 60 86 59 87
REMARK H PARENT 12 20 18 29 18 30 76 55 54 66
REMARK Flexibility Score: inf
ROOT
ATOM      1  C   UNL     1       4.042   0.987  -2.486  1.00  0.00     0.188 C 
ENDROOT
BRANCH   1   2
ATOM      2  O   UNL     1       5.192   0.289  -2.020  1.00  0.00    -0.376 OA
BRANCH   2   3
ATOM      3  C   UNL     1       5.317   0.153  -0.617  1.00  0.00     0.202 C 
BRANCH   3   4
ATOM      4  C   UNL     1       4.262  -0.764  -0.020  1.00  0.00     0.261 C 
BRANCH   4   5
ATOM      5  O   UNL     1       2.898  -0.339  -0.269  1.00  0.00    -0.461 OA
BRANCH   5   6
ATOM      6  C   UNL     1       2.298   0.830   0.064  1.00  0.00     0.344 C 
ATOM      7  O   UNL     1       1.238   1.153  -0.469  1.00  0.00    -0.248 OA
BRANCH   6   8
ATOM      8  C   UNL     1       2.961   1.714   1.090  1.00  0.00     0.351 C 
BRANCH   8   9
ATOM      9  O   UNL     1       3.679   0.970   2.071  1.00  0.00    -0.481 OA
BRANCH   9  10
ATOM     10  C   UNL     1       3.004   0.959   3.260  1.00  0.00     0.129 A 
ATOM     11  C   UNL     1       3.587   1.746   4.259  1.00  0.00     0.047 A 
ATOM     12  C   UNL     1       1.799   0.264   3.469  1.00  0.00     0.048 A 
ATOM     13  C   UNL     1       2.921   1.942   5.460  1.00  0.00     0.004 A 
ATOM     14  C   UNL     1       1.089   0.595   4.634  1.00  0.00     0.013 A 
ATOM     15  C   UNL     1       1.653   1.399   5.630  1.00  0.00     0.001 A 
BRANCH  12  16
ATOM     16  C   UNL     1       1.211  -0.756   2.507  1.00  0.00     0.302 C 
BRANCH  16  17
ATOM     17  N   UNL     1       1.173  -2.193   2.806  1.00  0.00    -0.331 N 
ATOM     18  C   UNL     1       2.301  -2.990   2.329  1.00  0.00     0.263 C 
ATOM     19  C   UNL     1       0.737  -2.603   4.123  1.00  0.00     0.263 C 
ATOM     20  H   UNL     1       0.385  -2.431   2.203  1.00  0.00     0.348 HD
ATOM     21  C   UNL     1       3.511  -2.934   3.260  1.00  0.00     0.069 C 
ATOM     22  C   UNL     1       1.857  -2.527   5.155  1.00  0.00     0.069 C 
ATOM     23  C   UNL     1       3.161  -3.249   4.740  1.00  0.00    -0.008 C 
ATOM     24  C   UNL     1       2.961  -4.769   4.965  1.00  0.00     0.069 C 
ATOM     25  C   UNL     1       4.295  -2.710   5.651  1.00  0.00     0.069 C 
ATOM     26  C   UNL     1       4.264  -5.553   5.086  1.00  0.00     0.261 C 
ATOM     27  C   UNL     1       5.525  -3.607   5.689  1.00  0.00     0.261 C 
ATOM     28  N   UNL     1       5.158  -4.965   6.083  1.00  0.00    -0.346 N 
ATOM     29  H   UNL     1       6.002  -5.534   6.157  1.00  0.00     0.346 HD
ATOM     30  H   UNL     1       4.680  -4.934   6.983  1.00  0.00     0.346 HD
ENDBRANCH  16  17
ENDBRANCH  12  16
ENDBRANCH   9  10
ENDBRANCH   8   9
ENDBRANCH   6   8
ENDBRANCH   5   6
ENDBRANCH   4   5
ENDBRANCH   3   4
ENDBRANCH   2   3
ENDBRANCH   1   2
BRANCH   1  31
ATOM     31  C   UNL     1       2.982   0.066  -3.140  1.00  0.00     0.188 C 
BRANCH  31  32
ATOM     32  O   UNL     1       3.429  -1.000  -3.968  1.00  0.00    -0.376 OA
BRANCH  32  33
ATOM     33  C   UNL     1       4.617  -0.804  -4.714  1.00  0.00     0.202 C 
BRANCH  33  34
ATOM     34  C   UNL     1       4.573   0.274  -5.810  1.00  0.00     0.261 C 
BRANCH  34  35
ATOM     35  O   UNL     1       4.250   1.608  -5.348  1.00  0.00    -0.460 OA
BRANCH  35  36
ATOM     36  C   UNL     1       3.003   2.069  -5.622  1.00  0.00     0.338 C 
ATOM     37  O   UNL     1       2.170   1.524  -6.332  1.00  0.00    -0.246 OA
BRANCH  36  38
ATOM     38  C   UNL     1       2.674   3.265  -4.792  1.00  0.00     0.060 A 
ATOM     39  C   UNL     1       1.468   3.269  -4.069  1.00  0.00     0.016 A 
ATOM     40  C   UNL     1       3.484   4.401  -4.768  1.00  0.00     0.016 A 
ATOM     41  C   UNL     1       1.040   4.414  -3.382  1.00  0.00     0.010 A 
ATOM     42  C   UNL     1       3.042   5.559  -4.101  1.00  0.00     0.010 A 
ATOM     43  C   UNL     1       1.795   5.590  -3.442  1.00  0.00    -0.014 A 
BRANCH  43  44
ATOM     44  C   UNL     1       1.188   6.896  -3.043  1.00  0.00     0.031 A 
ATOM     45  C   UNL     1       0.597   7.769  -4.126  1.00  0.00     0.074 A 
ATOM     46  C   UNL     1       1.129   7.322  -1.766  1.00  0.00     0.049 A 
ATOM     47  N   UNL     1       0.093   8.976  -4.047  1.00  0.00    -0.248 NA
ATOM     48  C   UNL     1       0.576   7.198  -5.483  1.00  0.00     0.031 C 
ATOM     49  C   UNL     1       1.585   6.577  -0.596  1.00  0.00     0.029 A 
ATOM     50  N   UNL     1       0.662   8.510  -1.247  1.00  0.00    -0.354 N 
ATOM     51  C   UNL     1      -0.287   9.313  -5.341  1.00  0.00     0.074 A 
ATOM     52  C   UNL     1       0.067   8.195  -6.189  1.00  0.00     0.031 C 
ATOM     53  C   UNL     1       1.393   7.332   0.503  1.00  0.00     0.029 A 
ATOM     54  C   UNL     1       0.832   8.627   0.112  1.00  0.00     0.049 A 
ATOM     55  H   UNL     1       0.245   9.210  -1.798  1.00  0.00     0.167 HD
ATOM     56  C   UNL     1      -0.881  10.444  -5.793  1.00  0.00     0.031 A 
ATOM     57  C   UNL     1       0.590   9.662   0.944  1.00  0.00     0.031 A 
ATOM     58  C   UNL     1      -1.234  11.571  -4.971  1.00  0.00     0.049 A 
ATOM     59  C   UNL     1       0.020  10.952   0.403  1.00  0.00     0.074 A 
ATOM     60  C   UNL     1      -1.849  12.753  -5.350  1.00  0.00     0.029 A 
ATOM     61  N   UNL     1      -1.000  11.661  -3.610  1.00  0.00    -0.354 N 
ATOM     62  N   UNL     1      -0.345  11.251  -0.820  1.00  0.00    -0.248 NA
ATOM     63  C   UNL     1      -0.175  12.049   1.367  1.00  0.00     0.031 C 
ATOM     64  C   UNL     1      -1.930  13.584  -4.228  1.00  0.00     0.029 A 
ATOM     65  C   UNL     1      -1.429  12.891  -3.139  1.00  0.00     0.049 A 
ATOM     66  H   UNL     1      -0.590  10.956  -3.059  1.00  0.00     0.167 HD
ATOM     67  C   UNL     1      -0.842  12.550  -0.764  1.00  0.00     0.074 A 
ATOM     68  C   UNL     1      -0.746  12.979   0.614  1.00  0.00     0.031 C 
ATOM     69  C   UNL     1      -1.337  13.317  -1.767  1.00  0.00     0.031 A 
BRANCH  56  70
ATOM     70  C   UNL     1      -1.154  10.538  -7.269  1.00  0.00    -0.014 A 
ATOM     71  C   UNL     1      -2.161   9.771  -7.877  1.00  0.00     0.009 A 
ATOM     72  C   UNL     1      -0.417  11.438  -8.055  1.00  0.00     0.009 A 
ATOM     73  C   UNL     1      -2.400   9.880  -9.248  1.00  0.00     0.001 A 
ATOM     74  C   UNL     1      -0.680  11.567  -9.420  1.00  0.00     0.001 A 
ATOM     75  C   UNL     1      -1.664  10.782 -10.017  1.00  0.00     0.000 A 
ENDBRANCH  56  70
BRANCH  57  76
ATOM     76  C   UNL     1       0.915   9.556   2.394  1.00  0.00    -0.014 A 
ATOM     77  C   UNL     1      -0.102   9.561   3.361  1.00  0.00     0.009 A 
ATOM     78  C   UNL     1       2.252   9.513   2.821  1.00  0.00     0.009 A 
ATOM     79  C   UNL     1       0.213   9.556   4.723  1.00  0.00     0.001 A 
ATOM     80  C   UNL     1       2.563   9.475   4.182  1.00  0.00     0.001 A 
ATOM     81  C   UNL     1       1.545   9.508   5.132  1.00  0.00     0.000 A 
ENDBRANCH  57  76
BRANCH  69  82
ATOM     82  C   UNL     1      -1.859  14.684  -1.413  1.00  0.00    -0.014 A 
ATOM     83  C   UNL     1      -0.996  15.730  -1.049  1.00  0.00     0.009 A 
ATOM     84  C   UNL     1      -3.237  14.943  -1.492  1.00  0.00     0.009 A 
ATOM     85  C   UNL     1      -1.506  16.993  -0.736  1.00  0.00     0.001 A 
ATOM     86  C   UNL     1      -3.741  16.214  -1.209  1.00  0.00     0.001 A 
ATOM     87  C   UNL     1      -2.877  17.235  -0.821  1.00  0.00     0.000 A 
ENDBRANCH  69  82
ENDBRANCH  43  44
ENDBRANCH  36  38
ENDBRANCH  35  36
ENDBRANCH  34  35
ENDBRANCH  33  34
ENDBRANCH  32  33
ENDBRANCH  31  32
ENDBRANCH   1  31
TORSDOF 21
