REMARK SMILES C[C@]1(C(=O)OCCOCCOCCOC(=O)c2ccc(-c3c4nc(c(-c5ccccc5)c5ccc([nH]5)c(-c5ccccc5)c5nc(c(-c6ccccc6)c6ccc3[nH]6)C=C5)C=C4)cc2)CCN(c2ccc([N+](=O)[O-])c(N)n2)C1
REMARK SMILES IDX 9 1 8 2 7 3 6 4 5 5 3 6 4 7 2 8 1 9 65 10 78 11 66 12 67 13
REMARK SMILES IDX 68 14 69 15 77 16 70 17 75 18 71 19 76 20 72 23 73 24 74 25
REMARK SMILES IDX 10 26 11 27 12 28 13 29 14 30 15 31 16 32 17 33 18 34 64 35
REMARK SMILES IDX 19 36 63 37 20 38 21 39 22 40 57 41 23 42 62 43 56 44 58 45
REMARK SMILES IDX 24 46 61 47 55 48 54 49 25 51 47 52 32 53 46 54 33 55 36 56
REMARK SMILES IDX 45 57 59 58 34 59 35 60 44 62 60 63 37 64 26 65 27 66 31 67
REMARK SMILES IDX 28 68 30 69 29 70 48 71 49 72 53 73 50 74 52 75 51 76 38 77
REMARK SMILES IDX 39 78 43 79 40 80 42 81 41 82
REMARK H PARENT 76 21 76 22 58 50 36 61
REMARK Flexibility Score: inf
ROOT
ATOM      1  C   UNL     1       0.591  -1.020  -1.795  1.00  0.00     0.188 C 
ENDROOT
BRANCH   1   2
ATOM      2  O   UNL     1       1.601  -2.013  -1.864  1.00  0.00    -0.376 OA
BRANCH   2   3
ATOM      3  C   UNL     1       1.990  -2.630  -0.638  1.00  0.00     0.202 C 
BRANCH   3   4
ATOM      4  C   UNL     1       2.501  -1.713   0.486  1.00  0.00     0.261 C 
BRANCH   4   5
ATOM      5  O   UNL     1       1.618  -0.623   0.838  1.00  0.00    -0.463 OA
BRANCH   5   6
ATOM      6  C   UNL     1       2.079   0.631   0.570  1.00  0.00     0.313 C 
ATOM      7  O   UNL     1       3.181   0.858   0.081  1.00  0.00    -0.252 OA
BRANCH   6   8
ATOM      8  C   UNL     1       1.084   1.746   0.898  1.00  0.00     0.084 C 
ATOM      9  C   UNL     1      -0.314   1.305   1.374  1.00  0.00     0.026 C 
ATOM     10  C   UNL     1       1.742   2.666   1.940  1.00  0.00     0.042 C 
ATOM     11  C   UNL     1       0.966   2.694  -0.323  1.00  0.00     0.136 C 
ATOM     12  C   UNL     1       1.154   4.048   1.669  1.00  0.00     0.119 C 
ATOM     13  N   UNL     1       0.751   4.016   0.266  1.00  0.00    -0.355 N 
BRANCH  13  14
ATOM     14  C   UNL     1       0.970   5.136  -0.512  1.00  0.00     0.131 A 
ATOM     15  C   UNL     1       0.111   5.444  -1.561  1.00  0.00     0.054 A 
ATOM     16  N   UNL     1       2.009   5.945  -0.209  1.00  0.00    -0.207 NA
ATOM     17  C   UNL     1       0.297   6.627  -2.275  1.00  0.00     0.093 A 
ATOM     18  C   UNL     1       2.228   7.076  -0.916  1.00  0.00     0.204 A 
ATOM     19  C   UNL     1       1.369   7.460  -1.938  1.00  0.00     0.311 A 
BRANCH  18  20
ATOM     20  N   UNL     1       3.297   7.812  -0.454  1.00  0.00    -0.378 N 
ATOM     21  H   UNL     1       3.544   8.655  -0.899  1.00  0.00     0.158 HD
ATOM     22  H   UNL     1       3.815   7.495   0.321  1.00  0.00     0.158 HD
ENDBRANCH  18  20
BRANCH  19  23
ATOM     23  N   UNL     1       1.564   8.705  -2.672  1.00  0.00     0.066 N 
ATOM     24  O   UNL     1       0.603   9.136  -3.329  1.00  0.00    -0.258 OA
ATOM     25  O   UNL     1       2.676   9.253  -2.632  1.00  0.00    -0.258 OA
ENDBRANCH  19  23
ENDBRANCH  13  14
ENDBRANCH   6   8
ENDBRANCH   5   6
ENDBRANCH   4   5
ENDBRANCH   3   4
ENDBRANCH   2   3
ENDBRANCH   1   2
BRANCH   1  26
ATOM     26  C   UNL     1      -0.747  -1.419  -1.171  1.00  0.00     0.188 C 
BRANCH  26  27
ATOM     27  O   UNL     1      -0.708  -2.386  -0.138  1.00  0.00    -0.376 OA
BRANCH  27  28
ATOM     28  C   UNL     1      -1.960  -2.980   0.217  1.00  0.00     0.202 C 
BRANCH  28  29
ATOM     29  C   UNL     1      -2.718  -3.732  -0.905  1.00  0.00     0.261 C 
BRANCH  29  30
ATOM     30  O   UNL     1      -3.085  -2.967  -2.079  1.00  0.00    -0.460 OA
BRANCH  30  31
ATOM     31  C   UNL     1      -3.755  -1.803  -1.901  1.00  0.00     0.338 C 
ATOM     32  O   UNL     1      -4.295  -1.435  -0.870  1.00  0.00    -0.246 OA
BRANCH  31  33
ATOM     33  C   UNL     1      -3.476  -0.901  -3.060  1.00  0.00     0.060 A 
ATOM     34  C   UNL     1      -3.178   0.445  -2.791  1.00  0.00     0.016 A 
ATOM     35  C   UNL     1      -3.414  -1.364  -4.378  1.00  0.00     0.016 A 
ATOM     36  C   UNL     1      -2.857   1.329  -3.829  1.00  0.00     0.010 A 
ATOM     37  C   UNL     1      -3.111  -0.472  -5.420  1.00  0.00     0.010 A 
ATOM     38  C   UNL     1      -2.856   0.887  -5.159  1.00  0.00    -0.014 A 
BRANCH  38  39
ATOM     39  C   UNL     1      -2.764   1.867  -6.279  1.00  0.00     0.031 A 
ATOM     40  C   UNL     1      -4.036   2.302  -6.963  1.00  0.00     0.074 A 
ATOM     41  C   UNL     1      -1.591   2.386  -6.689  1.00  0.00     0.049 A 
ATOM     42  N   UNL     1      -4.200   3.091  -7.995  1.00  0.00    -0.248 NA
ATOM     43  C   UNL     1      -5.290   1.775  -6.401  1.00  0.00     0.031 C 
ATOM     44  C   UNL     1      -0.283   2.109  -6.099  1.00  0.00     0.029 A 
ATOM     45  N   UNL     1      -1.315   3.256  -7.720  1.00  0.00    -0.354 N 
ATOM     46  C   UNL     1      -5.572   3.149  -8.212  1.00  0.00     0.074 A 
ATOM     47  C   UNL     1      -6.191   2.293  -7.222  1.00  0.00     0.031 C 
ATOM     48  C   UNL     1       0.657   2.784  -6.786  1.00  0.00     0.029 A 
ATOM     49  C   UNL     1       0.026   3.509  -7.889  1.00  0.00     0.049 A 
ATOM     50  H   UNL     1      -2.014   3.660  -8.284  1.00  0.00     0.167 HD
ATOM     51  C   UNL     1      -6.262   3.849  -9.145  1.00  0.00     0.031 A 
ATOM     52  C   UNL     1       0.674   4.215  -8.839  1.00  0.00     0.031 A 
ATOM     53  C   UNL     1      -5.661   4.685 -10.150  1.00  0.00     0.049 A 
ATOM     54  C   UNL     1      -0.107   4.900  -9.934  1.00  0.00     0.074 A 
ATOM     55  C   UNL     1      -6.286   5.436 -11.131  1.00  0.00     0.029 A 
ATOM     56  N   UNL     1      -4.298   4.871 -10.313  1.00  0.00    -0.354 N 
ATOM     57  N   UNL     1      -1.404   4.962 -10.114  1.00  0.00    -0.248 NA
ATOM     58  C   UNL     1       0.672   5.618 -10.957  1.00  0.00     0.031 C 
ATOM     59  C   UNL     1      -5.300   6.024 -11.929  1.00  0.00     0.029 A 
ATOM     60  C   UNL     1      -4.062   5.697 -11.400  1.00  0.00     0.049 A 
ATOM     61  H   UNL     1      -3.601   4.475  -9.742  1.00  0.00     0.167 HD
ATOM     62  C   UNL     1      -1.595   5.747 -11.247  1.00  0.00     0.074 A 
ATOM     63  C   UNL     1      -0.284   6.153 -11.704  1.00  0.00     0.031 C 
ATOM     64  C   UNL     1      -2.756   6.099 -11.854  1.00  0.00     0.031 A 
BRANCH  51  65
ATOM     65  C   UNL     1      -7.759   3.706  -9.148  1.00  0.00    -0.014 A 
ATOM     66  C   UNL     1      -8.550   4.263  -8.130  1.00  0.00     0.009 A 
ATOM     67  C   UNL     1      -8.391   3.036 -10.208  1.00  0.00     0.009 A 
ATOM     68  C   UNL     1      -9.939   4.121  -8.157  1.00  0.00     0.001 A 
ATOM     69  C   UNL     1      -9.781   2.924 -10.248  1.00  0.00     0.001 A 
ATOM     70  C   UNL     1     -10.553   3.457  -9.218  1.00  0.00     0.000 A 
ENDBRANCH  51  65
BRANCH  52  71
ATOM     71  C   UNL     1       2.163   4.285  -8.838  1.00  0.00    -0.014 A 
ATOM     72  C   UNL     1       2.828   5.500  -8.607  1.00  0.00     0.009 A 
ATOM     73  C   UNL     1       2.927   3.141  -9.120  1.00  0.00     0.009 A 
ATOM     74  C   UNL     1       4.222   5.572  -8.687  1.00  0.00     0.001 A 
ATOM     75  C   UNL     1       4.321   3.209  -9.165  1.00  0.00     0.001 A 
ATOM     76  C   UNL     1       4.967   4.426  -8.959  1.00  0.00     0.000 A 
ENDBRANCH  52  71
BRANCH  64  77
ATOM     77  C   UNL     1      -2.671   7.000 -13.058  1.00  0.00    -0.014 A 
ATOM     78  C   UNL     1      -2.162   6.544 -14.284  1.00  0.00     0.009 A 
ATOM     79  C   UNL     1      -3.150   8.318 -12.974  1.00  0.00     0.009 A 
ATOM     80  C   UNL     1      -2.101   7.398 -15.388  1.00  0.00     0.001 A 
ATOM     81  C   UNL     1      -3.119   9.160 -14.088  1.00  0.00     0.001 A 
ATOM     82  C   UNL     1      -2.585   8.703 -15.291  1.00  0.00     0.000 A 
ENDBRANCH  64  77
ENDBRANCH  38  39
ENDBRANCH  31  33
ENDBRANCH  30  31
ENDBRANCH  29  30
ENDBRANCH  28  29
ENDBRANCH  27  28
ENDBRANCH  26  27
ENDBRANCH   1  26
TORSDOF 20
