REMARK SMILES O=C(CSc1nnc2sc3ccccc3n12)N[C@H](Cc1c[nH]c2ccccc12)C(=O)OCCOCCOCCOC(=O)c1ccc(-c2c3nc(c(-c4ccccc4)c4ccc([nH]4)c(-c4ccccc4)c4nc(c(-c5ccccc5)c5ccc2[nH]5)C=C4)C=C3)cc1
REMARK SMILES IDX 35 1 34 2 33 3 32 4 31 5 29 6 30 7 18 8 17 9 1 10 2 11 3 13
REMARK SMILES IDX 4 14 5 15 6 16 16 17 7 18 8 19 15 20 9 21 10 22 14 23 11 24
REMARK SMILES IDX 13 25 12 26 19 27 20 28 21 29 28 30 22 31 23 32 27 33 24 35
REMARK SMILES IDX 26 36 25 37 36 38 37 39 38 40 39 41 40 42 41 43 42 44 43 45
REMARK SMILES IDX 44 46 90 47 45 48 89 49 46 50 47 51 48 52 83 53 49 54 88 55
REMARK SMILES IDX 82 56 84 57 50 58 87 59 81 60 80 61 51 63 73 64 58 65 72 66
REMARK SMILES IDX 59 67 62 68 71 69 85 70 60 71 61 72 70 74 86 75 63 76 52 77
REMARK SMILES IDX 53 78 57 79 54 80 56 81 55 82 74 83 75 84 79 85 76 86 78 87
REMARK SMILES IDX 77 88 64 89 65 90 69 91 66 92 68 93 67 94
REMARK H PARENT 17 12 22 34 84 62 62 73
REMARK Flexibility Score: inf
ROOT
ATOM      1  C   UNL     1       2.607   4.227  -2.591  1.00  0.00     0.188 C 
ENDROOT
BRANCH   1   2
ATOM      2  O   UNL     1       3.399   5.378  -2.820  1.00  0.00    -0.376 OA
BRANCH   2   3
ATOM      3  C   UNL     1       4.614   5.527  -2.095  1.00  0.00     0.202 C 
BRANCH   3   4
ATOM      4  C   UNL     1       4.520   5.445  -0.569  1.00  0.00     0.261 C 
BRANCH   4   5
ATOM      5  O   UNL     1       4.496   4.077  -0.082  1.00  0.00    -0.462 OA
BRANCH   5   6
ATOM      6  C   UNL     1       3.551   3.824   0.858  1.00  0.00     0.329 C 
ATOM      7  O   UNL     1       2.881   4.731   1.354  1.00  0.00    -0.250 OA
BRANCH   6   8
ATOM      8  C   UNL     1       3.457   2.362   1.393  1.00  0.00     0.196 C 
BRANCH   8   9
ATOM      9  N   UNL     1       3.865   2.596   2.775  1.00  0.00    -0.342 N 
ATOM     10  O   UNL     1       2.229   1.379   3.800  1.00  0.00    -0.274 OA
ATOM     11  C   UNL     1       3.150   2.190   3.865  1.00  0.00     0.231 C 
ATOM     12  H   UNL     1       4.710   3.077   2.931  1.00  0.00     0.164 HD
BRANCH  11  13
ATOM     13  C   UNL     1       3.555   2.776   5.202  1.00  0.00     0.178 C 
BRANCH  13  14
ATOM     14  S   UNL     1       4.867   4.037   5.168  1.00  0.00    -0.076 SA
BRANCH  14  15
ATOM     15  C   UNL     1       6.273   3.110   4.785  1.00  0.00     0.197 A 
ATOM     16  N   UNL     1       6.859   3.115   3.600  1.00  0.00    -0.122 NA
ATOM     17  N   UNL     1       6.891   2.197   5.588  1.00  0.00    -0.260 N 
ATOM     18  N   UNL     1       7.875   2.163   3.612  1.00  0.00    -0.118 NA
ATOM     19  C   UNL     1       7.866   1.643   4.809  1.00  0.00     0.217 A 
ATOM     20  C   UNL     1       6.705   1.604   6.835  1.00  0.00     0.068 A 
ATOM     21  S   UNL     1       8.667   0.304   5.557  1.00  0.00    -0.094 S 
ATOM     22  C   UNL     1       7.556   0.491   6.957  1.00  0.00     0.055 A 
ATOM     23  C   UNL     1       5.740   1.907   7.779  1.00  0.00     0.028 A 
ATOM     24  C   UNL     1       7.383  -0.399   8.004  1.00  0.00     0.021 A 
ATOM     25  C   UNL     1       5.568   1.009   8.832  1.00  0.00     0.002 A 
ATOM     26  C   UNL     1       6.370  -0.140   8.935  1.00  0.00     0.002 A 
ENDBRANCH  14  15
ENDBRANCH  13  14
ENDBRANCH  11  13
ENDBRANCH   8   9
BRANCH   8  27
ATOM     27  C   UNL     1       4.165   1.155   0.725  1.00  0.00     0.074 C 
BRANCH  27  28
ATOM     28  C   UNL     1       3.761  -0.208   1.297  1.00  0.00    -0.020 A 
ATOM     29  C   UNL     1       2.981  -1.190   0.706  1.00  0.00     0.087 A 
ATOM     30  C   UNL     1       4.105  -0.734   2.586  1.00  0.00     0.003 A 
ATOM     31  N   UNL     1       2.722  -2.173   1.630  1.00  0.00    -0.361 N 
ATOM     32  C   UNL     1       3.347  -1.881   2.814  1.00  0.00     0.046 A 
ATOM     33  C   UNL     1       4.939  -0.281   3.618  1.00  0.00     0.010 A 
ATOM     34  H   UNL     1       2.169  -2.970   1.465  1.00  0.00     0.166 HD
ATOM     35  C   UNL     1       3.297  -2.531   4.055  1.00  0.00     0.026 A 
ATOM     36  C   UNL     1       4.857  -0.881   4.875  1.00  0.00     0.001 A 
ATOM     37  C   UNL     1       4.038  -1.979   5.097  1.00  0.00     0.002 A 
ENDBRANCH  27  28
ENDBRANCH   8  27
ENDBRANCH   6   8
ENDBRANCH   5   6
ENDBRANCH   4   5
ENDBRANCH   3   4
ENDBRANCH   2   3
ENDBRANCH   1   2
BRANCH   1  38
ATOM     38  C   UNL     1       3.310   2.884  -2.380  1.00  0.00     0.188 C 
BRANCH  38  39
ATOM     39  O   UNL     1       4.516   2.569  -3.038  1.00  0.00    -0.376 OA
BRANCH  39  40
ATOM     40  C   UNL     1       4.507   2.700  -4.452  1.00  0.00     0.202 C 
BRANCH  40  41
ATOM     41  C   UNL     1       3.457   1.885  -5.241  1.00  0.00     0.261 C 
BRANCH  41  42
ATOM     42  O   UNL     1       2.110   2.055  -4.745  1.00  0.00    -0.460 OA
BRANCH  42  43
ATOM     43  C   UNL     1       1.438   0.907  -4.418  1.00  0.00     0.338 C 
ATOM     44  O   UNL     1       1.679  -0.208  -4.816  1.00  0.00    -0.246 OA
BRANCH  43  45
ATOM     45  C   UNL     1       0.613   1.189  -3.199  1.00  0.00     0.060 A 
ATOM     46  C   UNL     1      -0.173   2.337  -3.052  1.00  0.00     0.016 A 
ATOM     47  C   UNL     1       0.880   0.392  -2.075  1.00  0.00     0.016 A 
ATOM     48  C   UNL     1      -0.657   2.697  -1.780  1.00  0.00     0.010 A 
ATOM     49  C   UNL     1       0.433   0.781  -0.806  1.00  0.00     0.010 A 
ATOM     50  C   UNL     1      -0.338   1.937  -0.641  1.00  0.00    -0.014 A 
BRANCH  50  51
ATOM     51  C   UNL     1      -1.127   2.041   0.606  1.00  0.00     0.031 A 
ATOM     52  C   UNL     1      -2.525   1.668   0.394  1.00  0.00     0.074 A 
ATOM     53  C   UNL     1      -0.839   2.480   1.852  1.00  0.00     0.049 A 
ATOM     54  N   UNL     1      -3.465   2.552   0.374  1.00  0.00    -0.248 NA
ATOM     55  C   UNL     1      -2.920   0.321  -0.004  1.00  0.00     0.031 C 
ATOM     56  C   UNL     1       0.271   3.330   2.216  1.00  0.00     0.029 A 
ATOM     57  N   UNL     1      -1.495   2.304   3.064  1.00  0.00    -0.354 N 
ATOM     58  C   UNL     1      -4.626   1.839   0.215  1.00  0.00     0.074 A 
ATOM     59  C   UNL     1      -4.229   0.511  -0.195  1.00  0.00     0.031 C 
ATOM     60  C   UNL     1       0.322   3.478   3.555  1.00  0.00     0.029 A 
ATOM     61  C   UNL     1      -0.734   2.677   4.175  1.00  0.00     0.049 A 
ATOM     62  H   UNL     1      -2.411   1.950   3.133  1.00  0.00     0.167 HD
ATOM     63  C   UNL     1      -5.777   2.336   0.731  1.00  0.00     0.031 A 
ATOM     64  C   UNL     1      -1.088   2.924   5.463  1.00  0.00     0.031 A 
ATOM     65  C   UNL     1      -5.686   3.745   1.052  1.00  0.00     0.049 A 
ATOM     66  C   UNL     1      -2.355   3.672   5.448  1.00  0.00     0.074 A 
ATOM     67  C   UNL     1      -5.777   4.940   0.370  1.00  0.00     0.029 A 
ATOM     68  N   UNL     1      -5.124   4.029   2.270  1.00  0.00    -0.354 N 
ATOM     69  N   UNL     1      -2.439   4.928   5.123  1.00  0.00    -0.248 NA
ATOM     70  C   UNL     1      -3.628   2.967   5.585  1.00  0.00     0.031 C 
ATOM     71  C   UNL     1      -5.207   5.947   1.206  1.00  0.00     0.029 A 
ATOM     72  C   UNL     1      -4.782   5.355   2.387  1.00  0.00     0.049 A 
ATOM     73  H   UNL     1      -4.982   3.360   2.979  1.00  0.00     0.167 HD
ATOM     74  C   UNL     1      -3.691   5.024   4.558  1.00  0.00     0.074 A 
ATOM     75  C   UNL     1      -4.441   3.878   5.048  1.00  0.00     0.031 C 
ATOM     76  C   UNL     1      -3.894   5.782   3.448  1.00  0.00     0.031 A 
BRANCH  63  77
ATOM     77  C   UNL     1      -6.816   1.449   1.356  1.00  0.00    -0.014 A 
ATOM     78  C   UNL     1      -6.581   0.108   1.718  1.00  0.00     0.009 A 
ATOM     79  C   UNL     1      -7.997   2.036   1.837  1.00  0.00     0.009 A 
ATOM     80  C   UNL     1      -7.478  -0.620   2.500  1.00  0.00     0.001 A 
ATOM     81  C   UNL     1      -8.881   1.322   2.653  1.00  0.00     0.001 A 
ATOM     82  C   UNL     1      -8.622  -0.005   2.982  1.00  0.00     0.000 A 
ENDBRANCH  63  77
BRANCH  64  83
ATOM     83  C   UNL     1      -0.731   2.089   6.641  1.00  0.00    -0.014 A 
ATOM     84  C   UNL     1      -0.163   0.812   6.529  1.00  0.00     0.009 A 
ATOM     85  C   UNL     1      -1.057   2.548   7.934  1.00  0.00     0.009 A 
ATOM     86  C   UNL     1       0.009  -0.002   7.660  1.00  0.00     0.001 A 
ATOM     87  C   UNL     1      -0.883   1.737   9.062  1.00  0.00     0.001 A 
ATOM     88  C   UNL     1      -0.366   0.454   8.923  1.00  0.00     0.000 A 
ENDBRANCH  64  83
BRANCH  76  89
ATOM     89  C   UNL     1      -2.999   6.968   3.239  1.00  0.00    -0.014 A 
ATOM     90  C   UNL     1      -3.580   8.243   3.224  1.00  0.00     0.009 A 
ATOM     91  C   UNL     1      -1.616   6.864   3.025  1.00  0.00     0.009 A 
ATOM     92  C   UNL     1      -2.805   9.382   2.990  1.00  0.00     0.001 A 
ATOM     93  C   UNL     1      -0.834   8.005   2.814  1.00  0.00     0.001 A 
ATOM     94  C   UNL     1      -1.432   9.263   2.788  1.00  0.00     0.000 A 
ENDBRANCH  76  89
ENDBRANCH  50  51
ENDBRANCH  43  45
ENDBRANCH  42  43
ENDBRANCH  41  42
ENDBRANCH  40  41
ENDBRANCH  39  40
ENDBRANCH  38  39
ENDBRANCH   1  38
TORSDOF 23
