REMARK SMILES O=C(C[N@@H+](C[C@@H]1COc2ccccc2O1)CC(F)(F)F)OCCOCCOCCOC(=O)c1ccc(-c2c3nc(c(-c4ccccc4)c4ccc([nH]4)c(-c4ccccc4)c4nc(c(-c5ccccc5)c5ccc2[nH]5)C=C4)C=C3)cc1
REMARK SMILES IDX 25 1 24 2 23 3 22 4 21 5 2 6 1 7 3 8 4 9 5 11 6 12 7 13
REMARK SMILES IDX 15 14 8 15 14 16 9 17 13 18 10 19 12 20 11 21 16 22 17 23
REMARK SMILES IDX 18 24 19 25 20 26 26 27 27 28 28 29 29 30 30 31 31 32 32 33
REMARK SMILES IDX 33 34 34 35 80 36 35 37 79 38 36 39 37 40 38 41 73 42 39 43
REMARK SMILES IDX 78 44 72 45 74 46 40 47 77 48 71 49 70 50 41 52 63 53 48 54
REMARK SMILES IDX 62 55 49 56 52 57 61 58 75 59 50 60 51 61 60 63 76 64 53 65
REMARK SMILES IDX 42 66 43 67 47 68 44 69 46 70 45 71 64 72 65 73 69 74 66 75
REMARK SMILES IDX 68 76 67 77 54 78 55 79 59 80 56 81 58 82 57 83
REMARK H PARENT 4 10 74 51 52 62
REMARK Flexibility Score: inf
ROOT
ATOM      1  C   UNL     1       2.988   1.968   0.720  1.00  0.00     0.188 C 
ENDROOT
BRANCH   1   2
ATOM      2  O   UNL     1       4.256   1.869   0.093  1.00  0.00    -0.376 OA
BRANCH   2   3
ATOM      3  C   UNL     1       4.896   0.607   0.184  1.00  0.00     0.202 C 
BRANCH   3   4
ATOM      4  C   UNL     1       4.575  -0.245  -1.041  1.00  0.00     0.261 C 
BRANCH   4   5
ATOM      5  O   UNL     1       3.174  -0.369  -1.371  1.00  0.00    -0.459 OA
BRANCH   5   6
ATOM      6  C   UNL     1       2.221  -1.046  -0.698  1.00  0.00     0.361 C 
ATOM      7  O   UNL     1       1.101  -1.164  -1.189  1.00  0.00    -0.245 OA
BRANCH   6   8
ATOM      8  C   UNL     1       2.531  -1.592   0.693  1.00  0.00     0.386 C 
BRANCH   8   9
ATOM      9  N   UNL     1       3.417  -2.755   0.633  1.00  0.00    -0.315 N 
ATOM     10  H   UNL     1       4.108  -2.549  -0.088  1.00  0.00     0.348 HD
BRANCH   9  11
ATOM     11  C   UNL     1       4.252  -2.937   1.838  1.00  0.00     0.312 C 
BRANCH  11  12
ATOM     12  C   UNL     1       3.561  -3.282   3.184  1.00  0.00     0.265 C 
ATOM     13  C   UNL     1       4.478  -3.102   4.399  1.00  0.00     0.281 C 
ATOM     14  O   UNL     1       3.076  -4.629   3.163  1.00  0.00    -0.477 OA
ATOM     15  O   UNL     1       5.622  -3.961   4.358  1.00  0.00    -0.486 OA
ATOM     16  C   UNL     1       4.078  -5.543   3.339  1.00  0.00     0.162 A 
ATOM     17  C   UNL     1       5.307  -5.221   3.920  1.00  0.00     0.161 A 
ATOM     18  C   UNL     1       3.837  -6.824   2.850  1.00  0.00     0.050 A 
ATOM     19  C   UNL     1       6.303  -6.189   4.006  1.00  0.00     0.050 A 
ATOM     20  C   UNL     1       4.843  -7.786   2.917  1.00  0.00     0.004 A 
ATOM     21  C   UNL     1       6.072  -7.470   3.499  1.00  0.00     0.004 A 
ENDBRANCH  11  12
ENDBRANCH   9  11
BRANCH   9  22
ATOM     22  C   UNL     1       2.721  -3.983   0.142  1.00  0.00     0.379 C 
BRANCH  22  23
ATOM     23  C   UNL     1       1.246  -4.339   0.491  1.00  0.00     0.438 C 
ATOM     24  F   UNL     1       0.378  -3.423   0.015  1.00  0.00    -0.165 F 
ATOM     25  F   UNL     1       0.912  -5.529  -0.063  1.00  0.00    -0.165 F 
ATOM     26  F   UNL     1       1.022  -4.432   1.815  1.00  0.00    -0.165 F 
ENDBRANCH  22  23
ENDBRANCH   9  22
ENDBRANCH   8   9
ENDBRANCH   6   8
ENDBRANCH   5   6
ENDBRANCH   4   5
ENDBRANCH   3   4
ENDBRANCH   2   3
ENDBRANCH   1   2
BRANCH   1  27
ATOM     27  C   UNL     1       2.262   3.286   0.413  1.00  0.00     0.188 C 
BRANCH  27  28
ATOM     28  O   UNL     1       2.984   4.357  -0.176  1.00  0.00    -0.376 OA
BRANCH  28  29
ATOM     29  C   UNL     1       4.277   4.677   0.320  1.00  0.00     0.202 C 
BRANCH  29  30
ATOM     30  C   UNL     1       4.382   5.079   1.793  1.00  0.00     0.261 C 
BRANCH  30  31
ATOM     31  O   UNL     1       3.990   4.047   2.724  1.00  0.00    -0.460 OA
BRANCH  31  32
ATOM     32  C   UNL     1       2.933   4.364   3.506  1.00  0.00     0.338 C 
ATOM     33  O   UNL     1       2.274   5.396   3.479  1.00  0.00    -0.246 OA
BRANCH  32  34
ATOM     34  C   UNL     1       2.560   3.255   4.402  1.00  0.00     0.060 A 
ATOM     35  C   UNL     1       1.271   2.719   4.286  1.00  0.00     0.016 A 
ATOM     36  C   UNL     1       3.369   2.914   5.489  1.00  0.00     0.016 A 
ATOM     37  C   UNL     1       0.756   1.905   5.297  1.00  0.00     0.010 A 
ATOM     38  C   UNL     1       2.848   2.103   6.506  1.00  0.00     0.010 A 
ATOM     39  C   UNL     1       1.519   1.644   6.444  1.00  0.00    -0.014 A 
BRANCH  39  40
ATOM     40  C   UNL     1       0.853   1.093   7.654  1.00  0.00     0.031 A 
ATOM     41  C   UNL     1       0.384   2.047   8.726  1.00  0.00     0.074 A 
ATOM     42  C   UNL     1       0.622  -0.224   7.797  1.00  0.00     0.049 A 
ATOM     43  N   UNL     1      -0.237   1.793   9.852  1.00  0.00    -0.248 NA
ATOM     44  C   UNL     1       0.649   3.476   8.495  1.00  0.00     0.031 C 
ATOM     45  C   UNL     1       0.969  -1.259   6.827  1.00  0.00     0.029 A 
ATOM     46  N   UNL     1       0.027  -0.912   8.828  1.00  0.00    -0.354 N 
ATOM     47  C   UNL     1      -0.429   3.026  10.464  1.00  0.00     0.074 A 
ATOM     48  C   UNL     1       0.166   4.023   9.600  1.00  0.00     0.031 C 
ATOM     49  C   UNL     1       0.580  -2.454   7.308  1.00  0.00     0.029 A 
ATOM     50  C   UNL     1      -0.023  -2.269   8.628  1.00  0.00     0.049 A 
ATOM     51  H   UNL     1      -0.329  -0.473   9.633  1.00  0.00     0.167 HD
ATOM     52  C   UNL     1      -1.051   3.313  11.633  1.00  0.00     0.031 A 
ATOM     53  C   UNL     1      -0.495  -3.251   9.421  1.00  0.00     0.031 A 
ATOM     54  C   UNL     1      -1.642   2.337  12.508  1.00  0.00     0.049 A 
ATOM     55  C   UNL     1      -1.111  -2.915  10.755  1.00  0.00     0.074 A 
ATOM     56  C   UNL     1      -2.316   2.543  13.700  1.00  0.00     0.029 A 
ATOM     57  N   UNL     1      -1.623   0.970  12.291  1.00  0.00    -0.354 N 
ATOM     58  N   UNL     1      -1.320  -1.742  11.300  1.00  0.00    -0.248 NA
ATOM     59  C   UNL     1      -1.567  -4.048  11.576  1.00  0.00     0.031 C 
ATOM     60  C   UNL     1      -2.657   1.295  14.232  1.00  0.00     0.029 A 
ATOM     61  C   UNL     1      -2.244   0.316  13.343  1.00  0.00     0.049 A 
ATOM     62  H   UNL     1      -1.226   0.527  11.507  1.00  0.00     0.167 HD
ATOM     63  C   UNL     1      -1.964  -1.994  12.507  1.00  0.00     0.074 A 
ATOM     64  C   UNL     1      -2.116  -3.429  12.612  1.00  0.00     0.031 C 
ATOM     65  C   UNL     1      -2.397  -1.111  13.441  1.00  0.00     0.031 A 
BRANCH  52  66
ATOM     66  C   UNL     1      -1.091   4.756  12.054  1.00  0.00    -0.014 A 
ATOM     67  C   UNL     1      -1.922   5.683  11.406  1.00  0.00     0.009 A 
ATOM     68  C   UNL     1      -0.301   5.187  13.131  1.00  0.00     0.009 A 
ATOM     69  C   UNL     1      -1.933   7.021  11.806  1.00  0.00     0.001 A 
ATOM     70  C   UNL     1      -0.334   6.519  13.546  1.00  0.00     0.001 A 
ATOM     71  C   UNL     1      -1.141   7.437  12.876  1.00  0.00     0.000 A 
ENDBRANCH  52  66
BRANCH  53  72
ATOM     72  C   UNL     1      -0.412  -4.668   8.981  1.00  0.00    -0.014 A 
ATOM     73  C   UNL     1      -1.573  -5.376   8.634  1.00  0.00     0.009 A 
ATOM     74  C   UNL     1       0.824  -5.331   8.945  1.00  0.00     0.009 A 
ATOM     75  C   UNL     1      -1.501  -6.726   8.285  1.00  0.00     0.001 A 
ATOM     76  C   UNL     1       0.897  -6.674   8.570  1.00  0.00     0.001 A 
ATOM     77  C   UNL     1      -0.266  -7.373   8.250  1.00  0.00     0.000 A 
ENDBRANCH  53  72
BRANCH  65  78
ATOM     78  C   UNL     1      -3.119  -1.666  14.639  1.00  0.00    -0.014 A 
ATOM     79  C   UNL     1      -2.437  -2.363  15.648  1.00  0.00     0.009 A 
ATOM     80  C   UNL     1      -4.500  -1.454  14.775  1.00  0.00     0.009 A 
ATOM     81  C   UNL     1      -3.131  -2.866  16.752  1.00  0.00     0.001 A 
ATOM     82  C   UNL     1      -5.186  -1.935  15.892  1.00  0.00     0.001 A 
ATOM     83  C   UNL     1      -4.503  -2.649  16.874  1.00  0.00     0.000 A 
ENDBRANCH  65  78
ENDBRANCH  39  40
ENDBRANCH  32  34
ENDBRANCH  31  32
ENDBRANCH  30  31
ENDBRANCH  29  30
ENDBRANCH  28  29
ENDBRANCH  27  28
ENDBRANCH   1  27
TORSDOF 22
