REMARK SMILES CC[C@](C)([NH3+])C(=O)Nc1ccc(C(F)(F)F)cc1C(=O)OCCOCCOCCOC(=O)c1ccc(-c2c3nc(c(-c4ccccc4)c4ccc([nH]4)c(-c4ccccc4)c4nc(c(-c5ccccc5)c5ccc2[nH]5)C=C4)C=C3)cc1
REMARK SMILES IDX 25 1 24 2 23 3 22 4 21 5 19 6 20 7 18 8 9 9 10 10 11 11
REMARK SMILES IDX 17 12 12 13 8 14 6 15 7 16 3 18 4 19 2 20 1 21 5 22 13 26
REMARK SMILES IDX 14 27 15 28 16 29 26 30 27 31 28 32 29 33 30 34 31 35 32 36
REMARK SMILES IDX 33 37 34 38 80 39 35 40 79 41 36 42 37 43 38 44 73 45 39 46
REMARK SMILES IDX 78 47 72 48 74 49 40 50 77 51 71 52 70 53 41 55 63 56 48 57
REMARK SMILES IDX 62 58 49 59 52 60 61 61 75 62 50 63 51 64 60 66 76 67 53 68
REMARK SMILES IDX 42 69 43 70 47 71 44 72 46 73 45 74 64 75 65 76 69 77 66 78
REMARK SMILES IDX 68 79 67 80 54 81 55 82 59 83 56 84 58 85 57 86
REMARK H PARENT 8 17 5 23 5 24 5 25 74 54 52 65
REMARK Flexibility Score: inf
ROOT
ATOM      1  C   UNL     1       1.082  -6.450   2.534  1.00  0.00     0.188 C 
ENDROOT
BRANCH   1   2
ATOM      2  O   UNL     1       0.898  -6.455   1.130  1.00  0.00    -0.376 OA
BRANCH   2   3
ATOM      3  C   UNL     1       0.145  -5.367   0.625  1.00  0.00     0.202 C 
BRANCH   3   4
ATOM      4  C   UNL     1       0.780  -3.993   0.801  1.00  0.00     0.261 C 
BRANCH   4   5
ATOM      5  O   UNL     1       1.145  -3.584   2.139  1.00  0.00    -0.460 OA
BRANCH   5   6
ATOM      6  C   UNL     1       0.265  -3.463   3.154  1.00  0.00     0.340 C 
ATOM      7  O   UNL     1      -0.899  -3.824   3.143  1.00  0.00    -0.246 OA
BRANCH   6   8
ATOM      8  C   UNL     1       0.921  -2.808   4.329  1.00  0.00     0.084 A 
ATOM      9  C   UNL     1       1.986  -1.897   4.225  1.00  0.00     0.056 A 
ATOM     10  C   UNL     1       2.709  -1.561   5.383  1.00  0.00     0.027 A 
ATOM     11  C   UNL     1       2.302  -2.000   6.643  1.00  0.00     0.015 A 
ATOM     12  C   UNL     1       0.505  -3.236   5.609  1.00  0.00     0.031 A 
ATOM     13  C   UNL     1       1.176  -2.818   6.775  1.00  0.00     0.057 A 
BRANCH   9  14
ATOM     14  N   UNL     1       2.495  -1.341   3.044  1.00  0.00    -0.320 N 
ATOM     15  C   UNL     1       1.951  -0.942   1.860  1.00  0.00     0.285 C 
ATOM     16  O   UNL     1       2.756  -0.911   0.916  1.00  0.00    -0.267 OA
ATOM     17  H   UNL     1       3.470  -1.208   3.077  1.00  0.00     0.170 HD
BRANCH  15  18
ATOM     18  C   UNL     1       0.520  -0.312   1.694  1.00  0.00     0.171 C 
ATOM     19  C   UNL     1       0.318  -0.073   0.185  1.00  0.00     0.090 C 
BRANCH  18  20
ATOM     20  C   UNL     1       0.441   0.986   2.519  1.00  0.00     0.075 C 
ATOM     21  C   UNL     1      -0.885   1.733   2.375  1.00  0.00     0.011 C 
ENDBRANCH  18  20
BRANCH  18  22
ATOM     22  N   UNL     1      -0.633  -1.109   2.108  1.00  0.00    -0.345 N 
ATOM     23  H   UNL     1      -0.639  -1.990   1.594  1.00  0.00     0.345 HD
ATOM     24  H   UNL     1      -1.491  -0.594   1.910  1.00  0.00     0.345 HD
ATOM     25  H   UNL     1      -0.574  -1.299   3.108  1.00  0.00     0.345 HD
ENDBRANCH  18  22
ENDBRANCH  15  18
ENDBRANCH   9  14
BRANCH  13  26
ATOM     26  C   UNL     1       0.712  -3.219   8.157  1.00  0.00     0.416 C 
ATOM     27  F   UNL     1       1.709  -3.773   8.901  1.00  0.00    -0.166 F 
ATOM     28  F   UNL     1       0.258  -2.154   8.873  1.00  0.00    -0.166 F 
ATOM     29  F   UNL     1      -0.299  -4.128   8.146  1.00  0.00    -0.166 F 
ENDBRANCH  13  26
ENDBRANCH   6   8
ENDBRANCH   5   6
ENDBRANCH   4   5
ENDBRANCH   3   4
ENDBRANCH   2   3
ENDBRANCH   1   2
BRANCH   1  30
ATOM     30  C   UNL     1       2.466  -5.940   3.001  1.00  0.00     0.188 C 
BRANCH  30  31
ATOM     31  O   UNL     1       3.504  -5.696   2.068  1.00  0.00    -0.376 OA
BRANCH  31  32
ATOM     32  C   UNL     1       3.687  -6.601   0.990  1.00  0.00     0.202 C 
BRANCH  32  33
ATOM     33  C   UNL     1       3.798  -8.116   1.261  1.00  0.00     0.261 C 
BRANCH  33  34
ATOM     34  O   UNL     1       2.875  -8.665   2.222  1.00  0.00    -0.460 OA
BRANCH  34  35
ATOM     35  C   UNL     1       3.375  -8.931   3.455  1.00  0.00     0.338 C 
ATOM     36  O   UNL     1       4.542  -8.850   3.806  1.00  0.00    -0.246 OA
BRANCH  35  37
ATOM     37  C   UNL     1       2.260  -9.094   4.427  1.00  0.00     0.060 A 
ATOM     38  C   UNL     1       2.253  -8.270   5.567  1.00  0.00     0.016 A 
ATOM     39  C   UNL     1       1.226 -10.011   4.227  1.00  0.00     0.016 A 
ATOM     40  C   UNL     1       1.246  -8.384   6.524  1.00  0.00     0.010 A 
ATOM     41  C   UNL     1       0.239 -10.160   5.212  1.00  0.00     0.010 A 
ATOM     42  C   UNL     1       0.276  -9.382   6.387  1.00  0.00    -0.014 A 
BRANCH  42  43
ATOM     43  C   UNL     1      -0.455  -9.822   7.603  1.00  0.00     0.031 A 
ATOM     44  C   UNL     1       0.151 -10.952   8.398  1.00  0.00     0.074 A 
ATOM     45  C   UNL     1      -1.572  -9.217   8.044  1.00  0.00     0.049 A 
ATOM     46  N   UNL     1      -0.277 -11.531   9.490  1.00  0.00    -0.248 NA
ATOM     47  C   UNL     1       1.420 -11.500   7.885  1.00  0.00     0.031 C 
ATOM     48  C   UNL     1      -2.227  -8.071   7.419  1.00  0.00     0.029 A 
ATOM     49  N   UNL     1      -2.352  -9.496   9.141  1.00  0.00    -0.354 N 
ATOM     50  C   UNL     1       0.661 -12.513   9.784  1.00  0.00     0.074 A 
ATOM     51  C   UNL     1       1.662 -12.476   8.743  1.00  0.00     0.031 C 
ATOM     52  C   UNL     1      -3.318  -7.749   8.139  1.00  0.00     0.029 A 
ATOM     53  C   UNL     1      -3.453  -8.683   9.257  1.00  0.00     0.049 A 
ATOM     54  H   UNL     1      -2.141 -10.211   9.783  1.00  0.00     0.167 HD
ATOM     55  C   UNL     1       0.698 -13.370  10.831  1.00  0.00     0.031 A 
ATOM     56  C   UNL     1      -4.459  -8.704  10.155  1.00  0.00     0.031 A 
ATOM     57  C   UNL     1      -0.301 -13.427  11.861  1.00  0.00     0.049 A 
ATOM     58  C   UNL     1      -4.445  -9.728  11.264  1.00  0.00     0.074 A 
ATOM     59  C   UNL     1      -0.357 -14.263  12.962  1.00  0.00     0.029 A 
ATOM     60  N   UNL     1      -1.425 -12.619  11.912  1.00  0.00    -0.354 N 
ATOM     61  N   UNL     1      -3.548 -10.644  11.539  1.00  0.00    -0.248 NA
ATOM     62  C   UNL     1      -5.583  -9.706  12.197  1.00  0.00     0.031 C 
ATOM     63  C   UNL     1      -1.546 -14.000  13.649  1.00  0.00     0.029 A 
ATOM     64  C   UNL     1      -2.194 -12.951  13.015  1.00  0.00     0.049 A 
ATOM     65  H   UNL     1      -1.645 -11.913  11.262  1.00  0.00     0.167 HD
ATOM     66  C   UNL     1      -3.992 -11.278  12.695  1.00  0.00     0.074 A 
ATOM     67  C   UNL     1      -5.231 -10.634  13.076  1.00  0.00     0.031 C 
ATOM     68  C   UNL     1      -3.423 -12.298  13.385  1.00  0.00     0.031 A 
BRANCH  55  69
ATOM     69  C   UNL     1       1.839 -14.347  10.878  1.00  0.00    -0.014 A 
ATOM     70  C   UNL     1       3.153 -13.928  11.146  1.00  0.00     0.009 A 
ATOM     71  C   UNL     1       1.593 -15.711  10.656  1.00  0.00     0.009 A 
ATOM     72  C   UNL     1       4.201 -14.851  11.153  1.00  0.00     0.001 A 
ATOM     73  C   UNL     1       2.637 -16.635  10.697  1.00  0.00     0.001 A 
ATOM     74  C   UNL     1       3.941 -16.204  10.934  1.00  0.00     0.000 A 
ENDBRANCH  55  69
BRANCH  56  75
ATOM     75  C   UNL     1      -5.586  -7.739  10.044  1.00  0.00    -0.014 A 
ATOM     76  C   UNL     1      -5.780  -6.744  11.016  1.00  0.00     0.009 A 
ATOM     77  C   UNL     1      -6.505  -7.838   8.988  1.00  0.00     0.009 A 
ATOM     78  C   UNL     1      -6.886  -5.891  10.947  1.00  0.00     0.001 A 
ATOM     79  C   UNL     1      -7.592  -6.965   8.904  1.00  0.00     0.001 A 
ATOM     80  C   UNL     1      -7.788  -5.999   9.890  1.00  0.00     0.000 A 
ENDBRANCH  56  75
BRANCH  68  81
ATOM     81  C   UNL     1      -4.100 -12.743  14.653  1.00  0.00    -0.014 A 
ATOM     82  C   UNL     1      -5.329 -13.420  14.637  1.00  0.00     0.009 A 
ATOM     83  C   UNL     1      -3.473 -12.505  15.888  1.00  0.00     0.009 A 
ATOM     84  C   UNL     1      -5.938 -13.808  15.834  1.00  0.00     0.001 A 
ATOM     85  C   UNL     1      -4.066 -12.925  17.079  1.00  0.00     0.001 A 
ATOM     86  C   UNL     1      -5.304 -13.564  17.052  1.00  0.00     0.000 A 
ENDBRANCH  68  81
ENDBRANCH  42  43
ENDBRANCH  35  37
ENDBRANCH  34  35
ENDBRANCH  33  34
ENDBRANCH  32  33
ENDBRANCH  31  32
ENDBRANCH  30  31
ENDBRANCH   1  30
TORSDOF 22
