REMARK SMILES CS(=O)(=O)c1ccc(N2N=C(C(=O)OCCOCCOCCOC(=O)c3ccc(-c4c5nc(c(-c6ccccc6)c6ccc([nH]6)c(-c6ccccc6)c6nc(c(-c7ccccc7)c7ccc4[nH]7)C=C6)C=C5)cc3)C[C@H]2c2ccco2)cc1
REMARK SMILES IDX 18 1 17 2 16 3 15 4 14 5 12 6 13 7 11 8 9 9 10 10 75 11
REMARK SMILES IDX 74 12 8 13 5 14 6 15 82 16 7 17 81 18 2 19 1 20 3 21 4 22
REMARK SMILES IDX 76 23 77 24 80 25 78 26 79 27 19 28 20 29 21 30 22 31 23 32
REMARK SMILES IDX 24 33 25 34 26 35 27 36 73 37 28 38 72 39 29 40 30 41 31 42
REMARK SMILES IDX 66 43 32 44 71 45 65 46 67 47 33 48 70 49 64 50 63 51 34 53
REMARK SMILES IDX 56 54 41 55 55 56 42 57 45 58 54 59 68 60 43 61 44 62 53 64
REMARK SMILES IDX 69 65 46 66 35 67 36 68 40 69 37 70 39 71 38 72 57 73 58 74
REMARK SMILES IDX 62 75 59 76 61 77 60 78 47 79 48 80 52 81 49 82 51 83 50 84
REMARK H PARENT 67 52 45 63
REMARK Flexibility Score: inf
ROOT
ATOM      1  C   UNL     1       4.357  -3.800   8.515  1.00  0.00     0.188 C 
ENDROOT
BRANCH   1   2
ATOM      2  O   UNL     1       5.469  -4.233   9.289  1.00  0.00    -0.376 OA
BRANCH   2   3
ATOM      3  C   UNL     1       5.675  -3.702  10.594  1.00  0.00     0.202 C 
BRANCH   3   4
ATOM      4  C   UNL     1       5.577  -2.186  10.841  1.00  0.00     0.261 C 
BRANCH   4   5
ATOM      5  O   UNL     1       4.414  -1.571  10.268  1.00  0.00    -0.459 OA
BRANCH   5   6
ATOM      6  C   UNL     1       4.648  -0.549   9.417  1.00  0.00     0.354 C 
ATOM      7  O   UNL     1       5.700   0.010   9.189  1.00  0.00    -0.245 OA
BRANCH   6   8
ATOM      8  C   UNL     1       3.390  -0.261   8.632  1.00  0.00     0.148 C 
ATOM      9  N   UNL     1       2.075   0.044   6.998  1.00  0.00    -0.254 N 
ATOM     10  N   UNL     1       3.350  -0.309   7.332  1.00  0.00    -0.169 NA
ATOM     11  C   UNL     1       1.331   0.616   8.142  1.00  0.00     0.180 C 
ATOM     12  C   UNL     1       2.089  -0.010   9.325  1.00  0.00     0.101 C 
BRANCH   9  13
ATOM     13  C   UNL     1       1.762   0.277   5.665  1.00  0.00     0.060 A 
ATOM     14  C   UNL     1       0.970   0.746   3.001  1.00  0.00     0.067 A 
ATOM     15  C   UNL     1       0.848  -0.534   3.544  1.00  0.00     0.022 A 
ATOM     16  C   UNL     1       1.526   1.779   3.756  1.00  0.00     0.022 A 
ATOM     17  C   UNL     1       1.250  -0.760   4.869  1.00  0.00     0.029 A 
ATOM     18  C   UNL     1       1.933   1.533   5.071  1.00  0.00     0.029 A 
BRANCH  14  19
ATOM     19  S   UNL     1       0.348   1.096   1.372  1.00  0.00     0.175 S 
ATOM     20  C   UNL     1       1.073  -0.116   0.304  1.00  0.00     0.163 C 
ATOM     21  O   UNL     1       0.877   2.388   0.973  1.00  0.00    -0.224 OA
ATOM     22  O   UNL     1      -1.083   0.864   1.421  1.00  0.00    -0.224 OA
ENDBRANCH  14  19
ENDBRANCH   9  13
BRANCH  11  23
ATOM     23  C   UNL     1       1.272   2.114   8.266  1.00  0.00     0.128 A 
ATOM     24  C   UNL     1       0.505   3.083   7.646  1.00  0.00     0.048 A 
ATOM     25  O   UNL     1       2.100   2.708   9.178  1.00  0.00    -0.467 OA
ATOM     26  C   UNL     1       0.903   4.327   8.195  1.00  0.00     0.042 A 
ATOM     27  C   UNL     1       1.863   4.041   9.136  1.00  0.00     0.195 A 
ENDBRANCH  11  23
ENDBRANCH   6   8
ENDBRANCH   5   6
ENDBRANCH   4   5
ENDBRANCH   3   4
ENDBRANCH   2   3
ENDBRANCH   1   2
BRANCH   1  28
ATOM     28  C   UNL     1       2.947  -3.791   9.143  1.00  0.00     0.188 C 
BRANCH  28  29
ATOM     29  O   UNL     1       2.919  -4.072  10.521  1.00  0.00    -0.376 OA
BRANCH  29  30
ATOM     30  C   UNL     1       2.577  -5.380  10.953  1.00  0.00     0.202 C 
BRANCH  30  31
ATOM     31  C   UNL     1       2.853  -6.669  10.147  1.00  0.00     0.261 C 
BRANCH  31  32
ATOM     32  O   UNL     1       3.123  -6.555   8.746  1.00  0.00    -0.460 OA
BRANCH  32  33
ATOM     33  C   UNL     1       2.059  -6.661   7.909  1.00  0.00     0.338 C 
ATOM     34  O   UNL     1       0.896  -6.790   8.208  1.00  0.00    -0.246 OA
BRANCH  33  35
ATOM     35  C   UNL     1       2.543  -6.399   6.535  1.00  0.00     0.060 A 
ATOM     36  C   UNL     1       2.148  -5.218   5.891  1.00  0.00     0.016 A 
ATOM     37  C   UNL     1       3.368  -7.319   5.887  1.00  0.00     0.016 A 
ATOM     38  C   UNL     1       2.567  -4.962   4.585  1.00  0.00     0.010 A 
ATOM     39  C   UNL     1       3.767  -7.072   4.570  1.00  0.00     0.010 A 
ATOM     40  C   UNL     1       3.346  -5.906   3.904  1.00  0.00    -0.014 A 
BRANCH  40  41
ATOM     41  C   UNL     1       3.584  -5.758   2.448  1.00  0.00     0.031 A 
ATOM     42  C   UNL     1       2.731  -6.549   1.495  1.00  0.00     0.074 A 
ATOM     43  C   UNL     1       4.532  -4.930   1.974  1.00  0.00     0.049 A 
ATOM     44  N   UNL     1       2.794  -6.627   0.191  1.00  0.00    -0.248 NA
ATOM     45  C   UNL     1       1.660  -7.361   2.097  1.00  0.00     0.031 C 
ATOM     46  C   UNL     1       5.390  -4.069   2.786  1.00  0.00     0.029 A 
ATOM     47  N   UNL     1       4.937  -4.692   0.684  1.00  0.00    -0.354 N 
ATOM     48  C   UNL     1       1.785  -7.506  -0.182  1.00  0.00     0.074 A 
ATOM     49  C   UNL     1       1.140  -7.953   1.033  1.00  0.00     0.031 C 
ATOM     50  C   UNL     1       6.233  -3.407   1.974  1.00  0.00     0.029 A 
ATOM     51  C   UNL     1       5.999  -3.826   0.594  1.00  0.00     0.049 A 
ATOM     52  H   UNL     1       4.507  -5.102  -0.101  1.00  0.00     0.167 HD
ATOM     53  C   UNL     1       1.426  -7.905  -1.425  1.00  0.00     0.031 A 
ATOM     54  C   UNL     1       6.719  -3.440  -0.478  1.00  0.00     0.031 A 
ATOM     55  C   UNL     1       2.081  -7.479  -2.632  1.00  0.00     0.049 A 
ATOM     56  C   UNL     1       6.359  -3.971  -1.842  1.00  0.00     0.074 A 
ATOM     57  C   UNL     1       1.780  -7.816  -3.941  1.00  0.00     0.029 A 
ATOM     58  N   UNL     1       3.179  -6.635  -2.678  1.00  0.00    -0.354 N 
ATOM     59  N   UNL     1       5.383  -4.775  -2.187  1.00  0.00    -0.248 NA
ATOM     60  C   UNL     1       7.199  -3.531  -2.966  1.00  0.00     0.031 C 
ATOM     61  C   UNL     1       2.736  -7.226  -4.774  1.00  0.00     0.029 A 
ATOM     62  C   UNL     1       3.587  -6.463  -3.990  1.00  0.00     0.049 A 
ATOM     63  H   UNL     1       3.606  -6.220  -1.894  1.00  0.00     0.167 HD
ATOM     64  C   UNL     1       5.472  -4.911  -3.568  1.00  0.00     0.074 A 
ATOM     65  C   UNL     1       6.587  -4.093  -3.998  1.00  0.00     0.031 C 
ATOM     66  C   UNL     1       4.697  -5.644  -4.406  1.00  0.00     0.031 A 
BRANCH  53  67
ATOM     67  C   UNL     1       0.294  -8.889  -1.535  1.00  0.00    -0.014 A 
ATOM     68  C   UNL     1      -1.030  -8.519  -1.251  1.00  0.00     0.009 A 
ATOM     69  C   UNL     1       0.555 -10.202  -1.960  1.00  0.00     0.009 A 
ATOM     70  C   UNL     1      -2.063  -9.453  -1.355  1.00  0.00     0.001 A 
ATOM     71  C   UNL     1      -0.484 -11.124  -2.093  1.00  0.00     0.001 A 
ATOM     72  C   UNL     1      -1.790 -10.752  -1.782  1.00  0.00     0.000 A 
ENDBRANCH  53  67
BRANCH  54  73
ATOM     73  C   UNL     1       7.875  -2.518  -0.311  1.00  0.00    -0.014 A 
ATOM     74  C   UNL     1       7.835  -1.216  -0.834  1.00  0.00     0.009 A 
ATOM     75  C   UNL     1       9.038  -2.947   0.348  1.00  0.00     0.009 A 
ATOM     76  C   UNL     1       8.945  -0.375  -0.724  1.00  0.00     0.001 A 
ATOM     77  C   UNL     1      10.134  -2.093   0.484  1.00  0.00     0.001 A 
ATOM     78  C   UNL     1      10.091  -0.812  -0.061  1.00  0.00     0.000 A 
ENDBRANCH  54  73
BRANCH  66  79
ATOM     79  C   UNL     1       4.993  -5.559  -5.879  1.00  0.00    -0.014 A 
ATOM     80  C   UNL     1       6.145  -6.139  -6.433  1.00  0.00     0.009 A 
ATOM     81  C   UNL     1       4.076  -4.924  -6.733  1.00  0.00     0.009 A 
ATOM     82  C   UNL     1       6.389  -6.052  -7.806  1.00  0.00     0.001 A 
ATOM     83  C   UNL     1       4.306  -4.869  -8.108  1.00  0.00     0.001 A 
ATOM     84  C   UNL     1       5.467  -5.423  -8.642  1.00  0.00     0.000 A 
ENDBRANCH  66  79
ENDBRANCH  40  41
ENDBRANCH  33  35
ENDBRANCH  32  33
ENDBRANCH  31  32
ENDBRANCH  30  31
ENDBRANCH  29  30
ENDBRANCH  28  29
ENDBRANCH   1  28
TORSDOF 20
