REMARK SMILES O=C(OCCOCCOCCOC(=O)c1cccc2c(C(F)(F)F)cc(Br)nc12)c1ccc(-c2c3nc(c(-c4ccccc4)c4ccc([nH]4)c(-c4ccccc4)c4nc(c(-c5ccccc5)c5ccc2[nH]5)C=C4)C=C3)cc1
REMARK SMILES IDX 7 1 6 2 5 3 4 4 3 5 2 6 1 7 30 8 31 9 77 10 32 11 76 12
REMARK SMILES IDX 33 13 34 14 35 15 70 16 36 17 75 18 69 19 71 20 37 21 74 22
REMARK SMILES IDX 68 23 67 24 38 26 60 27 45 28 59 29 46 30 49 31 58 32 72 33
REMARK SMILES IDX 47 34 48 35 57 37 73 38 50 39 39 40 40 41 44 42 41 43 43 44
REMARK SMILES IDX 42 45 61 46 62 47 66 48 63 49 65 50 64 51 51 52 52 53 56 54
REMARK SMILES IDX 53 55 55 56 54 57 8 58 9 59 10 60 11 61 12 62 13 63 14 64
REMARK SMILES IDX 15 65 16 66 29 67 17 68 19 69 28 70 18 71 20 72 26 73 25 74
REMARK SMILES IDX 27 75 21 76 22 77 23 78 24 79
REMARK H PARENT 71 25 49 36
REMARK Flexibility Score: inf
ROOT
ATOM      1  C   UNL     1       2.517  -0.607   1.354  1.00  0.00     0.188 C 
ENDROOT
BRANCH   1   2
ATOM      2  O   UNL     1       3.860  -0.838   0.921  1.00  0.00    -0.376 OA
BRANCH   2   3
ATOM      3  C   UNL     1       4.764   0.158   1.382  1.00  0.00     0.202 C 
BRANCH   3   4
ATOM      4  C   UNL     1       4.780   1.441   0.537  1.00  0.00     0.261 C 
BRANCH   4   5
ATOM      5  O   UNL     1       3.543   1.791  -0.113  1.00  0.00    -0.460 OA
BRANCH   5   6
ATOM      6  C   UNL     1       2.996   1.352  -1.271  1.00  0.00     0.338 C 
ATOM      7  O   UNL     1       2.041   1.980  -1.730  1.00  0.00    -0.246 OA
BRANCH   6   8
ATOM      8  C   UNL     1       3.409   0.110  -2.003  1.00  0.00     0.060 A 
ATOM      9  C   UNL     1       2.479  -0.422  -2.923  1.00  0.00     0.016 A 
ATOM     10  C   UNL     1       4.641  -0.532  -1.888  1.00  0.00     0.016 A 
ATOM     11  C   UNL     1       2.776  -1.547  -3.703  1.00  0.00     0.010 A 
ATOM     12  C   UNL     1       4.935  -1.672  -2.639  1.00  0.00     0.010 A 
ATOM     13  C   UNL     1       4.020  -2.167  -3.573  1.00  0.00    -0.014 A 
BRANCH  13  14
ATOM     14  C   UNL     1       4.510  -3.146  -4.565  1.00  0.00     0.031 A 
ATOM     15  C   UNL     1       4.570  -4.611  -4.292  1.00  0.00     0.074 A 
ATOM     16  C   UNL     1       5.091  -2.646  -5.670  1.00  0.00     0.049 A 
ATOM     17  N   UNL     1       4.963  -5.571  -5.090  1.00  0.00    -0.248 NA
ATOM     18  C   UNL     1       4.155  -5.062  -2.958  1.00  0.00     0.031 C 
ATOM     19  C   UNL     1       5.178  -1.221  -5.996  1.00  0.00     0.029 A 
ATOM     20  N   UNL     1       5.780  -3.267  -6.677  1.00  0.00    -0.354 N 
ATOM     21  C   UNL     1       4.773  -6.747  -4.384  1.00  0.00     0.074 A 
ATOM     22  C   UNL     1       4.318  -6.376  -3.064  1.00  0.00     0.031 C 
ATOM     23  C   UNL     1       5.936  -1.072  -7.090  1.00  0.00     0.029 A 
ATOM     24  C   UNL     1       6.382  -2.388  -7.539  1.00  0.00     0.049 A 
ATOM     25  H   UNL     1       5.836  -4.245  -6.772  1.00  0.00     0.167 HD
ATOM     26  C   UNL     1       4.952  -8.019  -4.809  1.00  0.00     0.031 A 
ATOM     27  C   UNL     1       7.223  -2.606  -8.565  1.00  0.00     0.031 A 
ATOM     28  C   UNL     1       5.552  -8.364  -6.069  1.00  0.00     0.049 A 
ATOM     29  C   UNL     1       7.556  -4.013  -8.952  1.00  0.00     0.074 A 
ATOM     30  C   UNL     1       5.726  -9.617  -6.628  1.00  0.00     0.029 A 
ATOM     31  N   UNL     1       6.151  -7.453  -6.925  1.00  0.00    -0.354 N 
ATOM     32  N   UNL     1       7.153  -5.130  -8.396  1.00  0.00    -0.248 NA
ATOM     33  C   UNL     1       8.434  -4.198 -10.114  1.00  0.00     0.031 C 
ATOM     34  C   UNL     1       6.523  -9.472  -7.769  1.00  0.00     0.029 A 
ATOM     35  C   UNL     1       6.781  -8.122  -7.958  1.00  0.00     0.049 A 
ATOM     36  H   UNL     1       6.131  -6.475  -6.813  1.00  0.00     0.167 HD
ATOM     37  C   UNL     1       7.706  -6.153  -9.152  1.00  0.00     0.074 A 
ATOM     38  C   UNL     1       8.477  -5.523 -10.206  1.00  0.00     0.031 C 
ATOM     39  C   UNL     1       7.571  -7.492  -8.987  1.00  0.00     0.031 A 
BRANCH  26  40
ATOM     40  C   UNL     1       4.502  -9.135  -3.912  1.00  0.00    -0.014 A 
ATOM     41  C   UNL     1       5.440  -9.966  -3.283  1.00  0.00     0.009 A 
ATOM     42  C   UNL     1       3.135  -9.431  -3.780  1.00  0.00     0.009 A 
ATOM     43  C   UNL     1       5.020 -11.068  -2.535  1.00  0.00     0.001 A 
ATOM     44  C   UNL     1       2.717 -10.526  -3.021  1.00  0.00     0.001 A 
ATOM     45  C   UNL     1       3.660 -11.345  -2.401  1.00  0.00     0.000 A 
ENDBRANCH  26  40
BRANCH  27  46
ATOM     46  C   UNL     1       7.748  -1.425  -9.290  1.00  0.00    -0.014 A 
ATOM     47  C   UNL     1       8.715  -0.599  -8.692  1.00  0.00     0.009 A 
ATOM     48  C   UNL     1       7.153  -1.020 -10.492  1.00  0.00     0.009 A 
ATOM     49  C   UNL     1       9.046   0.631  -9.265  1.00  0.00     0.001 A 
ATOM     50  C   UNL     1       7.500   0.202 -11.072  1.00  0.00     0.001 A 
ATOM     51  C   UNL     1       8.433   1.032 -10.451  1.00  0.00     0.000 A 
ENDBRANCH  27  46
BRANCH  39  52
ATOM     52  C   UNL     1       8.287  -8.398  -9.945  1.00  0.00    -0.014 A 
ATOM     53  C   UNL     1       7.553  -9.157 -10.870  1.00  0.00     0.009 A 
ATOM     54  C   UNL     1       9.670  -8.604  -9.835  1.00  0.00     0.009 A 
ATOM     55  C   UNL     1       8.185 -10.131 -11.644  1.00  0.00     0.001 A 
ATOM     56  C   UNL     1      10.304  -9.560 -10.631  1.00  0.00     0.001 A 
ATOM     57  C   UNL     1       9.559 -10.332 -11.523  1.00  0.00     0.000 A 
ENDBRANCH  39  52
ENDBRANCH  13  14
ENDBRANCH   6   8
ENDBRANCH   5   6
ENDBRANCH   4   5
ENDBRANCH   3   4
ENDBRANCH   2   3
ENDBRANCH   1   2
BRANCH   1  58
ATOM     58  C   UNL     1       2.136  -1.308   2.655  1.00  0.00     0.188 C 
BRANCH  58  59
ATOM     59  O   UNL     1       3.254  -1.458   3.526  1.00  0.00    -0.376 OA
BRANCH  59  60
ATOM     60  C   UNL     1       3.568  -2.827   3.794  1.00  0.00     0.202 C 
BRANCH  60  61
ATOM     61  C   UNL     1       4.200  -3.569   2.605  1.00  0.00     0.261 C 
BRANCH  61  62
ATOM     62  O   UNL     1       3.316  -3.854   1.498  1.00  0.00    -0.460 OA
BRANCH  62  63
ATOM     63  C   UNL     1       2.332  -4.748   1.740  1.00  0.00     0.340 C 
ATOM     64  O   UNL     1       2.048  -5.242   2.824  1.00  0.00    -0.246 OA
BRANCH  63  65
ATOM     65  C   UNL     1       1.836  -5.299   0.472  1.00  0.00     0.086 A 
ATOM     66  C   UNL     1       2.170  -6.646   0.262  1.00  0.00     0.018 A 
ATOM     67  C   UNL     1       1.063  -4.559  -0.436  1.00  0.00     0.087 A 
ATOM     68  C   UNL     1       1.748  -7.287  -0.885  1.00  0.00     0.002 A 
ATOM     69  C   UNL     1       0.678  -5.214  -1.637  1.00  0.00     0.013 A 
ATOM     70  N   UNL     1       0.669  -3.288  -0.182  1.00  0.00    -0.240 NA
ATOM     71  C   UNL     1       1.027  -6.572  -1.834  1.00  0.00     0.011 A 
ATOM     72  C   UNL     1      -0.062  -4.482  -2.600  1.00  0.00     0.068 A 
ATOM     73  C   UNL     1      -0.085  -2.635  -1.093  1.00  0.00     0.107 A 
ATOM     74  C   UNL     1      -0.447  -3.171  -2.309  1.00  0.00     0.049 A 
ATOM     75  Br  UNL     1      -0.740  -0.906  -0.661  1.00  0.00    -0.029 Br
BRANCH  72  76
ATOM     76  C   UNL     1      -0.465  -5.076  -3.928  1.00  0.00     0.417 C 
ATOM     77  F   UNL     1       0.605  -5.473  -4.668  1.00  0.00    -0.166 F 
ATOM     78  F   UNL     1      -1.263  -6.170  -3.793  1.00  0.00    -0.166 F 
ATOM     79  F   UNL     1      -1.159  -4.211  -4.720  1.00  0.00    -0.166 F 
ENDBRANCH  72  76
ENDBRANCH  63  65
ENDBRANCH  62  63
ENDBRANCH  61  62
ENDBRANCH  60  61
ENDBRANCH  59  60
ENDBRANCH  58  59
ENDBRANCH   1  58
TORSDOF 18
