REMARK SMILES O=C(OCCOCCOCCOC(=O)[C@@]1(Cl)C=CC=C(c2ccccc2)[C@H]1Cl)c1ccc(-c2c3nc(c(-c4ccccc4)c4ccc([nH]4)c(-c4ccccc4)c4nc(c(-c5ccccc5)c5ccc2[nH]5)C=C4)C=C3)cc1
REMARK SMILES IDX 7 1 6 2 5 3 4 4 3 5 2 6 1 7 29 8 30 9 76 10 31 11 75 12
REMARK SMILES IDX 32 13 33 14 34 15 69 16 35 17 74 18 68 19 70 20 36 21 73 22
REMARK SMILES IDX 67 23 66 24 37 26 59 27 44 28 58 29 45 30 48 31 57 32 71 33
REMARK SMILES IDX 46 34 47 35 56 37 72 38 49 39 38 40 39 41 43 42 40 43 42 44
REMARK SMILES IDX 41 45 60 46 61 47 65 48 62 49 64 50 63 51 50 52 51 53 55 54
REMARK SMILES IDX 52 55 54 56 53 57 8 58 9 59 10 60 11 61 12 62 13 63 14 64
REMARK SMILES IDX 15 65 16 66 17 67 27 68 18 69 20 70 28 71 19 72 21 73 22 74
REMARK SMILES IDX 26 75 23 76 25 77 24 78
REMARK H PARENT 70 25 48 36
REMARK Flexibility Score: inf
ROOT
ATOM      1  C   UNL     1       2.563  -1.643   1.023  1.00  0.00     0.188 C 
ENDROOT
BRANCH   1   2
ATOM      2  O   UNL     1       3.865  -1.593   0.424  1.00  0.00    -0.376 OA
BRANCH   2   3
ATOM      3  C   UNL     1       4.838  -0.914   1.229  1.00  0.00     0.202 C 
BRANCH   3   4
ATOM      4  C   UNL     1       4.629   0.601   1.418  1.00  0.00     0.261 C 
BRANCH   4   5
ATOM      5  O   UNL     1       3.281   1.052   1.199  1.00  0.00    -0.460 OA
BRANCH   5   6
ATOM      6  C   UNL     1       2.667   1.419   0.049  1.00  0.00     0.338 C 
ATOM      7  O   UNL     1       1.492   1.779   0.104  1.00  0.00    -0.246 OA
BRANCH   6   8
ATOM      8  C   UNL     1       3.329   1.422  -1.291  1.00  0.00     0.060 A 
ATOM      9  C   UNL     1       4.464   0.689  -1.637  1.00  0.00     0.016 A 
ATOM     10  C   UNL     1       2.724   2.196  -2.295  1.00  0.00     0.016 A 
ATOM     11  C   UNL     1       5.064   0.812  -2.885  1.00  0.00     0.010 A 
ATOM     12  C   UNL     1       3.285   2.281  -3.573  1.00  0.00     0.010 A 
ATOM     13  C   UNL     1       4.492   1.627  -3.854  1.00  0.00    -0.014 A 
BRANCH  13  14
ATOM     14  C   UNL     1       5.226   1.901  -5.105  1.00  0.00     0.031 A 
ATOM     15  C   UNL     1       5.830   3.245  -5.300  1.00  0.00     0.074 A 
ATOM     16  C   UNL     1       5.417   0.953  -6.036  1.00  0.00     0.049 A 
ATOM     17  N   UNL     1       6.480   3.696  -6.335  1.00  0.00    -0.248 NA
ATOM     18  C   UNL     1       5.738   4.181  -4.170  1.00  0.00     0.031 C 
ATOM     19  C   UNL     1       5.060  -0.442  -5.865  1.00  0.00     0.029 A 
ATOM     20  N   UNL     1       5.924   1.012  -7.310  1.00  0.00    -0.354 N 
ATOM     21  C   UNL     1       6.899   4.962  -5.977  1.00  0.00     0.074 A 
ATOM     22  C   UNL     1       6.377   5.233  -4.654  1.00  0.00     0.031 C 
ATOM     23  C   UNL     1       5.243  -1.075  -7.030  1.00  0.00     0.029 A 
ATOM     24  C   UNL     1       5.731  -0.151  -8.015  1.00  0.00     0.049 A 
ATOM     25  H   UNL     1       6.378   1.804  -7.680  1.00  0.00     0.167 HD
ATOM     26  C   UNL     1       7.674   5.808  -6.690  1.00  0.00     0.031 A 
ATOM     27  C   UNL     1       5.899  -0.474  -9.308  1.00  0.00     0.031 A 
ATOM     28  C   UNL     1       8.136   5.530  -8.022  1.00  0.00     0.049 A 
ATOM     29  C   UNL     1       6.581   0.541 -10.153  1.00  0.00     0.074 A 
ATOM     30  C   UNL     1       8.887   6.333  -8.859  1.00  0.00     0.029 A 
ATOM     31  N   UNL     1       7.866   4.361  -8.725  1.00  0.00    -0.354 N 
ATOM     32  N   UNL     1       6.992   1.732  -9.798  1.00  0.00    -0.248 NA
ATOM     33  C   UNL     1       6.894   0.162 -11.532  1.00  0.00     0.031 C 
ATOM     34  C   UNL     1       9.006   5.682 -10.092  1.00  0.00     0.029 A 
ATOM     35  C   UNL     1       8.388   4.444 -10.005  1.00  0.00     0.049 A 
ATOM     36  H   UNL     1       7.375   3.587  -8.365  1.00  0.00     0.167 HD
ATOM     37  C   UNL     1       7.668   2.231 -10.891  1.00  0.00     0.074 A 
ATOM     38  C   UNL     1       7.612   1.206 -11.919  1.00  0.00     0.031 C 
ATOM     39  C   UNL     1       8.293   3.424 -11.019  1.00  0.00     0.031 A 
BRANCH  26  40
ATOM     40  C   UNL     1       7.958   7.128  -6.042  1.00  0.00    -0.014 A 
ATOM     41  C   UNL     1       8.786   7.229  -4.911  1.00  0.00     0.009 A 
ATOM     42  C   UNL     1       7.293   8.270  -6.507  1.00  0.00     0.009 A 
ATOM     43  C   UNL     1       8.892   8.440  -4.223  1.00  0.00     0.001 A 
ATOM     44  C   UNL     1       7.426   9.485  -5.835  1.00  0.00     0.001 A 
ATOM     45  C   UNL     1       8.210   9.565  -4.685  1.00  0.00     0.000 A 
ENDBRANCH  26  40
BRANCH  27  46
ATOM     46  C   UNL     1       5.443  -1.789  -9.846  1.00  0.00    -0.014 A 
ATOM     47  C   UNL     1       6.355  -2.749 -10.305  1.00  0.00     0.009 A 
ATOM     48  C   UNL     1       4.070  -2.093  -9.898  1.00  0.00     0.009 A 
ATOM     49  C   UNL     1       5.904  -3.954 -10.856  1.00  0.00     0.001 A 
ATOM     50  C   UNL     1       3.623  -3.315 -10.410  1.00  0.00     0.001 A 
ATOM     51  C   UNL     1       4.540  -4.237 -10.907  1.00  0.00     0.000 A 
ENDBRANCH  27  46
BRANCH  39  52
ATOM     52  C   UNL     1       8.970   3.660 -12.331  1.00  0.00    -0.014 A 
ATOM     53  C   UNL     1       8.225   3.861 -13.503  1.00  0.00     0.009 A 
ATOM     54  C   UNL     1      10.370   3.671 -12.390  1.00  0.00     0.009 A 
ATOM     55  C   UNL     1       8.876   4.032 -14.723  1.00  0.00     0.001 A 
ATOM     56  C   UNL     1      11.017   3.880 -13.606  1.00  0.00     0.001 A 
ATOM     57  C   UNL     1      10.270   4.049 -14.771  1.00  0.00     0.000 A 
ENDBRANCH  39  52
ENDBRANCH  13  14
ENDBRANCH   6   8
ENDBRANCH   5   6
ENDBRANCH   4   5
ENDBRANCH   3   4
ENDBRANCH   2   3
ENDBRANCH   1   2
BRANCH   1  58
ATOM     58  C   UNL     1       1.841  -2.975   0.840  1.00  0.00     0.188 C 
BRANCH  58  59
ATOM     59  O   UNL     1       2.407  -4.118   1.469  1.00  0.00    -0.376 OA
BRANCH  59  60
ATOM     60  C   UNL     1       3.793  -4.359   1.284  1.00  0.00     0.202 C 
BRANCH  60  61
ATOM     61  C   UNL     1       4.298  -4.699  -0.122  1.00  0.00     0.261 C 
BRANCH  61  62
ATOM     62  O   UNL     1       3.591  -4.095  -1.210  1.00  0.00    -0.462 OA
BRANCH  62  63
ATOM     63  C   UNL     1       2.579  -4.876  -1.716  1.00  0.00     0.333 C 
ATOM     64  O   UNL     1       2.155  -5.881  -1.168  1.00  0.00    -0.250 OA
BRANCH  63  65
ATOM     65  C   UNL     1       2.170  -4.405  -3.118  1.00  0.00     0.180 C 
ATOM     66  Cl  UNL     1       0.482  -5.076  -3.424  1.00  0.00    -0.100 Cl
ATOM     67  C   UNL     1       1.936  -2.906  -3.233  1.00  0.00     0.009 C 
ATOM     68  C   UNL     1       3.148  -5.023  -4.174  1.00  0.00     0.148 C 
ATOM     69  C   UNL     1       2.240  -2.230  -4.347  1.00  0.00    -0.002 C 
ATOM     70  C   UNL     1       3.536  -4.066  -5.288  1.00  0.00    -0.020 C 
ATOM     71  Cl  UNL     1       4.636  -5.803  -3.473  1.00  0.00    -0.115 Cl
ATOM     72  C   UNL     1       2.953  -2.863  -5.427  1.00  0.00     0.006 C 
BRANCH  70  73
ATOM     73  C   UNL     1       4.623  -4.486  -6.192  1.00  0.00    -0.021 A 
ATOM     74  C   UNL     1       5.943  -4.077  -5.907  1.00  0.00     0.008 A 
ATOM     75  C   UNL     1       4.396  -5.350  -7.258  1.00  0.00     0.008 A 
ATOM     76  C   UNL     1       7.015  -4.517  -6.681  1.00  0.00     0.001 A 
ATOM     77  C   UNL     1       5.477  -5.817  -8.010  1.00  0.00     0.001 A 
ATOM     78  C   UNL     1       6.780  -5.399  -7.729  1.00  0.00     0.000 A 
ENDBRANCH  70  73
ENDBRANCH  63  65
ENDBRANCH  62  63
ENDBRANCH  61  62
ENDBRANCH  60  61
ENDBRANCH  59  60
ENDBRANCH  58  59
ENDBRANCH   1  58
TORSDOF 18
