REMARK SMILES C[N@@H+]1CCN(C(=O)c2ccc3[nH]c4c(c3c2)CSCC4)C[C@H]1C(=O)OCCOCCOCCOC(=O)c1ccc(-c2c3nc(c(-c4ccccc4)c4ccc([nH]4)c(-c4ccccc4)c4nc(c(-c5ccccc5)c5ccc2[nH]5)C=C4)C=C3)cc1
REMARK SMILES IDX 29 1 28 2 27 3 26 4 25 5 23 6 24 7 22 8 1 9 2 10 3 11 4 13
REMARK SMILES IDX 21 14 5 15 6 16 7 17 8 18 9 19 16 20 10 21 15 22 11 23 14 24
REMARK SMILES IDX 12 25 13 26 17 27 20 29 18 30 19 31 30 32 31 33 32 34 33 35
REMARK SMILES IDX 34 36 35 37 36 38 37 39 38 40 84 41 39 42 83 43 40 44 41 45
REMARK SMILES IDX 42 46 77 47 43 48 82 49 76 50 78 51 44 52 81 53 75 54 74 55
REMARK SMILES IDX 45 57 67 58 52 59 66 60 53 61 56 62 65 63 79 64 54 65 55 66
REMARK SMILES IDX 64 68 80 69 57 70 46 71 47 72 51 73 48 74 50 75 49 76 68 77
REMARK SMILES IDX 69 78 73 79 70 80 72 81 71 82 58 83 59 84 63 85 60 86 62 87
REMARK SMILES IDX 61 88
REMARK H PARENT 2 12 12 28 78 56 56 67
REMARK Flexibility Score: inf
ROOT
ATOM      1  C   UNL     1       2.937  -4.268  -0.786  1.00  0.00     0.188 C 
ENDROOT
BRANCH   1   2
ATOM      2  O   UNL     1       2.696  -4.895  -2.012  1.00  0.00    -0.376 OA
BRANCH   2   3
ATOM      3  C   UNL     1       2.378  -4.068  -3.129  1.00  0.00     0.202 C 
BRANCH   3   4
ATOM      4  C   UNL     1       1.123  -3.136  -3.093  1.00  0.00     0.261 C 
BRANCH   4   5
ATOM      5  O   UNL     1       1.187  -1.666  -2.755  1.00  0.00    -0.459 OA
BRANCH   5   6
ATOM      6  C   UNL     1       0.876  -1.413  -1.465  1.00  0.00     0.366 C 
ATOM      7  O   UNL     1       0.883  -2.410  -0.739  1.00  0.00    -0.245 OA
BRANCH   6   8
ATOM      8  C   UNL     1       0.451  -0.046  -0.779  1.00  0.00     0.314 C 
ATOM      9  C   UNL     1       2.346   1.425  -1.279  1.00  0.00     0.333 C 
ATOM     10  N   UNL     1       0.901   1.345  -1.033  1.00  0.00    -0.323 N 
ATOM     11  C   UNL     1       0.515   2.192   0.240  1.00  0.00     0.284 C 
ATOM     12  H   UNL     1       0.448   1.703  -1.874  1.00  0.00     0.348 HD
ATOM     13  C   UNL     1      -0.800   1.835   1.281  1.00  0.00     0.181 C 
ATOM     14  C   UNL     1      -0.996   0.114  -0.261  1.00  0.00     0.197 C 
ATOM     15  N   UNL     1      -1.172   0.388   1.298  1.00  0.00    -0.326 N 
BRANCH  15  16
ATOM     16  C   UNL     1      -1.838  -0.402   2.695  1.00  0.00     0.254 C 
ATOM     17  O   UNL     1      -2.192   0.449   3.540  1.00  0.00    -0.269 OA
BRANCH  16  18
ATOM     18  C   UNL     1      -2.175  -2.240   3.246  1.00  0.00     0.040 A 
ATOM     19  C   UNL     1      -1.668  -3.567   2.928  1.00  0.00     0.016 A 
ATOM     20  C   UNL     1      -3.495  -2.512   3.038  1.00  0.00     0.024 A 
ATOM     21  C   UNL     1      -2.364  -4.752   2.257  1.00  0.00     0.027 A 
ATOM     22  C   UNL     1      -4.397  -3.581   2.246  1.00  0.00     0.004 A 
ATOM     23  C   UNL     1      -3.752  -4.763   2.022  1.00  0.00     0.046 A 
ATOM     24  C   UNL     1      -5.681  -3.721   1.407  1.00  0.00    -0.009 A 
ATOM     25  N   UNL     1      -4.746  -5.689   1.744  1.00  0.00    -0.358 N 
ATOM     26  C   UNL     1      -5.954  -5.073   1.464  1.00  0.00     0.021 A 
ATOM     27  C   UNL     1      -6.670  -2.773   0.716  1.00  0.00     0.107 C 
ATOM     28  H   UNL     1      -4.610  -6.664   1.746  1.00  0.00     0.166 HD
ATOM     29  C   UNL     1      -7.282  -5.753   1.191  1.00  0.00     0.065 C 
ATOM     30  S   UNL     1      -7.943  -3.566  -0.333  1.00  0.00    -0.157 SA
ATOM     31  C   UNL     1      -8.453  -4.791   0.887  1.00  0.00     0.076 C 
ENDBRANCH  16  18
ENDBRANCH  15  16
ENDBRANCH   6   8
ENDBRANCH   5   6
ENDBRANCH   4   5
ENDBRANCH   3   4
ENDBRANCH   2   3
ENDBRANCH   1   2
BRANCH   1  32
ATOM     32  C   UNL     1       3.743  -2.975  -0.769  1.00  0.00     0.188 C 
BRANCH  32  33
ATOM     33  O   UNL     1       4.139  -2.248  -1.903  1.00  0.00    -0.376 OA
BRANCH  33  34
ATOM     34  C   UNL     1       5.537  -2.173  -2.144  1.00  0.00     0.202 C 
BRANCH  34  35
ATOM     35  C   UNL     1       6.587  -1.942  -1.006  1.00  0.00     0.261 C 
BRANCH  35  36
ATOM     36  O   UNL     1       6.156  -2.165   0.357  1.00  0.00    -0.460 OA
BRANCH  36  37
ATOM     37  C   UNL     1       5.810  -1.086   1.095  1.00  0.00     0.338 C 
ATOM     38  O   UNL     1       6.255   0.051   0.931  1.00  0.00    -0.246 OA
BRANCH  37  39
ATOM     39  C   UNL     1       4.526  -1.367   1.827  1.00  0.00     0.060 A 
ATOM     40  C   UNL     1       4.008  -2.629   2.192  1.00  0.00     0.016 A 
ATOM     41  C   UNL     1       3.639  -0.319   1.785  1.00  0.00     0.016 A 
ATOM     42  C   UNL     1       2.589  -2.883   2.174  1.00  0.00     0.010 A 
ATOM     43  C   UNL     1       2.278  -0.606   1.754  1.00  0.00     0.010 A 
ATOM     44  C   UNL     1       1.687  -1.898   1.738  1.00  0.00    -0.014 A 
BRANCH  44  45
ATOM     45  C   UNL     1       0.100  -1.967   1.788  1.00  0.00     0.031 A 
ATOM     46  C   UNL     1       0.211  -1.525   3.574  1.00  0.00     0.074 A 
ATOM     47  C   UNL     1      -1.156  -2.146   0.798  1.00  0.00     0.049 A 
ATOM     48  N   UNL     1       0.106  -2.276   4.663  1.00  0.00    -0.248 NA
ATOM     49  C   UNL     1       0.595  -0.139   3.997  1.00  0.00     0.031 C 
ATOM     50  C   UNL     1      -1.864  -2.417  -0.636  1.00  0.00     0.029 A 
ATOM     51  N   UNL     1      -2.516  -1.924   1.156  1.00  0.00    -0.354 N 
ATOM     52  C   UNL     1       0.210  -1.444   5.811  1.00  0.00     0.074 A 
ATOM     53  C   UNL     1       0.694  -0.189   5.326  1.00  0.00     0.031 C 
ATOM     54  C   UNL     1      -3.217  -1.838  -0.705  1.00  0.00     0.029 A 
ATOM     55  C   UNL     1      -3.684  -1.338   0.664  1.00  0.00     0.049 A 
ATOM     56  H   UNL     1      -2.690  -2.311   2.044  1.00  0.00     0.167 HD
ATOM     57  C   UNL     1      -0.289  -1.704   7.067  1.00  0.00     0.031 A 
ATOM     58  C   UNL     1      -4.897  -0.870   1.485  1.00  0.00     0.031 A 
ATOM     59  C   UNL     1      -1.152  -2.844   7.086  1.00  0.00     0.049 A 
ATOM     60  C   UNL     1      -5.569  -1.306   3.244  1.00  0.00     0.074 A 
ATOM     61  C   UNL     1      -1.076  -4.155   7.469  1.00  0.00     0.029 A 
ATOM     62  N   UNL     1      -2.463  -2.551   6.770  1.00  0.00    -0.354 N 
ATOM     63  N   UNL     1      -5.843  -2.539   3.819  1.00  0.00    -0.248 NA
ATOM     64  C   UNL     1      -5.213  -0.431   4.419  1.00  0.00     0.031 C 
ATOM     65  C   UNL     1      -2.406  -4.660   7.329  1.00  0.00     0.029 A 
ATOM     66  C   UNL     1      -3.190  -3.696   6.640  1.00  0.00     0.049 A 
ATOM     67  H   UNL     1      -2.822  -1.642   6.655  1.00  0.00     0.167 HD
ATOM     68  C   UNL     1      -5.062  -2.726   5.080  1.00  0.00     0.074 A 
ATOM     69  C   UNL     1      -4.953  -1.288   5.449  1.00  0.00     0.031 C 
ATOM     70  C   UNL     1      -4.244  -3.853   5.573  1.00  0.00     0.031 A 
BRANCH  57  71
ATOM     71  C   UNL     1      -0.433  -0.845   8.349  1.00  0.00    -0.014 A 
ATOM     72  C   UNL     1      -0.402   0.551   8.412  1.00  0.00     0.009 A 
ATOM     73  C   UNL     1      -0.909  -1.491   9.531  1.00  0.00     0.009 A 
ATOM     74  C   UNL     1      -0.902   1.251   9.532  1.00  0.00     0.001 A 
ATOM     75  C   UNL     1      -1.447  -0.802  10.626  1.00  0.00     0.001 A 
ATOM     76  C   UNL     1      -1.461   0.580  10.617  1.00  0.00     0.000 A 
ENDBRANCH  57  71
BRANCH  58  77
ATOM     77  C   UNL     1      -5.533   0.455   1.106  1.00  0.00    -0.014 A 
ATOM     78  C   UNL     1      -4.715   1.518   0.700  1.00  0.00     0.009 A 
ATOM     79  C   UNL     1      -6.868   0.760   1.436  1.00  0.00     0.009 A 
ATOM     80  C   UNL     1      -5.181   2.838   0.687  1.00  0.00     0.001 A 
ATOM     81  C   UNL     1      -7.343   2.081   1.407  1.00  0.00     0.001 A 
ATOM     82  C   UNL     1      -6.491   3.123   1.056  1.00  0.00     0.000 A 
ENDBRANCH  58  77
BRANCH  70  83
ATOM     83  C   UNL     1      -3.897  -5.371   4.978  1.00  0.00    -0.014 A 
ATOM     84  C   UNL     1      -4.723  -6.489   4.901  1.00  0.00     0.009 A 
ATOM     85  C   UNL     1      -2.508  -5.734   4.737  1.00  0.00     0.009 A 
ATOM     86  C   UNL     1      -4.245  -7.750   4.387  1.00  0.00     0.001 A 
ATOM     87  C   UNL     1      -2.028  -6.954   4.196  1.00  0.00     0.001 A 
ATOM     88  C   UNL     1      -2.930  -7.955   3.950  1.00  0.00     0.000 A 
ENDBRANCH  70  83
ENDBRANCH  44  45
ENDBRANCH  37  39
ENDBRANCH  36  37
ENDBRANCH  35  36
ENDBRANCH  34  35
ENDBRANCH  33  34
ENDBRANCH  32  33
ENDBRANCH   1  32
TORSDOF 19
