REMARK SMILES CNC(=O)NC1=[NH+]N=CN[C@@H]1C(=O)OCCOCCOCCOC(=O)c1ccc(-c2c3nc(c(-c4ccccc4)c4ccc([nH]4)c(-c4ccccc4)c4nc(c(-c5ccccc5)c5ccc2[nH]5)C=C4)C=C3)cc1
REMARK SMILES IDX 19 1 18 2 17 3 16 4 15 5 14 6 12 7 13 8 11 9 1 10 2 11 3 12
REMARK SMILES IDX 4 14 5 15 6 16 7 18 8 19 10 21 9 22 20 24 21 25 22 26 23 27
REMARK SMILES IDX 24 28 25 29 26 30 27 31 73 32 28 33 72 34 29 35 30 36 31 37
REMARK SMILES IDX 66 38 32 39 71 40 65 41 67 42 33 43 70 44 64 45 63 46 34 48
REMARK SMILES IDX 56 49 41 50 55 51 42 52 45 53 54 54 68 55 43 56 44 57 53 59
REMARK SMILES IDX 69 60 46 61 35 62 36 63 40 64 37 65 39 66 38 67 57 68 58 69
REMARK SMILES IDX 62 70 59 71 61 72 60 73 47 74 48 75 52 76 49 77 51 78 50 79
REMARK H PARENT 2 13 5 17 7 20 10 23 67 47 45 58
REMARK Flexibility Score: inf
ROOT
ATOM      1  C   UNL     1      -1.976  -0.910   3.170  1.00  0.00     0.188 C 
ENDROOT
BRANCH   1   2
ATOM      2  C   UNL     1      -2.989  -0.180   2.283  1.00  0.00     0.188 C 
BRANCH   2   3
ATOM      3  O   UNL     1      -4.360  -0.485   2.415  1.00  0.00    -0.376 OA
BRANCH   3   4
ATOM      4  C   UNL     1      -4.791  -1.808   2.106  1.00  0.00     0.202 C 
BRANCH   4   5
ATOM      5  C   UNL     1      -4.166  -2.574   0.925  1.00  0.00     0.261 C 
BRANCH   5   6
ATOM      6  O   UNL     1      -2.728  -2.658   0.992  1.00  0.00    -0.461 OA
BRANCH   6   7
ATOM      7  C   UNL     1      -2.058  -2.422  -0.174  1.00  0.00     0.341 C 
ATOM      8  O   UNL     1      -2.618  -2.291  -1.257  1.00  0.00    -0.249 OA
BRANCH   7   9
ATOM      9  C   UNL     1      -0.565  -2.120   0.046  1.00  0.00     0.308 C 
ATOM     10  C   UNL     1       1.659   0.323  -0.429  1.00  0.00     0.147 C 
ATOM     11  N   UNL     1       0.546   0.574  -1.324  1.00  0.00    -0.321 N 
ATOM     12  C   UNL     1       0.022  -0.234  -2.283  1.00  0.00     0.406 C 
ATOM     13  H   UNL     1       0.109   1.451  -1.222  1.00  0.00     0.167 HD
ATOM     14  O   UNL     1      -0.671   0.253  -3.170  1.00  0.00    -0.221 OA
ATOM     15  N   UNL     1       0.315  -1.566  -2.246  1.00  0.00    -0.191 N 
ATOM     16  C   UNL     1       0.201  -2.474  -1.222  1.00  0.00     0.311 C 
ATOM     17  H   UNL     1       0.664  -1.935  -3.090  1.00  0.00     0.317 HD
ATOM     18  N   UNL     1       0.768  -3.627  -1.413  1.00  0.00    -0.148 N 
ATOM     19  N   UNL     1       0.845  -4.528  -0.325  1.00  0.00    -0.077 NA
ATOM     20  H   UNL     1       1.136  -3.868  -2.294  1.00  0.00     0.342 HD
ATOM     21  N   UNL     1       0.044  -2.860   1.147  1.00  0.00    -0.350 N 
ATOM     22  C   UNL     1       0.569  -4.076   0.854  1.00  0.00     0.241 C 
ATOM     23  H   UNL     1       0.072  -2.493   2.061  1.00  0.00     0.163 HD
ENDBRANCH   7   9
ENDBRANCH   6   7
ENDBRANCH   5   6
ENDBRANCH   4   5
ENDBRANCH   3   4
ENDBRANCH   2   3
ENDBRANCH   1   2
BRANCH   1  24
ATOM     24  O   UNL     1      -2.228  -2.217   3.621  1.00  0.00    -0.376 OA
BRANCH  24  25
ATOM     25  C   UNL     1      -2.837  -2.469   4.886  1.00  0.00     0.202 C 
BRANCH  25  26
ATOM     26  C   UNL     1      -3.189  -1.430   5.981  1.00  0.00     0.261 C 
BRANCH  26  27
ATOM     27  O   UNL     1      -2.836  -0.060   5.781  1.00  0.00    -0.460 OA
BRANCH  27  28
ATOM     28  C   UNL     1      -1.579   0.289   6.153  1.00  0.00     0.338 C 
ATOM     29  O   UNL     1      -0.738  -0.433   6.668  1.00  0.00    -0.246 OA
BRANCH  28  30
ATOM     30  C   UNL     1      -1.279   1.609   5.550  1.00  0.00     0.060 A 
ATOM     31  C   UNL     1      -0.209   1.701   4.643  1.00  0.00     0.016 A 
ATOM     32  C   UNL     1      -2.064   2.727   5.828  1.00  0.00     0.016 A 
ATOM     33  C   UNL     1       0.097   2.917   4.034  1.00  0.00     0.010 A 
ATOM     34  C   UNL     1      -1.733   3.954   5.246  1.00  0.00     0.010 A 
ATOM     35  C   UNL     1      -0.632   4.062   4.373  1.00  0.00    -0.014 A 
BRANCH  35  36
ATOM     36  C   UNL     1      -0.110   5.403   4.016  1.00  0.00     0.031 A 
ATOM     37  C   UNL     1       0.679   6.149   5.059  1.00  0.00     0.074 A 
ATOM     38  C   UNL     1      -0.318   5.956   2.808  1.00  0.00     0.049 A 
ATOM     39  N   UNL     1       1.150   7.368   5.032  1.00  0.00    -0.248 NA
ATOM     40  C   UNL     1       0.971   5.415   6.302  1.00  0.00     0.031 C 
ATOM     41  C   UNL     1      -1.006   5.321   1.687  1.00  0.00     0.029 A 
ATOM     42  N   UNL     1       0.026   7.199   2.335  1.00  0.00    -0.354 N 
ATOM     43  C   UNL     1       1.773   7.555   6.260  1.00  0.00     0.074 A 
ATOM     44  C   UNL     1       1.602   6.334   7.015  1.00  0.00     0.031 C 
ATOM     45  C   UNL     1      -1.050   6.188   0.659  1.00  0.00     0.029 A 
ATOM     46  C   UNL     1      -0.433   7.450   1.066  1.00  0.00     0.049 A 
ATOM     47  H   UNL     1       0.552   7.847   2.857  1.00  0.00     0.167 HD
ATOM     48  C   UNL     1       2.429   8.645   6.721  1.00  0.00     0.031 A 
ATOM     49  C   UNL     1      -0.390   8.581   0.333  1.00  0.00     0.031 A 
ATOM     50  C   UNL     1       2.586   9.868   5.981  1.00  0.00     0.049 A 
ATOM     51  C   UNL     1       0.258   9.817   0.906  1.00  0.00     0.074 A 
ATOM     52  C   UNL     1       3.241  11.025   6.361  1.00  0.00     0.029 A 
ATOM     53  N   UNL     1       2.071  10.095   4.715  1.00  0.00    -0.354 N 
ATOM     54  N   UNL     1       0.857   9.980   2.062  1.00  0.00    -0.248 NA
ATOM     55  C   UNL     1       0.239  11.025   0.067  1.00  0.00     0.031 C 
ATOM     56  C   UNL     1       3.067  11.976   5.351  1.00  0.00     0.029 A 
ATOM     57  C   UNL     1       2.368  11.385   4.311  1.00  0.00     0.049 A 
ATOM     58  H   UNL     1       1.568   9.437   4.182  1.00  0.00     0.167 HD
ATOM     59  C   UNL     1       1.315  11.294   2.071  1.00  0.00     0.074 A 
ATOM     60  C   UNL     1       0.937  11.879   0.802  1.00  0.00     0.031 C 
ATOM     61  C   UNL     1       1.991  11.956   3.043  1.00  0.00     0.031 A 
BRANCH  48  62
ATOM     62  C   UNL     1       2.985   8.577   8.116  1.00  0.00    -0.014 A 
ATOM     63  C   UNL     1       4.079   7.756   8.432  1.00  0.00     0.009 A 
ATOM     64  C   UNL     1       2.416   9.368   9.127  1.00  0.00     0.009 A 
ATOM     65  C   UNL     1       4.568   7.702   9.739  1.00  0.00     0.001 A 
ATOM     66  C   UNL     1       2.928   9.337  10.425  1.00  0.00     0.001 A 
ATOM     67  C   UNL     1       3.996   8.496  10.732  1.00  0.00     0.000 A 
ENDBRANCH  48  62
BRANCH  49  68
ATOM     68  C   UNL     1      -1.009   8.622  -1.020  1.00  0.00    -0.014 A 
ATOM     69  C   UNL     1      -0.215   8.780  -2.167  1.00  0.00     0.009 A 
ATOM     70  C   UNL     1      -2.403   8.542  -1.170  1.00  0.00     0.009 A 
ATOM     71  C   UNL     1      -0.804   8.887  -3.429  1.00  0.00     0.001 A 
ATOM     72  C   UNL     1      -2.987   8.615  -2.436  1.00  0.00     0.001 A 
ATOM     73  C   UNL     1      -2.189   8.799  -3.563  1.00  0.00     0.000 A 
ENDBRANCH  49  68
BRANCH  61  74
ATOM     74  C   UNL     1       2.417  13.371   2.757  1.00  0.00    -0.014 A 
ATOM     75  C   UNL     1       1.488  14.421   2.685  1.00  0.00     0.009 A 
ATOM     76  C   UNL     1       3.783  13.664   2.607  1.00  0.00     0.009 A 
ATOM     77  C   UNL     1       1.916  15.727   2.433  1.00  0.00     0.001 A 
ATOM     78  C   UNL     1       4.210  14.975   2.390  1.00  0.00     0.001 A 
ATOM     79  C   UNL     1       3.276  16.004   2.292  1.00  0.00     0.000 A 
ENDBRANCH  61  74
ENDBRANCH  35  36
ENDBRANCH  28  30
ENDBRANCH  27  28
ENDBRANCH  26  27
ENDBRANCH  25  26
ENDBRANCH  24  25
ENDBRANCH   1  24
TORSDOF 17
