REMARK SMILES C[C@H](NC(=O)N1CC[C@@H](C(=O)OCCOCCOCCOC(=O)c2ccc(-c3c4nc(c(-c5ccccc5)c5ccc([nH]5)c(-c5ccccc5)c5nc(c(-c6ccccc6)c6ccc3[nH]6)C=C5)C=C4)cc2)[C@H]1C)c1ccc(Cl)cc1
REMARK SMILES IDX 16 1 15 2 14 3 13 4 12 5 10 6 11 7 9 8 6 9 7 10 72 11 8 12
REMARK SMILES IDX 73 13 4 14 3 15 5 17 2 18 1 19 74 20 75 21 80 22 76 23 79 24
REMARK SMILES IDX 77 25 78 26 17 27 18 28 19 29 20 30 21 31 22 32 23 33 24 34
REMARK SMILES IDX 25 35 71 36 26 37 70 38 27 39 28 40 29 41 64 42 30 43 69 44
REMARK SMILES IDX 63 45 65 46 31 47 68 48 62 49 61 50 32 52 54 53 39 54 53 55
REMARK SMILES IDX 40 56 43 57 52 58 66 59 41 60 42 61 51 63 67 64 44 65 33 66
REMARK SMILES IDX 34 67 38 68 35 69 37 70 36 71 55 72 56 73 60 74 57 75 59 76
REMARK SMILES IDX 58 77 45 78 46 79 50 80 47 81 49 82 48 83
REMARK H PARENT 3 16 65 51 43 62
REMARK Flexibility Score: inf
ROOT
ATOM      1  C   UNL     1       4.213  -5.051  -4.021  1.00  0.00     0.188 C 
ENDROOT
BRANCH   1   2
ATOM      2  O   UNL     1       4.157  -6.460  -4.188  1.00  0.00    -0.376 OA
BRANCH   2   3
ATOM      3  C   UNL     1       3.468  -7.193  -3.176  1.00  0.00     0.202 C 
BRANCH   3   4
ATOM      4  C   UNL     1       4.052  -7.060  -1.768  1.00  0.00     0.261 C 
BRANCH   4   5
ATOM      5  O   UNL     1       3.807  -5.728  -1.284  1.00  0.00    -0.463 OA
BRANCH   5   6
ATOM      6  C   UNL     1       4.809  -5.054  -0.682  1.00  0.00     0.311 C 
ATOM      7  O   UNL     1       5.902  -5.542  -0.419  1.00  0.00    -0.252 OA
BRANCH   6   8
ATOM      8  C   UNL     1       4.492  -3.579  -0.469  1.00  0.00     0.123 C 
ATOM      9  N   UNL     1       3.143  -1.774   0.331  1.00  0.00    -0.321 N 
ATOM     10  C   UNL     1       4.402  -1.783   1.067  1.00  0.00     0.122 C 
ATOM     11  C   UNL     1       3.039  -3.012  -0.522  1.00  0.00     0.098 C 
ATOM     12  C   UNL     1       4.937  -3.188   0.939  1.00  0.00     0.039 C 
ATOM     13  C   UNL     1       2.030  -4.069  -0.046  1.00  0.00     0.032 C 
BRANCH   9  14
ATOM     14  C   UNL     1       2.547  -0.532   0.203  1.00  0.00     0.318 C 
ATOM     15  N   UNL     1       1.210  -0.407  -0.008  1.00  0.00    -0.331 N 
ATOM     16  H   UNL     1       0.884   0.470  -0.312  1.00  0.00     0.165 HD
ATOM     17  O   UNL     1       3.174   0.514   0.394  1.00  0.00    -0.249 OA
BRANCH  15  18
ATOM     18  C   UNL     1       0.232  -1.440   0.174  1.00  0.00     0.111 C 
ATOM     19  C   UNL     1       0.275  -1.985   1.616  1.00  0.00     0.036 C 
BRANCH  18  20
ATOM     20  C   UNL     1      -1.227  -1.178  -0.149  1.00  0.00    -0.026 A 
ATOM     21  C   UNL     1      -1.869   0.057  -0.047  1.00  0.00     0.007 A 
ATOM     22  C   UNL     1      -2.010  -2.329  -0.410  1.00  0.00     0.007 A 
ATOM     23  C   UNL     1      -3.265   0.126  -0.160  1.00  0.00     0.021 A 
ATOM     24  C   UNL     1      -3.395  -2.264  -0.500  1.00  0.00     0.021 A 
ATOM     25  C   UNL     1      -4.020  -1.033  -0.363  1.00  0.00     0.041 A 
ATOM     26  Cl  UNL     1      -5.737  -0.952  -0.408  1.00  0.00    -0.084 Cl
ENDBRANCH  18  20
ENDBRANCH  15  18
ENDBRANCH   9  14
ENDBRANCH   6   8
ENDBRANCH   5   6
ENDBRANCH   4   5
ENDBRANCH   3   4
ENDBRANCH   2   3
ENDBRANCH   1   2
BRANCH   1  27
ATOM     27  C   UNL     1       2.919  -4.294  -4.293  1.00  0.00     0.188 C 
BRANCH  27  28
ATOM     28  O   UNL     1       1.717  -4.616  -3.620  1.00  0.00    -0.376 OA
BRANCH  28  29
ATOM     29  C   UNL     1       0.640  -5.160  -4.394  1.00  0.00     0.202 C 
BRANCH  29  30
ATOM     30  C   UNL     1       0.231  -4.664  -5.815  1.00  0.00     0.261 C 
BRANCH  30  31
ATOM     31  O   UNL     1       1.196  -3.942  -6.588  1.00  0.00    -0.460 OA
BRANCH  31  32
ATOM     32  C   UNL     1       1.287  -2.616  -6.315  1.00  0.00     0.338 C 
ATOM     33  O   UNL     1       0.515  -1.964  -5.631  1.00  0.00    -0.246 OA
BRANCH  32  34
ATOM     34  C   UNL     1       2.626  -2.129  -6.749  1.00  0.00     0.060 A 
ATOM     35  C   UNL     1       3.337  -1.304  -5.864  1.00  0.00     0.016 A 
ATOM     36  C   UNL     1       3.223  -2.536  -7.947  1.00  0.00     0.016 A 
ATOM     37  C   UNL     1       4.627  -0.868  -6.177  1.00  0.00     0.010 A 
ATOM     38  C   UNL     1       4.506  -2.075  -8.274  1.00  0.00     0.010 A 
ATOM     39  C   UNL     1       5.204  -1.215  -7.404  1.00  0.00    -0.014 A 
BRANCH  39  40
ATOM     40  C   UNL     1       6.419  -0.503  -7.879  1.00  0.00     0.031 A 
ATOM     41  C   UNL     1       6.229   0.677  -8.796  1.00  0.00     0.074 A 
ATOM     42  C   UNL     1       7.661  -0.864  -7.509  1.00  0.00     0.049 A 
ATOM     43  N   UNL     1       7.123   1.419  -9.397  1.00  0.00    -0.248 NA
ATOM     44  C   UNL     1       4.836   1.069  -9.070  1.00  0.00     0.031 C 
ATOM     45  C   UNL     1       7.997  -1.942  -6.583  1.00  0.00     0.029 A 
ATOM     46  N   UNL     1       8.881  -0.351  -7.885  1.00  0.00    -0.354 N 
ATOM     47  C   UNL     1       6.402   2.355 -10.129  1.00  0.00     0.074 A 
ATOM     48  C   UNL     1       5.000   2.070  -9.920  1.00  0.00     0.031 C 
ATOM     49  C   UNL     1       9.336  -2.019  -6.472  1.00  0.00     0.029 A 
ATOM     50  C   UNL     1       9.953  -1.020  -7.346  1.00  0.00     0.049 A 
ATOM     51  H   UNL     1       8.977   0.424  -8.485  1.00  0.00     0.167 HD
ATOM     52  C   UNL     1       6.861   3.365 -10.904  1.00  0.00     0.031 A 
ATOM     53  C   UNL     1      11.276  -0.863  -7.554  1.00  0.00     0.031 A 
ATOM     54  C   UNL     1       8.251   3.647 -11.132  1.00  0.00     0.049 A 
ATOM     55  C   UNL     1      11.763   0.205  -8.504  1.00  0.00     0.074 A 
ATOM     56  C   UNL     1       8.810   4.657 -11.896  1.00  0.00     0.029 A 
ATOM     57  N   UNL     1       9.302   2.914 -10.605  1.00  0.00    -0.354 N 
ATOM     58  N   UNL     1      11.073   1.096  -9.174  1.00  0.00    -0.248 NA
ATOM     59  C   UNL     1      13.216   0.289  -8.721  1.00  0.00     0.031 C 
ATOM     60  C   UNL     1      10.199   4.494 -11.884  1.00  0.00     0.029 A 
ATOM     61  C   UNL     1      10.506   3.427 -11.056  1.00  0.00     0.049 A 
ATOM     62  H   UNL     1       9.206   2.142 -10.001  1.00  0.00     0.167 HD
ATOM     63  C   UNL     1      12.007   1.862  -9.864  1.00  0.00     0.074 A 
ATOM     64  C   UNL     1      13.313   1.343  -9.520  1.00  0.00     0.031 C 
ATOM     65  C   UNL     1      11.802   2.905 -10.706  1.00  0.00     0.031 A 
BRANCH  52  66
ATOM     66  C   UNL     1       5.837   4.217 -11.601  1.00  0.00    -0.014 A 
ATOM     67  C   UNL     1       5.024   5.114 -10.890  1.00  0.00     0.009 A 
ATOM     68  C   UNL     1       5.702   4.136 -12.995  1.00  0.00     0.009 A 
ATOM     69  C   UNL     1       4.074   5.888 -11.559  1.00  0.00     0.001 A 
ATOM     70  C   UNL     1       4.773   4.933 -13.665  1.00  0.00     0.001 A 
ATOM     71  C   UNL     1       3.953   5.801 -12.945  1.00  0.00     0.000 A 
ENDBRANCH  52  66
BRANCH  53  72
ATOM     72  C   UNL     1      12.257  -1.759  -6.881  1.00  0.00    -0.014 A 
ATOM     73  C   UNL     1      13.150  -1.256  -5.922  1.00  0.00     0.009 A 
ATOM     74  C   UNL     1      12.339  -3.116  -7.233  1.00  0.00     0.009 A 
ATOM     75  C   UNL     1      14.121  -2.085  -5.352  1.00  0.00     0.001 A 
ATOM     76  C   UNL     1      13.289  -3.950  -6.638  1.00  0.00     0.001 A 
ATOM     77  C   UNL     1      14.186  -3.431  -5.707  1.00  0.00     0.000 A 
ENDBRANCH  53  72
BRANCH  65  78
ATOM     78  C   UNL     1      13.012   3.586 -11.286  1.00  0.00    -0.014 A 
ATOM     79  C   UNL     1      13.806   2.965 -12.263  1.00  0.00     0.009 A 
ATOM     80  C   UNL     1      13.329   4.895 -10.887  1.00  0.00     0.009 A 
ATOM     81  C   UNL     1      14.911   3.629 -12.803  1.00  0.00     0.001 A 
ATOM     82  C   UNL     1      14.413   5.568 -11.452  1.00  0.00     0.001 A 
ATOM     83  C   UNL     1      15.209   4.931 -12.402  1.00  0.00     0.000 A 
ENDBRANCH  65  78
ENDBRANCH  39  40
ENDBRANCH  32  34
ENDBRANCH  31  32
ENDBRANCH  30  31
ENDBRANCH  29  30
ENDBRANCH  28  29
ENDBRANCH  27  28
ENDBRANCH   1  27
TORSDOF 20
