REMARK SMILES O=C(OCCOCCOCCOC(=O)c1cc(N2C(=O)[C@H]3[C@@H]4C=C[C@@H]([C@@H]5C[C@H]45)[C@@H]3C2=O)ccc1Cl)c1ccc(-c2c3nc(c(-c4ccccc4)c4ccc([nH]4)c(-c4ccccc4)c4nc(c(-c5ccccc5)c5ccc2[nH]5)C=C4)C=C3)cc1
REMARK SMILES IDX 7 1 6 2 5 3 4 4 3 5 2 6 1 7 36 8 37 9 83 10 38 11 82 12
REMARK SMILES IDX 39 13 40 14 41 15 76 16 42 17 81 18 75 19 77 20 43 21 80 22
REMARK SMILES IDX 74 23 73 24 44 26 66 27 51 28 65 29 52 30 55 31 64 32 78 33
REMARK SMILES IDX 53 34 54 35 63 37 79 38 56 39 45 40 46 41 50 42 47 43 49 44
REMARK SMILES IDX 48 45 67 46 68 47 72 48 69 49 71 50 70 51 57 52 58 53 62 54
REMARK SMILES IDX 59 55 61 56 60 57 8 58 9 59 10 60 11 61 12 62 13 63 14 64
REMARK SMILES IDX 15 65 16 66 34 67 17 68 33 69 35 70 32 71 18 72 19 73 30 74
REMARK SMILES IDX 20 75 21 76 29 77 31 78 22 79 25 80 23 81 28 82 24 83 26 84
REMARK SMILES IDX 27 85
REMARK H PARENT 77 25 55 36
REMARK Flexibility Score: inf
ROOT
ATOM      1  C   UNL     1       2.597  -0.675  -1.780  1.00  0.00     0.188 C 
ENDROOT
BRANCH   1   2
ATOM      2  O   UNL     1       3.939  -0.219  -1.605  1.00  0.00    -0.376 OA
BRANCH   2   3
ATOM      3  C   UNL     1       4.808  -1.163  -0.965  1.00  0.00     0.202 C 
BRANCH   3   4
ATOM      4  C   UNL     1       4.512  -1.478   0.516  1.00  0.00     0.261 C 
BRANCH   4   5
ATOM      5  O   UNL     1       3.130  -1.333   0.885  1.00  0.00    -0.460 OA
BRANCH   5   6
ATOM      6  C   UNL     1       2.507  -0.246   1.408  1.00  0.00     0.338 C 
ATOM      7  O   UNL     1       1.326  -0.346   1.736  1.00  0.00    -0.246 OA
BRANCH   6   8
ATOM      8  C   UNL     1       3.178   1.074   1.593  1.00  0.00     0.060 A 
ATOM      9  C   UNL     1       4.267   1.526   0.850  1.00  0.00     0.016 A 
ATOM     10  C   UNL     1       2.615   1.955   2.528  1.00  0.00     0.016 A 
ATOM     11  C   UNL     1       4.850   2.759   1.077  1.00  0.00     0.010 A 
ATOM     12  C   UNL     1       3.154   3.230   2.723  1.00  0.00     0.010 A 
ATOM     13  C   UNL     1       4.303   3.614   2.023  1.00  0.00    -0.014 A 
BRANCH  13  14
ATOM     14  C   UNL     1       5.096   4.791   2.411  1.00  0.00     0.031 A 
ATOM     15  C   UNL     1       5.780   4.738   3.742  1.00  0.00     0.074 A 
ATOM     16  C   UNL     1       5.328   5.779   1.529  1.00  0.00     0.049 A 
ATOM     17  N   UNL     1       6.535   5.629   4.324  1.00  0.00    -0.248 NA
ATOM     18  C   UNL     1       5.596   3.501   4.524  1.00  0.00     0.031 C 
ATOM     19  C   UNL     1       4.825   5.822   0.153  1.00  0.00     0.029 A 
ATOM     20  N   UNL     1       6.091   6.909   1.640  1.00  0.00    -0.354 N 
ATOM     21  C   UNL     1       6.870   5.078   5.554  1.00  0.00     0.074 A 
ATOM     22  C   UNL     1       6.223   3.792   5.648  1.00  0.00     0.031 C 
ATOM     23  C   UNL     1       5.332   6.901  -0.465  1.00  0.00     0.029 A 
ATOM     24  C   UNL     1       6.123   7.663   0.492  1.00  0.00     0.049 A 
ATOM     25  H   UNL     1       6.570   7.158   2.463  1.00  0.00     0.167 HD
ATOM     26  C   UNL     1       7.652   5.606   6.521  1.00  0.00     0.031 A 
ATOM     27  C   UNL     1       6.714   8.849   0.262  1.00  0.00     0.031 A 
ATOM     28  C   UNL     1       8.280   6.890   6.394  1.00  0.00     0.049 A 
ATOM     29  C   UNL     1       7.482   9.474   1.394  1.00  0.00     0.074 A 
ATOM     30  C   UNL     1       9.050   7.574   7.312  1.00  0.00     0.029 A 
ATOM     31  N   UNL     1       8.198   7.684   5.255  1.00  0.00    -0.354 N 
ATOM     32  N   UNL     1       7.737   8.986   2.587  1.00  0.00    -0.248 NA
ATOM     33  C   UNL     1       8.039  10.810   1.155  1.00  0.00     0.031 C 
ATOM     34  C   UNL     1       9.381   8.813   6.751  1.00  0.00     0.029 A 
ATOM     35  C   UNL     1       8.884   8.866   5.456  1.00  0.00     0.049 A 
ATOM     36  H   UNL     1       7.723   7.440   4.429  1.00  0.00     0.167 HD
ATOM     37  C   UNL     1       8.512   9.939   3.231  1.00  0.00     0.074 A 
ATOM     38  C   UNL     1       8.692  11.028   2.288  1.00  0.00     0.031 C 
ATOM     39  C   UNL     1       9.035   9.920   4.483  1.00  0.00     0.031 A 
BRANCH  26  40
ATOM     40  C   UNL     1       7.753   4.829   7.804  1.00  0.00    -0.014 A 
ATOM     41  C   UNL     1       8.406   3.587   7.876  1.00  0.00     0.009 A 
ATOM     42  C   UNL     1       7.093   5.313   8.943  1.00  0.00     0.009 A 
ATOM     43  C   UNL     1       8.338   2.819   9.042  1.00  0.00     0.001 A 
ATOM     44  C   UNL     1       7.058   4.560  10.118  1.00  0.00     0.001 A 
ATOM     45  C   UNL     1       7.664   3.306  10.161  1.00  0.00     0.000 A 
ENDBRANCH  26  40
BRANCH  27  46
ATOM     46  C   UNL     1       6.571   9.525  -1.056  1.00  0.00    -0.014 A 
ATOM     47  C   UNL     1       7.682   9.733  -1.887  1.00  0.00     0.009 A 
ATOM     48  C   UNL     1       5.313   9.975  -1.493  1.00  0.00     0.009 A 
ATOM     49  C   UNL     1       7.541  10.394  -3.111  1.00  0.00     0.001 A 
ATOM     50  C   UNL     1       5.169  10.607  -2.730  1.00  0.00     0.001 A 
ATOM     51  C   UNL     1       6.285  10.825  -3.534  1.00  0.00     0.000 A 
ENDBRANCH  27  46
BRANCH  39  52
ATOM     52  C   UNL     1       9.896  11.087   4.873  1.00  0.00    -0.014 A 
ATOM     53  C   UNL     1       9.349  12.354   5.120  1.00  0.00     0.009 A 
ATOM     54  C   UNL     1      11.275  10.889   5.045  1.00  0.00     0.009 A 
ATOM     55  C   UNL     1      10.176  13.412   5.497  1.00  0.00     0.001 A 
ATOM     56  C   UNL     1      12.092  11.938   5.459  1.00  0.00     0.001 A 
ATOM     57  C   UNL     1      11.544  13.202   5.673  1.00  0.00     0.000 A 
ENDBRANCH  39  52
ENDBRANCH  13  14
ENDBRANCH   6   8
ENDBRANCH   5   6
ENDBRANCH   4   5
ENDBRANCH   3   4
ENDBRANCH   2   3
ENDBRANCH   1   2
BRANCH   1  58
ATOM     58  C   UNL     1       1.989  -0.332  -3.138  1.00  0.00     0.188 C 
BRANCH  58  59
ATOM     59  O   UNL     1       2.653  -0.827  -4.292  1.00  0.00    -0.376 OA
BRANCH  59  60
ATOM     60  C   UNL     1       4.029  -0.497  -4.437  1.00  0.00     0.202 C 
BRANCH  60  61
ATOM     61  C   UNL     1       4.426   0.981  -4.603  1.00  0.00     0.261 C 
BRANCH  61  62
ATOM     62  O   UNL     1       3.865   1.919  -3.662  1.00  0.00    -0.460 OA
BRANCH  62  63
ATOM     63  C   UNL     1       2.919   2.736  -4.188  1.00  0.00     0.339 C 
ATOM     64  O   UNL     1       2.432   2.675  -5.306  1.00  0.00    -0.246 OA
BRANCH  63  65
ATOM     65  C   UNL     1       2.489   3.777  -3.242  1.00  0.00     0.080 A 
ATOM     66  C   UNL     1       1.372   3.547  -2.416  1.00  0.00     0.044 A 
ATOM     67  C   UNL     1       3.015   5.066  -3.377  1.00  0.00     0.055 A 
ATOM     68  C   UNL     1       0.736   4.629  -1.797  1.00  0.00     0.053 A 
ATOM     69  C   UNL     1       2.395   6.136  -2.731  1.00  0.00     0.023 A 
ATOM     70  Cl  UNL     1       4.417   5.399  -4.328  1.00  0.00    -0.083 Cl
ATOM     71  C   UNL     1       1.246   5.923  -1.968  1.00  0.00     0.028 A 
BRANCH  68  72
ATOM     72  N   UNL     1      -0.364   4.437  -0.931  1.00  0.00    -0.250 N 
ATOM     73  C   UNL     1      -0.143   4.031   0.392  1.00  0.00     0.238 C 
ATOM     74  C   UNL     1      -1.559   5.176  -1.044  1.00  0.00     0.238 C 
ATOM     75  O   UNL     1       0.889   3.675   0.916  1.00  0.00    -0.274 OA
ATOM     76  C   UNL     1      -1.461   4.212   1.065  1.00  0.00     0.100 C 
ATOM     77  C   UNL     1      -1.867   5.516   0.378  1.00  0.00     0.100 C 
ATOM     78  O   UNL     1      -2.092   5.637  -2.036  1.00  0.00    -0.274 OA
ATOM     79  C   UNL     1      -1.782   4.300   2.568  1.00  0.00     0.028 C 
ATOM     80  C   UNL     1      -2.992   6.168   1.173  1.00  0.00     0.028 C 
ATOM     81  C   UNL     1      -3.322   4.164   2.521  1.00  0.00    -0.026 C 
ATOM     82  C   UNL     1      -1.548   5.675   3.222  1.00  0.00     0.001 C 
ATOM     83  C   UNL     1      -3.933   5.096   1.751  1.00  0.00    -0.026 C 
ATOM     84  C   UNL     1      -2.258   6.783   2.427  1.00  0.00     0.001 C 
ATOM     85  C   UNL     1      -0.750   6.828   2.692  1.00  0.00     0.009 C 
ENDBRANCH  68  72
ENDBRANCH  63  65
ENDBRANCH  62  63
ENDBRANCH  61  62
ENDBRANCH  60  61
ENDBRANCH  59  60
ENDBRANCH  58  59
ENDBRANCH   1  58
TORSDOF 18
