REMARK SMILES CC(=O)Nc1cnc(N2CC=C(c3ccccc3C)CC2)c(C(=O)OCCOCCOCCOC(=O)c2ccc(-c3c4nc(c(-c5ccccc5)c5ccc([nH]5)c(-c5ccccc5)c5nc(c(-c6ccccc6)c6ccc3[nH]6)C=C5)C=C4)cc2)c1
REMARK SMILES IDX 29 1 28 2 27 3 26 4 25 5 23 6 24 7 22 8 5 9 6 10 85 11 7 12
REMARK SMILES IDX 8 13 4 14 1 15 2 16 3 17 9 19 10 20 21 21 11 22 20 23 12 24
REMARK SMILES IDX 13 25 14 26 18 27 15 28 17 29 19 30 16 31 30 32 31 33 32 34
REMARK SMILES IDX 33 35 34 36 35 37 36 38 37 39 38 40 84 41 39 42 83 43 40 44
REMARK SMILES IDX 41 45 42 46 77 47 43 48 82 49 76 50 78 51 44 52 81 53 75 54
REMARK SMILES IDX 74 55 45 57 67 58 52 59 66 60 53 61 56 62 65 63 79 64 54 65
REMARK SMILES IDX 55 66 64 68 80 69 57 70 46 71 47 72 51 73 48 74 50 75 49 76
REMARK SMILES IDX 68 77 69 78 73 79 70 80 72 81 71 82 58 83 59 84 63 85 60 86
REMARK SMILES IDX 62 87 61 88
REMARK H PARENT 4 18 78 56 56 67
REMARK Flexibility Score: inf
ROOT
ATOM      1  C   UNL     1       9.042  -1.028  -1.982  1.00  0.00     0.188 C 
ENDROOT
BRANCH   1   2
ATOM      2  O   UNL     1       8.126  -0.015  -1.516  1.00  0.00    -0.376 OA
BRANCH   2   3
ATOM      3  C   UNL     1       7.449  -0.025  -0.250  1.00  0.00     0.202 C 
BRANCH   3   4
ATOM      4  C   UNL     1       5.783  -0.030   0.066  1.00  0.00     0.261 C 
BRANCH   4   5
ATOM      5  O   UNL     1       4.452  -1.162  -0.341  1.00  0.00    -0.460 OA
BRANCH   5   6
ATOM      6  C   UNL     1       3.610  -1.648  -1.446  1.00  0.00     0.342 C 
ATOM      7  O   UNL     1       3.398  -1.134  -2.545  1.00  0.00    -0.246 OA
BRANCH   6   8
ATOM      8  C   UNL     1       2.688  -2.780  -1.314  1.00  0.00     0.104 A 
ATOM      9  C   UNL     1       0.562  -3.171  -0.276  1.00  0.00     0.060 A 
ATOM     10  C   UNL     1       0.325  -4.133  -1.245  1.00  0.00     0.139 A 
ATOM     11  C   UNL     1       1.791  -2.541  -0.276  1.00  0.00     0.047 A 
ATOM     12  N   UNL     1       1.164  -4.397  -2.273  1.00  0.00    -0.236 NA
ATOM     13  C   UNL     1       2.317  -3.684  -2.379  1.00  0.00     0.143 A 
BRANCH   9  14
ATOM     14  N   UNL     1      -0.413  -2.844   0.670  1.00  0.00    -0.325 N 
ATOM     15  C   UNL     1      -0.305  -0.374   0.385  1.00  0.00     0.114 C 
ATOM     16  C   UNL     1      -0.699  -1.602   1.181  1.00  0.00     0.221 C 
ATOM     17  O   UNL     1      -1.339  -1.505   2.227  1.00  0.00    -0.275 OA
ATOM     18  H   UNL     1      -0.958  -3.590   1.010  1.00  0.00     0.169 HD
ENDBRANCH   9  14
BRANCH  13  19
ATOM     19  N   UNL     1       3.073  -4.004  -3.525  1.00  0.00    -0.352 N 
ATOM     20  C   UNL     1       2.447  -3.762  -4.845  1.00  0.00     0.146 C 
ATOM     21  C   UNL     1       3.865  -5.221  -3.362  1.00  0.00     0.123 C 
ATOM     22  C   UNL     1       3.063  -4.565  -5.998  1.00  0.00    -0.002 C 
ATOM     23  C   UNL     1       3.753  -6.281  -4.470  1.00  0.00     0.057 C 
ATOM     24  C   UNL     1       3.693  -5.755  -5.880  1.00  0.00    -0.041 C 
BRANCH  24  25
ATOM     25  C   UNL     1       4.350  -6.528  -7.023  1.00  0.00    -0.020 A 
ATOM     26  C   UNL     1       4.815  -5.815  -8.157  1.00  0.00     0.008 A 
ATOM     27  C   UNL     1       4.636  -7.923  -7.025  1.00  0.00    -0.044 A 
ATOM     28  C   UNL     1       5.560  -6.410  -9.193  1.00  0.00     0.001 A 
ATOM     29  C   UNL     1       5.396  -8.507  -8.075  1.00  0.00     0.004 A 
ATOM     30  C   UNL     1       4.203  -8.889  -5.954  1.00  0.00     0.045 C 
ATOM     31  C   UNL     1       5.859  -7.759  -9.148  1.00  0.00     0.000 A 
ENDBRANCH  24  25
ENDBRANCH  13  19
ENDBRANCH   6   8
ENDBRANCH   5   6
ENDBRANCH   4   5
ENDBRANCH   3   4
ENDBRANCH   2   3
ENDBRANCH   1   2
BRANCH   1  32
ATOM     32  C   UNL     1       9.846  -1.944  -1.054  1.00  0.00     0.188 C 
BRANCH  32  33
ATOM     33  O   UNL     1       9.083  -2.307   0.075  1.00  0.00    -0.376 OA
BRANCH  33  34
ATOM     34  C   UNL     1       9.780  -2.962   1.116  1.00  0.00     0.202 C 
BRANCH  34  35
ATOM     35  C   UNL     1       9.893  -4.474   0.875  1.00  0.00     0.261 C 
BRANCH  35  36
ATOM     36  O   UNL     1       8.595  -5.050   0.604  1.00  0.00    -0.460 OA
BRANCH  36  37
ATOM     37  C   UNL     1       8.355  -5.402  -0.699  1.00  0.00     0.338 C 
ATOM     38  O   UNL     1       9.030  -6.192  -1.344  1.00  0.00    -0.246 OA
BRANCH  37  39
ATOM     39  C   UNL     1       7.297  -4.523  -1.275  1.00  0.00     0.060 A 
ATOM     40  C   UNL     1       7.194  -4.148  -2.620  1.00  0.00     0.016 A 
ATOM     41  C   UNL     1       6.593  -3.780  -0.395  1.00  0.00     0.016 A 
ATOM     42  C   UNL     1       6.535  -2.914  -3.038  1.00  0.00     0.010 A 
ATOM     43  C   UNL     1       6.225  -2.510  -0.832  1.00  0.00     0.010 A 
ATOM     44  C   UNL     1       6.104  -1.922  -2.155  1.00  0.00    -0.014 A 
BRANCH  44  45
ATOM     45  C   UNL     1       5.679  -0.279  -2.662  1.00  0.00     0.031 A 
ATOM     46  C   UNL     1       4.441   0.919  -2.157  1.00  0.00     0.074 A 
ATOM     47  C   UNL     1       6.326   0.205  -3.756  1.00  0.00     0.049 A 
ATOM     48  N   UNL     1       4.001   1.905  -2.924  1.00  0.00    -0.248 NA
ATOM     49  C   UNL     1       3.603   1.051  -0.878  1.00  0.00     0.031 C 
ATOM     50  C   UNL     1       6.318   1.572  -4.273  1.00  0.00     0.029 A 
ATOM     51  N   UNL     1       7.044  -0.495  -4.731  1.00  0.00    -0.354 N 
ATOM     52  C   UNL     1       3.143   2.748  -2.207  1.00  0.00     0.074 A 
ATOM     53  C   UNL     1       2.960   2.196  -0.929  1.00  0.00     0.031 C 
ATOM     54  C   UNL     1       6.668   1.555  -5.565  1.00  0.00     0.029 A 
ATOM     55  C   UNL     1       6.865   0.177  -5.952  1.00  0.00     0.049 A 
ATOM     56  H   UNL     1       7.577  -1.310  -4.588  1.00  0.00     0.167 HD
ATOM     57  C   UNL     1       2.619   3.917  -2.651  1.00  0.00     0.031 A 
ATOM     58  C   UNL     1       6.333  -0.445  -7.039  1.00  0.00     0.031 A 
ATOM     59  C   UNL     1       2.918   4.131  -4.032  1.00  0.00     0.049 A 
ATOM     60  C   UNL     1       5.025   0.161  -7.511  1.00  0.00     0.074 A 
ATOM     61  C   UNL     1       3.860   4.856  -4.729  1.00  0.00     0.029 A 
ATOM     62  N   UNL     1       2.398   3.208  -4.912  1.00  0.00    -0.354 N 
ATOM     63  N   UNL     1       4.547   1.310  -7.116  1.00  0.00    -0.248 NA
ATOM     64  C   UNL     1       4.101  -0.536  -8.412  1.00  0.00     0.031 C 
ATOM     65  C   UNL     1       3.891   4.346  -6.060  1.00  0.00     0.029 A 
ATOM     66  C   UNL     1       2.931   3.358  -6.168  1.00  0.00     0.049 A 
ATOM     67  H   UNL     1       1.729   2.526  -4.671  1.00  0.00     0.167 HD
ATOM     68  C   UNL     1       3.264   1.452  -7.582  1.00  0.00     0.074 A 
ATOM     69  C   UNL     1       3.043   0.294  -8.425  1.00  0.00     0.031 C 
ATOM     70  C   UNL     1       2.440   2.469  -7.198  1.00  0.00     0.031 A 
BRANCH  57  71
ATOM     71  C   UNL     1       2.045   4.916  -1.670  1.00  0.00    -0.014 A 
ATOM     72  C   UNL     1       2.594   6.205  -1.635  1.00  0.00     0.009 A 
ATOM     73  C   UNL     1       1.119   4.595  -0.652  1.00  0.00     0.009 A 
ATOM     74  C   UNL     1       2.345   7.080  -0.568  1.00  0.00     0.001 A 
ATOM     75  C   UNL     1       0.911   5.445   0.447  1.00  0.00     0.001 A 
ATOM     76  C   UNL     1       1.543   6.682   0.497  1.00  0.00     0.000 A 
ENDBRANCH  57  71
BRANCH  58  77
ATOM     77  C   UNL     1       6.760  -1.865  -7.165  1.00  0.00    -0.014 A 
ATOM     78  C   UNL     1       8.074  -2.135  -7.599  1.00  0.00     0.009 A 
ATOM     79  C   UNL     1       6.072  -2.884  -6.508  1.00  0.00     0.009 A 
ATOM     80  C   UNL     1       8.704  -3.353  -7.308  1.00  0.00     0.001 A 
ATOM     81  C   UNL     1       6.717  -4.095  -6.204  1.00  0.00     0.001 A 
ATOM     82  C   UNL     1       8.032  -4.327  -6.584  1.00  0.00     0.000 A 
ENDBRANCH  58  77
BRANCH  70  83
ATOM     83  C   UNL     1       1.049   2.695  -7.732  1.00  0.00    -0.014 A 
ATOM     84  C   UNL     1       0.774   2.625  -9.102  1.00  0.00     0.009 A 
ATOM     85  C   UNL     1       0.016   3.175  -6.895  1.00  0.00     0.009 A 
ATOM     86  C   UNL     1      -0.478   3.002  -9.607  1.00  0.00     0.001 A 
ATOM     87  C   UNL     1      -1.225   3.572  -7.397  1.00  0.00     0.001 A 
ATOM     88  C   UNL     1      -1.473   3.483  -8.757  1.00  0.00     0.000 A 
ENDBRANCH  70  83
ENDBRANCH  44  45
ENDBRANCH  37  39
ENDBRANCH  36  37
ENDBRANCH  35  36
ENDBRANCH  34  35
ENDBRANCH  33  34
ENDBRANCH  32  33
ENDBRANCH   1  32
TORSDOF 20
