REMARK SMILES C[C@@H]1CCCCN1S(=O)(=O)c1ccc(CCC(=O)OCCOCCOCCOC(=O)c2ccc(-c3c4nc(c(-c5ccccc5)c5ccc([nH]5)c(-c5ccccc5)c5nc(c(-c6ccccc6)c6ccc3[nH]6)C=C5)C=C4)cc2)cc1
REMARK SMILES IDX 23 1 22 2 21 3 20 4 19 5 17 6 18 7 16 8 15 9 14 10 11 11
REMARK SMILES IDX 12 12 80 13 13 14 79 15 8 16 9 17 10 18 7 19 1 20 2 21 3 22
REMARK SMILES IDX 4 23 6 24 5 25 24 26 25 27 26 28 27 29 28 30 29 31 30 32
REMARK SMILES IDX 31 33 32 34 78 35 33 36 77 37 34 38 35 39 36 40 71 41 37 42
REMARK SMILES IDX 76 43 70 44 72 45 38 46 75 47 69 48 68 49 39 51 61 52 46 53
REMARK SMILES IDX 60 54 47 55 50 56 59 57 73 58 48 59 49 60 58 62 74 63 51 64
REMARK SMILES IDX 40 65 41 66 45 67 42 68 44 69 43 70 62 71 63 72 67 73 64 74
REMARK SMILES IDX 66 75 65 76 52 77 53 78 57 79 54 80 56 81 55 82
REMARK H PARENT 72 50 50 61
REMARK Flexibility Score: inf
ROOT
ATOM      1  C   UNL     1       6.011  -4.742  -6.401  1.00  0.00     0.188 C 
ENDROOT
BRANCH   1   2
ATOM      2  O   UNL     1       5.774  -6.111  -6.101  1.00  0.00    -0.376 OA
BRANCH   2   3
ATOM      3  C   UNL     1       5.101  -6.348  -4.864  1.00  0.00     0.202 C 
BRANCH   3   4
ATOM      4  C   UNL     1       6.025  -6.263  -3.640  1.00  0.00     0.261 C 
BRANCH   4   5
ATOM      5  O   UNL     1       6.230  -4.894  -3.224  1.00  0.00    -0.463 OA
BRANCH   5   6
ATOM      6  C   UNL     1       7.455  -4.344  -3.417  1.00  0.00     0.306 C 
ATOM      7  O   UNL     1       8.432  -4.947  -3.842  1.00  0.00    -0.252 OA
BRANCH   6   8
ATOM      8  C   UNL     1       7.499  -2.877  -3.034  1.00  0.00     0.127 C 
BRANCH   8   9
ATOM      9  C   UNL     1       6.456  -1.959  -3.689  1.00  0.00     0.047 C 
BRANCH   9  10
ATOM     10  C   UNL     1       5.138  -1.890  -2.954  1.00  0.00    -0.047 A 
ATOM     11  C   UNL     1       2.785  -1.931  -1.398  1.00  0.00     0.082 A 
ATOM     12  C   UNL     1       2.967  -2.861  -2.422  1.00  0.00     0.022 A 
ATOM     13  C   UNL     1       3.754  -0.945  -1.198  1.00  0.00     0.022 A 
ATOM     14  C   UNL     1       4.129  -2.827  -3.193  1.00  0.00     0.005 A 
ATOM     15  C   UNL     1       4.916  -0.917  -1.978  1.00  0.00     0.005 A 
BRANCH  11  16
ATOM     16  S   UNL     1       1.481  -2.230  -0.217  1.00  0.00     0.243 S 
ATOM     17  O   UNL     1       2.105  -2.405   1.078  1.00  0.00    -0.207 OA
ATOM     18  O   UNL     1       0.668  -3.302  -0.765  1.00  0.00    -0.207 OA
BRANCH  16  19
ATOM     19  N   UNL     1       0.465  -0.854  -0.147  1.00  0.00    -0.195 NA
ATOM     20  C   UNL     1       1.875   0.530   1.467  1.00  0.00     0.026 C 
ATOM     21  C   UNL     1       1.020   0.498   0.199  1.00  0.00     0.070 C 
ATOM     22  C   UNL     1      -0.115   1.537   0.370  1.00  0.00     0.020 C 
ATOM     23  C   UNL     1      -1.383   1.157  -0.374  1.00  0.00     0.003 C 
ATOM     24  C   UNL     1      -0.807  -1.135   0.585  1.00  0.00     0.103 C 
ATOM     25  C   UNL     1      -1.910  -0.185   0.122  1.00  0.00     0.017 C 
ENDBRANCH  16  19
ENDBRANCH  11  16
ENDBRANCH   9  10
ENDBRANCH   8   9
ENDBRANCH   6   8
ENDBRANCH   5   6
ENDBRANCH   4   5
ENDBRANCH   3   4
ENDBRANCH   2   3
ENDBRANCH   1   2
BRANCH   1  26
ATOM     26  C   UNL     1       4.858  -4.082  -7.137  1.00  0.00     0.188 C 
BRANCH  26  27
ATOM     27  O   UNL     1       3.758  -3.730  -6.297  1.00  0.00    -0.376 OA
BRANCH  27  28
ATOM     28  C   UNL     1       2.498  -4.239  -6.739  1.00  0.00     0.202 C 
BRANCH  28  29
ATOM     29  C   UNL     1       1.879  -3.539  -7.964  1.00  0.00     0.261 C 
BRANCH  29  30
ATOM     30  O   UNL     1       2.832  -3.339  -9.021  1.00  0.00    -0.460 OA
BRANCH  30  31
ATOM     31  C   UNL     1       3.355  -2.088  -9.093  1.00  0.00     0.338 C 
ATOM     32  O   UNL     1       2.955  -1.090  -8.516  1.00  0.00    -0.246 OA
BRANCH  31  33
ATOM     33  C   UNL     1       4.651  -2.138  -9.816  1.00  0.00     0.060 A 
ATOM     34  C   UNL     1       5.694  -1.329  -9.336  1.00  0.00     0.016 A 
ATOM     35  C   UNL     1       4.878  -3.009 -10.886  1.00  0.00     0.016 A 
ATOM     36  C   UNL     1       6.953  -1.370  -9.934  1.00  0.00     0.010 A 
ATOM     37  C   UNL     1       6.133  -3.030 -11.504  1.00  0.00     0.010 A 
ATOM     38  C   UNL     1       7.165  -2.189 -11.050  1.00  0.00    -0.014 A 
BRANCH  38  39
ATOM     39  C   UNL     1       8.364  -1.978 -11.894  1.00  0.00     0.031 A 
ATOM     40  C   UNL     1       8.247  -1.001 -13.032  1.00  0.00     0.074 A 
ATOM     41  C   UNL     1       9.530  -2.605 -11.660  1.00  0.00     0.049 A 
ATOM     42  N   UNL     1       9.123  -0.680 -13.948  1.00  0.00    -0.248 NA
ATOM     43  C   UNL     1       6.963  -0.286 -13.147  1.00  0.00     0.031 C 
ATOM     44  C   UNL     1       9.803  -3.521 -10.554  1.00  0.00     0.029 A 
ATOM     45  N   UNL     1      10.712  -2.559 -12.358  1.00  0.00    -0.354 N 
ATOM     46  C   UNL     1       8.499   0.273 -14.742  1.00  0.00     0.074 A 
ATOM     47  C   UNL     1       7.164   0.459 -14.222  1.00  0.00     0.031 C 
ATOM     48  C   UNL     1      11.072  -3.958 -10.655  1.00  0.00     0.029 A 
ATOM     49  C   UNL     1      11.688  -3.381 -11.849  1.00  0.00     0.049 A 
ATOM     50  H   UNL     1      10.848  -1.990 -13.150  1.00  0.00     0.167 HD
ATOM     51  C   UNL     1       8.992   0.942 -15.809  1.00  0.00     0.031 A 
ATOM     52  C   UNL     1      12.925  -3.649 -12.311  1.00  0.00     0.031 A 
ATOM     53  C   UNL     1      10.304   0.740 -16.355  1.00  0.00     0.049 A 
ATOM     54  C   UNL     1      13.406  -2.982 -13.577  1.00  0.00     0.074 A 
ATOM     55  C   UNL     1      10.883   1.348 -17.455  1.00  0.00     0.029 A 
ATOM     56  N   UNL     1      11.238  -0.145 -15.844  1.00  0.00    -0.354 N 
ATOM     57  N   UNL     1      12.808  -2.082 -14.320  1.00  0.00    -0.248 NA
ATOM     58  C   UNL     1      14.738  -3.373 -14.066  1.00  0.00     0.031 C 
ATOM     59  C   UNL     1      12.155   0.796 -17.636  1.00  0.00     0.029 A 
ATOM     60  C   UNL     1      12.385  -0.114 -16.616  1.00  0.00     0.049 A 
ATOM     61  H   UNL     1      11.105  -0.712 -15.050  1.00  0.00     0.167 HD
ATOM     62  C   UNL     1      13.704  -1.775 -15.339  1.00  0.00     0.074 A 
ATOM     63  C   UNL     1      14.888  -2.576 -15.114  1.00  0.00     0.031 C 
ATOM     64  C   UNL     1      13.560  -0.906 -16.369  1.00  0.00     0.031 A 
BRANCH  51  65
ATOM     65  C   UNL     1       8.083   1.935 -16.471  1.00  0.00    -0.014 A 
ATOM     66  C   UNL     1       7.793   3.166 -15.863  1.00  0.00     0.009 A 
ATOM     67  C   UNL     1       7.521   1.641 -17.722  1.00  0.00     0.009 A 
ATOM     68  C   UNL     1       6.935   4.074 -16.486  1.00  0.00     0.001 A 
ATOM     69  C   UNL     1       6.684   2.561 -18.354  1.00  0.00     0.001 A 
ATOM     70  C   UNL     1       6.386   3.773 -17.732  1.00  0.00     0.000 A 
ENDBRANCH  51  65
BRANCH  52  71
ATOM     71  C   UNL     1      13.806  -4.619 -11.607  1.00  0.00    -0.014 A 
ATOM     72  C   UNL     1      14.986  -4.189 -10.980  1.00  0.00     0.009 A 
ATOM     73  C   UNL     1      13.509  -5.991 -11.621  1.00  0.00     0.009 A 
ATOM     74  C   UNL     1      15.866  -5.115 -10.412  1.00  0.00     0.001 A 
ATOM     75  C   UNL     1      14.376  -6.911 -11.028  1.00  0.00     0.001 A 
ATOM     76  C   UNL     1      15.560  -6.474 -10.436  1.00  0.00     0.000 A 
ENDBRANCH  52  71
BRANCH  64  77
ATOM     77  C   UNL     1      14.727  -0.731 -17.299  1.00  0.00    -0.014 A 
ATOM     78  C   UNL     1      15.068  -1.716 -18.238  1.00  0.00     0.009 A 
ATOM     79  C   UNL     1      15.461   0.466 -17.270  1.00  0.00     0.009 A 
ATOM     80  C   UNL     1      16.141  -1.516 -19.110  1.00  0.00     0.001 A 
ATOM     81  C   UNL     1      16.515   0.673 -18.160  1.00  0.00     0.001 A 
ATOM     82  C   UNL     1      16.859  -0.321 -19.074  1.00  0.00     0.000 A 
ENDBRANCH  64  77
ENDBRANCH  38  39
ENDBRANCH  31  33
ENDBRANCH  30  31
ENDBRANCH  29  30
ENDBRANCH  28  29
ENDBRANCH  27  28
ENDBRANCH  26  27
ENDBRANCH   1  26
TORSDOF 21
