REMARK SMILES CC1(C)C(n2c(SCC(=O)OCCOCCOCCOC(=O)c3ccc(-c4c5nc(c(-c6ccccc6)c6ccc([nH]6)c(-c6ccccc6)c6nc(c(-c7ccccc7)c7ccc4[nH]7)C=C6)C=C5)cc3)nc3cnccc32)C1(C)C
REMARK SMILES IDX 15 1 14 2 13 3 12 4 11 5 9 6 10 7 8 8 7 9 6 10 5 11 77 12
REMARK SMILES IDX 71 13 72 14 76 15 73 16 75 17 74 18 4 19 1 20 2 21 3 22
REMARK SMILES IDX 78 23 79 24 80 25 16 26 17 27 18 28 19 29 20 30 21 31 22 32
REMARK SMILES IDX 23 33 24 34 70 35 25 36 69 37 26 38 27 39 28 40 63 41 29 42
REMARK SMILES IDX 68 43 62 44 64 45 30 46 67 47 61 48 60 49 31 51 53 52 38 53
REMARK SMILES IDX 52 54 39 55 42 56 51 57 65 58 40 59 41 60 50 62 66 63 43 64
REMARK SMILES IDX 32 65 33 66 37 67 34 68 36 69 35 70 54 71 55 72 59 73 56 74
REMARK SMILES IDX 58 75 57 76 44 77 45 78 49 79 46 80 48 81 47 82
REMARK H PARENT 64 50 42 61
REMARK Flexibility Score: inf
ROOT
ATOM      1  C   UNL     1       5.057  -3.585   0.114  1.00  0.00     0.188 C 
ENDROOT
BRANCH   1   2
ATOM      2  O   UNL     1       6.109  -3.708   1.063  1.00  0.00    -0.376 OA
BRANCH   2   3
ATOM      3  C   UNL     1       6.214  -4.975   1.722  1.00  0.00     0.202 C 
BRANCH   3   4
ATOM      4  C   UNL     1       5.000  -5.396   2.572  1.00  0.00     0.261 C 
BRANCH   4   5
ATOM      5  O   UNL     1       4.043  -6.016   1.698  1.00  0.00    -0.463 OA
BRANCH   5   6
ATOM      6  C   UNL     1       2.893  -6.501   2.234  1.00  0.00     0.316 C 
ATOM      7  O   UNL     1       2.632  -6.487   3.431  1.00  0.00    -0.251 OA
BRANCH   6   8
ATOM      8  C   UNL     1       1.923  -6.998   1.175  1.00  0.00     0.200 C 
BRANCH   8   9
ATOM      9  S   UNL     1       2.663  -6.976  -0.465  1.00  0.00    -0.076 SA
BRANCH   9  10
ATOM     10  C   UNL     1       1.504  -6.065  -1.383  1.00  0.00     0.169 A 
ATOM     11  N   UNL     1       1.709  -4.732  -1.728  1.00  0.00    -0.315 N 
ATOM     12  C   UNL     1       1.712  -4.784  -3.152  1.00  0.00     0.072 A 
ATOM     13  N   UNL     1       0.809  -6.699  -2.300  1.00  0.00    -0.221 NA
ATOM     14  C   UNL     1       1.052  -5.995  -3.443  1.00  0.00     0.108 A 
ATOM     15  C   UNL     1       2.131  -4.030  -4.263  1.00  0.00     0.049 A 
ATOM     16  C   UNL     1       0.794  -6.376  -4.773  1.00  0.00     0.141 A 
ATOM     17  C   UNL     1       1.820  -4.465  -5.550  1.00  0.00     0.113 A 
ATOM     18  N   UNL     1       1.161  -5.596  -5.816  1.00  0.00    -0.262 NA
BRANCH  11  19
ATOM     19  C   UNL     1       2.109  -3.603  -0.695  1.00  0.00     0.102 C 
ATOM     20  C   UNL     1       2.769  -1.907   1.293  1.00  0.00     0.014 C 
ATOM     21  C   UNL     1       1.694  -2.457   0.326  1.00  0.00    -0.007 C 
ATOM     22  C   UNL     1       0.800  -1.271   0.119  1.00  0.00     0.014 C 
ATOM     23  C   UNL     1       1.026  -3.734   0.574  1.00  0.00    -0.007 C 
ATOM     24  C   UNL     1       1.058  -3.970   2.072  1.00  0.00     0.014 C 
ATOM     25  C   UNL     1      -0.358  -4.018   0.095  1.00  0.00     0.014 C 
ENDBRANCH  11  19
ENDBRANCH   9  10
ENDBRANCH   8   9
ENDBRANCH   6   8
ENDBRANCH   5   6
ENDBRANCH   4   5
ENDBRANCH   3   4
ENDBRANCH   2   3
ENDBRANCH   1   2
BRANCH   1  26
ATOM     26  C   UNL     1       5.295  -4.144  -1.281  1.00  0.00     0.188 C 
BRANCH  26  27
ATOM     27  O   UNL     1       5.852  -3.098  -2.088  1.00  0.00    -0.376 OA
BRANCH  27  28
ATOM     28  C   UNL     1       5.116  -2.777  -3.278  1.00  0.00     0.202 C 
BRANCH  28  29
ATOM     29  C   UNL     1       4.316  -1.420  -3.220  1.00  0.00     0.261 C 
BRANCH  29  30
ATOM     30  O   UNL     1       2.868  -1.517  -2.920  1.00  0.00    -0.460 OA
BRANCH  30  31
ATOM     31  C   UNL     1       1.953  -0.707  -3.556  1.00  0.00     0.338 C 
ATOM     32  O   UNL     1       2.261   0.198  -4.320  1.00  0.00    -0.246 OA
BRANCH  31  33
ATOM     33  C   UNL     1       0.503  -0.941  -3.131  1.00  0.00     0.060 A 
ATOM     34  C   UNL     1      -0.146   0.101  -2.492  1.00  0.00     0.016 A 
ATOM     35  C   UNL     1      -0.264  -2.114  -3.291  1.00  0.00     0.016 A 
ATOM     36  C   UNL     1      -1.354  -0.143  -1.796  1.00  0.00     0.010 A 
ATOM     37  C   UNL     1      -1.494  -2.366  -2.592  1.00  0.00     0.010 A 
ATOM     38  C   UNL     1      -1.999  -1.426  -1.709  1.00  0.00    -0.014 A 
BRANCH  38  39
ATOM     39  C   UNL     1      -3.026  -1.615  -0.583  1.00  0.00     0.031 A 
ATOM     40  C   UNL     1      -3.699  -0.335  -0.311  1.00  0.00     0.074 A 
ATOM     41  C   UNL     1      -3.477  -2.592   0.270  1.00  0.00     0.049 A 
ATOM     42  N   UNL     1      -3.482   0.471   0.677  1.00  0.00    -0.248 NA
ATOM     43  C   UNL     1      -4.556   0.170  -1.390  1.00  0.00     0.031 C 
ATOM     44  C   UNL     1      -3.301  -4.039   0.183  1.00  0.00     0.029 A 
ATOM     45  N   UNL     1      -4.154  -2.461   1.504  1.00  0.00    -0.354 N 
ATOM     46  C   UNL     1      -4.327   1.532   0.426  1.00  0.00     0.074 A 
ATOM     47  C   UNL     1      -4.820   1.388  -0.928  1.00  0.00     0.031 C 
ATOM     48  C   UNL     1      -3.804  -4.644   1.281  1.00  0.00     0.029 A 
ATOM     49  C   UNL     1      -4.443  -3.670   2.154  1.00  0.00     0.049 A 
ATOM     50  H   UNL     1      -4.405  -1.587   1.880  1.00  0.00     0.167 HD
ATOM     51  C   UNL     1      -4.893   2.223   1.440  1.00  0.00     0.031 A 
ATOM     52  C   UNL     1      -5.135  -3.955   3.299  1.00  0.00     0.031 A 
ATOM     53  C   UNL     1      -4.159   2.213   2.668  1.00  0.00     0.049 A 
ATOM     54  C   UNL     1      -5.196  -2.786   4.212  1.00  0.00     0.074 A 
ATOM     55  C   UNL     1      -3.014   2.811   3.147  1.00  0.00     0.029 A 
ATOM     56  N   UNL     1      -4.490   1.221   3.547  1.00  0.00    -0.354 N 
ATOM     57  N   UNL     1      -4.216  -2.399   4.980  1.00  0.00    -0.248 NA
ATOM     58  C   UNL     1      -6.366  -1.911   4.212  1.00  0.00     0.031 C 
ATOM     59  C   UNL     1      -2.627   2.094   4.316  1.00  0.00     0.029 A 
ATOM     60  C   UNL     1      -3.536   1.062   4.524  1.00  0.00     0.049 A 
ATOM     61  H   UNL     1      -5.314   0.684   3.487  1.00  0.00     0.167 HD
ATOM     62  C   UNL     1      -4.487  -1.072   5.253  1.00  0.00     0.074 A 
ATOM     63  C   UNL     1      -5.881  -0.871   4.893  1.00  0.00     0.031 C 
ATOM     64  C   UNL     1      -3.483  -0.154   5.318  1.00  0.00     0.031 A 
BRANCH  51  65
ATOM     65  C   UNL     1      -6.374   2.429   1.360  1.00  0.00    -0.014 A 
ATOM     66  C   UNL     1      -7.210   1.441   0.782  1.00  0.00     0.009 A 
ATOM     67  C   UNL     1      -6.986   3.514   1.981  1.00  0.00     0.009 A 
ATOM     68  C   UNL     1      -8.588   1.595   0.698  1.00  0.00     0.001 A 
ATOM     69  C   UNL     1      -8.379   3.644   1.948  1.00  0.00     0.001 A 
ATOM     70  C   UNL     1      -9.174   2.704   1.286  1.00  0.00     0.000 A 
ENDBRANCH  51  65
BRANCH  52  71
ATOM     71  C   UNL     1      -5.800  -5.249   3.704  1.00  0.00    -0.014 A 
ATOM     72  C   UNL     1      -6.042  -6.273   2.769  1.00  0.00     0.009 A 
ATOM     73  C   UNL     1      -6.380  -5.435   4.978  1.00  0.00     0.009 A 
ATOM     74  C   UNL     1      -6.781  -7.423   3.076  1.00  0.00     0.001 A 
ATOM     75  C   UNL     1      -7.160  -6.570   5.279  1.00  0.00     0.001 A 
ATOM     76  C   UNL     1      -7.357  -7.566   4.328  1.00  0.00     0.000 A 
ENDBRANCH  52  71
BRANCH  64  77
ATOM     77  C   UNL     1      -2.206  -0.517   6.020  1.00  0.00    -0.014 A 
ATOM     78  C   UNL     1      -1.762   0.338   7.046  1.00  0.00     0.009 A 
ATOM     79  C   UNL     1      -1.405  -1.619   5.689  1.00  0.00     0.009 A 
ATOM     80  C   UNL     1      -0.553   0.112   7.708  1.00  0.00     0.001 A 
ATOM     81  C   UNL     1      -0.204  -1.860   6.367  1.00  0.00     0.001 A 
ATOM     82  C   UNL     1       0.225  -0.990   7.369  1.00  0.00     0.000 A 
ENDBRANCH  64  77
ENDBRANCH  38  39
ENDBRANCH  31  33
ENDBRANCH  30  31
ENDBRANCH  29  30
ENDBRANCH  28  29
ENDBRANCH  27  28
ENDBRANCH  26  27
ENDBRANCH   1  26
TORSDOF 20
