REMARK SMILES C[C@@H](NC(=O)[C@@H]1CC[C@@H]2CCCC[C@@H]2[NH2+]1)C(=O)OCCOCCOCCOC(=O)c1ccc(-c2c3nc(c(-c4ccccc4)c4ccc([nH]4)c(-c4ccccc4)c4nc(c(-c5ccccc5)c5ccc2[nH]5)C=C4)C=C3)cc1
REMARK SMILES IDX 22 1 21 2 20 3 19 4 18 5 16 6 17 7 2 8 1 9 3 10 4 11 5 13
REMARK SMILES IDX 6 14 7 15 15 16 8 17 14 18 9 21 13 22 10 23 12 24 11 25
REMARK SMILES IDX 23 26 24 27 25 28 26 29 27 30 28 31 29 32 30 33 31 34 77 35
REMARK SMILES IDX 32 36 76 37 33 38 34 39 35 40 70 41 36 42 75 43 69 44 71 45
REMARK SMILES IDX 37 46 74 47 68 48 67 49 38 51 60 52 45 53 59 54 46 55 49 56
REMARK SMILES IDX 58 57 72 58 47 59 48 60 57 62 73 63 50 64 39 65 40 66 44 67
REMARK SMILES IDX 41 68 43 69 42 70 61 71 62 72 66 73 63 74 65 75 64 76 51 77
REMARK SMILES IDX 52 78 56 79 53 80 55 81 54 82
REMARK H PARENT 3 12 15 19 15 20 71 50 49 61
REMARK Flexibility Score: inf
ROOT
ATOM      1  C   UNL     1      -2.644  -0.912   1.856  1.00  0.00     0.188 C 
ENDROOT
BRANCH   1   2
ATOM      2  O   UNL     1      -3.803  -0.719   1.068  1.00  0.00    -0.376 OA
BRANCH   2   3
ATOM      3  C   UNL     1      -3.910   0.565   0.487  1.00  0.00     0.202 C 
BRANCH   3   4
ATOM      4  C   UNL     1      -3.032   0.905  -0.729  1.00  0.00     0.261 C 
BRANCH   4   5
ATOM      5  O   UNL     1      -1.588   0.770  -0.791  1.00  0.00    -0.462 OA
BRANCH   5   6
ATOM      6  C   UNL     1      -0.756   1.166   0.191  1.00  0.00     0.328 C 
ATOM      7  O   UNL     1      -1.093   1.403   1.347  1.00  0.00    -0.250 OA
BRANCH   6   8
ATOM      8  C   UNL     1       0.653   1.483  -0.268  1.00  0.00     0.189 C 
ATOM      9  C   UNL     1       1.336   0.236  -0.825  1.00  0.00     0.043 C 
BRANCH   8  10
ATOM     10  N   UNL     1       0.727   2.618  -1.190  1.00  0.00    -0.338 N 
ATOM     11  C   UNL     1       0.175   3.869  -1.023  1.00  0.00     0.278 C 
ATOM     12  H   UNL     1       1.228   2.471  -2.025  1.00  0.00     0.164 HD
ATOM     13  O   UNL     1       0.898   4.826  -1.312  1.00  0.00    -0.268 OA
BRANCH  11  14
ATOM     14  C   UNL     1      -1.343   4.035  -0.729  1.00  0.00     0.272 C 
ATOM     15  C   UNL     1      -1.895   5.405  -1.124  1.00  0.00     0.076 C 
ATOM     16  N   UNL     1      -1.821   3.775   0.633  1.00  0.00    -0.333 N 
ATOM     17  C   UNL     1      -1.531   6.497  -0.115  1.00  0.00     0.016 C 
ATOM     18  C   UNL     1      -1.416   4.687   1.681  1.00  0.00     0.186 C 
ATOM     19  H   UNL     1      -1.494   2.845   0.897  1.00  0.00     0.347 HD
ATOM     20  H   UNL     1      -2.833   3.888   0.574  1.00  0.00     0.347 HD
ATOM     21  C   UNL     1      -1.867   6.096   1.331  1.00  0.00     0.048 C 
ATOM     22  C   UNL     1       0.028   4.505   2.176  1.00  0.00     0.065 C 
ATOM     23  C   UNL     1      -1.304   7.045   2.381  1.00  0.00     0.010 C 
ATOM     24  C   UNL     1       0.913   5.744   2.172  1.00  0.00     0.006 C 
ATOM     25  C   UNL     1       0.218   7.090   2.369  1.00  0.00     0.001 C 
ENDBRANCH  11  14
ENDBRANCH   8  10
ENDBRANCH   6   8
ENDBRANCH   5   6
ENDBRANCH   4   5
ENDBRANCH   3   4
ENDBRANCH   2   3
ENDBRANCH   1   2
BRANCH   1  26
ATOM     26  C   UNL     1      -1.499  -1.583   1.078  1.00  0.00     0.188 C 
BRANCH  26  27
ATOM     27  O   UNL     1      -1.735  -2.118  -0.211  1.00  0.00    -0.376 OA
BRANCH  27  28
ATOM     28  C   UNL     1      -2.910  -2.896  -0.396  1.00  0.00     0.202 C 
BRANCH  28  29
ATOM     29  C   UNL     1      -3.320  -3.983   0.629  1.00  0.00     0.261 C 
BRANCH  29  30
ATOM     30  O   UNL     1      -2.979  -3.772   2.016  1.00  0.00    -0.460 OA
BRANCH  30  31
ATOM     31  C   UNL     1      -1.837  -4.356   2.464  1.00  0.00     0.338 C 
ATOM     32  O   UNL     1      -1.114  -5.117   1.836  1.00  0.00    -0.246 OA
BRANCH  31  33
ATOM     33  C   UNL     1      -1.421  -3.721   3.748  1.00  0.00     0.060 A 
ATOM     34  C   UNL     1      -0.177  -3.061   3.809  1.00  0.00     0.016 A 
ATOM     35  C   UNL     1      -2.237  -3.756   4.877  1.00  0.00     0.016 A 
ATOM     36  C   UNL     1       0.257  -2.449   4.986  1.00  0.00     0.010 A 
ATOM     37  C   UNL     1      -1.774  -3.196   6.076  1.00  0.00     0.010 A 
ATOM     38  C   UNL     1      -0.512  -2.572   6.145  1.00  0.00    -0.014 A 
BRANCH  38  39
ATOM     39  C   UNL     1       0.114  -2.306   7.465  1.00  0.00     0.031 A 
ATOM     40  C   UNL     1       0.702  -3.478   8.205  1.00  0.00     0.074 A 
ATOM     41  C   UNL     1       0.186  -1.073   7.997  1.00  0.00     0.049 A 
ATOM     42  N   UNL     1       1.209  -3.535   9.410  1.00  0.00    -0.248 NA
ATOM     43  C   UNL     1       0.711  -4.764   7.486  1.00  0.00     0.031 C 
ATOM     44  C   UNL     1      -0.268   0.160   7.360  1.00  0.00     0.029 A 
ATOM     45  N   UNL     1       0.665  -0.666   9.220  1.00  0.00    -0.354 N 
ATOM     46  C   UNL     1       1.572  -4.863   9.600  1.00  0.00     0.074 A 
ATOM     47  C   UNL     1       1.211  -5.581   8.399  1.00  0.00     0.031 C 
ATOM     48  C   UNL     1      -0.070   1.185   8.209  1.00  0.00     0.029 A 
ATOM     49  C   UNL     1       0.487   0.674   9.461  1.00  0.00     0.049 A 
ATOM     50  H   UNL     1       1.094  -1.277   9.861  1.00  0.00     0.167 HD
ATOM     51  C   UNL     1       2.150  -5.437  10.680  1.00  0.00     0.031 A 
ATOM     52  C   UNL     1       0.716   1.397  10.576  1.00  0.00     0.031 A 
ATOM     53  C   UNL     1       2.500  -4.730  11.882  1.00  0.00     0.049 A 
ATOM     54  C   UNL     1       1.278   0.719  11.801  1.00  0.00     0.074 A 
ATOM     55  C   UNL     1       3.103  -5.222  13.025  1.00  0.00     0.029 A 
ATOM     56  N   UNL     1       2.268  -3.381  12.098  1.00  0.00    -0.354 N 
ATOM     57  N   UNL     1       1.627  -0.534  11.970  1.00  0.00    -0.248 NA
ATOM     58  C   UNL     1       1.483   1.562  12.990  1.00  0.00     0.031 C 
ATOM     59  C   UNL     1       3.174  -4.185  13.960  1.00  0.00     0.029 A 
ATOM     60  C   UNL     1       2.687  -3.030  13.370  1.00  0.00     0.049 A 
ATOM     61  H   UNL     1       1.866  -2.764  11.444  1.00  0.00     0.167 HD
ATOM     62  C   UNL     1       2.121  -0.622  13.267  1.00  0.00     0.074 A 
ATOM     63  C   UNL     1       2.040   0.707  13.837  1.00  0.00     0.031 C 
ATOM     64  C   UNL     1       2.602  -1.704  13.927  1.00  0.00     0.031 A 
BRANCH  51  65
ATOM     65  C   UNL     1       2.393  -6.920  10.629  1.00  0.00    -0.014 A 
ATOM     66  C   UNL     1       3.372  -7.477   9.792  1.00  0.00     0.009 A 
ATOM     67  C   UNL     1       1.644  -7.771  11.458  1.00  0.00     0.009 A 
ATOM     68  C   UNL     1       3.574  -8.859   9.763  1.00  0.00     0.001 A 
ATOM     69  C   UNL     1       1.870  -9.148  11.451  1.00  0.00     0.001 A 
ATOM     70  C   UNL     1       2.828  -9.692  10.597  1.00  0.00     0.000 A 
ENDBRANCH  51  65
BRANCH  52  71
ATOM     71  C   UNL     1       0.381   2.847  10.609  1.00  0.00    -0.014 A 
ATOM     72  C   UNL     1       1.391   3.817  10.710  1.00  0.00     0.009 A 
ATOM     73  C   UNL     1      -0.958   3.268  10.572  1.00  0.00     0.009 A 
ATOM     74  C   UNL     1       1.065   5.173  10.799  1.00  0.00     0.001 A 
ATOM     75  C   UNL     1      -1.279   4.626  10.628  1.00  0.00     0.001 A 
ATOM     76  C   UNL     1      -0.268   5.577  10.751  1.00  0.00     0.000 A 
ENDBRANCH  52  71
BRANCH  64  77
ATOM     77  C   UNL     1       3.126  -1.496  15.322  1.00  0.00    -0.014 A 
ATOM     78  C   UNL     1       2.268  -1.220  16.398  1.00  0.00     0.009 A 
ATOM     79  C   UNL     1       4.502  -1.631  15.572  1.00  0.00     0.009 A 
ATOM     80  C   UNL     1       2.781  -1.046  17.685  1.00  0.00     0.001 A 
ATOM     81  C   UNL     1       5.008  -1.491  16.864  1.00  0.00     0.001 A 
ATOM     82  C   UNL     1       4.149  -1.188  17.919  1.00  0.00     0.000 A 
ENDBRANCH  64  77
ENDBRANCH  38  39
ENDBRANCH  31  33
ENDBRANCH  30  31
ENDBRANCH  29  30
ENDBRANCH  28  29
ENDBRANCH  27  28
ENDBRANCH  26  27
ENDBRANCH   1  26
TORSDOF 19
