REMARK SMILES CC(C)(C)OCC[C@@H]1CCC[C@]1([NH2+]C1CC1)C(=O)OCCOCCOCCOC(=O)c1ccc(-c2c3nc(c(-c4ccccc4)c4ccc([nH]4)c(-c4ccccc4)c4nc(c(-c5ccccc5)c5ccc2[nH]5)C=C4)C=C3)cc1
REMARK SMILES IDX 23 1 22 2 21 3 20 4 19 5 17 6 18 7 12 8 8 9 9 10 10 11 11 12
REMARK SMILES IDX 7 13 6 14 5 15 2 16 1 17 3 18 4 19 13 20 14 23 15 24 16 25
REMARK SMILES IDX 24 26 25 27 26 28 27 29 28 30 29 31 30 32 31 33 32 34 78 35
REMARK SMILES IDX 33 36 77 37 34 38 35 39 36 40 71 41 37 42 76 43 70 44 72 45
REMARK SMILES IDX 38 46 75 47 69 48 68 49 39 51 61 52 46 53 60 54 47 55 50 56
REMARK SMILES IDX 59 57 73 58 48 59 49 60 58 62 74 63 51 64 40 65 41 66 45 67
REMARK SMILES IDX 42 68 44 69 43 70 62 71 63 72 67 73 64 74 66 75 65 76 52 77
REMARK SMILES IDX 53 78 57 79 54 80 56 81 55 82
REMARK H PARENT 13 21 13 22 72 50 50 61
REMARK Flexibility Score: inf
ROOT
ATOM      1  C   UNL     1       4.631   1.569  -2.456  1.00  0.00     0.188 C 
ENDROOT
BRANCH   1   2
ATOM      2  O   UNL     1       5.548   2.045  -3.433  1.00  0.00    -0.376 OA
BRANCH   2   3
ATOM      3  C   UNL     1       5.206   3.232  -4.132  1.00  0.00     0.202 C 
BRANCH   3   4
ATOM      4  C   UNL     1       4.229   3.048  -5.293  1.00  0.00     0.261 C 
BRANCH   4   5
ATOM      5  O   UNL     1       2.856   2.850  -4.913  1.00  0.00    -0.459 OA
BRANCH   5   6
ATOM      6  C   UNL     1       2.378   1.581  -5.077  1.00  0.00     0.368 C 
ATOM      7  O   UNL     1       3.085   0.578  -5.047  1.00  0.00    -0.245 OA
BRANCH   6   8
ATOM      8  C   UNL     1       0.862   1.556  -5.433  1.00  0.00     0.197 C 
ATOM      9  C   UNL     1      -0.112   2.055  -4.283  1.00  0.00     0.065 C 
ATOM     10  C   UNL     1      -0.902   0.802  -3.865  1.00  0.00     0.011 C 
ATOM     11  C   UNL     1      -0.090  -0.385  -4.333  1.00  0.00     0.008 C 
ATOM     12  C   UNL     1       0.399   0.094  -5.679  1.00  0.00     0.081 C 
BRANCH   9  13
ATOM     13  C   UNL     1       0.528   2.856  -3.119  1.00  0.00     0.039 C 
BRANCH  13  14
ATOM     14  C   UNL     1      -0.397   3.224  -1.940  1.00  0.00     0.161 C 
BRANCH  14  15
ATOM     15  O   UNL     1       0.063   2.774  -0.657  1.00  0.00    -0.376 OA
BRANCH  15  16
ATOM     16  C   UNL     1      -0.284   1.468  -0.172  1.00  0.00     0.060 C 
ATOM     17  C   UNL     1       0.087   1.444   1.327  1.00  0.00     0.042 C 
ATOM     18  C   UNL     1       0.599   0.405  -0.822  1.00  0.00     0.042 C 
ATOM     19  C   UNL     1      -1.784   1.146  -0.255  1.00  0.00     0.042 C 
ENDBRANCH  15  16
ENDBRANCH  14  15
ENDBRANCH  13  14
ENDBRANCH   9  13
BRANCH   8  20
ATOM     20  N   UNL     1       0.628   2.362  -6.658  1.00  0.00    -0.329 N 
ATOM     21  H   UNL     1       0.723   3.340  -6.385  1.00  0.00     0.347 HD
ATOM     22  H   UNL     1      -0.287   2.038  -6.970  1.00  0.00     0.347 HD
BRANCH  20  23
ATOM     23  C   UNL     1       1.465   2.177  -7.852  1.00  0.00     0.183 C 
ATOM     24  C   UNL     1       2.408   1.045  -8.146  1.00  0.00     0.071 C 
ATOM     25  C   UNL     1       1.084   1.102  -8.840  1.00  0.00     0.071 C 
ENDBRANCH  20  23
ENDBRANCH   8  20
ENDBRANCH   6   8
ENDBRANCH   5   6
ENDBRANCH   4   5
ENDBRANCH   3   4
ENDBRANCH   2   3
ENDBRANCH   1   2
BRANCH   1  26
ATOM     26  C   UNL     1       4.002   2.610  -1.520  1.00  0.00     0.188 C 
BRANCH  26  27
ATOM     27  O   UNL     1       4.917   3.476  -0.854  1.00  0.00    -0.376 OA
BRANCH  27  28
ATOM     28  C   UNL     1       5.930   2.847  -0.067  1.00  0.00     0.202 C 
BRANCH  28  29
ATOM     29  C   UNL     1       5.391   1.908   1.014  1.00  0.00     0.261 C 
BRANCH  29  30
ATOM     30  O   UNL     1       5.080   0.629   0.425  1.00  0.00    -0.460 OA
BRANCH  30  31
ATOM     31  C   UNL     1       4.473  -0.238   1.257  1.00  0.00     0.338 C 
ATOM     32  O   UNL     1       4.201  -0.051   2.436  1.00  0.00    -0.246 OA
BRANCH  31  33
ATOM     33  C   UNL     1       4.173  -1.505   0.560  1.00  0.00     0.060 A 
ATOM     34  C   UNL     1       3.424  -1.529  -0.619  1.00  0.00     0.016 A 
ATOM     35  C   UNL     1       4.506  -2.701   1.191  1.00  0.00     0.016 A 
ATOM     36  C   UNL     1       2.873  -2.731  -1.077  1.00  0.00     0.010 A 
ATOM     37  C   UNL     1       4.040  -3.911   0.673  1.00  0.00     0.010 A 
ATOM     38  C   UNL     1       3.158  -3.937  -0.424  1.00  0.00    -0.014 A 
BRANCH  38  39
ATOM     39  C   UNL     1       2.485  -5.221  -0.778  1.00  0.00     0.031 A 
ATOM     40  C   UNL     1       1.715  -5.963   0.288  1.00  0.00     0.074 A 
ATOM     41  C   UNL     1       2.557  -5.757  -2.011  1.00  0.00     0.049 A 
ATOM     42  N   UNL     1       1.341  -7.218   0.325  1.00  0.00    -0.248 NA
ATOM     43  C   UNL     1       1.327  -5.186   1.477  1.00  0.00     0.031 C 
ATOM     44  C   UNL     1       3.159  -5.132  -3.188  1.00  0.00     0.029 A 
ATOM     45  N   UNL     1       2.125  -6.981  -2.468  1.00  0.00    -0.354 N 
ATOM     46  C   UNL     1       0.744  -7.397   1.568  1.00  0.00     0.074 A 
ATOM     47  C   UNL     1       0.790  -6.120   2.248  1.00  0.00     0.031 C 
ATOM     48  C   UNL     1       3.053  -5.971  -4.231  1.00  0.00     0.029 A 
ATOM     49  C   UNL     1       2.469  -7.228  -3.775  1.00  0.00     0.049 A 
ATOM     50  H   UNL     1       1.618  -7.617  -1.913  1.00  0.00     0.167 HD
ATOM     51  C   UNL     1       0.219  -8.526   2.102  1.00  0.00     0.031 A 
ATOM     52  C   UNL     1       2.394  -8.357  -4.505  1.00  0.00     0.031 A 
ATOM     53  C   UNL     1       0.132  -9.786   1.413  1.00  0.00     0.049 A 
ATOM     54  C   UNL     1       1.892  -9.625  -3.871  1.00  0.00     0.074 A 
ATOM     55  C   UNL     1      -0.370 -10.991   1.875  1.00  0.00     0.029 A 
ATOM     56  N   UNL     1       0.540  -9.996   0.107  1.00  0.00    -0.354 N 
ATOM     57  N   UNL     1       1.429  -9.819  -2.660  1.00  0.00    -0.248 NA
ATOM     58  C   UNL     1       1.932 -10.839  -4.701  1.00  0.00     0.031 C 
ATOM     59  C   UNL     1      -0.232 -11.941   0.857  1.00  0.00     0.029 A 
ATOM     60  C   UNL     1       0.314 -11.315  -0.251  1.00  0.00     0.049 A 
ATOM     61  H   UNL     1       0.932  -9.311  -0.480  1.00  0.00     0.167 HD
ATOM     62  C   UNL     1       1.112 -11.170  -2.588  1.00  0.00     0.074 A 
ATOM     63  C   UNL     1       1.417 -11.744  -3.882  1.00  0.00     0.031 C 
ATOM     64  C   UNL     1       0.618 -11.873  -1.541  1.00  0.00     0.031 A 
BRANCH  51  65
ATOM     65  C   UNL     1      -0.248  -8.465   3.528  1.00  0.00    -0.014 A 
ATOM     66  C   UNL     1      -1.446  -7.829   3.886  1.00  0.00     0.009 A 
ATOM     67  C   UNL     1       0.518  -9.087   4.527  1.00  0.00     0.009 A 
ATOM     68  C   UNL     1      -1.849  -7.790   5.223  1.00  0.00     0.001 A 
ATOM     69  C   UNL     1       0.100  -9.068   5.858  1.00  0.00     0.001 A 
ATOM     70  C   UNL     1      -1.079  -8.412   6.207  1.00  0.00     0.000 A 
ENDBRANCH  51  65
BRANCH  52  71
ATOM     71  C   UNL     1       2.892  -8.369  -5.906  1.00  0.00    -0.014 A 
ATOM     72  C   UNL     1       2.001  -8.510  -6.979  1.00  0.00     0.009 A 
ATOM     73  C   UNL     1       4.267  -8.260  -6.173  1.00  0.00     0.009 A 
ATOM     74  C   UNL     1       2.477  -8.558  -8.291  1.00  0.00     0.001 A 
ATOM     75  C   UNL     1       4.737  -8.277  -7.487  1.00  0.00     0.001 A 
ATOM     76  C   UNL     1       3.843  -8.435  -8.544  1.00  0.00     0.000 A 
ENDBRANCH  52  71
BRANCH  64  77
ATOM     77  C   UNL     1       0.340 -13.332  -1.763  1.00  0.00    -0.014 A 
ATOM     78  C   UNL     1       1.382 -14.270  -1.815  1.00  0.00     0.009 A 
ATOM     79  C   UNL     1      -0.986 -13.776  -1.886  1.00  0.00     0.009 A 
ATOM     80  C   UNL     1       1.101 -15.623  -2.017  1.00  0.00     0.001 A 
ATOM     81  C   UNL     1      -1.264 -15.132  -2.064  1.00  0.00     0.001 A 
ATOM     82  C   UNL     1      -0.220 -16.053  -2.137  1.00  0.00     0.000 A 
ENDBRANCH  64  77
ENDBRANCH  38  39
ENDBRANCH  31  33
ENDBRANCH  30  31
ENDBRANCH  29  30
ENDBRANCH  28  29
ENDBRANCH  27  28
ENDBRANCH  26  27
ENDBRANCH   1  26
TORSDOF 23
