REMARK SMILES CC(C)Cc1noc(CCCCC(=O)OCCOCCOCCOC(=O)c2ccc(-c3c4nc(c(-c5ccccc5)c5ccc([nH]5)c(-c5ccccc5)c5nc(c(-c6ccccc6)c6ccc3[nH]6)C=C5)C=C4)cc2)n1
REMARK SMILES IDX 17 1 16 2 15 3 13 4 14 5 12 6 11 7 10 8 9 9 8 10 5 11 6 12
REMARK SMILES IDX 75 13 7 14 4 15 2 16 1 17 3 18 18 19 19 20 20 21 21 22 22 23
REMARK SMILES IDX 23 24 24 25 25 26 26 27 27 28 28 29 74 30 29 31 73 32 30 33
REMARK SMILES IDX 31 34 32 35 67 36 33 37 72 38 66 39 68 40 34 41 71 42 65 43
REMARK SMILES IDX 64 44 35 46 57 47 42 48 56 49 43 50 46 51 55 52 69 53 44 54
REMARK SMILES IDX 45 55 54 57 70 58 47 59 36 60 37 61 41 62 38 63 40 64 39 65
REMARK SMILES IDX 58 66 59 67 63 68 60 69 62 70 61 71 48 72 49 73 53 74 50 75
REMARK SMILES IDX 52 76 51 77
REMARK H PARENT 68 45 46 56
REMARK Flexibility Score: inf
ROOT
ATOM      1  C   UNL     1      -4.398  -1.233  -9.650  1.00  0.00     0.202 C 
ENDROOT
BRANCH   1   2
ATOM      2  C   UNL     1      -3.241  -1.775  -8.796  1.00  0.00     0.261 C 
BRANCH   2   3
ATOM      3  O   UNL     1      -3.207  -1.223  -7.467  1.00  0.00    -0.463 OA
BRANCH   3   4
ATOM      4  C   UNL     1      -2.080  -0.550  -7.121  1.00  0.00     0.305 C 
ATOM      5  O   UNL     1      -1.059  -0.495  -7.796  1.00  0.00    -0.252 OA
BRANCH   4   6
ATOM      6  C   UNL     1      -2.223   0.236  -5.832  1.00  0.00     0.123 C 
BRANCH   6   7
ATOM      7  C   UNL     1      -3.462   0.005  -4.965  1.00  0.00     0.012 C 
BRANCH   7   8
ATOM      8  C   UNL     1      -3.701  -1.425  -4.462  1.00  0.00     0.010 C 
BRANCH   8   9
ATOM      9  C   UNL     1      -2.473  -2.168  -3.933  1.00  0.00     0.100 C 
BRANCH   9  10
ATOM     10  C   UNL     1      -1.973  -1.613  -2.655  1.00  0.00     0.226 A 
ATOM     11  C   UNL     1      -1.295  -1.178  -0.734  1.00  0.00     0.172 A 
ATOM     12  N   UNL     1      -1.322   0.023  -1.324  1.00  0.00    -0.063 NA
ATOM     13  N   UNL     1      -1.711  -2.221  -1.521  1.00  0.00    -0.196 NA
ATOM     14  O   UNL     1      -1.725  -0.272  -2.617  1.00  0.00    -0.339 OA
BRANCH  11  15
ATOM     15  C   UNL     1      -0.781  -1.369   0.642  1.00  0.00     0.084 C 
BRANCH  15  16
ATOM     16  C   UNL     1       0.758  -1.418   0.691  1.00  0.00    -0.010 C 
ATOM     17  C   UNL     1       1.396  -0.072   0.326  1.00  0.00     0.008 C 
ATOM     18  C   UNL     1       1.221  -1.845   2.082  1.00  0.00     0.008 C 
ENDBRANCH  15  16
ENDBRANCH  11  15
ENDBRANCH   9  10
ENDBRANCH   8   9
ENDBRANCH   7   8
ENDBRANCH   6   7
ENDBRANCH   4   6
ENDBRANCH   3   4
ENDBRANCH   2   3
ENDBRANCH   1   2
BRANCH   1  19
ATOM     19  O   UNL     1      -4.481   0.187  -9.774  1.00  0.00    -0.376 OA
BRANCH  19  20
ATOM     20  C   UNL     1      -4.755   0.916  -8.583  1.00  0.00     0.188 C 
BRANCH  20  21
ATOM     21  C   UNL     1      -6.039   0.545  -7.844  1.00  0.00     0.188 C 
BRANCH  21  22
ATOM     22  O   UNL     1      -6.221  -0.833  -7.550  1.00  0.00    -0.376 OA
BRANCH  22  23
ATOM     23  C   UNL     1      -7.442  -1.183  -6.889  1.00  0.00     0.202 C 
BRANCH  23  24
ATOM     24  C   UNL     1      -8.754  -0.581  -7.441  1.00  0.00     0.261 C 
BRANCH  24  25
ATOM     25  O   UNL     1      -8.830   0.863  -7.474  1.00  0.00    -0.460 OA
BRANCH  25  26
ATOM     26  C   UNL     1      -8.545   1.544  -6.340  1.00  0.00     0.338 C 
ATOM     27  O   UNL     1      -8.464   1.075  -5.217  1.00  0.00    -0.246 OA
BRANCH  26  28
ATOM     28  C   UNL     1      -8.067   2.909  -6.711  1.00  0.00     0.060 A 
ATOM     29  C   UNL     1      -7.000   3.457  -5.980  1.00  0.00     0.016 A 
ATOM     30  C   UNL     1      -8.587   3.616  -7.800  1.00  0.00     0.016 A 
ATOM     31  C   UNL     1      -6.489   4.719  -6.301  1.00  0.00     0.010 A 
ATOM     32  C   UNL     1      -8.085   4.888  -8.111  1.00  0.00     0.010 A 
ATOM     33  C   UNL     1      -7.058   5.465  -7.340  1.00  0.00    -0.014 A 
BRANCH  33  34
ATOM     34  C   UNL     1      -6.749   6.915  -7.472  1.00  0.00     0.031 A 
ATOM     35  C   UNL     1      -7.709   7.900  -6.853  1.00  0.00     0.074 A 
ATOM     36  C   UNL     1      -5.645   7.372  -8.091  1.00  0.00     0.049 A 
ATOM     37  N   UNL     1      -7.692   9.209  -6.876  1.00  0.00    -0.248 NA
ATOM     38  C   UNL     1      -8.841   7.324  -6.109  1.00  0.00     0.031 C 
ATOM     39  C   UNL     1      -4.594   6.546  -8.681  1.00  0.00     0.029 A 
ATOM     40  N   UNL     1      -5.231   8.662  -8.327  1.00  0.00    -0.354 N 
ATOM     41  C   UNL     1      -8.814   9.611  -6.161  1.00  0.00     0.074 A 
ATOM     42  C   UNL     1      -9.504   8.410  -5.743  1.00  0.00     0.031 C 
ATOM     43  C   UNL     1      -3.659   7.351  -9.219  1.00  0.00     0.029 A 
ATOM     44  C   UNL     1      -4.062   8.747  -9.046  1.00  0.00     0.049 A 
ATOM     45  H   UNL     1      -5.726   9.452  -8.010  1.00  0.00     0.167 HD
ATOM     46  C   UNL     1      -9.237  10.864  -5.870  1.00  0.00     0.031 A 
ATOM     47  C   UNL     1      -3.408   9.823  -9.530  1.00  0.00     0.031 A 
ATOM     48  C   UNL     1      -8.572  12.066  -6.292  1.00  0.00     0.049 A 
ATOM     49  C   UNL     1      -3.953  11.209  -9.282  1.00  0.00     0.074 A 
ATOM     50  C   UNL     1      -8.926  13.380  -6.037  1.00  0.00     0.029 A 
ATOM     51  N   UNL     1      -7.423  12.104  -7.064  1.00  0.00    -0.354 N 
ATOM     52  N   UNL     1      -5.006  11.576  -8.592  1.00  0.00    -0.248 NA
ATOM     53  C   UNL     1      -3.212  12.331  -9.881  1.00  0.00     0.031 C 
ATOM     54  C   UNL     1      -8.028  14.213  -6.711  1.00  0.00     0.029 A 
ATOM     55  C   UNL     1      -7.073  13.418  -7.324  1.00  0.00     0.049 A 
ATOM     56  H   UNL     1      -6.928  11.314  -7.381  1.00  0.00     0.167 HD
ATOM     57  C   UNL     1      -5.032  12.966  -8.646  1.00  0.00     0.074 A 
ATOM     58  C   UNL     1      -3.884  13.378  -9.424  1.00  0.00     0.031 C 
ATOM     59  C   UNL     1      -5.928  13.824  -8.097  1.00  0.00     0.031 A 
BRANCH  46  60
ATOM     60  C   UNL     1     -10.516  10.993  -5.089  1.00  0.00    -0.014 A 
ATOM     61  C   UNL     1     -10.587  10.638  -3.733  1.00  0.00     0.009 A 
ATOM     62  C   UNL     1     -11.663  11.501  -5.719  1.00  0.00     0.009 A 
ATOM     63  C   UNL     1     -11.791  10.752  -3.035  1.00  0.00     0.001 A 
ATOM     64  C   UNL     1     -12.856  11.645  -5.011  1.00  0.00     0.001 A 
ATOM     65  C   UNL     1     -12.922  11.261  -3.672  1.00  0.00     0.000 A 
ENDBRANCH  46  60
BRANCH  47  66
ATOM     66  C   UNL     1      -2.168   9.648 -10.337  1.00  0.00    -0.014 A 
ATOM     67  C   UNL     1      -0.926  10.092  -9.855  1.00  0.00     0.009 A 
ATOM     68  C   UNL     1      -2.229   9.078 -11.619  1.00  0.00     0.009 A 
ATOM     69  C   UNL     1       0.220   9.993 -10.649  1.00  0.00     0.001 A 
ATOM     70  C   UNL     1      -1.077   8.951 -12.397  1.00  0.00     0.001 A 
ATOM     71  C   UNL     1       0.145   9.419 -11.916  1.00  0.00     0.000 A 
ENDBRANCH  47  66
BRANCH  59  72
ATOM     72  C   UNL     1      -5.684  15.299  -8.275  1.00  0.00    -0.014 A 
ATOM     73  C   UNL     1      -5.850  15.927  -9.519  1.00  0.00     0.009 A 
ATOM     74  C   UNL     1      -5.332  16.082  -7.163  1.00  0.00     0.009 A 
ATOM     75  C   UNL     1      -5.633  17.302  -9.652  1.00  0.00     0.001 A 
ATOM     76  C   UNL     1      -5.149  17.460  -7.292  1.00  0.00     0.001 A 
ATOM     77  C   UNL     1      -5.289  18.067  -8.538  1.00  0.00     0.000 A 
ENDBRANCH  59  72
ENDBRANCH  33  34
ENDBRANCH  26  28
ENDBRANCH  25  26
ENDBRANCH  24  25
ENDBRANCH  23  24
ENDBRANCH  22  23
ENDBRANCH  21  22
ENDBRANCH  20  21
ENDBRANCH  19  20
ENDBRANCH   1  19
TORSDOF 23
