REMARK SMILES CCOc1cncc(N(CC(=O)OCCOCCOCCOC(=O)c2ccc(-c3c4nc(c(-c5ccccc5)c5ccc([nH]5)c(-c5ccccc5)c5nc(c(-c6ccccc6)c6ccc3[nH]6)C=C5)C=C4)cc2)C(C)(C)C)n1
REMARK SMILES IDX 17 1 16 2 15 3 14 4 13 5 11 6 12 7 10 8 9 9 8 10 4 11 5 12
REMARK SMILES IDX 77 13 6 14 7 15 3 16 2 17 1 18 73 19 74 20 75 21 76 22 18 23
REMARK SMILES IDX 19 24 20 25 21 26 22 27 23 28 24 29 25 30 26 31 72 32 27 33
REMARK SMILES IDX 71 34 28 35 29 36 30 37 65 38 31 39 70 40 64 41 66 42 32 43
REMARK SMILES IDX 69 44 63 45 62 46 33 48 55 49 40 50 54 51 41 52 44 53 53 54
REMARK SMILES IDX 67 55 42 56 43 57 52 59 68 60 45 61 34 62 35 63 39 64 36 65
REMARK SMILES IDX 38 66 37 67 56 68 57 69 61 70 58 71 60 72 59 73 46 74 47 75
REMARK SMILES IDX 51 76 48 77 50 78 49 79
REMARK H PARENT 66 47 44 58
REMARK Flexibility Score: inf
ROOT
ATOM      1  C   UNL     1       5.997   2.924   8.587  1.00  0.00     0.188 C 
ENDROOT
BRANCH   1   2
ATOM      2  O   UNL     1       6.785   4.073   8.283  1.00  0.00    -0.376 OA
BRANCH   2   3
ATOM      3  C   UNL     1       6.616   4.667   6.997  1.00  0.00     0.202 C 
BRANCH   3   4
ATOM      4  C   UNL     1       7.192   3.855   5.834  1.00  0.00     0.261 C 
BRANCH   4   5
ATOM      5  O   UNL     1       6.442   2.646   5.590  1.00  0.00    -0.462 OA
BRANCH   5   6
ATOM      6  C   UNL     1       7.126   1.662   4.949  1.00  0.00     0.325 C 
ATOM      7  O   UNL     1       8.306   1.752   4.617  1.00  0.00    -0.250 OA
BRANCH   6   8
ATOM      8  C   UNL     1       6.332   0.367   4.743  1.00  0.00     0.241 C 
BRANCH   8   9
ATOM      9  N   UNL     1       4.864   0.494   4.548  1.00  0.00    -0.339 N 
BRANCH   9  10
ATOM     10  C   UNL     1       4.398   0.934   3.298  1.00  0.00     0.152 A 
ATOM     11  C   UNL     1       2.651   1.223   1.796  1.00  0.00     0.234 A 
ATOM     12  C   UNL     1       3.500   1.726   0.834  1.00  0.00     0.179 A 
ATOM     13  N   UNL     1       3.077   0.842   3.020  1.00  0.00    -0.193 NA
ATOM     14  N   UNL     1       4.823   1.842   1.050  1.00  0.00    -0.255 NA
ATOM     15  C   UNL     1       5.233   1.448   2.288  1.00  0.00     0.158 A 
BRANCH  11  16
ATOM     16  O   UNL     1       1.302   1.184   1.551  1.00  0.00    -0.477 OA
BRANCH  16  17
ATOM     17  C   UNL     1       0.867  -0.155   1.302  1.00  0.00     0.228 C 
ATOM     18  C   UNL     1       0.706  -0.351  -0.198  1.00  0.00     0.049 C 
ENDBRANCH  16  17
ENDBRANCH  11  16
ENDBRANCH   9  10
BRANCH   9  19
ATOM     19  C   UNL     1       3.896  -0.183   5.481  1.00  0.00     0.034 C 
ATOM     20  C   UNL     1       2.735   0.768   5.869  1.00  0.00     0.034 C 
ATOM     21  C   UNL     1       3.335  -1.485   4.868  1.00  0.00     0.034 C 
ATOM     22  C   UNL     1       4.575  -0.622   6.796  1.00  0.00     0.034 C 
ENDBRANCH   9  19
ENDBRANCH   8   9
ENDBRANCH   6   8
ENDBRANCH   5   6
ENDBRANCH   4   5
ENDBRANCH   3   4
ENDBRANCH   2   3
ENDBRANCH   1   2
BRANCH   1  23
ATOM     23  C   UNL     1       4.561   2.896   8.041  1.00  0.00     0.188 C 
BRANCH  23  24
ATOM     24  O   UNL     1       3.781   4.071   8.228  1.00  0.00    -0.376 OA
BRANCH  24  25
ATOM     25  C   UNL     1       3.598   4.503   9.573  1.00  0.00     0.202 C 
BRANCH  25  26
ATOM     26  C   UNL     1       2.816   3.506  10.425  1.00  0.00     0.261 C 
BRANCH  26  27
ATOM     27  O   UNL     1       3.670   2.403  10.785  1.00  0.00    -0.460 OA
BRANCH  27  28
ATOM     28  C   UNL     1       3.016   1.358  11.332  1.00  0.00     0.338 C 
ATOM     29  O   UNL     1       1.829   1.298  11.623  1.00  0.00    -0.246 OA
BRANCH  28  30
ATOM     30  C   UNL     1       3.946   0.232  11.516  1.00  0.00     0.060 A 
ATOM     31  C   UNL     1       4.520  -0.381  10.402  1.00  0.00     0.016 A 
ATOM     32  C   UNL     1       4.122  -0.316  12.784  1.00  0.00     0.016 A 
ATOM     33  C   UNL     1       5.204  -1.591  10.537  1.00  0.00     0.010 A 
ATOM     34  C   UNL     1       4.856  -1.498  12.927  1.00  0.00     0.010 A 
ATOM     35  C   UNL     1       5.359  -2.177  11.801  1.00  0.00    -0.014 A 
BRANCH  35  36
ATOM     36  C   UNL     1       5.915  -3.553  11.944  1.00  0.00     0.031 A 
ATOM     37  C   UNL     1       5.034  -4.654  12.480  1.00  0.00     0.074 A 
ATOM     38  C   UNL     1       7.178  -3.847  11.580  1.00  0.00     0.049 A 
ATOM     39  N   UNL     1       5.356  -5.865  12.863  1.00  0.00    -0.248 NA
ATOM     40  C   UNL     1       3.600  -4.347  12.608  1.00  0.00     0.031 C 
ATOM     41  C   UNL     1       8.129  -2.918  10.972  1.00  0.00     0.029 A 
ATOM     42  N   UNL     1       7.874  -5.029  11.667  1.00  0.00    -0.354 N 
ATOM     43  C   UNL     1       4.181  -6.437  13.336  1.00  0.00     0.074 A 
ATOM     44  C   UNL     1       3.137  -5.446  13.185  1.00  0.00     0.031 C 
ATOM     45  C   UNL     1       9.274  -3.572  10.713  1.00  0.00     0.029 A 
ATOM     46  C   UNL     1       9.165  -4.943  11.205  1.00  0.00     0.049 A 
ATOM     47  H   UNL     1       7.485  -5.859  12.025  1.00  0.00     0.167 HD
ATOM     48  C   UNL     1       3.986  -7.672  13.857  1.00  0.00     0.031 A 
ATOM     49  C   UNL     1      10.162  -5.849  11.212  1.00  0.00     0.031 A 
ATOM     50  C   UNL     1       5.005  -8.681  13.969  1.00  0.00     0.049 A 
ATOM     51  C   UNL     1       9.937  -7.200  11.831  1.00  0.00     0.074 A 
ATOM     52  C   UNL     1       4.903  -9.958  14.494  1.00  0.00     0.029 A 
ATOM     53  N   UNL     1       6.309  -8.532  13.529  1.00  0.00    -0.354 N 
ATOM     54  N   UNL     1       8.843  -7.697  12.355  1.00  0.00    -0.248 NA
ATOM     55  C   UNL     1      11.094  -8.106  11.879  1.00  0.00     0.031 C 
ATOM     56  C   UNL     1       6.157 -10.573  14.398  1.00  0.00     0.029 A 
ATOM     57  C   UNL     1       7.026  -9.691  13.777  1.00  0.00     0.049 A 
ATOM     58  H   UNL     1       6.673  -7.723  13.102  1.00  0.00     0.167 HD
ATOM     59  C   UNL     1       9.181  -8.972  12.794  1.00  0.00     0.074 A 
ATOM     60  C   UNL     1      10.571  -9.183  12.449  1.00  0.00     0.031 C 
ATOM     61  C   UNL     1       8.410  -9.883  13.436  1.00  0.00     0.031 A 
BRANCH  48  62
ATOM     62  C   UNL     1       2.619  -7.982  14.397  1.00  0.00    -0.014 A 
ATOM     63  C   UNL     1       1.536  -8.253  13.547  1.00  0.00     0.009 A 
ATOM     64  C   UNL     1       2.421  -8.020  15.786  1.00  0.00     0.009 A 
ATOM     65  C   UNL     1       0.273  -8.523  14.081  1.00  0.00     0.001 A 
ATOM     66  C   UNL     1       1.165  -8.314  16.317  1.00  0.00     0.001 A 
ATOM     67  C   UNL     1       0.089  -8.557  15.463  1.00  0.00     0.000 A 
ENDBRANCH  48  62
BRANCH  49  68
ATOM     68  C   UNL     1      11.494  -5.490  10.660  1.00  0.00    -0.014 A 
ATOM     69  C   UNL     1      11.952  -6.069   9.468  1.00  0.00     0.009 A 
ATOM     70  C   UNL     1      12.319  -4.574  11.332  1.00  0.00     0.009 A 
ATOM     71  C   UNL     1      13.215  -5.747   8.965  1.00  0.00     0.001 A 
ATOM     72  C   UNL     1      13.569  -4.232  10.812  1.00  0.00     0.001 A 
ATOM     73  C   UNL     1      14.019  -4.824   9.633  1.00  0.00     0.000 A 
ENDBRANCH  49  68
BRANCH  61  74
ATOM     74  C   UNL     1       9.052 -11.192  13.791  1.00  0.00    -0.014 A 
ATOM     75  C   UNL     1       9.949 -11.288  14.867  1.00  0.00     0.009 A 
ATOM     76  C   UNL     1       8.741 -12.346  13.057  1.00  0.00     0.009 A 
ATOM     77  C   UNL     1      10.546 -12.510  15.180  1.00  0.00     0.001 A 
ATOM     78  C   UNL     1       9.323 -13.571  13.386  1.00  0.00     0.001 A 
ATOM     79  C   UNL     1      10.231 -13.651  14.442  1.00  0.00     0.000 A 
ENDBRANCH  61  74
ENDBRANCH  35  36
ENDBRANCH  28  30
ENDBRANCH  27  28
ENDBRANCH  26  27
ENDBRANCH  25  26
ENDBRANCH  24  25
ENDBRANCH  23  24
ENDBRANCH   1  23
TORSDOF 22
