REMARK SMILES Cn1nccc1/C=C/C(=O)N[C@H](CO)C(=O)OCCOCCOCCOC(=O)c1ccc(-c2c3nc(c(-c4ccccc4)c4ccc([nH]4)c(-c4ccccc4)c4nc(c(-c5ccccc5)c5ccc2[nH]5)C=C4)C=C3)cc1
REMARK SMILES IDX 21 1 20 2 19 3 18 4 17 5 15 6 16 7 12 8 11 9 9 10 10 11 8 13
REMARK SMILES IDX 7 14 6 15 1 16 2 17 3 18 4 19 5 20 13 21 14 22 22 24 23 25
REMARK SMILES IDX 24 26 25 27 26 28 27 29 28 30 29 31 30 32 76 33 31 34 75 35
REMARK SMILES IDX 32 36 33 37 34 38 69 39 35 40 74 41 68 42 70 43 36 44 73 45
REMARK SMILES IDX 67 46 66 47 37 49 59 50 44 51 58 52 45 53 48 54 57 55 71 56
REMARK SMILES IDX 46 57 47 58 56 60 72 61 49 62 38 63 39 64 43 65 40 66 42 67
REMARK SMILES IDX 41 68 60 69 61 70 65 71 62 72 64 73 63 74 50 75 51 76 55 77
REMARK SMILES IDX 52 78 54 79 53 80
REMARK H PARENT 11 12 14 23 70 48 48 59
REMARK Flexibility Score: inf
ROOT
ATOM      1  C   UNL     1      -2.401  -3.987   3.707  1.00  0.00     0.188 C 
ENDROOT
BRANCH   1   2
ATOM      2  O   UNL     1      -3.784  -3.818   4.015  1.00  0.00    -0.376 OA
BRANCH   2   3
ATOM      3  C   UNL     1      -4.731  -4.807   3.643  1.00  0.00     0.202 C 
BRANCH   3   4
ATOM      4  C   UNL     1      -5.169  -4.817   2.178  1.00  0.00     0.261 C 
BRANCH   4   5
ATOM      5  O   UNL     1      -4.129  -5.027   1.205  1.00  0.00    -0.462 OA
BRANCH   5   6
ATOM      6  C   UNL     1      -3.670  -3.907   0.584  1.00  0.00     0.331 C 
ATOM      7  O   UNL     1      -3.931  -2.760   0.932  1.00  0.00    -0.250 OA
BRANCH   6   8
ATOM      8  C   UNL     1      -2.811  -4.209  -0.652  1.00  0.00     0.218 C 
BRANCH   8   9
ATOM      9  N   UNL     1      -3.492  -5.128  -1.578  1.00  0.00    -0.337 N 
ATOM     10  C   UNL     1      -3.567  -6.451  -1.821  1.00  0.00     0.244 C 
ATOM     11  O   UNL     1      -4.355  -6.803  -2.703  1.00  0.00    -0.270 OA
ATOM     12  H   UNL     1      -4.062  -4.628  -2.206  1.00  0.00     0.164 HD
BRANCH  10  13
ATOM     13  C   UNL     1      -2.717  -7.502  -1.222  1.00  0.00     0.073 C 
ATOM     14  C   UNL     1      -2.324  -7.672   0.046  1.00  0.00     0.033 C 
BRANCH  14  15
ATOM     15  C   UNL     1      -1.642  -8.861   0.422  1.00  0.00     0.061 A 
ATOM     16  C   UNL     1       0.352  -7.770   1.597  1.00  0.00     0.174 C 
ATOM     17  N   UNL     1      -0.497  -8.864   1.192  1.00  0.00    -0.269 N 
ATOM     18  N   UNL     1      -0.077 -10.110   1.508  1.00  0.00    -0.181 NA
ATOM     19  C   UNL     1      -0.928 -10.912   0.873  1.00  0.00     0.136 A 
ATOM     20  C   UNL     1      -1.906 -10.195   0.168  1.00  0.00     0.050 A 
ENDBRANCH  14  15
ENDBRANCH  10  13
ENDBRANCH   8   9
BRANCH   8  21
ATOM     21  C   UNL     1      -1.329  -4.474  -0.398  1.00  0.00     0.193 C 
BRANCH  21  22
ATOM     22  O   UNL     1      -0.730  -3.563   0.518  1.00  0.00    -0.394 OA
ATOM     23  H   UNL     1      -0.775  -2.664   0.156  1.00  0.00     0.210 HD
ENDBRANCH  21  22
ENDBRANCH   8  21
ENDBRANCH   6   8
ENDBRANCH   5   6
ENDBRANCH   4   5
ENDBRANCH   3   4
ENDBRANCH   2   3
ENDBRANCH   1   2
BRANCH   1  24
ATOM     24  C   UNL     1      -1.864  -5.370   3.319  1.00  0.00     0.188 C 
BRANCH  24  25
ATOM     25  O   UNL     1      -2.424  -6.406   4.108  1.00  0.00    -0.376 OA
BRANCH  25  26
ATOM     26  C   UNL     1      -1.550  -7.211   4.876  1.00  0.00     0.202 C 
BRANCH  26  27
ATOM     27  C   UNL     1      -0.926  -6.526   6.094  1.00  0.00     0.261 C 
BRANCH  27  28
ATOM     28  O   UNL     1      -0.292  -5.261   5.842  1.00  0.00    -0.460 OA
BRANCH  28  29
ATOM     29  C   UNL     1       0.864  -5.266   5.148  1.00  0.00     0.338 C 
ATOM     30  O   UNL     1       1.438  -6.238   4.672  1.00  0.00    -0.246 OA
BRANCH  29  31
ATOM     31  C   UNL     1       1.235  -3.862   4.881  1.00  0.00     0.060 A 
ATOM     32  C   UNL     1       1.435  -3.447   3.559  1.00  0.00     0.016 A 
ATOM     33  C   UNL     1       1.375  -2.956   5.936  1.00  0.00     0.016 A 
ATOM     34  C   UNL     1       1.802  -2.126   3.290  1.00  0.00     0.010 A 
ATOM     35  C   UNL     1       1.754  -1.639   5.666  1.00  0.00     0.010 A 
ATOM     36  C   UNL     1       1.994  -1.223   4.345  1.00  0.00    -0.014 A 
BRANCH  36  37
ATOM     37  C   UNL     1       2.599   0.108   4.096  1.00  0.00     0.031 A 
ATOM     38  C   UNL     1       4.071   0.286   4.344  1.00  0.00     0.074 A 
ATOM     39  C   UNL     1       1.859   1.145   3.666  1.00  0.00     0.049 A 
ATOM     40  N   UNL     1       4.798   1.372   4.293  1.00  0.00    -0.248 NA
ATOM     41  C   UNL     1       4.824  -0.929   4.698  1.00  0.00     0.031 C 
ATOM     42  C   UNL     1       0.436   1.095   3.336  1.00  0.00     0.029 A 
ATOM     43  N   UNL     1       2.212   2.454   3.445  1.00  0.00    -0.354 N 
ATOM     44  C   UNL     1       6.088   0.976   4.622  1.00  0.00     0.074 A 
ATOM     45  C   UNL     1       6.042  -0.445   4.888  1.00  0.00     0.031 C 
ATOM     46  C   UNL     1       0.033   2.323   2.964  1.00  0.00     0.029 A 
ATOM     47  C   UNL     1       1.158   3.251   3.071  1.00  0.00     0.049 A 
ATOM     48  H   UNL     1       3.132   2.788   3.545  1.00  0.00     0.167 HD
ATOM     49  C   UNL     1       7.212   1.727   4.699  1.00  0.00     0.031 A 
ATOM     50  C   UNL     1       1.102   4.583   2.871  1.00  0.00     0.031 A 
ATOM     51  C   UNL     1       7.258   3.143   4.456  1.00  0.00     0.049 A 
ATOM     52  C   UNL     1       2.346   5.413   3.056  1.00  0.00     0.074 A 
ATOM     53  C   UNL     1       8.349   3.993   4.511  1.00  0.00     0.029 A 
ATOM     54  N   UNL     1       6.160   3.920   4.122  1.00  0.00    -0.354 N 
ATOM     55  N   UNL     1       3.561   5.029   3.362  1.00  0.00    -0.248 NA
ATOM     56  C   UNL     1       2.206   6.866   2.867  1.00  0.00     0.031 C 
ATOM     57  C   UNL     1       7.901   5.294   4.258  1.00  0.00     0.029 A 
ATOM     58  C   UNL     1       6.543   5.244   3.991  1.00  0.00     0.049 A 
ATOM     59  H   UNL     1       5.245   3.581   3.996  1.00  0.00     0.167 HD
ATOM     60  C   UNL     1       4.333   6.184   3.378  1.00  0.00     0.074 A 
ATOM     61  C   UNL     1       3.453   7.282   3.036  1.00  0.00     0.031 C 
ATOM     62  C   UNL     1       5.654   6.325   3.649  1.00  0.00     0.031 A 
BRANCH  49  63
ATOM     63  C   UNL     1       8.477   1.028   5.108  1.00  0.00    -0.014 A 
ATOM     64  C   UNL     1       9.139   0.148   4.238  1.00  0.00     0.009 A 
ATOM     65  C   UNL     1       9.022   1.266   6.380  1.00  0.00     0.009 A 
ATOM     66  C   UNL     1      10.303  -0.507   4.647  1.00  0.00     0.001 A 
ATOM     67  C   UNL     1      10.200   0.631   6.776  1.00  0.00     0.001 A 
ATOM     68  C   UNL     1      10.834  -0.262   5.913  1.00  0.00     0.000 A 
ENDBRANCH  49  63
BRANCH  50  69
ATOM     69  C   UNL     1      -0.185   5.231   2.506  1.00  0.00    -0.014 A 
ATOM     70  C   UNL     1      -0.370   5.787   1.231  1.00  0.00     0.009 A 
ATOM     71  C   UNL     1      -1.226   5.324   3.443  1.00  0.00     0.009 A 
ATOM     72  C   UNL     1      -1.562   6.442   0.910  1.00  0.00     0.001 A 
ATOM     73  C   UNL     1      -2.427   5.954   3.110  1.00  0.00     0.001 A 
ATOM     74  C   UNL     1      -2.591   6.520   1.847  1.00  0.00     0.000 A 
ENDBRANCH  50  69
BRANCH  62  75
ATOM     75  C   UNL     1       6.237   7.707   3.550  1.00  0.00    -0.014 A 
ATOM     76  C   UNL     1       5.969   8.685   4.520  1.00  0.00     0.009 A 
ATOM     77  C   UNL     1       7.105   8.019   2.491  1.00  0.00     0.009 A 
ATOM     78  C   UNL     1       6.535   9.957   4.413  1.00  0.00     0.001 A 
ATOM     79  C   UNL     1       7.690   9.282   2.402  1.00  0.00     0.001 A 
ATOM     80  C   UNL     1       7.398  10.253   3.358  1.00  0.00     0.000 A 
ENDBRANCH  62  75
ENDBRANCH  36  37
ENDBRANCH  29  31
ENDBRANCH  28  29
ENDBRANCH  27  28
ENDBRANCH  26  27
ENDBRANCH  25  26
ENDBRANCH  24  25
ENDBRANCH   1  24
TORSDOF 22
