REMARK SMILES Cc1cc(N(C)C(C)C)cc(C(=O)OCCOCCOCCOC(=O)c2ccc(-c3c4nc(c(-c5ccccc5)c5ccc([nH]5)c(-c5ccccc5)c5nc(c(-c6ccccc6)c6ccc3[nH]6)C=C5)C=C4)cc2)c1N
REMARK SMILES IDX 18 1 17 2 16 3 15 4 14 5 12 6 13 7 11 8 1 9 2 10 3 11 74 12
REMARK SMILES IDX 4 13 10 14 75 15 5 18 6 19 7 20 8 21 9 22 19 23 20 24 21 25
REMARK SMILES IDX 22 26 23 27 24 28 25 29 26 30 27 31 73 32 28 33 72 34 29 35
REMARK SMILES IDX 30 36 31 37 66 38 32 39 71 40 65 41 67 42 33 43 70 44 64 45
REMARK SMILES IDX 63 46 34 48 56 49 41 50 55 51 42 52 45 53 54 54 68 55 43 56
REMARK SMILES IDX 44 57 53 59 69 60 46 61 35 62 36 63 40 64 37 65 39 66 38 67
REMARK SMILES IDX 57 68 58 69 62 70 59 71 61 72 60 73 47 74 48 75 52 76 49 77
REMARK SMILES IDX 51 78 50 79
REMARK H PARENT 75 16 75 17 67 47 45 58
REMARK Flexibility Score: inf
ROOT
ATOM      1  C   UNL     1       0.125  -4.019  -1.507  1.00  0.00     0.188 C 
ENDROOT
BRANCH   1   2
ATOM      2  O   UNL     1      -0.297  -5.347  -1.306  1.00  0.00    -0.376 OA
BRANCH   2   3
ATOM      3  C   UNL     1      -0.852  -5.746  -0.068  1.00  0.00     0.202 C 
BRANCH   3   4
ATOM      4  C   UNL     1      -1.662  -4.831   0.873  1.00  0.00     0.261 C 
BRANCH   4   5
ATOM      5  O   UNL     1      -1.576  -3.418   0.680  1.00  0.00    -0.460 OA
BRANCH   5   6
ATOM      6  C   UNL     1      -0.679  -2.748   1.444  1.00  0.00     0.340 C 
ATOM      7  O   UNL     1       0.088  -3.243   2.255  1.00  0.00    -0.246 OA
BRANCH   6   8
ATOM      8  C   UNL     1      -0.634  -1.327   1.007  1.00  0.00     0.085 A 
ATOM      9  C   UNL     1       1.888   1.324  -0.037  1.00  0.00     0.047 C 
ATOM     10  C   UNL     1       0.613   0.597   0.298  1.00  0.00    -0.025 A 
ATOM     11  C   UNL     1      -0.614   1.272   0.102  1.00  0.00     0.031 A 
ATOM     12  C   UNL     1       0.614  -0.723   0.768  1.00  0.00     0.049 A 
ATOM     13  C   UNL     1      -1.872   0.701   0.341  1.00  0.00     0.038 A 
ATOM     14  C   UNL     1      -1.843  -0.623   0.809  1.00  0.00     0.043 A 
BRANCH  12  15
ATOM     15  N   UNL     1       1.802  -1.459   0.801  1.00  0.00    -0.398 N 
ATOM     16  H   UNL     1       2.663  -1.012   0.630  1.00  0.00     0.156 HD
ATOM     17  H   UNL     1       1.779  -2.424   0.996  1.00  0.00     0.156 HD
ENDBRANCH  12  15
BRANCH  13  18
ATOM     18  N   UNL     1      -3.060   1.385   0.106  1.00  0.00    -0.372 N 
ATOM     19  C   UNL     1      -4.319   0.638   0.017  1.00  0.00     0.144 C 
BRANCH  18  20
ATOM     20  C   UNL     1      -3.214   2.861   0.062  1.00  0.00     0.075 C 
ATOM     21  C   UNL     1      -2.600   3.568   1.269  1.00  0.00     0.030 C 
ATOM     22  C   UNL     1      -2.802   3.456  -1.284  1.00  0.00     0.030 C 
ENDBRANCH  18  20
ENDBRANCH  13  18
ENDBRANCH   6   8
ENDBRANCH   5   6
ENDBRANCH   4   5
ENDBRANCH   3   4
ENDBRANCH   2   3
ENDBRANCH   1   2
BRANCH   1  23
ATOM     23  C   UNL     1      -0.922  -3.124  -2.203  1.00  0.00     0.188 C 
BRANCH  23  24
ATOM     24  O   UNL     1      -2.148  -3.685  -2.663  1.00  0.00    -0.376 OA
BRANCH  24  25
ATOM     25  C   UNL     1      -2.132  -4.914  -3.377  1.00  0.00     0.202 C 
BRANCH  25  26
ATOM     26  C   UNL     1      -1.263  -5.048  -4.635  1.00  0.00     0.261 C 
BRANCH  26  27
ATOM     27  O   UNL     1       0.112  -4.667  -4.463  1.00  0.00    -0.460 OA
BRANCH  27  28
ATOM     28  C   UNL     1       0.505  -3.581  -5.174  1.00  0.00     0.338 C 
ATOM     29  O   UNL     1      -0.155  -2.924  -5.957  1.00  0.00    -0.246 OA
BRANCH  28  30
ATOM     30  C   UNL     1       1.863  -3.184  -4.757  1.00  0.00     0.060 A 
ATOM     31  C   UNL     1       2.038  -1.923  -4.172  1.00  0.00     0.016 A 
ATOM     32  C   UNL     1       2.962  -4.006  -5.012  1.00  0.00     0.016 A 
ATOM     33  C   UNL     1       3.318  -1.466  -3.862  1.00  0.00     0.010 A 
ATOM     34  C   UNL     1       4.247  -3.538  -4.721  1.00  0.00     0.010 A 
ATOM     35  C   UNL     1       4.433  -2.255  -4.174  1.00  0.00    -0.014 A 
BRANCH  35  36
ATOM     36  C   UNL     1       5.794  -1.675  -4.085  1.00  0.00     0.031 A 
ATOM     37  C   UNL     1       6.425  -1.117  -5.332  1.00  0.00     0.074 A 
ATOM     38  C   UNL     1       6.457  -1.628  -2.916  1.00  0.00     0.049 A 
ATOM     39  N   UNL     1       7.620  -0.613  -5.502  1.00  0.00    -0.248 NA
ATOM     40  C   UNL     1       5.596  -1.131  -6.548  1.00  0.00     0.031 C 
ATOM     41  C   UNL     1       5.941  -2.089  -1.629  1.00  0.00     0.029 A 
ATOM     42  N   UNL     1       7.722  -1.176  -2.633  1.00  0.00    -0.354 N 
ATOM     43  C   UNL     1       7.688  -0.253  -6.843  1.00  0.00     0.074 A 
ATOM     44  C   UNL     1       6.426  -0.621  -7.446  1.00  0.00     0.031 C 
ATOM     45  C   UNL     1       6.891  -1.912  -0.693  1.00  0.00     0.029 A 
ATOM     46  C   UNL     1       8.088  -1.355  -1.321  1.00  0.00     0.049 A 
ATOM     47  H   UNL     1       8.310  -0.762  -3.305  1.00  0.00     0.167 HD
ATOM     48  C   UNL     1       8.707   0.335  -7.513  1.00  0.00     0.031 A 
ATOM     49  C   UNL     1       9.264  -1.122  -0.708  1.00  0.00     0.031 A 
ATOM     50  C   UNL     1       9.972   0.683  -6.924  1.00  0.00     0.049 A 
ATOM     51  C   UNL     1      10.415  -0.552  -1.496  1.00  0.00     0.074 A 
ATOM     52  C   UNL     1      11.065   1.284  -7.523  1.00  0.00     0.029 A 
ATOM     53  N   UNL     1      10.315   0.453  -5.601  1.00  0.00    -0.354 N 
ATOM     54  N   UNL     1      10.460  -0.195  -2.757  1.00  0.00    -0.248 NA
ATOM     55  C   UNL     1      11.678  -0.347  -0.771  1.00  0.00     0.031 C 
ATOM     56  C   UNL     1      12.090   1.371  -6.575  1.00  0.00     0.029 A 
ATOM     57  C   UNL     1      11.612   0.878  -5.371  1.00  0.00     0.049 A 
ATOM     58  H   UNL     1       9.724   0.048  -4.926  1.00  0.00     0.167 HD
ATOM     59  C   UNL     1      11.741   0.304  -2.966  1.00  0.00     0.074 A 
ATOM     60  C   UNL     1      12.437   0.217  -1.700  1.00  0.00     0.031 C 
ATOM     61  C   UNL     1      12.291   0.792  -4.105  1.00  0.00     0.031 A 
BRANCH  48  62
ATOM     62  C   UNL     1       8.504   0.611  -8.975  1.00  0.00    -0.014 A 
ATOM     63  C   UNL     1       7.652   1.638  -9.409  1.00  0.00     0.009 A 
ATOM     64  C   UNL     1       9.205  -0.142  -9.930  1.00  0.00     0.009 A 
ATOM     65  C   UNL     1       7.485   1.887 -10.773  1.00  0.00     0.001 A 
ATOM     66  C   UNL     1       9.056   0.127 -11.292  1.00  0.00     0.001 A 
ATOM     67  C   UNL     1       8.191   1.136 -11.712  1.00  0.00     0.000 A 
ENDBRANCH  48  62
BRANCH  49  68
ATOM     68  C   UNL     1       9.437  -1.454   0.731  1.00  0.00    -0.014 A 
ATOM     69  C   UNL     1       9.608  -0.441   1.687  1.00  0.00     0.009 A 
ATOM     70  C   UNL     1       9.477  -2.794   1.149  1.00  0.00     0.009 A 
ATOM     71  C   UNL     1       9.846  -0.763   3.025  1.00  0.00     0.001 A 
ATOM     72  C   UNL     1       9.686  -3.112   2.493  1.00  0.00     0.001 A 
ATOM     73  C   UNL     1       9.882  -2.097   3.427  1.00  0.00     0.000 A 
ENDBRANCH  49  68
BRANCH  61  74
ATOM     74  C   UNL     1      13.699   1.313  -4.026  1.00  0.00    -0.014 A 
ATOM     75  C   UNL     1      14.794   0.446  -3.898  1.00  0.00     0.009 A 
ATOM     76  C   UNL     1      13.934   2.694  -4.130  1.00  0.00     0.009 A 
ATOM     77  C   UNL     1      16.094   0.954  -3.843  1.00  0.00     0.001 A 
ATOM     78  C   UNL     1      15.235   3.196  -4.104  1.00  0.00     0.001 A 
ATOM     79  C   UNL     1      16.314   2.327  -3.951  1.00  0.00     0.000 A 
ENDBRANCH  61  74
ENDBRANCH  35  36
ENDBRANCH  28  30
ENDBRANCH  27  28
ENDBRANCH  26  27
ENDBRANCH  25  26
ENDBRANCH  24  25
ENDBRANCH  23  24
ENDBRANCH   1  23
TORSDOF 20
