REMARK SMILES O=C(OCCOCCOCCOC(=O)c1cc(Cl)c2c(c1)[C@H]1C=CC[C@H]1[C@H](c1ccc(S(=O)(=O)N3CCOCC3)cc1)N2)c1ccc(-c2c3nc(c(-c4ccccc4)c4ccc([nH]4)c(-c4ccccc4)c4nc(c(-c5ccccc5)c5ccc2[nH]5)C=C4)C=C3)cc1
REMARK SMILES IDX 8 1 7 2 6 3 5 4 4 5 3 6 2 7 1 8 44 9 45 10 91 11 46 12 90 13
REMARK SMILES IDX 47 14 48 15 49 16 84 17 50 18 89 19 83 20 85 21 51 22 88 23
REMARK SMILES IDX 82 24 81 25 52 27 74 28 59 29 73 30 60 31 63 32 72 33 86 34
REMARK SMILES IDX 61 35 62 36 71 38 87 39 64 40 53 41 54 42 58 43 55 44 57 45
REMARK SMILES IDX 56 46 75 47 76 48 80 49 77 50 79 51 78 52 65 53 66 54 70 55
REMARK SMILES IDX 67 56 69 57 68 58 9 59 10 60 11 61 12 62 13 63 14 64 15 65
REMARK SMILES IDX 16 66 21 67 17 68 20 69 18 70 19 71 22 72 43 73 23 74 26 75
REMARK SMILES IDX 27 76 24 78 25 79 28 80 29 81 42 82 30 83 41 84 31 85 32 86
REMARK SMILES IDX 33 87 34 88 35 89 36 90 40 91 37 92 39 93 38 94
REMARK H PARENT 85 26 63 37 43 77
REMARK Flexibility Score: inf
ROOT
ATOM      1  C   UNL     1       2.298  -2.807   1.428  1.00  0.00     0.188 C 
ENDROOT
BRANCH   1   2
ATOM      2  C   UNL     1       2.765  -1.690   0.486  1.00  0.00     0.188 C 
BRANCH   2   3
ATOM      3  O   UNL     1       4.123  -1.293   0.618  1.00  0.00    -0.376 OA
BRANCH   3   4
ATOM      4  C   UNL     1       4.400  -0.422   1.710  1.00  0.00     0.202 C 
BRANCH   4   5
ATOM      5  C   UNL     1       4.432   1.044   1.271  1.00  0.00     0.261 C 
BRANCH   5   6
ATOM      6  O   UNL     1       3.131   1.479   0.835  1.00  0.00    -0.460 OA
BRANCH   6   7
ATOM      7  C   UNL     1       2.625   1.653  -0.406  1.00  0.00     0.338 C 
ATOM      8  O   UNL     1       1.547   2.241  -0.499  1.00  0.00    -0.246 OA
BRANCH   7   9
ATOM      9  C   UNL     1       3.235   1.142  -1.683  1.00  0.00     0.060 A 
ATOM     10  C   UNL     1       4.372   0.341  -1.806  1.00  0.00     0.016 A 
ATOM     11  C   UNL     1       2.558   1.481  -2.873  1.00  0.00     0.016 A 
ATOM     12  C   UNL     1       4.833  -0.095  -3.049  1.00  0.00     0.010 A 
ATOM     13  C   UNL     1       3.026   1.072  -4.128  1.00  0.00     0.010 A 
ATOM     14  C   UNL     1       4.186   0.303  -4.215  1.00  0.00    -0.014 A 
BRANCH  14  15
ATOM     15  C   UNL     1       4.886   0.126  -5.499  1.00  0.00     0.031 A 
ATOM     16  C   UNL     1       5.854   1.193  -5.907  1.00  0.00     0.074 A 
ATOM     17  C   UNL     1       4.767  -1.000  -6.221  1.00  0.00     0.049 A 
ATOM     18  N   UNL     1       6.645   1.232  -6.944  1.00  0.00    -0.248 NA
ATOM     19  C   UNL     1       5.979   2.351  -5.002  1.00  0.00     0.031 C 
ATOM     20  C   UNL     1       3.967  -2.157  -5.840  1.00  0.00     0.029 A 
ATOM     21  N   UNL     1       5.348  -1.364  -7.409  1.00  0.00    -0.354 N 
ATOM     22  C   UNL     1       7.385   2.394  -6.796  1.00  0.00     0.074 A 
ATOM     23  C   UNL     1       6.936   3.050  -5.590  1.00  0.00     0.031 C 
ATOM     24  C   UNL     1       4.114  -3.107  -6.779  1.00  0.00     0.029 A 
ATOM     25  C   UNL     1       4.985  -2.616  -7.835  1.00  0.00     0.049 A 
ATOM     26  H   UNL     1       5.967  -0.782  -7.907  1.00  0.00     0.167 HD
ATOM     27  C   UNL     1       8.362   2.869  -7.597  1.00  0.00     0.031 A 
ATOM     28  C   UNL     1       5.311  -3.294  -8.951  1.00  0.00     0.031 A 
ATOM     29  C   UNL     1       8.760   2.248  -8.825  1.00  0.00     0.049 A 
ATOM     30  C   UNL     1       6.255  -2.657  -9.926  1.00  0.00     0.074 A 
ATOM     31  C   UNL     1       9.675   2.698  -9.756  1.00  0.00     0.029 A 
ATOM     32  N   UNL     1       8.251   1.048  -9.296  1.00  0.00    -0.354 N 
ATOM     33  N   UNL     1       6.908  -1.526  -9.807  1.00  0.00    -0.248 NA
ATOM     34  C   UNL     1       6.509  -3.376 -11.182  1.00  0.00     0.031 C 
ATOM     35  C   UNL     1       9.684   1.792 -10.820  1.00  0.00     0.029 A 
ATOM     36  C   UNL     1       8.812   0.755 -10.524  1.00  0.00     0.049 A 
ATOM     37  H   UNL     1       7.590   0.489  -8.828  1.00  0.00     0.167 HD
ATOM     38  C   UNL     1       7.664  -1.404 -10.962  1.00  0.00     0.074 A 
ATOM     39  C   UNL     1       7.391  -2.576 -11.770  1.00  0.00     0.031 C 
ATOM     40  C   UNL     1       8.514  -0.411 -11.315  1.00  0.00     0.031 A 
BRANCH  27  41
ATOM     41  C   UNL     1       9.018   4.146  -7.182  1.00  0.00    -0.014 A 
ATOM     42  C   UNL     1       9.999   4.157  -6.179  1.00  0.00     0.009 A 
ATOM     43  C   UNL     1       8.659   5.349  -7.807  1.00  0.00     0.009 A 
ATOM     44  C   UNL     1      10.604   5.357  -5.803  1.00  0.00     0.001 A 
ATOM     45  C   UNL     1       9.277   6.543  -7.439  1.00  0.00     0.001 A 
ATOM     46  C   UNL     1      10.246   6.547  -6.437  1.00  0.00     0.000 A 
ENDBRANCH  27  41
BRANCH  28  47
ATOM     47  C   UNL     1       4.731  -4.638  -9.206  1.00  0.00    -0.014 A 
ATOM     48  C   UNL     1       5.511  -5.793  -9.051  1.00  0.00     0.009 A 
ATOM     49  C   UNL     1       3.385  -4.773  -9.586  1.00  0.00     0.009 A 
ATOM     50  C   UNL     1       4.956  -7.056  -9.278  1.00  0.00     0.001 A 
ATOM     51  C   UNL     1       2.830  -6.037  -9.799  1.00  0.00     0.001 A 
ATOM     52  C   UNL     1       3.617  -7.178  -9.647  1.00  0.00     0.000 A 
ENDBRANCH  28  47
BRANCH  40  53
ATOM     53  C   UNL     1       9.219  -0.532 -12.630  1.00  0.00    -0.014 A 
ATOM     54  C   UNL     1       8.560  -0.214 -13.825  1.00  0.00     0.009 A 
ATOM     55  C   UNL     1      10.589  -0.836 -12.655  1.00  0.00     0.009 A 
ATOM     56  C   UNL     1       9.265  -0.198 -15.028  1.00  0.00     0.001 A 
ATOM     57  C   UNL     1      11.294  -0.797 -13.857  1.00  0.00     0.001 A 
ATOM     58  C   UNL     1      10.632  -0.478 -15.041  1.00  0.00     0.000 A 
ENDBRANCH  40  53
ENDBRANCH  14  15
ENDBRANCH   7   9
ENDBRANCH   6   7
ENDBRANCH   5   6
ENDBRANCH   4   5
ENDBRANCH   3   4
ENDBRANCH   2   3
ENDBRANCH   1   2
BRANCH   1  59
ATOM     59  O   UNL     1       3.256  -3.444   2.258  1.00  0.00    -0.376 OA
BRANCH  59  60
ATOM     60  C   UNL     1       4.442  -3.972   1.673  1.00  0.00     0.202 C 
BRANCH  60  61
ATOM     61  C   UNL     1       4.291  -5.049   0.600  1.00  0.00     0.261 C 
BRANCH  61  62
ATOM     62  O   UNL     1       3.738  -4.565  -0.638  1.00  0.00    -0.460 OA
BRANCH  62  63
ATOM     63  C   UNL     1       2.578  -5.156  -1.004  1.00  0.00     0.338 C 
ATOM     64  O   UNL     1       1.882  -5.910  -0.347  1.00  0.00    -0.246 OA
BRANCH  63  65
ATOM     65  C   UNL     1       2.258  -4.834  -2.398  1.00  0.00     0.062 A 
ATOM     66  C   UNL     1       2.737  -5.699  -3.377  1.00  0.00     0.038 A 
ATOM     67  C   UNL     1       1.325  -3.840  -2.708  1.00  0.00     0.022 A 
ATOM     68  C   UNL     1       2.267  -5.565  -4.677  1.00  0.00     0.065 A 
ATOM     69  C   UNL     1       0.865  -3.691  -4.031  1.00  0.00    -0.015 A 
ATOM     70  Cl  UNL     1       2.815  -6.712  -5.854  1.00  0.00    -0.082 Cl
ATOM     71  C   UNL     1       1.356  -4.545  -5.032  1.00  0.00     0.057 A 
ATOM     72  C   UNL     1      -0.217  -2.684  -4.345  1.00  0.00     0.049 C 
ATOM     73  N   UNL     1       0.902  -4.428  -6.338  1.00  0.00    -0.376 N 
ATOM     74  C   UNL     1       0.215  -1.246  -4.265  1.00  0.00    -0.023 C 
ATOM     75  C   UNL     1      -0.811  -2.762  -5.775  1.00  0.00     0.031 C 
ATOM     76  C   UNL     1       0.268  -3.199  -6.789  1.00  0.00     0.114 C 
ATOM     77  H   UNL     1       1.011  -5.180  -6.964  1.00  0.00     0.161 HD
ATOM     78  C   UNL     1      -0.399  -0.498  -5.190  1.00  0.00    -0.030 C 
ATOM     79  C   UNL     1      -1.318  -1.327  -6.029  1.00  0.00     0.034 C 
BRANCH  76  80
ATOM     80  C   UNL     1      -0.280  -3.439  -8.193  1.00  0.00    -0.025 A 
ATOM     81  C   UNL     1      -0.877  -4.660  -8.558  1.00  0.00     0.007 A 
ATOM     82  C   UNL     1      -0.158  -2.436  -9.167  1.00  0.00     0.007 A 
ATOM     83  C   UNL     1      -1.347  -4.869  -9.857  1.00  0.00     0.022 A 
ATOM     84  C   UNL     1      -0.617  -2.647 -10.468  1.00  0.00     0.022 A 
ATOM     85  C   UNL     1      -1.231  -3.852 -10.805  1.00  0.00     0.082 A 
BRANCH  85  86
ATOM     86  S   UNL     1      -1.890  -4.096 -12.441  1.00  0.00     0.243 S 
ATOM     87  O   UNL     1      -0.762  -4.218 -13.329  1.00  0.00    -0.207 OA
ATOM     88  O   UNL     1      -2.892  -5.143 -12.332  1.00  0.00    -0.207 OA
BRANCH  86  89
ATOM     89  N   UNL     1      -2.706  -2.674 -12.774  1.00  0.00    -0.193 NA
ATOM     90  C   UNL     1      -2.118  -1.586 -13.580  1.00  0.00     0.131 C 
ATOM     91  C   UNL     1      -3.985  -2.343 -12.120  1.00  0.00     0.131 C 
ATOM     92  C   UNL     1      -2.173  -0.237 -12.846  1.00  0.00     0.177 C 
ATOM     93  C   UNL     1      -3.851  -1.016 -11.372  1.00  0.00     0.177 C 
ATOM     94  O   UNL     1      -3.457   0.033 -12.268  1.00  0.00    -0.379 OA
ENDBRANCH  86  89
ENDBRANCH  85  86
ENDBRANCH  76  80
ENDBRANCH  63  65
ENDBRANCH  62  63
ENDBRANCH  61  62
ENDBRANCH  60  61
ENDBRANCH  59  60
ENDBRANCH   1  59
TORSDOF 20
