REMARK SMILES CC(C)(C)[N@H+](CC(=O)OCCOCCOCCOC(=O)c1ccc(-c2c3nc(c(-c4ccccc4)c4ccc([nH]4)c(-c4ccccc4)c4nc(c(-c5ccccc5)c5ccc2[nH]5)C=C4)C=C3)cc1)C[C@H]1Cc2cc(F)ccc2O1
REMARK SMILES IDX 13 1 12 2 11 3 10 4 9 5 7 6 8 7 6 8 5 9 2 11 1 12 3 13 4 14
REMARK SMILES IDX 69 15 70 16 71 17 79 18 72 19 78 20 73 21 77 22 74 23 76 24
REMARK SMILES IDX 75 25 14 26 15 27 16 28 17 29 18 30 19 31 20 32 21 33 22 34
REMARK SMILES IDX 68 35 23 36 67 37 24 38 25 39 26 40 61 41 27 42 66 43 60 44
REMARK SMILES IDX 62 45 28 46 65 47 59 48 58 49 29 51 51 52 36 53 50 54 37 55
REMARK SMILES IDX 40 56 49 57 63 58 38 59 39 60 48 62 64 63 41 64 30 65 31 66
REMARK SMILES IDX 35 67 32 68 34 69 33 70 52 71 53 72 57 73 54 74 56 75 55 76
REMARK SMILES IDX 42 77 43 78 47 79 44 80 46 81 45 82
REMARK H PARENT 5 10 62 50 40 61
REMARK Flexibility Score: inf
ROOT
ATOM      1  C   UNL     1       4.375  -1.312   4.797  1.00  0.00     0.188 C 
ENDROOT
BRANCH   1   2
ATOM      2  O   UNL     1       5.249  -0.209   4.979  1.00  0.00    -0.376 OA
BRANCH   2   3
ATOM      3  C   UNL     1       4.836   1.032   4.400  1.00  0.00     0.202 C 
BRANCH   3   4
ATOM      4  C   UNL     1       4.475   0.996   2.908  1.00  0.00     0.261 C 
BRANCH   4   5
ATOM      5  O   UNL     1       3.355   0.126   2.632  1.00  0.00    -0.459 OA
BRANCH   5   6
ATOM      6  C   UNL     1       3.421  -0.566   1.462  1.00  0.00     0.361 C 
ATOM      7  O   UNL     1       4.310  -0.420   0.627  1.00  0.00    -0.245 OA
BRANCH   6   8
ATOM      8  C   UNL     1       2.367  -1.672   1.332  1.00  0.00     0.387 C 
BRANCH   8   9
ATOM      9  N   UNL     1       0.953  -1.353   1.706  1.00  0.00    -0.318 N 
ATOM     10  H   UNL     1       0.934  -0.965   2.649  1.00  0.00     0.349 HD
BRANCH   9  11
ATOM     11  C   UNL     1       0.337  -0.202   0.957  1.00  0.00     0.090 C 
ATOM     12  C   UNL     1       0.986   0.120  -0.411  1.00  0.00     0.078 C 
ATOM     13  C   UNL     1       0.453   1.041   1.870  1.00  0.00     0.078 C 
ATOM     14  C   UNL     1      -1.171  -0.335   0.653  1.00  0.00     0.078 C 
ENDBRANCH   9  11
BRANCH   9  15
ATOM     15  C   UNL     1       0.169  -2.640   1.733  1.00  0.00     0.309 C 
BRANCH  15  16
ATOM     16  C   UNL     1      -1.051  -2.665   2.696  1.00  0.00     0.232 C 
ATOM     17  C   UNL     1      -2.418  -2.971   2.061  1.00  0.00     0.090 C 
ATOM     18  O   UNL     1      -0.926  -3.712   3.720  1.00  0.00    -0.484 OA
ATOM     19  C   UNL     1      -3.133  -3.230   3.337  1.00  0.00     0.001 A 
ATOM     20  C   UNL     1      -2.206  -3.733   4.241  1.00  0.00     0.123 A 
ATOM     21  C   UNL     1      -4.428  -2.958   3.728  1.00  0.00     0.047 A 
ATOM     22  C   UNL     1      -2.546  -4.054   5.540  1.00  0.00     0.050 A 
ATOM     23  C   UNL     1      -4.755  -3.182   5.066  1.00  0.00     0.123 A 
ATOM     24  C   UNL     1      -3.835  -3.731   5.968  1.00  0.00     0.043 A 
ATOM     25  F   UNL     1      -5.969  -2.828   5.509  1.00  0.00    -0.207 F 
ENDBRANCH  15  16
ENDBRANCH   9  15
ENDBRANCH   8   9
ENDBRANCH   6   8
ENDBRANCH   5   6
ENDBRANCH   4   5
ENDBRANCH   3   4
ENDBRANCH   2   3
ENDBRANCH   1   2
BRANCH   1  26
ATOM     26  C   UNL     1       2.959  -1.206   5.380  1.00  0.00     0.188 C 
BRANCH  26  27
ATOM     27  O   UNL     1       2.486   0.108   5.643  1.00  0.00    -0.376 OA
BRANCH  27  28
ATOM     28  C   UNL     1       1.122   0.171   6.070  1.00  0.00     0.202 C 
BRANCH  28  29
ATOM     29  C   UNL     1       0.911  -0.347   7.510  1.00  0.00     0.261 C 
BRANCH  29  30
ATOM     30  O   UNL     1       1.216  -1.750   7.691  1.00  0.00    -0.460 OA
BRANCH  30  31
ATOM     31  C   UNL     1       0.467  -2.568   6.914  1.00  0.00     0.338 C 
ATOM     32  O   UNL     1      -0.500  -2.219   6.276  1.00  0.00    -0.246 OA
BRANCH  31  33
ATOM     33  C   UNL     1       1.106  -3.904   6.787  1.00  0.00     0.060 A 
ATOM     34  C   UNL     1       1.392  -4.385   5.504  1.00  0.00     0.016 A 
ATOM     35  C   UNL     1       1.363  -4.707   7.894  1.00  0.00     0.016 A 
ATOM     36  C   UNL     1       1.871  -5.682   5.311  1.00  0.00     0.010 A 
ATOM     37  C   UNL     1       1.872  -6.002   7.704  1.00  0.00     0.010 A 
ATOM     38  C   UNL     1       2.112  -6.510   6.412  1.00  0.00    -0.014 A 
BRANCH  38  39
ATOM     39  C   UNL     1       2.580  -7.911   6.221  1.00  0.00     0.031 A 
ATOM     40  C   UNL     1       1.678  -9.064   6.569  1.00  0.00     0.074 A 
ATOM     41  C   UNL     1       3.810  -8.169   5.736  1.00  0.00     0.049 A 
ATOM     42  N   UNL     1       1.959 -10.341   6.654  1.00  0.00    -0.248 NA
ATOM     43  C   UNL     1       0.274  -8.735   6.858  1.00  0.00     0.031 C 
ATOM     44  C   UNL     1       4.768  -7.166   5.269  1.00  0.00     0.029 A 
ATOM     45  N   UNL     1       4.470  -9.364   5.568  1.00  0.00    -0.354 N 
ATOM     46  C   UNL     1       0.779 -10.964   7.042  1.00  0.00     0.074 A 
ATOM     47  C   UNL     1      -0.220  -9.924   7.176  1.00  0.00     0.031 C 
ATOM     48  C   UNL     1       5.893  -7.786   4.875  1.00  0.00     0.029 A 
ATOM     49  C   UNL     1       5.763  -9.219   5.127  1.00  0.00     0.049 A 
ATOM     50  H   UNL     1       4.055 -10.239   5.746  1.00  0.00     0.167 HD
ATOM     51  C   UNL     1       0.550 -12.280   7.275  1.00  0.00     0.031 A 
ATOM     52  C   UNL     1       6.752 -10.123   4.990  1.00  0.00     0.031 A 
ATOM     53  C   UNL     1       1.535 -13.321   7.132  1.00  0.00     0.049 A 
ATOM     54  C   UNL     1       6.506 -11.562   5.352  1.00  0.00     0.074 A 
ATOM     55  C   UNL     1       1.388 -14.681   7.347  1.00  0.00     0.029 A 
ATOM     56  N   UNL     1       2.847 -13.121   6.735  1.00  0.00    -0.354 N 
ATOM     57  N   UNL     1       5.402 -12.133   5.764  1.00  0.00    -0.248 NA
ATOM     58  C   UNL     1       7.652 -12.478   5.240  1.00  0.00     0.031 C 
ATOM     59  C   UNL     1       2.626 -15.297   7.131  1.00  0.00     0.029 A 
ATOM     60  C   UNL     1       3.527 -14.328   6.725  1.00  0.00     0.049 A 
ATOM     61  H   UNL     1       3.238 -12.249   6.496  1.00  0.00     0.167 HD
ATOM     62  C   UNL     1       5.712 -13.477   5.939  1.00  0.00     0.074 A 
ATOM     63  C   UNL     1       7.104 -13.638   5.574  1.00  0.00     0.031 C 
ATOM     64  C   UNL     1       4.912 -14.485   6.362  1.00  0.00     0.031 A 
BRANCH  51  65
ATOM     65  C   UNL     1      -0.815 -12.668   7.768  1.00  0.00    -0.014 A 
ATOM     66  C   UNL     1      -1.931 -12.678   6.918  1.00  0.00     0.009 A 
ATOM     67  C   UNL     1      -0.974 -13.077   9.102  1.00  0.00     0.009 A 
ATOM     68  C   UNL     1      -3.184 -13.060   7.403  1.00  0.00     0.001 A 
ATOM     69  C   UNL     1      -2.221 -13.484   9.578  1.00  0.00     0.001 A 
ATOM     70  C   UNL     1      -3.327 -13.466   8.730  1.00  0.00     0.000 A 
ENDBRANCH  51  65
BRANCH  52  71
ATOM     71  C   UNL     1       8.101  -9.683   4.545  1.00  0.00    -0.014 A 
ATOM     72  C   UNL     1       8.602 -10.064   3.291  1.00  0.00     0.009 A 
ATOM     73  C   UNL     1       8.903  -8.894   5.386  1.00  0.00     0.009 A 
ATOM     74  C   UNL     1       9.885  -9.677   2.896  1.00  0.00     0.001 A 
ATOM     75  C   UNL     1      10.172  -8.483   4.976  1.00  0.00     0.001 A 
ATOM     76  C   UNL     1      10.665  -8.882   3.735  1.00  0.00     0.000 A 
ENDBRANCH  52  71
BRANCH  64  77
ATOM     77  C   UNL     1       5.508 -15.864   6.416  1.00  0.00    -0.014 A 
ATOM     78  C   UNL     1       6.429 -16.224   7.411  1.00  0.00     0.009 A 
ATOM     79  C   UNL     1       5.113 -16.828   5.474  1.00  0.00     0.009 A 
ATOM     80  C   UNL     1       6.967 -17.513   7.442  1.00  0.00     0.001 A 
ATOM     81  C   UNL     1       5.632 -18.123   5.523  1.00  0.00     0.001 A 
ATOM     82  C   UNL     1       6.565 -18.462   6.501  1.00  0.00     0.000 A 
ENDBRANCH  64  77
ENDBRANCH  38  39
ENDBRANCH  31  33
ENDBRANCH  30  31
ENDBRANCH  29  30
ENDBRANCH  28  29
ENDBRANCH  27  28
ENDBRANCH  26  27
ENDBRANCH   1  26
TORSDOF 21
