REMARK SMILES O=C(CSc1nc(O)cc(=O)[nH]1)Nc1cccc(C(=O)OCCOCCOCCOC(=O)c2ccc(-c3c4nc(c(-c5ccccc5)c5ccc([nH]5)c(-c5ccccc5)c5nc(c(-c6ccccc6)c6ccc3[nH]6)C=C5)C=C4)cc2)c1
REMARK SMILES IDX 24 1 23 2 22 3 21 4 19 5 20 6 18 7 14 8 15 9 81 10 16 11
REMARK SMILES IDX 17 12 13 13 1 14 2 15 3 17 4 18 5 19 6 20 12 21 7 22 10 23
REMARK SMILES IDX 9 25 11 26 8 27 25 29 26 30 27 31 28 32 29 33 30 34 31 35
REMARK SMILES IDX 32 36 33 37 34 38 80 39 35 40 79 41 36 42 37 43 38 44 73 45
REMARK SMILES IDX 39 46 78 47 72 48 74 49 40 50 77 51 71 52 70 53 41 55 63 56
REMARK SMILES IDX 48 57 62 58 49 59 52 60 61 61 75 62 50 63 51 64 60 66 76 67
REMARK SMILES IDX 53 68 42 69 43 70 47 71 44 72 46 73 45 74 64 75 65 76 69 77
REMARK SMILES IDX 66 78 68 79 67 80 54 81 55 82 59 83 56 84 58 85 57 86
REMARK H PARENT 13 16 12 24 8 28 74 54 52 65
REMARK Flexibility Score: inf
ROOT
ATOM      1  O   UNL     1      -1.750  -1.835  -6.340  1.00  0.00    -0.376 OA
ENDROOT
BRANCH   1   2
ATOM      2  C   UNL     1      -2.425  -0.768  -5.695  1.00  0.00     0.202 C 
BRANCH   2   3
ATOM      3  C   UNL     1      -2.559  -0.644  -4.168  1.00  0.00     0.261 C 
BRANCH   3   4
ATOM      4  O   UNL     1      -1.404  -0.999  -3.404  1.00  0.00    -0.460 OA
BRANCH   4   5
ATOM      5  C   UNL     1      -1.514  -2.133  -2.659  1.00  0.00     0.338 C 
ATOM      6  O   UNL     1      -2.471  -2.874  -2.583  1.00  0.00    -0.246 OA
BRANCH   5   7
ATOM      7  C   UNL     1      -0.178  -2.462  -2.114  1.00  0.00     0.062 A 
ATOM      8  C   UNL     1       1.877  -1.786  -1.033  1.00  0.00     0.042 A 
ATOM      9  C   UNL     1       2.408  -3.059  -1.277  1.00  0.00     0.026 A 
ATOM     10  C   UNL     1       0.597  -1.480  -1.498  1.00  0.00     0.041 A 
ATOM     11  C   UNL     1       1.628  -4.046  -1.889  1.00  0.00     0.003 A 
ATOM     12  C   UNL     1       0.324  -3.755  -2.287  1.00  0.00     0.016 A 
BRANCH   8  13
ATOM     13  N   UNL     1       2.653  -0.859  -0.309  1.00  0.00    -0.325 N 
ATOM     14  O   UNL     1       0.953   0.510   0.502  1.00  0.00    -0.274 OA
ATOM     15  C   UNL     1       2.143   0.227   0.394  1.00  0.00     0.234 C 
ATOM     16  H   UNL     1       3.629  -0.990  -0.299  1.00  0.00     0.169 HD
BRANCH  15  17
ATOM     17  C   UNL     1       3.197   1.102   1.046  1.00  0.00     0.178 C 
BRANCH  17  18
ATOM     18  S   UNL     1       4.325   0.140   2.091  1.00  0.00    -0.078 SA
BRANCH  18  19
ATOM     19  C   UNL     1       3.187  -0.546   3.211  1.00  0.00     0.172 A 
ATOM     20  N   UNL     1       2.358   0.163   3.898  1.00  0.00    -0.189 NA
ATOM     21  N   UNL     1       3.305  -1.895   3.287  1.00  0.00    -0.301 N 
ATOM     22  C   UNL     1       1.558  -0.536   4.761  1.00  0.00     0.218 A 
ATOM     23  C   UNL     1       2.525  -2.633   4.120  1.00  0.00     0.255 A 
ATOM     24  H   UNL     1       3.972  -2.352   2.724  1.00  0.00     0.172 HD
ATOM     25  C   UNL     1       1.574  -1.861   4.925  1.00  0.00     0.139 A 
ATOM     26  O   UNL     1       2.613  -3.851   4.204  1.00  0.00    -0.269 OA
BRANCH  22  27
ATOM     27  O   UNL     1       0.693   0.217   5.512  1.00  0.00    -0.493 OA
ATOM     28  H   UNL     1       0.670   1.148   5.408  1.00  0.00     0.295 HD
ENDBRANCH  22  27
ENDBRANCH  18  19
ENDBRANCH  17  18
ENDBRANCH  15  17
ENDBRANCH   8  13
ENDBRANCH   5   7
ENDBRANCH   4   5
ENDBRANCH   3   4
ENDBRANCH   2   3
ENDBRANCH   1   2
BRANCH   1  29
ATOM     29  C   UNL     1      -0.594  -2.409  -5.767  1.00  0.00     0.188 C 
BRANCH  29  30
ATOM     30  C   UNL     1       0.657  -1.547  -5.497  1.00  0.00     0.188 C 
BRANCH  30  31
ATOM     31  O   UNL     1       0.578  -0.155  -5.681  1.00  0.00    -0.376 OA
BRANCH  31  32
ATOM     32  C   UNL     1       0.535   0.403  -6.982  1.00  0.00     0.202 C 
BRANCH  32  33
ATOM     33  C   UNL     1       0.855  -0.336  -8.298  1.00  0.00     0.261 C 
BRANCH  33  34
ATOM     34  O   UNL     1       0.794  -1.764  -8.307  1.00  0.00    -0.460 OA
BRANCH  34  35
ATOM     35  C   UNL     1       1.992  -2.398  -8.350  1.00  0.00     0.338 C 
ATOM     36  O   UNL     1       3.101  -1.894  -8.340  1.00  0.00    -0.246 OA
BRANCH  35  37
ATOM     37  C   UNL     1       1.767  -3.850  -8.233  1.00  0.00     0.060 A 
ATOM     38  C   UNL     1       2.190  -4.508  -7.070  1.00  0.00     0.016 A 
ATOM     39  C   UNL     1       1.180  -4.562  -9.280  1.00  0.00     0.016 A 
ATOM     40  C   UNL     1       2.040  -5.890  -6.956  1.00  0.00     0.010 A 
ATOM     41  C   UNL     1       1.052  -5.949  -9.172  1.00  0.00     0.010 A 
ATOM     42  C   UNL     1       1.503  -6.623  -8.022  1.00  0.00    -0.014 A 
BRANCH  42  43
ATOM     43  C   UNL     1       1.550  -8.105  -8.007  1.00  0.00     0.031 A 
ATOM     44  C   UNL     1       2.636  -8.802  -8.778  1.00  0.00     0.074 A 
ATOM     45  C   UNL     1       0.642  -8.823  -7.323  1.00  0.00     0.049 A 
ATOM     46  N   UNL     1       2.825 -10.082  -8.975  1.00  0.00    -0.248 NA
ATOM     47  C   UNL     1       3.644  -7.938  -9.415  1.00  0.00     0.031 C 
ATOM     48  C   UNL     1      -0.428  -8.271  -6.496  1.00  0.00     0.029 A 
ATOM     49  N   UNL     1       0.474 -10.183  -7.232  1.00  0.00    -0.354 N 
ATOM     50  C   UNL     1       3.961 -10.176  -9.770  1.00  0.00     0.074 A 
ATOM     51  C   UNL     1       4.404  -8.825 -10.039  1.00  0.00     0.031 C 
ATOM     52  C   UNL     1      -1.154  -9.285  -5.991  1.00  0.00     0.029 A 
ATOM     53  C   UNL     1      -0.624 -10.551  -6.494  1.00  0.00     0.049 A 
ATOM     54  H   UNL     1       1.082 -10.832  -7.655  1.00  0.00     0.167 HD
ATOM     55  C   UNL     1       4.580 -11.287 -10.235  1.00  0.00     0.031 A 
ATOM     56  C   UNL     1      -1.159 -11.769  -6.276  1.00  0.00     0.031 A 
ATOM     57  C   UNL     1       4.127 -12.630  -9.986  1.00  0.00     0.049 A 
ATOM     58  C   UNL     1      -0.506 -12.985  -6.883  1.00  0.00     0.074 A 
ATOM     59  C   UNL     1       4.694 -13.822 -10.403  1.00  0.00     0.029 A 
ATOM     60  N   UNL     1       2.989 -12.959  -9.266  1.00  0.00    -0.354 N 
ATOM     61  N   UNL     1       0.581 -13.065  -7.612  1.00  0.00    -0.248 NA
ATOM     62  C   UNL     1      -1.155 -14.280  -6.630  1.00  0.00     0.031 C 
ATOM     63  C   UNL     1       3.863 -14.868  -9.992  1.00  0.00     0.029 A 
ATOM     64  C   UNL     1       2.819 -14.334  -9.255  1.00  0.00     0.049 A 
ATOM     65  H   UNL     1       2.390 -12.312  -8.828  1.00  0.00     0.167 HD
ATOM     66  C   UNL     1       0.764 -14.419  -7.873  1.00  0.00     0.074 A 
ATOM     67  C   UNL     1      -0.315 -15.123  -7.213  1.00  0.00     0.031 C 
ATOM     68  C   UNL     1       1.742 -15.024  -8.593  1.00  0.00     0.031 A 
BRANCH  55  69
ATOM     69  C   UNL     1       5.794 -11.093 -11.101  1.00  0.00    -0.014 A 
ATOM     70  C   UNL     1       7.003 -10.613 -10.573  1.00  0.00     0.009 A 
ATOM     71  C   UNL     1       5.735 -11.428 -12.463  1.00  0.00     0.009 A 
ATOM     72  C   UNL     1       8.116 -10.439 -11.399  1.00  0.00     0.001 A 
ATOM     73  C   UNL     1       6.858 -11.284 -13.279  1.00  0.00     0.001 A 
ATOM     74  C   UNL     1       8.044 -10.780 -12.749  1.00  0.00     0.000 A 
ENDBRANCH  55  69
BRANCH  56  75
ATOM     75  C   UNL     1      -2.400 -11.907  -5.467  1.00  0.00    -0.014 A 
ATOM     76  C   UNL     1      -2.375 -12.552  -4.221  1.00  0.00     0.009 A 
ATOM     77  C   UNL     1      -3.624 -11.421  -5.952  1.00  0.00     0.009 A 
ATOM     78  C   UNL     1      -3.553 -12.731  -3.491  1.00  0.00     0.001 A 
ATOM     79  C   UNL     1      -4.795 -11.572  -5.206  1.00  0.00     0.001 A 
ATOM     80  C   UNL     1      -4.761 -12.236  -3.982  1.00  0.00     0.000 A 
ENDBRANCH  56  75
BRANCH  68  81
ATOM     81  C   UNL     1       1.722 -16.528  -8.664  1.00  0.00    -0.014 A 
ATOM     82  C   UNL     1       0.744 -17.218  -9.398  1.00  0.00     0.009 A 
ATOM     83  C   UNL     1       2.729 -17.264  -8.019  1.00  0.00     0.009 A 
ATOM     84  C   UNL     1       0.755 -18.614  -9.452  1.00  0.00     0.001 A 
ATOM     85  C   UNL     1       2.759 -18.657  -8.104  1.00  0.00     0.001 A 
ATOM     86  C   UNL     1       1.765 -19.331  -8.811  1.00  0.00     0.000 A 
ENDBRANCH  68  81
ENDBRANCH  42  43
ENDBRANCH  35  37
ENDBRANCH  34  35
ENDBRANCH  33  34
ENDBRANCH  32  33
ENDBRANCH  31  32
ENDBRANCH  30  31
ENDBRANCH  29  30
ENDBRANCH   1  29
TORSDOF 22
