REMARK SMILES CN1C(=O)C(=Cc2ccc(OCc3cccc(C(=O)OCCOCCOCCOC(=O)c4ccc(-c5c6nc(c(-c7ccccc7)c7ccc([nH]7)c(-c7ccccc7)c7nc(c(-c8ccccc8)c8ccc5[nH]8)C=C7)C=C6)cc4)c3)c(Cl)c2)C(=O)N(C)C1=S
REMARK SMILES IDX 24 1 23 2 22 3 21 4 20 5 18 6 19 7 17 8 13 9 14 10 80 11
REMARK SMILES IDX 15 12 16 13 12 14 11 15 10 16 7 17 8 18 83 19 9 20 81 21
REMARK SMILES IDX 82 22 6 23 1 24 2 25 3 26 88 27 4 28 5 29 86 30 89 31 84 32
REMARK SMILES IDX 87 33 85 34 25 35 26 36 27 37 28 38 29 39 30 40 31 41 32 42
REMARK SMILES IDX 33 43 79 44 34 45 78 46 35 47 36 48 37 49 72 50 38 51 77 52
REMARK SMILES IDX 71 53 73 54 39 55 76 56 70 57 69 58 40 60 62 61 47 62 61 63
REMARK SMILES IDX 48 64 51 65 60 66 74 67 49 68 50 69 59 71 75 72 52 73 41 74
REMARK SMILES IDX 42 75 46 76 43 77 45 78 44 79 63 80 64 81 68 82 65 83 67 84
REMARK SMILES IDX 66 85 53 86 54 87 58 88 55 89 57 90 56 91
REMARK H PARENT 73 59 51 70
REMARK Flexibility Score: inf
ROOT
ATOM      1  C   UNL     1      -8.232  -3.111   0.404  1.00  0.00     0.188 C 
ENDROOT
BRANCH   1   2
ATOM      2  O   UNL     1      -7.853  -4.305  -0.270  1.00  0.00    -0.376 OA
BRANCH   2   3
ATOM      3  C   UNL     1      -6.544  -4.446  -0.792  1.00  0.00     0.202 C 
BRANCH   3   4
ATOM      4  C   UNL     1      -6.111  -3.517  -1.935  1.00  0.00     0.261 C 
BRANCH   4   5
ATOM      5  O   UNL     1      -6.505  -2.143  -1.799  1.00  0.00    -0.460 OA
BRANCH   5   6
ATOM      6  C   UNL     1      -7.571  -1.750  -2.543  1.00  0.00     0.338 C 
ATOM      7  O   UNL     1      -8.204  -2.425  -3.337  1.00  0.00    -0.246 OA
BRANCH   6   8
ATOM      8  C   UNL     1      -7.986  -0.394  -2.109  1.00  0.00     0.060 A 
ATOM      9  C   UNL     1      -7.454   1.872  -1.392  1.00  0.00    -0.010 A 
ATOM     10  C   UNL     1      -8.816   2.061  -1.093  1.00  0.00     0.007 A 
ATOM     11  C   UNL     1      -7.055   0.637  -1.931  1.00  0.00     0.023 A 
ATOM     12  C   UNL     1      -9.751   1.048  -1.310  1.00  0.00     0.001 A 
ATOM     13  C   UNL     1      -9.338  -0.179  -1.821  1.00  0.00     0.016 A 
BRANCH   9  14
ATOM     14  C   UNL     1      -6.507   3.036  -1.146  1.00  0.00     0.265 C 
BRANCH  14  15
ATOM     15  O   UNL     1      -5.099   2.800  -1.173  1.00  0.00    -0.487 OA
BRANCH  15  16
ATOM     16  C   UNL     1      -4.551   1.796  -0.426  1.00  0.00     0.138 A 
ATOM     17  C   UNL     1      -3.297  -0.468   0.656  1.00  0.00    -0.023 A 
ATOM     18  C   UNL     1      -2.884   0.036  -0.578  1.00  0.00     0.012 A 
ATOM     19  C   UNL     1      -4.297   0.193   1.371  1.00  0.00     0.032 A 
ATOM     20  C   UNL     1      -3.492   1.173  -1.100  1.00  0.00     0.048 A 
ATOM     21  C   UNL     1      -4.925   1.326   0.838  1.00  0.00     0.083 A 
ATOM     22  Cl  UNL     1      -6.113   2.074   1.842  1.00  0.00    -0.080 Cl
BRANCH  17  23
ATOM     23  C   UNL     1      -2.678  -1.685   1.184  1.00  0.00     0.027 C 
ATOM     24  C   UNL     1       1.364   0.311   0.406  1.00  0.00     0.156 C 
ATOM     25  N   UNL     1       0.727  -0.867   0.999  1.00  0.00    -0.288 N 
ATOM     26  C   UNL     1      -0.506  -0.612   1.579  1.00  0.00     0.265 C 
ATOM     27  C   UNL     1       1.334  -2.140   0.959  1.00  0.00     0.185 C 
ATOM     28  O   UNL     1      -0.856   0.472   2.035  1.00  0.00    -0.268 OA
ATOM     29  C   UNL     1      -1.394  -1.774   1.574  1.00  0.00     0.106 C 
ATOM     30  N   UNL     1       0.506  -3.222   1.343  1.00  0.00    -0.288 N 
ATOM     31  S   UNL     1       2.950  -2.339   0.490  1.00  0.00    -0.040 S 
ATOM     32  C   UNL     1      -0.828  -3.111   1.751  1.00  0.00     0.265 C 
ATOM     33  C   UNL     1       0.946  -4.617   1.259  1.00  0.00     0.156 C 
ATOM     34  O   UNL     1      -1.514  -4.051   2.147  1.00  0.00    -0.268 OA
ENDBRANCH  17  23
ENDBRANCH  15  16
ENDBRANCH  14  15
ENDBRANCH   9  14
ENDBRANCH   6   8
ENDBRANCH   5   6
ENDBRANCH   4   5
ENDBRANCH   3   4
ENDBRANCH   2   3
ENDBRANCH   1   2
BRANCH   1  35
ATOM     35  C   UNL     1      -7.194  -2.205   1.098  1.00  0.00     0.188 C 
BRANCH  35  36
ATOM     36  O   UNL     1      -5.997  -2.874   1.460  1.00  0.00    -0.376 OA
BRANCH  36  37
ATOM     37  C   UNL     1      -5.740  -3.007   2.850  1.00  0.00     0.202 C 
BRANCH  37  38
ATOM     38  C   UNL     1      -6.591  -4.057   3.564  1.00  0.00     0.261 C 
BRANCH  38  39
ATOM     39  O   UNL     1      -8.010  -3.875   3.458  1.00  0.00    -0.460 OA
BRANCH  39  40
ATOM     40  C   UNL     1      -8.551  -2.791   4.055  1.00  0.00     0.338 C 
ATOM     41  O   UNL     1      -7.971  -1.912   4.667  1.00  0.00    -0.246 OA
BRANCH  40  42
ATOM     42  C   UNL     1      -9.982  -2.774   3.695  1.00  0.00     0.060 A 
ATOM     43  C   UNL     1     -10.515  -1.666   3.022  1.00  0.00     0.016 A 
ATOM     44  C   UNL     1     -10.784  -3.879   3.992  1.00  0.00     0.016 A 
ATOM     45  C   UNL     1     -11.866  -1.657   2.666  1.00  0.00     0.010 A 
ATOM     46  C   UNL     1     -12.133  -3.863   3.643  1.00  0.00     0.010 A 
ATOM     47  C   UNL     1     -12.688  -2.742   3.003  1.00  0.00    -0.014 A 
BRANCH  47  48
ATOM     48  C   UNL     1     -14.160  -2.656   2.844  1.00  0.00     0.031 A 
ATOM     49  C   UNL     1     -14.992  -2.324   4.052  1.00  0.00     0.074 A 
ATOM     50  C   UNL     1     -14.752  -2.893   1.660  1.00  0.00     0.049 A 
ATOM     51  N   UNL     1     -16.293  -2.256   4.172  1.00  0.00    -0.248 NA
ATOM     52  C   UNL     1     -14.254  -2.038   5.293  1.00  0.00     0.031 C 
ATOM     53  C   UNL     1     -14.059  -3.197   0.410  1.00  0.00     0.029 A 
ATOM     54  N   UNL     1     -16.083  -2.923   1.326  1.00  0.00    -0.354 N 
ATOM     55  C   UNL     1     -16.529  -1.933   5.503  1.00  0.00     0.074 A 
ATOM     56  C   UNL     1     -15.241  -1.848   6.155  1.00  0.00     0.031 C 
ATOM     57  C   UNL     1     -14.974  -3.388  -0.558  1.00  0.00     0.029 A 
ATOM     58  C   UNL     1     -16.313  -3.256   0.013  1.00  0.00     0.049 A 
ATOM     59  H   UNL     1     -16.804  -2.726   1.966  1.00  0.00     0.167 HD
ATOM     60  C   UNL     1     -17.712  -1.721   6.127  1.00  0.00     0.031 A 
ATOM     61  C   UNL     1     -17.473  -3.452  -0.644  1.00  0.00     0.031 A 
ATOM     62  C   UNL     1     -18.994  -1.826   5.484  1.00  0.00     0.049 A 
ATOM     63  C   UNL     1     -18.779  -3.289   0.091  1.00  0.00     0.074 A 
ATOM     64  C   UNL     1     -20.249  -1.605   6.024  1.00  0.00     0.029 A 
ATOM     65  N   UNL     1     -19.185  -2.198   4.163  1.00  0.00    -0.354 N 
ATOM     66  N   UNL     1     -18.990  -2.939   1.338  1.00  0.00    -0.248 NA
ATOM     67  C   UNL     1     -20.007  -3.543  -0.676  1.00  0.00     0.031 C 
ATOM     68  C   UNL     1     -21.202  -1.906   5.046  1.00  0.00     0.029 A 
ATOM     69  C   UNL     1     -20.539  -2.245   3.877  1.00  0.00     0.049 A 
ATOM     70  H   UNL     1     -18.465  -2.398   3.522  1.00  0.00     0.167 HD
ATOM     71  C   UNL     1     -20.371  -2.898   1.493  1.00  0.00     0.074 A 
ATOM     72  C   UNL     1     -20.947  -3.247   0.211  1.00  0.00     0.031 C 
ATOM     73  C   UNL     1     -21.098  -2.594   2.597  1.00  0.00     0.031 A 
BRANCH  60  74
ATOM     74  C   UNL     1     -17.668  -1.396   7.594  1.00  0.00    -0.014 A 
ATOM     75  C   UNL     1     -17.172  -0.168   8.059  1.00  0.00     0.009 A 
ATOM     76  C   UNL     1     -18.150  -2.329   8.526  1.00  0.00     0.009 A 
ATOM     77  C   UNL     1     -17.123   0.103   9.428  1.00  0.00     0.001 A 
ATOM     78  C   UNL     1     -18.129  -2.043   9.892  1.00  0.00     0.001 A 
ATOM     79  C   UNL     1     -17.606  -0.832  10.342  1.00  0.00     0.000 A 
ENDBRANCH  60  74
BRANCH  61  80
ATOM     80  C   UNL     1     -17.463  -3.835  -2.082  1.00  0.00    -0.014 A 
ATOM     81  C   UNL     1     -17.927  -2.943  -3.062  1.00  0.00     0.009 A 
ATOM     82  C   UNL     1     -17.013  -5.103  -2.480  1.00  0.00     0.009 A 
ATOM     83  C   UNL     1     -17.962  -3.322  -4.406  1.00  0.00     0.001 A 
ATOM     84  C   UNL     1     -17.021  -5.468  -3.829  1.00  0.00     0.001 A 
ATOM     85  C   UNL     1     -17.504  -4.581  -4.789  1.00  0.00     0.000 A 
ENDBRANCH  61  80
BRANCH  73  86
ATOM     86  C   UNL     1     -22.596  -2.580   2.459  1.00  0.00    -0.014 A 
ATOM     87  C   UNL     1     -23.332  -3.766   2.307  1.00  0.00     0.009 A 
ATOM     88  C   UNL     1     -23.286  -1.359   2.531  1.00  0.00     0.009 A 
ATOM     89  C   UNL     1     -24.724  -3.724   2.195  1.00  0.00     0.001 A 
ATOM     90  C   UNL     1     -24.679  -1.323   2.452  1.00  0.00     0.001 A 
ATOM     91  C   UNL     1     -25.396  -2.504   2.274  1.00  0.00     0.000 A 
ENDBRANCH  73  86
ENDBRANCH  47  48
ENDBRANCH  40  42
ENDBRANCH  39  40
ENDBRANCH  38  39
ENDBRANCH  37  38
ENDBRANCH  36  37
ENDBRANCH  35  36
ENDBRANCH   1  35
TORSDOF 21
