REMARK SMILES Cc1cc(OC(F)(F)F)cc2c1O[C@H](C(F)(F)F)C(C(=O)OCCOCCOCCOC(=O)c1ccc(-c3c4nc(c(-c5ccccc5)c5ccc([nH]5)c(-c5ccccc5)c5nc(c(-c6ccccc6)c6ccc3[nH]6)C=C5)C=C4)cc1)=C2
REMARK SMILES IDX 26 1 25 2 24 3 23 4 22 5 20 6 21 7 19 8 1 9 2 10 3 11 12 12
REMARK SMILES IDX 4 13 11 14 13 15 10 16 82 17 14 18 5 19 6 20 7 21 8 22 9 23
REMARK SMILES IDX 15 24 16 25 17 26 18 27 27 28 28 29 29 30 30 31 31 32 32 33
REMARK SMILES IDX 33 34 34 35 35 36 81 37 36 38 80 39 37 40 38 41 39 42 74 43
REMARK SMILES IDX 40 44 79 45 73 46 75 47 41 48 78 49 72 50 71 51 42 53 64 54
REMARK SMILES IDX 49 55 63 56 50 57 53 58 62 59 76 60 51 61 52 62 61 64 77 65
REMARK SMILES IDX 54 66 43 67 44 68 48 69 45 70 47 71 46 72 65 73 66 74 70 75
REMARK SMILES IDX 67 76 69 77 68 78 55 79 56 80 60 81 57 82 59 83 58 84
REMARK H PARENT 75 52 53 63
REMARK Flexibility Score: inf
ROOT
ATOM      1  C   UNL     1       3.300  -7.682   0.796  1.00  0.00     0.188 C 
ENDROOT
BRANCH   1   2
ATOM      2  O   UNL     1       3.544  -8.903   0.137  1.00  0.00    -0.376 OA
BRANCH   2   3
ATOM      3  C   UNL     1       3.272  -9.063  -1.244  1.00  0.00     0.202 C 
BRANCH   3   4
ATOM      4  C   UNL     1       2.237  -8.240  -2.026  1.00  0.00     0.261 C 
BRANCH   4   5
ATOM      5  O   UNL     1       2.074  -6.876  -1.627  1.00  0.00    -0.460 OA
BRANCH   5   6
ATOM      6  C   UNL     1       0.876  -6.577  -1.068  1.00  0.00     0.338 C 
ATOM      7  O   UNL     1      -0.055  -7.343  -0.882  1.00  0.00    -0.246 OA
BRANCH   6   8
ATOM      8  C   UNL     1       0.901  -5.191  -0.560  1.00  0.00     0.087 C 
ATOM      9  C   UNL     1       1.089  -0.108  -0.093  1.00  0.00     0.048 C 
ATOM     10  C   UNL     1       0.637  -1.248   0.778  1.00  0.00    -0.005 A 
ATOM     11  C   UNL     1       0.024  -0.984   2.015  1.00  0.00     0.054 A 
ATOM     12  C   UNL     1       0.811  -2.578   0.364  1.00  0.00     0.131 A 
ATOM     13  C   UNL     1      -0.410  -2.028   2.832  1.00  0.00     0.130 A 
ATOM     14  C   UNL     1       0.348  -3.625   1.161  1.00  0.00     0.021 A 
ATOM     15  O   UNL     1       1.446  -2.773  -0.831  1.00  0.00    -0.475 OA
ATOM     16  C   UNL     1      -0.235  -3.347   2.403  1.00  0.00     0.058 A 
ATOM     17  C   UNL     1       0.411  -4.992   0.670  1.00  0.00     0.027 C 
ATOM     18  C   UNL     1       1.466  -4.097  -1.424  1.00  0.00     0.316 C 
BRANCH  13  19
ATOM     19  O   UNL     1      -1.018  -1.905   4.049  1.00  0.00    -0.406 OA
BRANCH  19  20
ATOM     20  C   UNL     1      -1.453  -0.613   4.442  1.00  0.00     0.573 C 
ATOM     21  F   UNL     1      -0.403   0.215   4.627  1.00  0.00    -0.132 F 
ATOM     22  F   UNL     1      -2.292  -0.081   3.528  1.00  0.00    -0.132 F 
ATOM     23  F   UNL     1      -2.118  -0.716   5.613  1.00  0.00    -0.132 F 
ENDBRANCH  19  20
ENDBRANCH  13  19
BRANCH  18  24
ATOM     24  C   UNL     1       0.777  -4.025  -2.793  1.00  0.00     0.430 C 
ATOM     25  F   UNL     1       1.257  -2.996  -3.533  1.00  0.00    -0.167 F 
ATOM     26  F   UNL     1       0.981  -5.151  -3.517  1.00  0.00    -0.167 F 
ATOM     27  F   UNL     1      -0.560  -3.855  -2.678  1.00  0.00    -0.167 F 
ENDBRANCH  18  24
ENDBRANCH   6   8
ENDBRANCH   5   6
ENDBRANCH   4   5
ENDBRANCH   3   4
ENDBRANCH   2   3
ENDBRANCH   1   2
BRANCH   1  28
ATOM     28  C   UNL     1       4.121  -6.428   0.427  1.00  0.00     0.188 C 
BRANCH  28  29
ATOM     29  O   UNL     1       5.067  -6.474  -0.617  1.00  0.00    -0.376 OA
BRANCH  29  30
ATOM     30  C   UNL     1       6.170  -7.361  -0.517  1.00  0.00     0.202 C 
BRANCH  30  31
ATOM     31  C   UNL     1       6.884  -7.677   0.810  1.00  0.00     0.261 C 
BRANCH  31  32
ATOM     32  O   UNL     1       6.045  -7.851   1.960  1.00  0.00    -0.460 OA
BRANCH  32  33
ATOM     33  C   UNL     1       6.174  -6.903   2.924  1.00  0.00     0.338 C 
ATOM     34  O   UNL     1       6.908  -5.934   2.923  1.00  0.00    -0.246 OA
BRANCH  33  35
ATOM     35  C   UNL     1       5.133  -7.120   3.946  1.00  0.00     0.060 A 
ATOM     36  C   UNL     1       4.046  -6.236   4.011  1.00  0.00     0.016 A 
ATOM     37  C   UNL     1       5.260  -8.162   4.864  1.00  0.00     0.016 A 
ATOM     38  C   UNL     1       3.071  -6.399   4.993  1.00  0.00     0.010 A 
ATOM     39  C   UNL     1       4.307  -8.296   5.876  1.00  0.00     0.010 A 
ATOM     40  C   UNL     1       3.224  -7.403   5.957  1.00  0.00    -0.014 A 
BRANCH  40  41
ATOM     41  C   UNL     1       2.379  -7.382   7.171  1.00  0.00     0.031 A 
ATOM     42  C   UNL     1       2.860  -6.586   8.351  1.00  0.00     0.074 A 
ATOM     43  C   UNL     1       1.208  -8.038   7.226  1.00  0.00     0.049 A 
ATOM     44  N   UNL     1       2.325  -6.466   9.538  1.00  0.00    -0.248 NA
ATOM     45  C   UNL     1       4.103  -5.815   8.167  1.00  0.00     0.031 C 
ATOM     46  C   UNL     1       0.598  -8.782   6.126  1.00  0.00     0.029 A 
ATOM     47  N   UNL     1       0.320  -8.177   8.264  1.00  0.00    -0.354 N 
ATOM     48  C   UNL     1       3.161  -5.607  10.237  1.00  0.00     0.074 A 
ATOM     49  C   UNL     1       4.249  -5.249   9.356  1.00  0.00     0.031 C 
ATOM     50  C   UNL     1      -0.567  -9.305   6.551  1.00  0.00     0.029 A 
ATOM     51  C   UNL     1      -0.765  -8.961   7.958  1.00  0.00     0.049 A 
ATOM     52  H   UNL     1       0.449  -7.755   9.144  1.00  0.00     0.167 HD
ATOM     53  C   UNL     1       3.029  -5.150  11.502  1.00  0.00     0.031 A 
ATOM     54  C   UNL     1      -1.792  -9.367   8.732  1.00  0.00     0.031 A 
ATOM     55  C   UNL     1       1.962  -5.516  12.388  1.00  0.00     0.049 A 
ATOM     56  C   UNL     1      -1.854  -8.938  10.174  1.00  0.00     0.074 A 
ATOM     57  C   UNL     1       1.758  -5.110  13.694  1.00  0.00     0.029 A 
ATOM     58  N   UNL     1       0.924  -6.372  12.062  1.00  0.00    -0.354 N 
ATOM     59  N   UNL     1      -1.050  -8.137  10.831  1.00  0.00    -0.248 NA
ATOM     60  C   UNL     1      -2.962  -9.470  10.984  1.00  0.00     0.031 C 
ATOM     61  C   UNL     1       0.620  -5.758  14.176  1.00  0.00     0.029 A 
ATOM     62  C   UNL     1       0.086  -6.523  13.151  1.00  0.00     0.049 A 
ATOM     63  H   UNL     1       0.801  -6.806  11.187  1.00  0.00     0.167 HD
ATOM     64  C   UNL     1      -1.567  -8.049  12.118  1.00  0.00     0.074 A 
ATOM     65  C   UNL     1      -2.756  -8.874  12.152  1.00  0.00     0.031 C 
ATOM     66  C   UNL     1      -1.097  -7.341  13.172  1.00  0.00     0.031 A 
BRANCH  53  67
ATOM     67  C   UNL     1       4.069  -4.202  12.019  1.00  0.00    -0.014 A 
ATOM     68  C   UNL     1       4.059  -2.853  11.638  1.00  0.00     0.009 A 
ATOM     69  C   UNL     1       4.995  -4.638  12.979  1.00  0.00     0.009 A 
ATOM     70  C   UNL     1       4.957  -1.954  12.213  1.00  0.00     0.001 A 
ATOM     71  C   UNL     1       5.878  -3.733  13.567  1.00  0.00     0.001 A 
ATOM     72  C   UNL     1       5.858  -2.392  13.185  1.00  0.00     0.000 A 
ENDBRANCH  53  67
BRANCH  54  73
ATOM     73  C   UNL     1      -2.853 -10.229   8.152  1.00  0.00    -0.014 A 
ATOM     74  C   UNL     1      -4.128  -9.704   7.894  1.00  0.00     0.009 A 
ATOM     75  C   UNL     1      -2.592 -11.571   7.832  1.00  0.00     0.009 A 
ATOM     76  C   UNL     1      -5.122 -10.507   7.328  1.00  0.00     0.001 A 
ATOM     77  C   UNL     1      -3.582 -12.364   7.247  1.00  0.00     0.001 A 
ATOM     78  C   UNL     1      -4.846 -11.833   6.998  1.00  0.00     0.000 A 
ENDBRANCH  54  73
BRANCH  66  79
ATOM     79  C   UNL     1      -1.862  -7.389  14.464  1.00  0.00    -0.014 A 
ATOM     80  C   UNL     1      -1.764  -8.496  15.318  1.00  0.00     0.009 A 
ATOM     81  C   UNL     1      -2.565  -6.252  14.895  1.00  0.00     0.009 A 
ATOM     82  C   UNL     1      -2.357  -8.464  16.581  1.00  0.00     0.001 A 
ATOM     83  C   UNL     1      -3.137  -6.215  16.167  1.00  0.00     0.001 A 
ATOM     84  C   UNL     1      -3.033  -7.321  17.009  1.00  0.00     0.000 A 
ENDBRANCH  66  79
ENDBRANCH  40  41
ENDBRANCH  33  35
ENDBRANCH  32  33
ENDBRANCH  31  32
ENDBRANCH  30  31
ENDBRANCH  29  30
ENDBRANCH  28  29
ENDBRANCH   1  28
TORSDOF 20
