REMARK SMILES Cc1ccc(C)c(S(=O)(=O)N[C@H](CC2=c3ccccc3=NC2)C(=O)OCCOCCOCCOC(=O)c2ccc(-c3c4nc(c(-c5ccccc5)c5ccc([nH]5)c(-c5ccccc5)c5nc(c(-c6ccccc6)c6ccc3[nH]6)C=C5)C=C4)cc2)c1
REMARK SMILES IDX 29 1 28 2 27 3 26 4 25 5 23 6 24 7 12 8 11 9 8 11 9 12 10 13
REMARK SMILES IDX 7 14 1 15 2 16 3 17 85 18 4 19 5 20 6 21 13 22 14 23 15 24
REMARK SMILES IDX 22 25 16 26 20 27 21 28 17 29 19 30 18 31 30 32 31 33 32 34
REMARK SMILES IDX 33 35 34 36 35 37 36 38 37 39 38 40 84 41 39 42 83 43 40 44
REMARK SMILES IDX 41 45 42 46 77 47 43 48 82 49 76 50 78 51 44 52 81 53 75 54
REMARK SMILES IDX 74 55 45 57 67 58 52 59 66 60 53 61 56 62 65 63 79 64 54 65
REMARK SMILES IDX 55 66 64 68 80 69 57 70 46 71 47 72 51 73 48 74 50 75 49 76
REMARK SMILES IDX 68 77 69 78 73 79 70 80 72 81 71 82 58 83 59 84 63 85 60 86
REMARK SMILES IDX 62 87 61 88
REMARK H PARENT 11 10 78 56 56 67
REMARK Flexibility Score: inf
ROOT
ATOM      1  C   UNL     1       4.931   6.296   0.883  1.00  0.00     0.188 C 
ENDROOT
BRANCH   1   2
ATOM      2  O   UNL     1       5.869   6.702  -0.102  1.00  0.00    -0.376 OA
BRANCH   2   3
ATOM      3  C   UNL     1       5.353   7.427  -1.211  1.00  0.00     0.202 C 
BRANCH   3   4
ATOM      4  C   UNL     1       4.312   6.757  -2.168  1.00  0.00     0.261 C 
BRANCH   4   5
ATOM      5  O   UNL     1       3.775   5.440  -1.754  1.00  0.00    -0.462 OA
BRANCH   5   6
ATOM      6  C   UNL     1       2.966   4.613  -2.520  1.00  0.00     0.324 C 
ATOM      7  O   UNL     1       3.489   3.940  -3.408  1.00  0.00    -0.250 OA
BRANCH   6   8
ATOM      8  C   UNL     1       1.447   4.232  -1.956  1.00  0.00     0.183 C 
BRANCH   8   9
ATOM      9  N   UNL     1       0.403   3.993  -3.042  1.00  0.00    -0.197 NA
ATOM     10  H   UNL     1      -0.493   4.133  -2.576  1.00  0.00     0.142 HD
BRANCH   9  11
ATOM     11  S   UNL     1       0.190   2.616  -3.974  1.00  0.00     0.241 S 
ATOM     12  O   UNL     1       1.454   2.343  -4.611  1.00  0.00    -0.207 OA
ATOM     13  O   UNL     1      -0.999   2.880  -4.761  1.00  0.00    -0.207 OA
BRANCH  11  14
ATOM     14  C   UNL     1      -0.243   1.168  -2.984  1.00  0.00     0.085 A 
ATOM     15  C   UNL     1      -1.603   0.198   0.485  1.00  0.00     0.044 C 
ATOM     16  C   UNL     1      -1.050   0.136  -0.912  1.00  0.00    -0.050 A 
ATOM     17  C   UNL     1      -0.769  -1.130  -1.434  1.00  0.00     0.004 A 
ATOM     18  C   UNL     1      -0.804   1.286  -1.699  1.00  0.00     0.025 A 
ATOM     19  C   UNL     1      -0.283  -1.259  -2.728  1.00  0.00     0.005 A 
ATOM     20  C   UNL     1      -0.037  -0.127  -3.527  1.00  0.00    -0.031 A 
ATOM     21  C   UNL     1       0.415  -0.420  -4.934  1.00  0.00     0.046 C 
ENDBRANCH  11  14
ENDBRANCH   9  11
ENDBRANCH   8   9
BRANCH   8  22
ATOM     22  C   UNL     1       0.360   4.874  -0.586  1.00  0.00     0.065 C 
BRANCH  22  23
ATOM     23  C   UNL     1       0.345   6.257   1.125  1.00  0.00    -0.037 C 
ATOM     24  C   UNL     1       0.108   6.154   2.582  1.00  0.00     0.001 A 
ATOM     25  C   UNL     1      -0.148   7.937   1.126  1.00  0.00     0.174 C 
ATOM     26  C   UNL     1      -0.113   5.066   3.606  1.00  0.00     0.010 A 
ATOM     27  C   UNL     1      -0.015   7.484   3.216  1.00  0.00     0.065 A 
ATOM     28  N   UNL     1      -0.221   8.501   2.471  1.00  0.00    -0.280 NA
ATOM     29  C   UNL     1       0.158   5.241   4.908  1.00  0.00     0.001 A 
ATOM     30  C   UNL     1       0.229   7.630   4.671  1.00  0.00     0.028 A 
ATOM     31  C   UNL     1       0.435   6.545   5.425  1.00  0.00     0.002 A 
ENDBRANCH  22  23
ENDBRANCH   8  22
ENDBRANCH   6   8
ENDBRANCH   5   6
ENDBRANCH   4   5
ENDBRANCH   3   4
ENDBRANCH   2   3
ENDBRANCH   1   2
BRANCH   1  32
ATOM     32  C   UNL     1       3.749   7.239   1.064  1.00  0.00     0.188 C 
BRANCH  32  33
ATOM     33  O   UNL     1       4.007   8.298   1.945  1.00  0.00    -0.376 OA
BRANCH  33  34
ATOM     34  C   UNL     1       3.160   8.105   3.083  1.00  0.00     0.202 C 
BRANCH  34  35
ATOM     35  C   UNL     1       3.307   6.668   3.728  1.00  0.00     0.261 C 
BRANCH  35  36
ATOM     36  O   UNL     1       2.699   5.239   3.180  1.00  0.00    -0.460 OA
BRANCH  36  37
ATOM     37  C   UNL     1       2.057   4.149   2.581  1.00  0.00     0.338 C 
ATOM     38  O   UNL     1       2.330   3.016   2.968  1.00  0.00    -0.246 OA
BRANCH  37  39
ATOM     39  C   UNL     1       1.042   4.248   1.315  1.00  0.00     0.060 A 
ATOM     40  C   UNL     1      -0.796   4.559   1.040  1.00  0.00     0.016 A 
ATOM     41  C   UNL     1       2.137   5.147   0.361  1.00  0.00     0.016 A 
ATOM     42  C   UNL     1      -1.305   5.963  -0.086  1.00  0.00     0.010 A 
ATOM     43  C   UNL     1       1.620   6.476  -0.686  1.00  0.00     0.010 A 
ATOM     44  C   UNL     1       0.023   6.947  -0.937  1.00  0.00    -0.014 A 
BRANCH  44  45
ATOM     45  C   UNL     1       0.219   8.258  -1.917  1.00  0.00     0.031 A 
ATOM     46  C   UNL     1      -0.856   7.981  -2.820  1.00  0.00     0.074 A 
ATOM     47  C   UNL     1       1.159   9.297  -2.218  1.00  0.00     0.049 A 
ATOM     48  N   UNL     1      -0.715   7.056  -3.709  1.00  0.00    -0.248 NA
ATOM     49  C   UNL     1      -2.229   8.291  -2.418  1.00  0.00     0.031 C 
ATOM     50  C   UNL     1       2.295   9.849  -1.418  1.00  0.00     0.029 A 
ATOM     51  N   UNL     1       1.347  10.133  -3.394  1.00  0.00    -0.354 N 
ATOM     52  C   UNL     1      -1.950   7.048  -4.294  1.00  0.00     0.074 A 
ATOM     53  C   UNL     1      -2.873   7.486  -3.270  1.00  0.00     0.031 C 
ATOM     54  C   UNL     1       2.884  10.945  -1.984  1.00  0.00     0.029 A 
ATOM     55  C   UNL     1       2.293  11.240  -3.274  1.00  0.00     0.049 A 
ATOM     56  H   UNL     1       0.859   9.960  -4.232  1.00  0.00     0.167 HD
ATOM     57  C   UNL     1      -1.971   7.293  -5.626  1.00  0.00     0.031 A 
ATOM     58  C   UNL     1       2.709  12.239  -4.160  1.00  0.00     0.031 A 
ATOM     59  C   UNL     1      -0.691   7.040  -6.245  1.00  0.00     0.049 A 
ATOM     60  C   UNL     1       2.485  11.763  -5.527  1.00  0.00     0.074 A 
ATOM     61  C   UNL     1       0.095   5.918  -6.430  1.00  0.00     0.029 A 
ATOM     62  N   UNL     1       0.158   8.117  -6.284  1.00  0.00    -0.354 N 
ATOM     63  N   UNL     1       3.237  10.878  -6.103  1.00  0.00    -0.248 NA
ATOM     64  C   UNL     1       1.162  11.973  -6.079  1.00  0.00     0.031 C 
ATOM     65  C   UNL     1       1.436   6.362  -6.564  1.00  0.00     0.029 A 
ATOM     66  C   UNL     1       1.440   7.750  -6.601  1.00  0.00     0.049 A 
ATOM     67  H   UNL     1      -0.121   9.044  -6.106  1.00  0.00     0.167 HD
ATOM     68  C   UNL     1       2.302  10.050  -6.681  1.00  0.00     0.074 A 
ATOM     69  C   UNL     1       1.058  10.819  -6.736  1.00  0.00     0.031 C 
ATOM     70  C   UNL     1       2.514   8.709  -6.694  1.00  0.00     0.031 A 
BRANCH  57  71
ATOM     71  C   UNL     1      -3.003   8.219  -6.174  1.00  0.00    -0.014 A 
ATOM     72  C   UNL     1      -3.523   9.311  -5.441  1.00  0.00     0.009 A 
ATOM     73  C   UNL     1      -3.415   8.075  -7.493  1.00  0.00     0.009 A 
ATOM     74  C   UNL     1      -4.550  10.107  -5.929  1.00  0.00     0.001 A 
ATOM     75  C   UNL     1      -4.406   8.912  -8.012  1.00  0.00     0.001 A 
ATOM     76  C   UNL     1      -5.001   9.897  -7.220  1.00  0.00     0.000 A 
ENDBRANCH  57  71
BRANCH  58  77
ATOM     77  C   UNL     1       3.074  13.728  -4.057  1.00  0.00    -0.014 A 
ATOM     78  C   UNL     1       2.657  14.449  -2.935  1.00  0.00     0.009 A 
ATOM     79  C   UNL     1       3.454  14.527  -5.187  1.00  0.00     0.009 A 
ATOM     80  C   UNL     1       2.491  15.851  -2.965  1.00  0.00     0.001 A 
ATOM     81  C   UNL     1       3.301  15.937  -5.212  1.00  0.00     0.001 A 
ATOM     82  C   UNL     1       2.777  16.594  -4.108  1.00  0.00     0.000 A 
ENDBRANCH  58  77
BRANCH  70  83
ATOM     83  C   UNL     1       3.926   8.190  -6.756  1.00  0.00    -0.014 A 
ATOM     84  C   UNL     1       4.234   7.399  -7.876  1.00  0.00     0.009 A 
ATOM     85  C   UNL     1       4.892   8.318  -5.746  1.00  0.00     0.009 A 
ATOM     86  C   UNL     1       5.430   6.690  -7.957  1.00  0.00     0.001 A 
ATOM     87  C   UNL     1       6.107   7.621  -5.839  1.00  0.00     0.001 A 
ATOM     88  C   UNL     1       6.364   6.792  -6.932  1.00  0.00     0.000 A 
ENDBRANCH  70  83
ENDBRANCH  44  45
ENDBRANCH  37  39
ENDBRANCH  36  37
ENDBRANCH  35  36
ENDBRANCH  34  35
ENDBRANCH  33  34
ENDBRANCH  32  33
ENDBRANCH   1  32
TORSDOF 22
