REMARK SMILES NC(=O)[C@@H]1CCC[N@@H+]1[C@@H](C(=O)OCCOCCOCCOC(=O)c1ccc(-c2c3nc(c(-c4ccccc4)c4ccc([nH]4)c(-c4ccccc4)c4nc(c(-c5ccccc5)c5ccc2[nH]5)C=C4)C=C3)cc1)c1c[nH]c2cc(OCc3ccccc3)ccc12
REMARK SMILES IDX 16 1 15 2 14 3 13 4 12 5 10 6 11 7 9 8 8 9 4 10 5 11 6 12
REMARK SMILES IDX 7 13 2 15 1 16 3 19 72 20 73 21 88 22 74 23 75 24 87 25
REMARK SMILES IDX 76 27 86 28 77 29 78 30 79 31 80 32 81 33 85 34 82 35 84 36
REMARK SMILES IDX 83 37 17 38 18 39 19 40 20 41 21 42 22 43 23 44 24 45 25 46
REMARK SMILES IDX 71 47 26 48 70 49 27 50 28 51 29 52 64 53 30 54 69 55 63 56
REMARK SMILES IDX 65 57 31 58 68 59 62 60 61 61 32 63 54 64 39 65 53 66 40 67
REMARK SMILES IDX 43 68 52 69 66 70 41 71 42 72 51 74 67 75 44 76 33 77 34 78
REMARK SMILES IDX 38 79 35 80 37 81 36 82 55 83 56 84 60 85 57 86 59 87 58 88
REMARK SMILES IDX 45 89 46 90 50 91 47 92 49 93 48 94
REMARK H PARENT 8 14 1 17 1 18 74 26 65 62 43 73
REMARK Flexibility Score: inf
ROOT
ATOM      1  C   UNL     1      -2.965  -4.696   2.879  1.00  0.00     0.188 C 
ENDROOT
BRANCH   1   2
ATOM      2  O   UNL     1      -4.015  -4.576   1.934  1.00  0.00    -0.376 OA
BRANCH   2   3
ATOM      3  C   UNL     1      -3.635  -4.152   0.638  1.00  0.00     0.202 C 
BRANCH   3   4
ATOM      4  C   UNL     1      -3.216  -2.671   0.520  1.00  0.00     0.261 C 
BRANCH   4   5
ATOM      5  O   UNL     1      -2.028  -2.293   1.270  1.00  0.00    -0.459 OA
BRANCH   5   6
ATOM      6  C   UNL     1      -2.187  -1.683   2.480  1.00  0.00     0.370 C 
ATOM      7  O   UNL     1      -3.290  -1.308   2.882  1.00  0.00    -0.245 OA
BRANCH   6   8
ATOM      8  C   UNL     1      -0.906  -1.608   3.382  1.00  0.00     0.329 C 
BRANCH   8   9
ATOM      9  N   UNL     1       0.500  -1.263   2.886  1.00  0.00    -0.309 N 
ATOM     10  C   UNL     1       0.797  -1.002   1.464  1.00  0.00     0.275 C 
ATOM     11  C   UNL     1       1.200  -2.349   0.875  1.00  0.00     0.081 C 
ATOM     12  C   UNL     1       1.872  -3.039   2.042  1.00  0.00     0.068 C 
ATOM     13  C   UNL     1       1.699  -2.059   3.173  1.00  0.00     0.264 C 
ATOM     14  H   UNL     1       0.364  -0.454   3.492  1.00  0.00     0.349 HD
BRANCH  10  15
ATOM     15  C   UNL     1      -0.021  -0.071   0.608  1.00  0.00     0.275 C 
ATOM     16  N   UNL     1       0.692   0.370  -0.486  1.00  0.00    -0.365 N 
ATOM     17  H   UNL     1       0.274   0.986  -1.130  1.00  0.00     0.159 HD
ATOM     18  H   UNL     1       1.619   0.069  -0.623  1.00  0.00     0.159 HD
ATOM     19  O   UNL     1      -1.148   0.340   0.836  1.00  0.00    -0.268 OA
ENDBRANCH  10  15
ENDBRANCH   8   9
BRANCH   8  20
ATOM     20  C   UNL     1      -1.059  -2.334   4.830  1.00  0.00     0.046 A 
ATOM     21  C   UNL     1      -0.439  -1.684   5.904  1.00  0.00     0.094 A 
ATOM     22  C   UNL     1      -0.843  -3.700   5.307  1.00  0.00     0.009 A 
ATOM     23  N   UNL     1       0.886  -2.149   5.885  1.00  0.00    -0.361 N 
ATOM     24  C   UNL     1       0.856  -3.565   5.676  1.00  0.00     0.050 A 
ATOM     25  C   UNL     1      -1.683  -5.270   5.677  1.00  0.00     0.015 A 
ATOM     26  H   UNL     1       1.694  -1.598   5.995  1.00  0.00     0.166 HD
ATOM     27  C   UNL     1       1.845  -5.000   6.283  1.00  0.00     0.073 A 
ATOM     28  C   UNL     1      -0.744  -6.730   6.378  1.00  0.00     0.047 A 
ATOM     29  C   UNL     1       1.017  -6.564   6.659  1.00  0.00     0.121 A 
BRANCH  29  30
ATOM     30  O   UNL     1       1.838  -7.552   7.102  1.00  0.00    -0.489 OA
BRANCH  30  31
ATOM     31  C   UNL     1       1.228  -8.582   7.876  1.00  0.00     0.265 C 
BRANCH  31  32
ATOM     32  C   UNL     1       1.505  -8.408   9.352  1.00  0.00    -0.011 A 
ATOM     33  C   UNL     1       0.746  -9.123  10.293  1.00  0.00     0.007 A 
ATOM     34  C   UNL     1       2.555  -7.600   9.808  1.00  0.00     0.007 A 
ATOM     35  C   UNL     1       1.004  -8.997  11.658  1.00  0.00     0.000 A 
ATOM     36  C   UNL     1       2.835  -7.507  11.169  1.00  0.00     0.000 A 
ATOM     37  C   UNL     1       2.047  -8.187  12.095  1.00  0.00     0.000 A 
ENDBRANCH  31  32
ENDBRANCH  30  31
ENDBRANCH  29  30
ENDBRANCH   8  20
ENDBRANCH   6   8
ENDBRANCH   5   6
ENDBRANCH   4   5
ENDBRANCH   3   4
ENDBRANCH   2   3
ENDBRANCH   1   2
BRANCH   1  38
ATOM     38  C   UNL     1      -1.530  -4.807   2.358  1.00  0.00     0.188 C 
BRANCH  38  39
ATOM     39  O   UNL     1      -1.347  -5.963   1.562  1.00  0.00    -0.376 OA
BRANCH  39  40
ATOM     40  C   UNL     1      -0.100  -6.588   1.832  1.00  0.00     0.202 C 
BRANCH  40  41
ATOM     41  C   UNL     1      -0.131  -7.315   3.169  1.00  0.00     0.261 C 
BRANCH  41  42
ATOM     42  O   UNL     1      -0.566  -6.542   4.316  1.00  0.00    -0.460 OA
BRANCH  42  43
ATOM     43  C   UNL     1       0.256  -5.498   5.088  1.00  0.00     0.338 C 
ATOM     44  O   UNL     1       1.169  -5.278   4.239  1.00  0.00    -0.246 OA
BRANCH  43  45
ATOM     45  C   UNL     1      -0.165  -4.831   7.082  1.00  0.00     0.060 A 
ATOM     46  C   UNL     1       0.639  -3.884   7.992  1.00  0.00     0.016 A 
ATOM     47  C   UNL     1      -1.339  -5.163   8.010  1.00  0.00     0.016 A 
ATOM     48  C   UNL     1       0.241  -3.171   9.096  1.00  0.00     0.010 A 
ATOM     49  C   UNL     1      -1.651  -4.647   9.244  1.00  0.00     0.010 A 
ATOM     50  C   UNL     1      -0.881  -3.619   9.715  1.00  0.00    -0.014 A 
BRANCH  50  51
ATOM     51  C   UNL     1      -1.137  -3.176  11.043  1.00  0.00     0.031 A 
ATOM     52  C   UNL     1      -0.226  -3.716  12.074  1.00  0.00     0.074 A 
ATOM     53  C   UNL     1      -2.232  -2.429  11.154  1.00  0.00     0.049 A 
ATOM     54  N   UNL     1      -0.216  -3.498  13.349  1.00  0.00    -0.248 NA
ATOM     55  C   UNL     1       0.859  -4.599  11.599  1.00  0.00     0.031 C 
ATOM     56  C   UNL     1      -3.054  -1.928  10.040  1.00  0.00     0.029 A 
ATOM     57  N   UNL     1      -2.845  -1.993  12.265  1.00  0.00    -0.354 N 
ATOM     58  C   UNL     1       0.846  -4.250  13.828  1.00  0.00     0.074 A 
ATOM     59  C   UNL     1       1.533  -4.813  12.709  1.00  0.00     0.031 C 
ATOM     60  C   UNL     1      -4.077  -1.227  10.547  1.00  0.00     0.029 A 
ATOM     61  C   UNL     1      -3.954  -1.247  11.995  1.00  0.00     0.049 A 
ATOM     62  H   UNL     1      -2.529  -2.191  13.176  1.00  0.00     0.167 HD
ATOM     63  C   UNL     1       1.136  -4.507  15.117  1.00  0.00     0.031 A 
ATOM     64  C   UNL     1      -4.725  -0.627  12.890  1.00  0.00     0.031 A 
ATOM     65  C   UNL     1       0.317  -3.936  16.144  1.00  0.00     0.049 A 
ATOM     66  C   UNL     1      -4.263  -0.754  14.313  1.00  0.00     0.074 A 
ATOM     67  C   UNL     1       0.438  -4.007  17.511  1.00  0.00     0.029 A 
ATOM     68  N   UNL     1      -0.803  -3.151  15.865  1.00  0.00    -0.354 N 
ATOM     69  N   UNL     1      -3.284  -1.490  14.802  1.00  0.00    -0.248 NA
ATOM     70  C   UNL     1      -4.960   0.066  15.293  1.00  0.00     0.031 C 
ATOM     71  C   UNL     1      -0.608  -3.253  18.057  1.00  0.00     0.029 A 
ATOM     72  C   UNL     1      -1.347  -2.671  17.028  1.00  0.00     0.049 A 
ATOM     73  H   UNL     1      -1.152  -2.969  14.963  1.00  0.00     0.167 HD
ATOM     74  C   UNL     1      -3.220  -1.202  16.152  1.00  0.00     0.074 A 
ATOM     75  C   UNL     1      -4.253  -0.199  16.384  1.00  0.00     0.031 C 
ATOM     76  C   UNL     1      -2.412  -1.700  17.125  1.00  0.00     0.031 A 
BRANCH  63  77
ATOM     77  C   UNL     1       2.239  -5.491  15.406  1.00  0.00    -0.014 A 
ATOM     78  C   UNL     1       3.562  -5.287  14.971  1.00  0.00     0.009 A 
ATOM     79  C   UNL     1       1.934  -6.700  16.050  1.00  0.00     0.009 A 
ATOM     80  C   UNL     1       4.529  -6.287  15.114  1.00  0.00     0.001 A 
ATOM     81  C   UNL     1       2.915  -7.678  16.242  1.00  0.00     0.001 A 
ATOM     82  C   UNL     1       4.207  -7.478  15.758  1.00  0.00     0.000 A 
ENDBRANCH  63  77
BRANCH  64  83
ATOM     83  C   UNL     1      -5.822   0.235  12.412  1.00  0.00    -0.014 A 
ATOM     84  C   UNL     1      -5.702   1.630  12.474  1.00  0.00     0.009 A 
ATOM     85  C   UNL     1      -6.937  -0.324  11.766  1.00  0.00     0.009 A 
ATOM     86  C   UNL     1      -6.701   2.448  11.946  1.00  0.00     0.001 A 
ATOM     87  C   UNL     1      -7.919   0.496  11.211  1.00  0.00     0.001 A 
ATOM     88  C   UNL     1      -7.809   1.881  11.316  1.00  0.00     0.000 A 
ENDBRANCH  64  83
BRANCH  76  89
ATOM     89  C   UNL     1      -2.641  -1.140  18.488  1.00  0.00    -0.014 A 
ATOM     90  C   UNL     1      -3.801  -1.460  19.205  1.00  0.00     0.009 A 
ATOM     91  C   UNL     1      -1.656  -0.328  19.067  1.00  0.00     0.009 A 
ATOM     92  C   UNL     1      -4.000  -0.919  20.470  1.00  0.00     0.001 A 
ATOM     93  C   UNL     1      -1.838   0.171  20.350  1.00  0.00     0.001 A 
ATOM     94  C   UNL     1      -3.016  -0.111  21.042  1.00  0.00     0.000 A 
ENDBRANCH  76  89
ENDBRANCH  50  51
ENDBRANCH  43  45
ENDBRANCH  42  43
ENDBRANCH  41  42
ENDBRANCH  40  41
ENDBRANCH  39  40
ENDBRANCH  38  39
ENDBRANCH   1  38
TORSDOF 23
