REMARK SMILES C[C@]1(c2nnnn2CCC(=O)OCCOCCOCCOC(=O)c2ccc(-c3c4nc(c(-c5ccccc5)c5ccc([nH]5)c(-c5ccccc5)c5nc(c(-c6ccccc6)c6ccc3[nH]6)C=C5)C=C4)cc2)CCCO1
REMARK SMILES IDX 16 1 15 2 14 3 13 4 12 5 10 6 11 7 9 8 8 9 7 10 3 11 4 12
REMARK SMILES IDX 5 13 6 14 2 15 1 16 72 17 75 18 73 19 74 20 17 21 18 22
REMARK SMILES IDX 19 23 20 24 21 25 22 26 23 27 24 28 25 29 71 30 26 31 70 32
REMARK SMILES IDX 27 33 28 34 29 35 64 36 30 37 69 38 63 39 65 40 31 41 68 42
REMARK SMILES IDX 62 43 61 44 32 46 54 47 39 48 53 49 40 50 43 51 52 52 66 53
REMARK SMILES IDX 41 54 42 55 51 57 67 58 44 59 33 60 34 61 38 62 35 63 37 64
REMARK SMILES IDX 36 65 55 66 56 67 60 68 57 69 59 70 58 71 45 72 46 73 50 74
REMARK SMILES IDX 47 75 49 76 48 77
REMARK H PARENT 65 45 43 56
REMARK Flexibility Score: inf
ROOT
ATOM      1  C   UNL     1       1.942   3.957   4.157  1.00  0.00     0.188 C 
ENDROOT
BRANCH   1   2
ATOM      2  O   UNL     1       1.706   3.636   5.530  1.00  0.00    -0.376 OA
BRANCH   2   3
ATOM      3  C   UNL     1       1.669   2.248   5.853  1.00  0.00     0.202 C 
BRANCH   3   4
ATOM      4  C   UNL     1       0.451   1.492   5.314  1.00  0.00     0.261 C 
BRANCH   4   5
ATOM      5  O   UNL     1       0.342   1.599   3.885  1.00  0.00    -0.463 OA
BRANCH   5   6
ATOM      6  C   UNL     1      -0.809   2.084   3.374  1.00  0.00     0.307 C 
ATOM      7  O   UNL     1      -1.787   2.404   4.043  1.00  0.00    -0.252 OA
BRANCH   6   8
ATOM      8  C   UNL     1      -0.779   2.316   1.877  1.00  0.00     0.146 C 
BRANCH   8   9
ATOM      9  C   UNL     1       0.455   1.915   1.078  1.00  0.00     0.160 C 
BRANCH   9  10
ATOM     10  N   UNL     1       0.657   0.498   0.895  1.00  0.00    -0.226 N 
ATOM     11  C   UNL     1       0.674  -0.301  -0.224  1.00  0.00     0.183 A 
ATOM     12  N   UNL     1       1.009  -1.521   0.171  1.00  0.00    -0.111 NA
ATOM     13  N   UNL     1       1.189  -1.471   1.518  1.00  0.00    -0.024 NA
ATOM     14  N   UNL     1       0.956  -0.256   1.972  1.00  0.00    -0.045 NA
BRANCH  11  15
ATOM     15  C   UNL     1       0.299   0.021  -1.637  1.00  0.00     0.126 C 
ATOM     16  C   UNL     1       1.384  -0.478  -2.601  1.00  0.00     0.051 C 
ATOM     17  C   UNL     1      -1.078  -0.561  -1.957  1.00  0.00     0.046 C 
ATOM     18  O   UNL     1       0.173   1.439  -1.840  1.00  0.00    -0.367 OA
ATOM     19  C   UNL     1      -1.607   0.379  -3.009  1.00  0.00     0.032 C 
ATOM     20  C   UNL     1      -1.032   1.708  -2.573  1.00  0.00     0.161 C 
ENDBRANCH  11  15
ENDBRANCH   9  10
ENDBRANCH   8   9
ENDBRANCH   6   8
ENDBRANCH   5   6
ENDBRANCH   4   5
ENDBRANCH   3   4
ENDBRANCH   2   3
ENDBRANCH   1   2
BRANCH   1  21
ATOM     21  C   UNL     1       3.182   3.295   3.554  1.00  0.00     0.188 C 
BRANCH  21  22
ATOM     22  O   UNL     1       3.010   1.974   3.064  1.00  0.00    -0.376 OA
BRANCH  22  23
ATOM     23  C   UNL     1       3.853   0.881   3.439  1.00  0.00     0.202 C 
BRANCH  23  24
ATOM     24  C   UNL     1       5.346   1.014   3.771  1.00  0.00     0.261 C 
BRANCH  24  25
ATOM     25  O   UNL     1       5.850   2.326   3.803  1.00  0.00    -0.460 OA
BRANCH  25  26
ATOM     26  C   UNL     1       5.886   2.971   2.617  1.00  0.00     0.338 C 
ATOM     27  O   UNL     1       5.678   2.521   1.513  1.00  0.00    -0.246 OA
BRANCH  26  28
ATOM     28  C   UNL     1       6.266   4.358   2.938  1.00  0.00     0.060 A 
ATOM     29  C   UNL     1       6.719   5.133   1.879  1.00  0.00     0.016 A 
ATOM     30  C   UNL     1       6.405   4.763   4.282  1.00  0.00     0.016 A 
ATOM     31  C   UNL     1       7.612   6.129   2.176  1.00  0.00     0.010 A 
ATOM     32  C   UNL     1       7.301   5.751   4.579  1.00  0.00     0.010 A 
ATOM     33  C   UNL     1       7.984   6.315   3.515  1.00  0.00    -0.014 A 
BRANCH  33  34
ATOM     34  C   UNL     1       9.146   7.122   3.770  1.00  0.00     0.031 A 
ATOM     35  C   UNL     1       8.892   8.553   3.571  1.00  0.00     0.074 A 
ATOM     36  C   UNL     1      10.320   6.585   4.147  1.00  0.00     0.049 A 
ATOM     37  N   UNL     1       9.294   9.276   2.584  1.00  0.00    -0.248 NA
ATOM     38  C   UNL     1       7.915   9.200   4.457  1.00  0.00     0.031 C 
ATOM     39  C   UNL     1      10.605   5.226   4.616  1.00  0.00     0.029 A 
ATOM     40  N   UNL     1      11.515   7.211   4.280  1.00  0.00    -0.354 N 
ATOM     41  C   UNL     1       8.785  10.540   2.831  1.00  0.00     0.074 A 
ATOM     42  C   UNL     1       7.796  10.390   3.869  1.00  0.00     0.031 C 
ATOM     43  C   UNL     1      11.823   5.211   5.208  1.00  0.00     0.029 A 
ATOM     44  C   UNL     1      12.446   6.513   5.032  1.00  0.00     0.049 A 
ATOM     45  H   UNL     1      11.705   8.089   3.877  1.00  0.00     0.167 HD
ATOM     46  C   UNL     1       9.427  11.645   2.371  1.00  0.00     0.031 A 
ATOM     47  C   UNL     1      13.599   7.022   5.533  1.00  0.00     0.031 A 
ATOM     48  C   UNL     1      10.352  11.326   1.313  1.00  0.00     0.049 A 
ATOM     49  C   UNL     1      13.917   8.251   4.762  1.00  0.00     0.074 A 
ATOM     50  C   UNL     1      10.232  10.748   0.064  1.00  0.00     0.029 A 
ATOM     51  N   UNL     1      11.684  11.236   1.646  1.00  0.00    -0.354 N 
ATOM     52  N   UNL     1      14.277   8.236   3.510  1.00  0.00    -0.248 NA
ATOM     53  C   UNL     1      13.381   9.518   5.239  1.00  0.00     0.031 C 
ATOM     54  C   UNL     1      11.394   9.935  -0.082  1.00  0.00     0.029 A 
ATOM     55  C   UNL     1      12.189  10.107   1.052  1.00  0.00     0.049 A 
ATOM     56  H   UNL     1      12.185  11.868   2.211  1.00  0.00     0.167 HD
ATOM     57  C   UNL     1      13.613   9.312   2.937  1.00  0.00     0.074 A 
ATOM     58  C   UNL     1      13.158  10.122   4.067  1.00  0.00     0.031 C 
ATOM     59  C   UNL     1      13.242   9.294   1.623  1.00  0.00     0.031 A 
BRANCH  46  60
ATOM     60  C   UNL     1       9.543  12.896   3.199  1.00  0.00    -0.014 A 
ATOM     61  C   UNL     1      10.198  14.006   2.646  1.00  0.00     0.009 A 
ATOM     62  C   UNL     1       9.295  12.929   4.587  1.00  0.00     0.009 A 
ATOM     63  C   UNL     1      10.650  15.055   3.454  1.00  0.00     0.001 A 
ATOM     64  C   UNL     1       9.705  13.993   5.389  1.00  0.00     0.001 A 
ATOM     65  C   UNL     1      10.411  15.043   4.825  1.00  0.00     0.000 A 
ENDBRANCH  46  60
BRANCH  47  66
ATOM     66  C   UNL     1      14.247   6.710   6.825  1.00  0.00    -0.014 A 
ATOM     67  C   UNL     1      15.562   7.123   7.087  1.00  0.00     0.009 A 
ATOM     68  C   UNL     1      13.480   6.245   7.911  1.00  0.00     0.009 A 
ATOM     69  C   UNL     1      16.076   7.109   8.391  1.00  0.00     0.001 A 
ATOM     70  C   UNL     1      13.994   6.227   9.211  1.00  0.00     0.001 A 
ATOM     71  C   UNL     1      15.287   6.675   9.454  1.00  0.00     0.000 A 
ENDBRANCH  47  66
BRANCH  59  72
ATOM     72  C   UNL     1      13.776   8.181   0.752  1.00  0.00    -0.014 A 
ATOM     73  C   UNL     1      13.515   6.820   0.995  1.00  0.00     0.009 A 
ATOM     74  C   UNL     1      14.434   8.527  -0.436  1.00  0.00     0.009 A 
ATOM     75  C   UNL     1      13.929   5.837   0.089  1.00  0.00     0.001 A 
ATOM     76  C   UNL     1      14.829   7.549  -1.351  1.00  0.00     0.001 A 
ATOM     77  C   UNL     1      14.582   6.204  -1.086  1.00  0.00     0.000 A 
ENDBRANCH  59  72
ENDBRANCH  33  34
ENDBRANCH  26  28
ENDBRANCH  25  26
ENDBRANCH  24  25
ENDBRANCH  23  24
ENDBRANCH  22  23
ENDBRANCH  21  22
ENDBRANCH   1  21
TORSDOF 20
