REMARK SMILES Cc1ccc(C(=O)/C(C#N)=C/c2ccccc2OCC(=O)OCCOCCOCCOC(=O)c2ccc(-c3c4nc(c(-c5ccccc5)c5ccc([nH]5)c(-c5ccccc5)c5nc(c(-c6ccccc6)c6ccc3[nH]6)C=C5)C=C4)cc2)cc1F
REMARK SMILES IDX 25 1 24 2 23 3 22 4 20 5 21 6 19 7 18 8 17 9 12 10 13 11
REMARK SMILES IDX 14 12 16 13 15 14 11 15 8 16 6 17 7 18 5 19 1 20 2 21 3 22
REMARK SMILES IDX 83 23 4 24 82 25 84 26 9 27 10 28 26 29 27 30 28 31 29 32
REMARK SMILES IDX 30 33 31 34 32 35 33 36 34 37 35 38 81 39 36 40 80 41 37 42
REMARK SMILES IDX 38 43 39 44 74 45 40 46 79 47 73 48 75 49 41 50 78 51 72 52
REMARK SMILES IDX 71 53 42 55 64 56 49 57 63 58 50 59 53 60 62 61 76 62 51 63
REMARK SMILES IDX 52 64 61 66 77 67 54 68 43 69 44 70 48 71 45 72 47 73 46 74
REMARK SMILES IDX 65 75 66 76 70 77 67 78 69 79 68 80 55 81 56 82 60 83 57 84
REMARK SMILES IDX 59 85 58 86
REMARK H PARENT 75 54 53 65
REMARK Flexibility Score: inf
ROOT
ATOM      1  O   UNL     1      -3.964   1.134   3.558  1.00  0.00    -0.376 OA
ENDROOT
BRANCH   1   2
ATOM      2  C   UNL     1      -3.791   2.308   2.743  1.00  0.00     0.202 C 
BRANCH   2   3
ATOM      3  C   UNL     1      -2.651   2.265   1.658  1.00  0.00     0.261 C 
BRANCH   3   4
ATOM      4  O   UNL     1      -3.074   2.841   0.356  1.00  0.00    -0.461 OA
BRANCH   4   5
ATOM      5  C   UNL     1      -2.515   2.313  -0.783  1.00  0.00     0.344 C 
ATOM      6  O   UNL     1      -1.289   2.234  -0.868  1.00  0.00    -0.248 OA
BRANCH   5   7
ATOM      7  C   UNL     1      -3.502   1.788  -2.088  1.00  0.00     0.351 C 
BRANCH   7   8
ATOM      8  O   UNL     1      -4.860   1.509  -2.486  1.00  0.00    -0.481 OA
BRANCH   8   9
ATOM      9  C   UNL     1      -5.865   0.567  -2.316  1.00  0.00     0.127 A 
ATOM     10  C   UNL     1      -5.952  -0.793  -1.827  1.00  0.00     0.018 A 
ATOM     11  C   UNL     1      -7.234  -1.381  -1.619  1.00  0.00     0.012 A 
ATOM     12  C   UNL     1      -8.412  -0.661  -1.778  1.00  0.00     0.001 A 
ATOM     13  C   UNL     1      -7.103   1.229  -2.515  1.00  0.00     0.047 A 
ATOM     14  C   UNL     1      -8.344   0.649  -2.216  1.00  0.00     0.004 A 
BRANCH  10  15
ATOM     15  C   UNL     1      -4.926  -1.652  -1.116  1.00  0.00     0.035 C 
ATOM     16  C   UNL     1      -4.415  -1.258   0.091  1.00  0.00     0.101 C 
BRANCH  16  17
ATOM     17  C   UNL     1      -3.180  -2.042   0.386  1.00  0.00     0.203 C 
ATOM     18  O   UNL     1      -3.279  -3.164   0.878  1.00  0.00    -0.288 OA
BRANCH  17  19
ATOM     19  C   UNL     1      -1.823  -1.523   0.043  1.00  0.00     0.026 A 
ATOM     20  C   UNL     1       1.875   0.627  -0.394  1.00  0.00     0.047 C 
ATOM     21  C   UNL     1       0.690  -0.296  -0.339  1.00  0.00    -0.015 A 
ATOM     22  C   UNL     1      -0.251  -0.319  -1.374  1.00  0.00     0.007 A 
ATOM     23  C   UNL     1       0.426  -1.058   0.798  1.00  0.00     0.126 A 
ATOM     24  C   UNL     1      -1.500  -0.941  -1.188  1.00  0.00     0.013 A 
ATOM     25  C   UNL     1      -0.808  -1.677   0.989  1.00  0.00     0.051 A 
ATOM     26  F   UNL     1       1.354  -1.167   1.758  1.00  0.00    -0.207 F 
ENDBRANCH  17  19
ENDBRANCH  16  17
BRANCH  16  27
ATOM     27  C   UNL     1      -4.639   0.245   0.060  1.00  0.00     0.103 C 
ATOM     28  N   UNL     1      -4.825   1.492   0.034  1.00  0.00    -0.192 NA
ENDBRANCH  16  27
ENDBRANCH  10  15
ENDBRANCH   8   9
ENDBRANCH   7   8
ENDBRANCH   5   7
ENDBRANCH   4   5
ENDBRANCH   3   4
ENDBRANCH   2   3
ENDBRANCH   1   2
BRANCH   1  29
ATOM     29  C   UNL     1      -4.886   0.109   3.183  1.00  0.00     0.188 C 
BRANCH  29  30
ATOM     30  C   UNL     1      -6.301   0.470   2.667  1.00  0.00     0.188 C 
BRANCH  30  31
ATOM     31  O   UNL     1      -7.115   1.284   3.495  1.00  0.00    -0.376 OA
BRANCH  31  32
ATOM     32  C   UNL     1      -7.251   0.863   4.840  1.00  0.00     0.202 C 
BRANCH  32  33
ATOM     33  C   UNL     1      -8.106  -0.392   5.034  1.00  0.00     0.261 C 
BRANCH  33  34
ATOM     34  O   UNL     1      -7.570  -1.567   4.380  1.00  0.00    -0.460 OA
BRANCH  34  35
ATOM     35  C   UNL     1      -8.500  -2.361   3.809  1.00  0.00     0.338 C 
ATOM     36  O   UNL     1      -9.723  -2.165   3.775  1.00  0.00    -0.246 OA
BRANCH  35  37
ATOM     37  C   UNL     1      -7.934  -3.587   3.230  1.00  0.00     0.060 A 
ATOM     38  C   UNL     1      -7.371  -3.582   1.950  1.00  0.00     0.016 A 
ATOM     39  C   UNL     1      -8.198  -4.802   3.869  1.00  0.00     0.016 A 
ATOM     40  C   UNL     1      -7.131  -4.798   1.287  1.00  0.00     0.010 A 
ATOM     41  C   UNL     1      -7.922  -6.010   3.219  1.00  0.00     0.010 A 
ATOM     42  C   UNL     1      -7.429  -6.027   1.901  1.00  0.00    -0.014 A 
BRANCH  42  43
ATOM     43  C   UNL     1      -7.348  -7.331   1.171  1.00  0.00     0.031 A 
ATOM     44  C   UNL     1      -8.598  -8.160   0.973  1.00  0.00     0.074 A 
ATOM     45  C   UNL     1      -6.184  -7.812   0.690  1.00  0.00     0.049 A 
ATOM     46  N   UNL     1      -8.722  -9.415   0.615  1.00  0.00    -0.248 NA
ATOM     47  C   UNL     1      -9.880  -7.477   1.212  1.00  0.00     0.031 C 
ATOM     48  C   UNL     1      -4.901  -7.114   0.698  1.00  0.00     0.029 A 
ATOM     49  N   UNL     1      -5.900  -9.028   0.108  1.00  0.00    -0.354 N 
ATOM     50  C   UNL     1     -10.087  -9.687   0.638  1.00  0.00     0.074 A 
ATOM     51  C   UNL     1     -10.749  -8.463   1.041  1.00  0.00     0.031 C 
ATOM     52  C   UNL     1      -3.969  -7.909   0.146  1.00  0.00     0.029 A 
ATOM     53  C   UNL     1      -4.567  -9.203  -0.175  1.00  0.00     0.049 A 
ATOM     54  H   UNL     1      -6.587  -9.707  -0.086  1.00  0.00     0.167 HD
ATOM     55  C   UNL     1     -10.733 -10.846   0.361  1.00  0.00     0.031 A 
ATOM     56  C   UNL     1      -3.887 -10.292  -0.588  1.00  0.00     0.031 A 
ATOM     57  C   UNL     1     -10.091 -12.063  -0.067  1.00  0.00     0.049 A 
ATOM     58  C   UNL     1      -4.605 -11.600  -0.790  1.00  0.00     0.074 A 
ATOM     59  C   UNL     1     -10.668 -13.289  -0.353  1.00  0.00     0.029 A 
ATOM     60  N   UNL     1      -8.731 -12.204  -0.282  1.00  0.00    -0.354 N 
ATOM     61  N   UNL     1      -5.883 -11.870  -0.682  1.00  0.00    -0.248 NA
ATOM     62  C   UNL     1      -3.776 -12.761  -1.153  1.00  0.00     0.031 C 
ATOM     63  C   UNL     1      -9.650 -14.185  -0.698  1.00  0.00     0.029 A 
ATOM     64  C   UNL     1      -8.447 -13.500  -0.680  1.00  0.00     0.049 A 
ATOM     65  H   UNL     1      -8.064 -11.489  -0.170  1.00  0.00     0.167 HD
ATOM     66  C   UNL     1      -6.011 -13.223  -0.982  1.00  0.00     0.074 A 
ATOM     67  C   UNL     1      -4.687 -13.714  -1.294  1.00  0.00     0.031 C 
ATOM     68  C   UNL     1      -7.130 -13.987  -0.994  1.00  0.00     0.031 A 
BRANCH  55  69
ATOM     69  C   UNL     1     -12.223 -10.877   0.567  1.00  0.00    -0.014 A 
ATOM     70  C   UNL     1     -13.104 -10.234  -0.316  1.00  0.00     0.009 A 
ATOM     71  C   UNL     1     -12.754 -11.603   1.647  1.00  0.00     0.009 A 
ATOM     72  C   UNL     1     -14.484 -10.290  -0.101  1.00  0.00     0.001 A 
ATOM     73  C   UNL     1     -14.133 -11.680   1.843  1.00  0.00     0.001 A 
ATOM     74  C   UNL     1     -14.997 -11.015   0.975  1.00  0.00     0.000 A 
ENDBRANCH  55  69
BRANCH  56  75
ATOM     75  C   UNL     1      -2.412 -10.220  -0.771  1.00  0.00    -0.014 A 
ATOM     76  C   UNL     1      -1.842 -10.337  -2.048  1.00  0.00     0.009 A 
ATOM     77  C   UNL     1      -1.564 -10.064   0.338  1.00  0.00     0.009 A 
ATOM     78  C   UNL     1      -0.454 -10.317  -2.208  1.00  0.00     0.001 A 
ATOM     79  C   UNL     1      -0.180 -10.010   0.171  1.00  0.00     0.001 A 
ATOM     80  C   UNL     1       0.375 -10.146  -1.099  1.00  0.00     0.000 A 
ENDBRANCH  56  75
BRANCH  68  81
ATOM     81  C   UNL     1      -6.982 -15.428  -1.398  1.00  0.00    -0.014 A 
ATOM     82  C   UNL     1      -6.391 -16.371  -0.543  1.00  0.00     0.009 A 
ATOM     83  C   UNL     1      -7.472 -15.855  -2.643  1.00  0.00     0.009 A 
ATOM     84  C   UNL     1      -6.264 -17.705  -0.940  1.00  0.00     0.001 A 
ATOM     85  C   UNL     1      -7.368 -17.193  -3.026  1.00  0.00     0.001 A 
ATOM     86  C   UNL     1      -6.756 -18.115  -2.179  1.00  0.00     0.000 A 
ENDBRANCH  68  81
ENDBRANCH  42  43
ENDBRANCH  35  37
ENDBRANCH  34  35
ENDBRANCH  33  34
ENDBRANCH  32  33
ENDBRANCH  31  32
ENDBRANCH  30  31
ENDBRANCH  29  30
ENDBRANCH   1  29
TORSDOF 23
