REMARK SMILES O=C(Nc1ccccc1C(=O)OCCOCCOCCOC(=O)c1ccc(-c2c3nc(c(-c4ccccc4)c4ccc([nH]4)c(-c4ccccc4)c4nc(c(-c5ccccc5)c5ccc2[nH]5)C=C4)C=C3)cc1)c1ccc(N2C(=O)[C@H]3CC=CC[C@H]3C2=O)cc1
REMARK SMILES IDX 16 1 15 2 14 3 13 4 12 5 10 6 11 7 9 8 4 9 5 10 6 11 8 12
REMARK SMILES IDX 7 13 3 14 1 15 2 16 72 18 73 19 88 20 74 21 87 22 75 23
REMARK SMILES IDX 76 24 77 25 85 26 78 27 79 28 84 29 86 30 80 31 83 32 81 33
REMARK SMILES IDX 82 34 17 35 18 36 19 37 20 38 21 39 22 40 23 41 24 42 25 43
REMARK SMILES IDX 71 44 26 45 70 46 27 47 28 48 29 49 64 50 30 51 69 52 63 53
REMARK SMILES IDX 65 54 31 55 68 56 62 57 61 58 32 60 54 61 39 62 53 63 40 64
REMARK SMILES IDX 43 65 52 66 66 67 41 68 42 69 51 71 67 72 44 73 33 74 34 75
REMARK SMILES IDX 38 76 35 77 37 78 36 79 55 80 56 81 60 82 57 83 59 84 58 85
REMARK SMILES IDX 45 86 46 87 50 88 47 89 49 90 48 91
REMARK H PARENT 3 17 65 59 43 70
REMARK Flexibility Score: inf
ROOT
ATOM      1  C   UNL     1       4.420  -3.332   2.584  1.00  0.00     0.188 C 
ENDROOT
BRANCH   1   2
ATOM      2  O   UNL     1       3.341  -3.264   3.489  1.00  0.00    -0.376 OA
BRANCH   2   3
ATOM      3  C   UNL     1       2.987  -1.976   3.943  1.00  0.00     0.202 C 
BRANCH   3   4
ATOM      4  C   UNL     1       2.702  -0.860   2.933  1.00  0.00     0.261 C 
BRANCH   4   5
ATOM      5  O   UNL     1       3.366  -0.852   1.657  1.00  0.00    -0.460 OA
BRANCH   5   6
ATOM      6  C   UNL     1       4.583  -0.267   1.568  1.00  0.00     0.340 C 
ATOM      7  O   UNL     1       5.286   0.080   2.505  1.00  0.00    -0.246 OA
BRANCH   6   8
ATOM      8  C   UNL     1       5.072  -0.281   0.160  1.00  0.00     0.083 A 
ATOM      9  C   UNL     1       4.297  -0.078  -1.000  1.00  0.00     0.056 A 
ATOM     10  C   UNL     1       4.879  -0.387  -2.247  1.00  0.00     0.027 A 
ATOM     11  C   UNL     1       6.216  -0.778  -2.358  1.00  0.00     0.002 A 
ATOM     12  C   UNL     1       6.427  -0.660   0.031  1.00  0.00     0.018 A 
ATOM     13  C   UNL     1       6.998  -0.893  -1.218  1.00  0.00     0.001 A 
BRANCH   9  14
ATOM     14  N   UNL     1       2.982   0.431  -1.104  1.00  0.00    -0.321 N 
ATOM     15  O   UNL     1       1.050   1.471  -0.581  1.00  0.00    -0.269 OA
ATOM     16  C   UNL     1       2.250   1.321  -0.353  1.00  0.00     0.255 C 
ATOM     17  H   UNL     1       2.486   0.074  -1.876  1.00  0.00     0.170 HD
BRANCH  16  18
ATOM     18  C   UNL     1       2.876   2.138   0.704  1.00  0.00     0.040 A 
ATOM     19  C   UNL     1       4.125   2.746   0.544  1.00  0.00     0.016 A 
ATOM     20  C   UNL     1       2.229   2.180   1.937  1.00  0.00     0.016 A 
ATOM     21  C   UNL     1       4.825   3.190   1.672  1.00  0.00     0.027 A 
ATOM     22  C   UNL     1       2.943   2.588   3.059  1.00  0.00     0.027 A 
ATOM     23  C   UNL     1       4.278   2.999   2.948  1.00  0.00     0.052 A 
BRANCH  23  24
ATOM     24  N   UNL     1       5.067   3.096   4.114  1.00  0.00    -0.250 N 
ATOM     25  C   UNL     1       6.047   4.028   4.329  1.00  0.00     0.238 C 
ATOM     26  C   UNL     1       4.987   2.186   5.147  1.00  0.00     0.238 C 
ATOM     27  O   UNL     1       6.503   4.853   3.548  1.00  0.00    -0.274 OA
ATOM     28  C   UNL     1       6.432   3.974   5.789  1.00  0.00     0.096 C 
ATOM     29  C   UNL     1       5.970   2.581   6.223  1.00  0.00     0.096 C 
ATOM     30  O   UNL     1       4.295   1.177   5.229  1.00  0.00    -0.274 OA
ATOM     31  C   UNL     1       5.750   5.141   6.523  1.00  0.00     0.041 C 
ATOM     32  C   UNL     1       5.254   2.521   7.572  1.00  0.00     0.041 C 
ATOM     33  C   UNL     1       4.415   4.793   7.122  1.00  0.00    -0.030 C 
ATOM     34  C   UNL     1       4.191   3.578   7.641  1.00  0.00    -0.030 C 
ENDBRANCH  23  24
ENDBRANCH  16  18
ENDBRANCH   9  14
ENDBRANCH   6   8
ENDBRANCH   5   6
ENDBRANCH   4   5
ENDBRANCH   3   4
ENDBRANCH   2   3
ENDBRANCH   1   2
BRANCH   1  35
ATOM     35  C   UNL     1       3.980  -3.651   1.139  1.00  0.00     0.188 C 
BRANCH  35  36
ATOM     36  O   UNL     1       2.611  -3.884   0.834  1.00  0.00    -0.376 OA
BRANCH  36  37
ATOM     37  C   UNL     1       1.827  -4.690   1.705  1.00  0.00     0.202 C 
BRANCH  37  38
ATOM     38  C   UNL     1       2.317  -6.102   2.073  1.00  0.00     0.261 C 
BRANCH  38  39
ATOM     39  O   UNL     1       3.680  -6.181   2.527  1.00  0.00    -0.460 OA
BRANCH  39  40
ATOM     40  C   UNL     1       4.556  -6.774   1.679  1.00  0.00     0.338 C 
ATOM     41  O   UNL     1       4.304  -7.324   0.618  1.00  0.00    -0.246 OA
BRANCH  40  42
ATOM     42  C   UNL     1       5.941  -6.463   2.104  1.00  0.00     0.060 A 
ATOM     43  C   UNL     1       6.793  -5.846   1.173  1.00  0.00     0.016 A 
ATOM     44  C   UNL     1       6.397  -6.744   3.393  1.00  0.00     0.016 A 
ATOM     45  C   UNL     1       8.106  -5.530   1.518  1.00  0.00     0.010 A 
ATOM     46  C   UNL     1       7.728  -6.465   3.726  1.00  0.00     0.010 A 
ATOM     47  C   UNL     1       8.595  -5.889   2.779  1.00  0.00    -0.014 A 
BRANCH  47  48
ATOM     48  C   UNL     1      10.061  -5.916   3.002  1.00  0.00     0.031 A 
ATOM     49  C   UNL     1      10.788  -7.196   2.684  1.00  0.00     0.074 A 
ATOM     50  C   UNL     1      10.743  -4.845   3.445  1.00  0.00     0.049 A 
ATOM     51  N   UNL     1      12.056  -7.489   2.819  1.00  0.00    -0.248 NA
ATOM     52  C   UNL     1       9.970  -8.292   2.137  1.00  0.00     0.031 C 
ATOM     53  C   UNL     1      10.175  -3.530   3.732  1.00  0.00     0.029 A 
ATOM     54  N   UNL     1      12.079  -4.707   3.734  1.00  0.00    -0.354 N 
ATOM     55  C   UNL     1      12.183  -8.802   2.384  1.00  0.00     0.074 A 
ATOM     56  C   UNL     1      10.865  -9.257   2.000  1.00  0.00     0.031 C 
ATOM     57  C   UNL     1      11.157  -2.719   4.168  1.00  0.00     0.029 A 
ATOM     58  C   UNL     1      12.413  -3.467   4.220  1.00  0.00     0.049 A 
ATOM     59  H   UNL     1      12.735  -5.430   3.604  1.00  0.00     0.167 HD
ATOM     60  C   UNL     1      13.296  -9.568   2.311  1.00  0.00     0.031 A 
ATOM     61  C   UNL     1      13.594  -3.002   4.674  1.00  0.00     0.031 A 
ATOM     62  C   UNL     1      14.604  -9.133   2.712  1.00  0.00     0.049 A 
ATOM     63  C   UNL     1      14.801  -3.907   4.674  1.00  0.00     0.074 A 
ATOM     64  C   UNL     1      15.796  -9.834   2.665  1.00  0.00     0.029 A 
ATOM     65  N   UNL     1      14.888  -7.888   3.247  1.00  0.00    -0.354 N 
ATOM     66  N   UNL     1      14.916  -5.137   4.233  1.00  0.00    -0.248 NA
ATOM     67  C   UNL     1      16.044  -3.354   5.236  1.00  0.00     0.031 C 
ATOM     68  C   UNL     1      16.794  -9.031   3.226  1.00  0.00     0.029 A 
ATOM     69  C   UNL     1      16.233  -7.810   3.565  1.00  0.00     0.049 A 
ATOM     70  H   UNL     1      14.232  -7.166   3.381  1.00  0.00     0.167 HD
ATOM     71  C   UNL     1      16.246  -5.490   4.432  1.00  0.00     0.074 A 
ATOM     72  C   UNL     1      16.901  -4.343   5.023  1.00  0.00     0.031 C 
ATOM     73  C   UNL     1      16.872  -6.659   4.146  1.00  0.00     0.031 A 
BRANCH  60  74
ATOM     74  C   UNL     1      13.128 -10.977   1.820  1.00  0.00    -0.014 A 
ATOM     75  C   UNL     1      12.867 -11.254   0.469  1.00  0.00     0.009 A 
ATOM     76  C   UNL     1      13.249 -12.043   2.724  1.00  0.00     0.009 A 
ATOM     77  C   UNL     1      12.701 -12.572   0.039  1.00  0.00     0.001 A 
ATOM     78  C   UNL     1      13.109 -13.361   2.286  1.00  0.00     0.001 A 
ATOM     79  C   UNL     1      12.827 -13.623   0.946  1.00  0.00     0.000 A 
ENDBRANCH  60  74
BRANCH  61  80
ATOM     80  C   UNL     1      13.707  -1.614   5.198  1.00  0.00    -0.014 A 
ATOM     81  C   UNL     1      14.463  -0.650   4.513  1.00  0.00     0.009 A 
ATOM     82  C   UNL     1      13.103  -1.261   6.415  1.00  0.00     0.009 A 
ATOM     83  C   UNL     1      14.636   0.628   5.051  1.00  0.00     0.001 A 
ATOM     84  C   UNL     1      13.254   0.026   6.936  1.00  0.00     0.001 A 
ATOM     85  C   UNL     1      14.030   0.966   6.259  1.00  0.00     0.000 A 
ENDBRANCH  61  80
BRANCH  73  86
ATOM     86  C   UNL     1      18.347  -6.745   4.424  1.00  0.00    -0.014 A 
ATOM     87  C   UNL     1      18.842  -6.835   5.733  1.00  0.00     0.009 A 
ATOM     88  C   UNL     1      19.251  -6.792   3.350  1.00  0.00     0.009 A 
ATOM     89  C   UNL     1      20.216  -6.939   5.962  1.00  0.00     0.001 A 
ATOM     90  C   UNL     1      20.620  -6.926   3.581  1.00  0.00     0.001 A 
ATOM     91  C   UNL     1      21.102  -6.990   4.887  1.00  0.00     0.000 A 
ENDBRANCH  73  86
ENDBRANCH  47  48
ENDBRANCH  40  42
ENDBRANCH  39  40
ENDBRANCH  38  39
ENDBRANCH  37  38
ENDBRANCH  36  37
ENDBRANCH  35  36
ENDBRANCH   1  35
TORSDOF 20
