REMARK SMILES C[C@@H]1Cc2ccccc2N1S(=O)(=O)c1c[nH]c(C(=O)OCCOCCOCCOC(=O)c2ccc(-c3c4nc(c(-c5ccccc5)c5ccc([nH]5)c(-c5ccccc5)c5nc(c(-c6ccccc6)c6ccc3[nH]6)C=C5)C=C4)cc2)c1
REMARK SMILES IDX 24 1 23 2 22 3 21 4 20 5 18 6 19 7 17 8 14 9 15 10 80 11
REMARK SMILES IDX 16 12 11 14 12 15 13 16 10 17 1 18 2 19 3 20 4 21 9 22 5 23
REMARK SMILES IDX 8 24 6 25 7 26 25 27 26 28 27 29 28 30 29 31 30 32 31 33
REMARK SMILES IDX 32 34 33 35 79 36 34 37 78 38 35 39 36 40 37 41 72 42 38 43
REMARK SMILES IDX 77 44 71 45 73 46 39 47 76 48 70 49 69 50 40 52 62 53 47 54
REMARK SMILES IDX 61 55 48 56 51 57 60 58 74 59 49 60 50 61 59 63 75 64 52 65
REMARK SMILES IDX 41 66 42 67 46 68 43 69 45 70 44 71 63 72 64 73 68 74 65 75
REMARK SMILES IDX 67 76 66 77 53 78 54 79 58 80 55 81 57 82 56 83
REMARK H PARENT 16 13 73 51 51 62
REMARK Flexibility Score: inf
ROOT
ATOM      1  C   UNL     1      -3.740   6.273  -5.276  1.00  0.00     0.188 C 
ENDROOT
BRANCH   1   2
ATOM      2  O   UNL     1      -4.610   6.175  -6.399  1.00  0.00    -0.376 OA
BRANCH   2   3
ATOM      3  C   UNL     1      -3.882   5.966  -7.619  1.00  0.00     0.202 C 
BRANCH   3   4
ATOM      4  C   UNL     1      -3.528   4.482  -7.884  1.00  0.00     0.261 C 
BRANCH   4   5
ATOM      5  O   UNL     1      -2.799   3.760  -6.855  1.00  0.00    -0.459 OA
BRANCH   5   6
ATOM      6  C   UNL     1      -1.624   4.315  -6.497  1.00  0.00     0.354 C 
ATOM      7  O   UNL     1      -1.238   5.408  -6.909  1.00  0.00    -0.244 OA
BRANCH   6   8
ATOM      8  C   UNL     1      -0.875   3.609  -5.502  1.00  0.00     0.126 A 
ATOM      9  C   UNL     1      -0.039   2.537  -3.693  1.00  0.00     0.106 A 
ATOM     10  C   UNL     1       0.955   3.334  -4.224  1.00  0.00     0.105 A 
ATOM     11  C   UNL     1      -1.189   2.670  -4.529  1.00  0.00     0.057 A 
ATOM     12  N   UNL     1       0.464   3.914  -5.349  1.00  0.00    -0.354 N 
ATOM     13  H   UNL     1       0.989   4.472  -5.968  1.00  0.00     0.166 HD
BRANCH   9  14
ATOM     14  S   UNL     1       0.167   1.554  -2.286  1.00  0.00     0.266 S 
ATOM     15  O   UNL     1       1.594   1.291  -2.275  1.00  0.00    -0.201 OA
ATOM     16  O   UNL     1      -0.779   0.474  -2.477  1.00  0.00    -0.201 OA
BRANCH  14  17
ATOM     17  N   UNL     1      -0.234   2.345  -0.824  1.00  0.00    -0.263 N 
ATOM     18  C   UNL     1      -0.849   0.510   0.773  1.00  0.00     0.032 C 
ATOM     19  C   UNL     1       0.209   1.528   0.386  1.00  0.00     0.101 C 
ATOM     20  C   UNL     1       0.496   2.538   1.512  1.00  0.00     0.063 C 
ATOM     21  C   UNL     1       0.628   3.821   0.763  1.00  0.00    -0.021 A 
ATOM     22  C   UNL     1       0.198   3.691  -0.558  1.00  0.00     0.055 A 
ATOM     23  C   UNL     1       1.010   5.046   1.299  1.00  0.00     0.006 A 
ATOM     24  C   UNL     1       0.033   4.827  -1.333  1.00  0.00     0.027 A 
ATOM     25  C   UNL     1       0.917   6.177   0.493  1.00  0.00     0.000 A 
ATOM     26  C   UNL     1       0.417   6.070  -0.810  1.00  0.00     0.002 A 
ENDBRANCH  14  17
ENDBRANCH   9  14
ENDBRANCH   6   8
ENDBRANCH   5   6
ENDBRANCH   4   5
ENDBRANCH   3   4
ENDBRANCH   2   3
ENDBRANCH   1   2
BRANCH   1  27
ATOM     27  C   UNL     1      -4.361   6.699  -3.942  1.00  0.00     0.188 C 
BRANCH  27  28
ATOM     28  O   UNL     1      -5.651   7.278  -3.948  1.00  0.00    -0.376 OA
BRANCH  28  29
ATOM     29  C   UNL     1      -5.832   8.472  -4.705  1.00  0.00     0.202 C 
BRANCH  29  30
ATOM     30  C   UNL     1      -4.920   9.638  -4.312  1.00  0.00     0.261 C 
BRANCH  30  31
ATOM     31  O   UNL     1      -3.642   9.491  -4.960  1.00  0.00    -0.460 OA
BRANCH  31  32
ATOM     32  C   UNL     1      -2.554   9.740  -4.196  1.00  0.00     0.338 C 
ATOM     33  O   UNL     1      -2.518  10.166  -3.057  1.00  0.00    -0.246 OA
BRANCH  32  34
ATOM     34  C   UNL     1      -1.384   9.183  -4.895  1.00  0.00     0.060 A 
ATOM     35  C   UNL     1      -0.989   9.655  -6.147  1.00  0.00     0.016 A 
ATOM     36  C   UNL     1      -0.710   8.121  -4.285  1.00  0.00     0.016 A 
ATOM     37  C   UNL     1       0.115   9.078  -6.778  1.00  0.00     0.010 A 
ATOM     38  C   UNL     1       0.346   7.501  -4.951  1.00  0.00     0.010 A 
ATOM     39  C   UNL     1       0.787   7.992  -6.193  1.00  0.00    -0.014 A 
BRANCH  39  40
ATOM     40  C   UNL     1       1.998   7.411  -6.858  1.00  0.00     0.031 A 
ATOM     41  C   UNL     1       3.317   7.702  -6.155  1.00  0.00     0.074 A 
ATOM     42  C   UNL     1       1.822   6.698  -8.012  1.00  0.00     0.049 A 
ATOM     43  N   UNL     1       4.524   7.505  -6.590  1.00  0.00    -0.248 NA
ATOM     44  C   UNL     1       3.316   8.322  -4.806  1.00  0.00     0.031 C 
ATOM     45  C   UNL     1       0.504   6.516  -8.622  1.00  0.00     0.029 A 
ATOM     46  N   UNL     1       2.632   5.995  -8.896  1.00  0.00    -0.354 N 
ATOM     47  C   UNL     1       5.409   7.890  -5.571  1.00  0.00     0.074 A 
ATOM     48  C   UNL     1       4.610   8.392  -4.493  1.00  0.00     0.031 C 
ATOM     49  C   UNL     1       0.566   5.745  -9.715  1.00  0.00     0.029 A 
ATOM     50  C   UNL     1       1.945   5.434 -10.006  1.00  0.00     0.049 A 
ATOM     51  H   UNL     1       3.602   5.894  -8.764  1.00  0.00     0.167 HD
ATOM     52  C   UNL     1       6.762   7.771  -5.650  1.00  0.00     0.031 A 
ATOM     53  C   UNL     1       2.396   4.824 -11.144  1.00  0.00     0.031 A 
ATOM     54  C   UNL     1       7.185   7.387  -6.955  1.00  0.00     0.049 A 
ATOM     55  C   UNL     1       3.862   4.703 -11.046  1.00  0.00     0.074 A 
ATOM     56  C   UNL     1       7.298   8.077  -8.137  1.00  0.00     0.029 A 
ATOM     57  N   UNL     1       7.319   6.050  -7.229  1.00  0.00    -0.354 N 
ATOM     58  N   UNL     1       4.482   3.897 -10.238  1.00  0.00    -0.248 NA
ATOM     59  C   UNL     1       4.721   5.623 -11.801  1.00  0.00     0.031 C 
ATOM     60  C   UNL     1       7.098   7.106  -9.147  1.00  0.00     0.029 A 
ATOM     61  C   UNL     1       6.923   5.863  -8.538  1.00  0.00     0.049 A 
ATOM     62  H   UNL     1       7.637   5.355  -6.609  1.00  0.00     0.167 HD
ATOM     63  C   UNL     1       5.721   4.484 -10.102  1.00  0.00     0.074 A 
ATOM     64  C   UNL     1       5.901   5.338 -11.253  1.00  0.00     0.031 C 
ATOM     65  C   UNL     1       6.272   4.612  -8.868  1.00  0.00     0.031 A 
BRANCH  52  66
ATOM     66  C   UNL     1       7.782   7.954  -4.570  1.00  0.00    -0.014 A 
ATOM     67  C   UNL     1       7.570   7.580  -3.236  1.00  0.00     0.009 A 
ATOM     68  C   UNL     1       9.095   8.312  -4.943  1.00  0.00     0.009 A 
ATOM     69  C   UNL     1       8.632   7.552  -2.320  1.00  0.00     0.001 A 
ATOM     70  C   UNL     1      10.158   8.259  -4.039  1.00  0.00     0.001 A 
ATOM     71  C   UNL     1       9.926   7.872  -2.726  1.00  0.00     0.000 A 
ENDBRANCH  52  66
BRANCH  53  72
ATOM     72  C   UNL     1       1.712   4.431 -12.436  1.00  0.00    -0.014 A 
ATOM     73  C   UNL     1       2.476   4.218 -13.607  1.00  0.00     0.009 A 
ATOM     74  C   UNL     1       0.327   4.284 -12.601  1.00  0.00     0.009 A 
ATOM     75  C   UNL     1       1.896   4.015 -14.869  1.00  0.00     0.001 A 
ATOM     76  C   UNL     1      -0.266   4.083 -13.861  1.00  0.00     0.001 A 
ATOM     77  C   UNL     1       0.518   3.975 -15.000  1.00  0.00     0.000 A 
ENDBRANCH  53  72
BRANCH  65  78
ATOM     78  C   UNL     1       5.750   3.633  -7.835  1.00  0.00    -0.014 A 
ATOM     79  C   UNL     1       5.030   4.055  -6.703  1.00  0.00     0.009 A 
ATOM     80  C   UNL     1       5.930   2.253  -8.009  1.00  0.00     0.009 A 
ATOM     81  C   UNL     1       4.556   3.143  -5.755  1.00  0.00     0.001 A 
ATOM     82  C   UNL     1       5.423   1.335  -7.080  1.00  0.00     0.001 A 
ATOM     83  C   UNL     1       4.747   1.781  -5.947  1.00  0.00     0.000 A 
ENDBRANCH  65  78
ENDBRANCH  39  40
ENDBRANCH  32  34
ENDBRANCH  31  32
ENDBRANCH  30  31
ENDBRANCH  29  30
ENDBRANCH  28  29
ENDBRANCH  27  28
ENDBRANCH   1  27
TORSDOF 19
