REMARK SMILES COc1cccc(-c2ccc(C#N)c(SCC(=O)OCCOCCOCCOC(=O)c3ccc(-c4c5nc(c(-c6ccccc6)c6ccc([nH]6)c(-c6ccccc6)c6nc(c(-c7ccccc7)c7ccc4[nH]7)C=C6)C=C5)cc3)n2)c1
REMARK SMILES IDX 23 1 22 2 21 3 20 4 19 5 17 6 18 7 16 8 15 9 14 10 8 11 9 12
REMARK SMILES IDX 79 13 10 14 11 15 7 16 3 17 4 18 80 19 5 20 6 21 2 22 1 23
REMARK SMILES IDX 12 24 13 25 24 26 25 27 26 28 27 29 28 30 29 31 30 32 31 33
REMARK SMILES IDX 32 34 78 35 33 36 77 37 34 38 35 39 36 40 71 41 37 42 76 43
REMARK SMILES IDX 70 44 72 45 38 46 75 47 69 48 68 49 39 51 61 52 46 53 60 54
REMARK SMILES IDX 47 55 50 56 59 57 73 58 48 59 49 60 58 62 74 63 51 64 40 65
REMARK SMILES IDX 41 66 45 67 42 68 44 69 43 70 62 71 63 72 67 73 64 74 66 75
REMARK SMILES IDX 65 76 52 77 53 78 57 79 54 80 56 81 55 82
REMARK H PARENT 72 50 50 61
REMARK Flexibility Score: inf
ROOT
ATOM      1  C   UNL     1       8.831  -1.676  -3.798  1.00  0.00     0.188 C 
ENDROOT
BRANCH   1   2
ATOM      2  O   UNL     1       9.702  -0.568  -3.672  1.00  0.00    -0.376 OA
BRANCH   2   3
ATOM      3  C   UNL     1       9.491   0.576  -4.489  1.00  0.00     0.202 C 
BRANCH   3   4
ATOM      4  C   UNL     1       9.322   0.403  -6.011  1.00  0.00     0.261 C 
BRANCH   4   5
ATOM      5  O   UNL     1       8.136  -0.306  -6.458  1.00  0.00    -0.463 OA
BRANCH   5   6
ATOM      6  C   UNL     1       8.331  -1.480  -7.115  1.00  0.00     0.316 C 
ATOM      7  O   UNL     1       9.447  -1.962  -7.304  1.00  0.00    -0.251 OA
BRANCH   6   8
ATOM      8  C   UNL     1       7.093  -2.159  -7.691  1.00  0.00     0.199 C 
BRANCH   8   9
ATOM      9  S   UNL     1       5.427  -1.787  -7.018  1.00  0.00    -0.093 SA
BRANCH   9  10
ATOM     10  C   UNL     1       4.938  -2.968  -5.737  1.00  0.00     0.115 A 
ATOM     11  C   UNL     1       3.367  -3.205  -3.967  1.00  0.00     0.072 A 
ATOM     12  C   UNL     1       3.950  -4.388  -3.549  1.00  0.00     0.030 A 
ATOM     13  N   UNL     1       3.842  -2.507  -5.037  1.00  0.00    -0.240 NA
ATOM     14  C   UNL     1       4.984  -4.909  -4.302  1.00  0.00     0.024 A 
ATOM     15  C   UNL     1       5.508  -4.197  -5.394  1.00  0.00     0.084 A 
BRANCH  11  16
ATOM     16  C   UNL     1       2.077  -2.846  -3.356  1.00  0.00     0.004 A 
ATOM     17  C   UNL     1       0.771  -2.050  -1.460  1.00  0.00     0.119 A 
ATOM     18  C   UNL     1      -0.332  -2.781  -1.902  1.00  0.00     0.046 A 
ATOM     19  C   UNL     1       1.977  -2.085  -2.176  1.00  0.00     0.056 A 
ATOM     20  C   UNL     1      -0.263  -3.505  -3.086  1.00  0.00     0.005 A 
ATOM     21  C   UNL     1       0.928  -3.526  -3.811  1.00  0.00     0.010 A 
BRANCH  17  22
ATOM     22  O   UNL     1       0.605  -1.435  -0.247  1.00  0.00    -0.497 OA
ATOM     23  C   UNL     1       1.135  -0.117  -0.181  1.00  0.00     0.278 C 
ENDBRANCH  17  22
ENDBRANCH  11  16
BRANCH  15  24
ATOM     24  C   UNL     1       6.654  -4.796  -5.997  1.00  0.00     0.102 C 
ATOM     25  N   UNL     1       7.612  -5.323  -6.369  1.00  0.00    -0.192 NA
ENDBRANCH  15  24
ENDBRANCH   9  10
ENDBRANCH   8   9
ENDBRANCH   6   8
ENDBRANCH   5   6
ENDBRANCH   4   5
ENDBRANCH   3   4
ENDBRANCH   2   3
ENDBRANCH   1   2
BRANCH   1  26
ATOM     26  C   UNL     1       7.322  -1.432  -3.945  1.00  0.00     0.188 C 
BRANCH  26  27
ATOM     27  O   UNL     1       6.886  -0.104  -3.901  1.00  0.00    -0.376 OA
BRANCH  27  28
ATOM     28  C   UNL     1       6.398   0.426  -2.687  1.00  0.00     0.202 C 
BRANCH  28  29
ATOM     29  C   UNL     1       6.616  -0.225  -1.305  1.00  0.00     0.261 C 
BRANCH  29  30
ATOM     30  O   UNL     1       7.193  -1.542  -1.257  1.00  0.00    -0.460 OA
BRANCH  30  31
ATOM     31  C   UNL     1       6.359  -2.544  -0.890  1.00  0.00     0.338 C 
ATOM     32  O   UNL     1       5.177  -2.444  -0.605  1.00  0.00    -0.246 OA
BRANCH  31  33
ATOM     33  C   UNL     1       7.030  -3.863  -0.933  1.00  0.00     0.060 A 
ATOM     34  C   UNL     1       7.336  -4.457  -2.155  1.00  0.00     0.016 A 
ATOM     35  C   UNL     1       7.120  -4.624   0.230  1.00  0.00     0.016 A 
ATOM     36  C   UNL     1       7.612  -5.818  -2.239  1.00  0.00     0.010 A 
ATOM     37  C   UNL     1       7.486  -5.977   0.153  1.00  0.00     0.010 A 
ATOM     38  C   UNL     1       7.689  -6.604  -1.089  1.00  0.00    -0.014 A 
BRANCH  38  39
ATOM     39  C   UNL     1       7.913  -8.073  -1.208  1.00  0.00     0.031 A 
ATOM     40  C   UNL     1       6.924  -9.042  -0.610  1.00  0.00     0.074 A 
ATOM     41  C   UNL     1       8.969  -8.554  -1.897  1.00  0.00     0.049 A 
ATOM     42  N   UNL     1       7.037 -10.333  -0.425  1.00  0.00    -0.248 NA
ATOM     43  C   UNL     1       5.636  -8.486  -0.161  1.00  0.00     0.031 C 
ATOM     44  C   UNL     1       9.945  -7.750  -2.636  1.00  0.00     0.029 A 
ATOM     45  N   UNL     1       9.393  -9.846  -2.096  1.00  0.00    -0.354 N 
ATOM     46  C   UNL     1       5.871 -10.731   0.220  1.00  0.00     0.074 A 
ATOM     47  C   UNL     1       5.058  -9.546   0.387  1.00  0.00     0.031 C 
ATOM     48  C   UNL     1      10.825  -8.562  -3.237  1.00  0.00     0.029 A 
ATOM     49  C   UNL     1      10.561  -9.930  -2.816  1.00  0.00     0.049 A 
ATOM     50  H   UNL     1       8.909 -10.633  -1.757  1.00  0.00     0.167 HD
ATOM     51  C   UNL     1       5.523 -11.969   0.649  1.00  0.00     0.031 A 
ATOM     52  C   UNL     1      11.381 -10.972  -3.050  1.00  0.00     0.031 A 
ATOM     53  C   UNL     1       6.335 -13.145   0.460  1.00  0.00     0.049 A 
ATOM     54  C   UNL     1      11.037 -12.309  -2.462  1.00  0.00     0.074 A 
ATOM     55  C   UNL     1       6.085 -14.443   0.871  1.00  0.00     0.029 A 
ATOM     56  N   UNL     1       7.555 -13.165  -0.201  1.00  0.00    -0.354 N 
ATOM     57  N   UNL     1       9.977 -12.660  -1.776  1.00  0.00    -0.248 NA
ATOM     58  C   UNL     1      12.013 -13.387  -2.664  1.00  0.00     0.031 C 
ATOM     59  C   UNL     1       7.186 -15.232   0.524  1.00  0.00     0.029 A 
ATOM     60  C   UNL     1       8.085 -14.445  -0.178  1.00  0.00     0.049 A 
ATOM     61  H   UNL     1       7.982 -12.385  -0.623  1.00  0.00     0.167 HD
ATOM     62  C   UNL     1      10.146 -14.007  -1.484  1.00  0.00     0.074 A 
ATOM     63  C   UNL     1      11.399 -14.411  -2.088  1.00  0.00     0.031 C 
ATOM     64  C   UNL     1       9.335 -14.833  -0.779  1.00  0.00     0.031 A 
BRANCH  51  65
ATOM     65  C   UNL     1       4.247 -12.105   1.440  1.00  0.00    -0.014 A 
ATOM     66  C   UNL     1       2.981 -11.953   0.854  1.00  0.00     0.009 A 
ATOM     67  C   UNL     1       4.322 -12.428   2.806  1.00  0.00     0.009 A 
ATOM     68  C   UNL     1       1.822 -12.081   1.627  1.00  0.00     0.001 A 
ATOM     69  C   UNL     1       3.163 -12.589   3.568  1.00  0.00     0.001 A 
ATOM     70  C   UNL     1       1.914 -12.404   2.981  1.00  0.00     0.000 A 
ENDBRANCH  51  65
BRANCH  52  71
ATOM     71  C   UNL     1      12.654 -10.765  -3.796  1.00  0.00    -0.014 A 
ATOM     72  C   UNL     1      12.873 -11.383  -5.035  1.00  0.00     0.009 A 
ATOM     73  C   UNL     1      13.663  -9.942  -3.264  1.00  0.00     0.009 A 
ATOM     74  C   UNL     1      14.079 -11.195  -5.716  1.00  0.00     0.001 A 
ATOM     75  C   UNL     1      14.848  -9.721  -3.966  1.00  0.00     0.001 A 
ATOM     76  C   UNL     1      15.061 -10.357  -5.187  1.00  0.00     0.000 A 
ENDBRANCH  52  71
BRANCH  64  77
ATOM     77  C   UNL     1       9.757 -16.273  -0.670  1.00  0.00    -0.014 A 
ATOM     78  C   UNL     1      10.865 -16.659   0.099  1.00  0.00     0.009 A 
ATOM     79  C   UNL     1       9.015 -17.260  -1.337  1.00  0.00     0.009 A 
ATOM     80  C   UNL     1      11.245 -18.002   0.163  1.00  0.00     0.001 A 
ATOM     81  C   UNL     1       9.375 -18.605  -1.241  1.00  0.00     0.001 A 
ATOM     82  C   UNL     1      10.497 -18.973  -0.502  1.00  0.00     0.000 A 
ENDBRANCH  64  77
ENDBRANCH  38  39
ENDBRANCH  31  33
ENDBRANCH  30  31
ENDBRANCH  29  30
ENDBRANCH  28  29
ENDBRANCH  27  28
ENDBRANCH  26  27
ENDBRANCH   1  26
TORSDOF 22
