REMARK SMILES Cc1cc(C)n2ncc(C(=O)N(C)CCCC(=O)OCCOCCOCCOC(=O)c3ccc(-c4c5nc(c(-c6ccccc6)c6ccc([nH]6)c(-c6ccccc6)c6nc(c(-c7ccccc7)c7ccc4[nH]7)C=C6)C=C5)cc3)c2n1
REMARK SMILES IDX 22 1 21 2 20 3 19 4 17 5 18 6 16 7 15 8 14 9 12 10 13 11
REMARK SMILES IDX 10 12 11 13 9 14 1 15 2 16 3 17 80 18 4 19 79 20 5 21 6 22
REMARK SMILES IDX 7 23 8 24 23 25 24 26 25 27 26 28 27 29 28 30 29 31 30 32
REMARK SMILES IDX 31 33 32 34 78 35 33 36 77 37 34 38 35 39 36 40 71 41 37 42
REMARK SMILES IDX 76 43 70 44 72 45 38 46 75 47 69 48 68 49 39 51 61 52 46 53
REMARK SMILES IDX 60 54 47 55 50 56 59 57 73 58 48 59 49 60 58 62 74 63 51 64
REMARK SMILES IDX 40 65 41 66 45 67 42 68 44 69 43 70 62 71 63 72 67 73 64 74
REMARK SMILES IDX 66 75 65 76 52 77 53 78 57 79 54 80 56 81 55 82
REMARK H PARENT 72 50 50 61
REMARK Flexibility Score: inf
ROOT
ATOM      1  O   UNL     1      -4.123   2.708  -5.986  1.00  0.00    -0.376 OA
ENDROOT
BRANCH   1   2
ATOM      2  C   UNL     1      -2.879   2.055  -6.183  1.00  0.00     0.202 C 
BRANCH   2   3
ATOM      3  C   UNL     1      -2.274   1.090  -5.141  1.00  0.00     0.261 C 
BRANCH   3   4
ATOM      4  O   UNL     1      -3.198   0.165  -4.542  1.00  0.00    -0.463 OA
BRANCH   4   5
ATOM      5  C   UNL     1      -3.255   0.142  -3.189  1.00  0.00     0.305 C 
ATOM      6  O   UNL     1      -2.645   0.924  -2.463  1.00  0.00    -0.252 OA
BRANCH   5   7
ATOM      7  C   UNL     1      -4.274  -0.827  -2.604  1.00  0.00     0.124 C 
BRANCH   7   8
ATOM      8  C   UNL     1      -5.035  -1.885  -3.414  1.00  0.00     0.033 C 
BRANCH   8   9
ATOM      9  C   UNL     1      -4.301  -2.661  -4.507  1.00  0.00     0.120 C 
BRANCH   9  10
ATOM     10  N   UNL     1      -3.409  -3.668  -3.944  1.00  0.00    -0.342 N 
ATOM     11  C   UNL     1      -3.895  -5.032  -4.040  1.00  0.00     0.147 C 
BRANCH  10  12
ATOM     12  C   UNL     1      -2.161  -3.215  -3.507  1.00  0.00     0.259 C 
ATOM     13  O   UNL     1      -1.718  -2.156  -3.955  1.00  0.00    -0.269 OA
BRANCH  12  14
ATOM     14  C   UNL     1      -1.415  -3.910  -2.473  1.00  0.00     0.104 A 
ATOM     15  C   UNL     1       0.796  -0.155  -0.140  1.00  0.00     0.067 C 
ATOM     16  C   UNL     1       0.535  -1.609  -0.450  1.00  0.00     0.042 A 
ATOM     17  C   UNL     1       1.401  -2.605   0.255  1.00  0.00     0.047 A 
ATOM     18  N   UNL     1      -0.418  -1.915  -1.281  1.00  0.00    -0.233 NA
ATOM     19  C   UNL     1       1.121  -3.901   0.032  1.00  0.00     0.043 A 
ATOM     20  C   UNL     1      -0.621  -3.248  -1.538  1.00  0.00     0.168 A 
ATOM     21  C   UNL     1       1.903  -5.023   0.635  1.00  0.00     0.067 C 
ATOM     22  N   UNL     1       0.082  -4.235  -0.845  1.00  0.00    -0.219 N 
ATOM     23  N   UNL     1      -0.356  -5.474  -1.171  1.00  0.00    -0.174 NA
ATOM     24  C   UNL     1      -1.221  -5.266  -2.162  1.00  0.00     0.151 A 
ENDBRANCH  12  14
ENDBRANCH  10  12
ENDBRANCH   9  10
ENDBRANCH   8   9
ENDBRANCH   7   8
ENDBRANCH   5   7
ENDBRANCH   4   5
ENDBRANCH   3   4
ENDBRANCH   2   3
ENDBRANCH   1   2
BRANCH   1  25
ATOM     25  C   UNL     1      -5.063   2.089  -5.144  1.00  0.00     0.188 C 
BRANCH  25  26
ATOM     26  C   UNL     1      -5.735   0.781  -5.582  1.00  0.00     0.188 C 
BRANCH  26  27
ATOM     27  O   UNL     1      -5.160  -0.273  -6.328  1.00  0.00    -0.376 OA
BRANCH  27  28
ATOM     28  C   UNL     1      -4.775  -0.265  -7.696  1.00  0.00     0.202 C 
BRANCH  28  29
ATOM     29  C   UNL     1      -5.547   0.435  -8.814  1.00  0.00     0.261 C 
BRANCH  29  30
ATOM     30  O   UNL     1      -6.473   1.373  -8.342  1.00  0.00    -0.460 OA
BRANCH  30  31
ATOM     31  C   UNL     1      -7.627   0.807  -7.924  1.00  0.00     0.338 C 
ATOM     32  O   UNL     1      -7.981  -0.345  -8.017  1.00  0.00    -0.246 OA
BRANCH  31  33
ATOM     33  C   UNL     1      -8.376   1.871  -7.243  1.00  0.00     0.060 A 
ATOM     34  C   UNL     1      -9.511   1.488  -6.531  1.00  0.00     0.016 A 
ATOM     35  C   UNL     1      -8.053   3.207  -7.500  1.00  0.00     0.016 A 
ATOM     36  C   UNL     1     -10.541   2.385  -6.497  1.00  0.00     0.010 A 
ATOM     37  C   UNL     1      -9.071   4.101  -7.460  1.00  0.00     0.010 A 
ATOM     38  C   UNL     1     -10.328   3.592  -7.159  1.00  0.00    -0.014 A 
BRANCH  38  39
ATOM     39  C   UNL     1     -11.452   4.223  -7.796  1.00  0.00     0.031 A 
ATOM     40  C   UNL     1     -12.016   5.306  -6.990  1.00  0.00     0.074 A 
ATOM     41  C   UNL     1     -11.810   3.896  -9.052  1.00  0.00     0.049 A 
ATOM     42  N   UNL     1     -13.075   5.234  -6.262  1.00  0.00    -0.248 NA
ATOM     43  C   UNL     1     -11.181   6.493  -6.756  1.00  0.00     0.031 C 
ATOM     44  C   UNL     1     -11.140   3.040 -10.040  1.00  0.00     0.029 A 
ATOM     45  N   UNL     1     -12.862   4.376  -9.750  1.00  0.00    -0.354 N 
ATOM     46  C   UNL     1     -13.131   6.451  -5.606  1.00  0.00     0.074 A 
ATOM     47  C   UNL     1     -11.823   7.037  -5.725  1.00  0.00     0.031 C 
ATOM     48  C   UNL     1     -11.676   3.272 -11.265  1.00  0.00     0.029 A 
ATOM     49  C   UNL     1     -12.798   4.186 -11.120  1.00  0.00     0.049 A 
ATOM     50  H   UNL     1     -13.621   4.829  -9.316  1.00  0.00     0.167 HD
ATOM     51  C   UNL     1     -14.315   7.024  -5.272  1.00  0.00     0.031 A 
ATOM     52  C   UNL     1     -13.576   4.819 -12.035  1.00  0.00     0.031 A 
ATOM     53  C   UNL     1     -15.411   6.103  -5.430  1.00  0.00     0.049 A 
ATOM     54  C   UNL     1     -14.747   5.373 -11.297  1.00  0.00     0.074 A 
ATOM     55  C   UNL     1     -15.750   4.909  -4.825  1.00  0.00     0.029 A 
ATOM     56  N   UNL     1     -16.085   6.133  -6.632  1.00  0.00    -0.354 N 
ATOM     57  N   UNL     1     -15.662   4.616 -10.755  1.00  0.00    -0.248 NA
ATOM     58  C   UNL     1     -14.619   6.703 -10.710  1.00  0.00     0.031 C 
ATOM     59  C   UNL     1     -16.238   4.086  -5.880  1.00  0.00     0.029 A 
ATOM     60  C   UNL     1     -16.249   4.837  -7.059  1.00  0.00     0.049 A 
ATOM     61  H   UNL     1     -16.394   6.941  -7.103  1.00  0.00     0.167 HD
ATOM     62  C   UNL     1     -15.919   5.190  -9.515  1.00  0.00     0.074 A 
ATOM     63  C   UNL     1     -15.310   6.520  -9.578  1.00  0.00     0.031 C 
ATOM     64  C   UNL     1     -16.315   4.431  -8.449  1.00  0.00     0.031 A 
BRANCH  51  65
ATOM     65  C   UNL     1     -14.502   8.508  -5.171  1.00  0.00    -0.014 A 
ATOM     66  C   UNL     1     -15.714   8.998  -4.667  1.00  0.00     0.009 A 
ATOM     67  C   UNL     1     -13.627   9.449  -5.751  1.00  0.00     0.009 A 
ATOM     68  C   UNL     1     -16.045  10.353  -4.775  1.00  0.00     0.001 A 
ATOM     69  C   UNL     1     -13.932  10.807  -5.819  1.00  0.00     0.001 A 
ATOM     70  C   UNL     1     -15.155  11.255  -5.352  1.00  0.00     0.000 A 
ENDBRANCH  51  65
BRANCH  52  71
ATOM     71  C   UNL     1     -13.218   5.249 -13.408  1.00  0.00    -0.014 A 
ATOM     72  C   UNL     1     -14.202   5.608 -14.344  1.00  0.00     0.009 A 
ATOM     73  C   UNL     1     -11.881   5.555 -13.725  1.00  0.00     0.009 A 
ATOM     74  C   UNL     1     -13.861   6.268 -15.536  1.00  0.00     0.001 A 
ATOM     75  C   UNL     1     -11.540   6.214 -14.913  1.00  0.00     0.001 A 
ATOM     76  C   UNL     1     -12.532   6.582 -15.814  1.00  0.00     0.000 A 
ENDBRANCH  52  71
BRANCH  64  77
ATOM     77  C   UNL     1     -16.601   2.963  -8.694  1.00  0.00    -0.014 A 
ATOM     78  C   UNL     1     -15.615   2.051  -9.117  1.00  0.00     0.009 A 
ATOM     79  C   UNL     1     -17.841   2.450  -8.290  1.00  0.00     0.009 A 
ATOM     80  C   UNL     1     -15.868   0.674  -9.143  1.00  0.00     0.001 A 
ATOM     81  C   UNL     1     -18.087   1.074  -8.295  1.00  0.00     0.001 A 
ATOM     82  C   UNL     1     -17.102   0.186  -8.722  1.00  0.00     0.000 A 
ENDBRANCH  64  77
ENDBRANCH  38  39
ENDBRANCH  31  33
ENDBRANCH  30  31
ENDBRANCH  29  30
ENDBRANCH  28  29
ENDBRANCH  27  28
ENDBRANCH  26  27
ENDBRANCH  25  26
ENDBRANCH   1  25
TORSDOF 22
