REMARK SMILES O=C(OCCOCCOCCOC(=O)[C@@H]1CCCC[C@H]1C(=O)Nc1ccc(NC(=O)c2ccco2)cc1)c1ccc(-c2c3nc(c(-c4ccccc4)c4ccc([nH]4)c(-c4ccccc4)c4nc(c(-c5ccccc5)c5ccc2[nH]5)C=C4)C=C3)cc1
REMARK SMILES IDX 8 1 7 2 6 3 5 4 4 5 3 6 2 7 1 8 38 9 39 10 85 11 40 12 84 13
REMARK SMILES IDX 41 14 42 15 43 16 78 17 44 18 83 19 77 20 79 21 45 22 82 23
REMARK SMILES IDX 76 24 75 25 46 27 68 28 53 29 67 30 54 31 57 32 66 33 80 34
REMARK SMILES IDX 55 35 56 36 65 38 81 39 58 40 47 41 48 42 52 43 49 44 51 45
REMARK SMILES IDX 50 46 69 47 70 48 74 49 71 50 73 51 72 52 59 53 60 54 64 55
REMARK SMILES IDX 61 56 63 57 62 58 9 59 10 60 11 61 12 62 13 63 14 64 15 65
REMARK SMILES IDX 16 66 20 67 17 68 19 69 18 70 21 71 22 72 23 73 24 75 25 76
REMARK SMILES IDX 37 77 26 78 36 79 27 80 28 81 29 82 30 84 31 85 32 86 35 87
REMARK SMILES IDX 33 88 34 89
REMARK H PARENT 79 26 57 37 23 74 28 83
REMARK Flexibility Score: inf
ROOT
ATOM      1  C   UNL     1       1.977  -2.751   1.266  1.00  0.00     0.188 C 
ENDROOT
BRANCH   1   2
ATOM      2  C   UNL     1       2.552  -1.347   1.449  1.00  0.00     0.188 C 
BRANCH   2   3
ATOM      3  O   UNL     1       3.806  -1.179   0.770  1.00  0.00    -0.376 OA
BRANCH   3   4
ATOM      4  C   UNL     1       4.753  -0.442   1.549  1.00  0.00     0.202 C 
BRANCH   4   5
ATOM      5  C   UNL     1       4.595   1.082   1.460  1.00  0.00     0.261 C 
BRANCH   5   6
ATOM      6  O   UNL     1       3.281   1.501   1.054  1.00  0.00    -0.460 OA
BRANCH   6   7
ATOM      7  C   UNL     1       2.747   1.591  -0.188  1.00  0.00     0.338 C 
ATOM      8  O   UNL     1       1.573   1.950  -0.283  1.00  0.00    -0.246 OA
BRANCH   7   9
ATOM      9  C   UNL     1       3.491   1.322  -1.465  1.00  0.00     0.060 A 
ATOM     10  C   UNL     1       4.746   0.724  -1.571  1.00  0.00     0.016 A 
ATOM     11  C   UNL     1       2.862   1.711  -2.663  1.00  0.00     0.016 A 
ATOM     12  C   UNL     1       5.410   0.621  -2.790  1.00  0.00     0.010 A 
ATOM     13  C   UNL     1       3.497   1.556  -3.904  1.00  0.00     0.010 A 
ATOM     14  C   UNL     1       4.801   1.048  -3.964  1.00  0.00    -0.014 A 
BRANCH  14  15
ATOM     15  C   UNL     1       5.607   1.137  -5.202  1.00  0.00     0.031 A 
ATOM     16  C   UNL     1       6.035   2.502  -5.662  1.00  0.00     0.074 A 
ATOM     17  C   UNL     1       6.128   0.045  -5.796  1.00  0.00     0.049 A 
ATOM     18  N   UNL     1       6.708   2.839  -6.729  1.00  0.00    -0.248 NA
ATOM     19  C   UNL     1       5.746   3.625  -4.751  1.00  0.00     0.031 C 
ATOM     20  C   UNL     1       6.110  -1.314  -5.257  1.00  0.00     0.029 A 
ATOM     21  N   UNL     1       6.788  -0.093  -6.989  1.00  0.00    -0.354 N 
ATOM     22  C   UNL     1       6.998   4.187  -6.572  1.00  0.00     0.074 A 
ATOM     23  C   UNL     1       6.348   4.633  -5.362  1.00  0.00     0.031 C 
ATOM     24  C   UNL     1       6.682  -2.153  -6.140  1.00  0.00     0.029 A 
ATOM     25  C   UNL     1       7.037  -1.404  -7.334  1.00  0.00     0.049 A 
ATOM     26  H   UNL     1       7.058   0.672  -7.548  1.00  0.00     0.167 HD
ATOM     27  C   UNL     1       7.793   4.965  -7.342  1.00  0.00     0.031 A 
ATOM     28  C   UNL     1       7.434  -1.927  -8.511  1.00  0.00     0.031 A 
ATOM     29  C   UNL     1       8.383   4.513  -8.570  1.00  0.00     0.049 A 
ATOM     30  C   UNL     1       7.710  -0.949  -9.615  1.00  0.00     0.074 A 
ATOM     31  C   UNL     1       9.177   5.202  -9.467  1.00  0.00     0.029 A 
ATOM     32  N   UNL     1       8.203   3.239  -9.086  1.00  0.00    -0.354 N 
ATOM     33  N   UNL     1       7.921   0.340  -9.518  1.00  0.00    -0.248 NA
ATOM     34  C   UNL     1       7.786  -1.478 -10.980  1.00  0.00     0.031 C 
ATOM     35  C   UNL     1       9.419   4.359 -10.562  1.00  0.00     0.029 A 
ATOM     36  C   UNL     1       8.819   3.134 -10.318  1.00  0.00     0.049 A 
ATOM     37  H   UNL     1       7.707   2.515  -8.639  1.00  0.00     0.167 HD
ATOM     38  C   UNL     1       8.291   0.753 -10.785  1.00  0.00     0.074 A 
ATOM     39  C   UNL     1       8.182  -0.405 -11.652  1.00  0.00     0.031 C 
ATOM     40  C   UNL     1       8.756   1.968 -11.163  1.00  0.00     0.031 A 
BRANCH  27  41
ATOM     41  C   UNL     1       8.029   6.367  -6.865  1.00  0.00    -0.014 A 
ATOM     42  C   UNL     1       8.847   6.621  -5.751  1.00  0.00     0.009 A 
ATOM     43  C   UNL     1       7.393   7.442  -7.500  1.00  0.00     0.009 A 
ATOM     44  C   UNL     1       8.989   7.920  -5.257  1.00  0.00     0.001 A 
ATOM     45  C   UNL     1       7.553   8.742  -7.016  1.00  0.00     0.001 A 
ATOM     46  C   UNL     1       8.341   8.979  -5.889  1.00  0.00     0.000 A 
ENDBRANCH  27  41
BRANCH  28  47
ATOM     47  C   UNL     1       7.474  -3.396  -8.770  1.00  0.00    -0.014 A 
ATOM     48  C   UNL     1       8.625  -4.061  -9.206  1.00  0.00     0.009 A 
ATOM     49  C   UNL     1       6.291  -4.141  -8.689  1.00  0.00     0.009 A 
ATOM     50  C   UNL     1       8.574  -5.418  -9.562  1.00  0.00     0.001 A 
ATOM     51  C   UNL     1       6.235  -5.496  -9.018  1.00  0.00     0.001 A 
ATOM     52  C   UNL     1       7.380  -6.134  -9.467  1.00  0.00     0.000 A 
ENDBRANCH  28  47
BRANCH  40  53
ATOM     53  C   UNL     1       9.389   2.046 -12.515  1.00  0.00    -0.014 A 
ATOM     54  C   UNL     1       8.639   2.118 -13.694  1.00  0.00     0.009 A 
ATOM     55  C   UNL     1      10.793   2.057 -12.586  1.00  0.00     0.009 A 
ATOM     56  C   UNL     1       9.290   2.178 -14.928  1.00  0.00     0.001 A 
ATOM     57  C   UNL     1      11.438   2.145 -13.816  1.00  0.00     0.001 A 
ATOM     58  C   UNL     1      10.685   2.198 -14.987  1.00  0.00     0.000 A 
ENDBRANCH  40  53
ENDBRANCH  14  15
ENDBRANCH   7   9
ENDBRANCH   6   7
ENDBRANCH   5   6
ENDBRANCH   4   5
ENDBRANCH   3   4
ENDBRANCH   2   3
ENDBRANCH   1   2
BRANCH   1  59
ATOM     59  O   UNL     1       2.716  -3.835   1.822  1.00  0.00    -0.376 OA
BRANCH  59  60
ATOM     60  C   UNL     1       4.077  -3.993   1.442  1.00  0.00     0.202 C 
BRANCH  60  61
ATOM     61  C   UNL     1       4.402  -4.450   0.012  1.00  0.00     0.261 C 
BRANCH  61  62
ATOM     62  O   UNL     1       3.718  -3.762  -1.043  1.00  0.00    -0.463 OA
BRANCH  62  63
ATOM     63  C   UNL     1       2.575  -4.384  -1.457  1.00  0.00     0.309 C 
ATOM     64  O   UNL     1       2.086  -5.365  -0.918  1.00  0.00    -0.252 OA
BRANCH  63  65
ATOM     65  C   UNL     1       2.020  -3.722  -2.703  1.00  0.00     0.111 C 
ATOM     66  C   UNL     1       1.458  -2.317  -2.466  1.00  0.00     0.016 C 
ATOM     67  C   UNL     1       1.005  -4.653  -3.397  1.00  0.00     0.093 C 
ATOM     68  C   UNL     1       0.966  -1.712  -3.780  1.00  0.00     0.001 C 
ATOM     69  C   UNL     1       0.312  -4.018  -4.613  1.00  0.00     0.014 C 
ATOM     70  C   UNL     1      -0.132  -2.573  -4.393  1.00  0.00     0.001 C 
BRANCH  67  71
ATOM     71  C   UNL     1       1.513  -6.096  -3.669  1.00  0.00     0.228 C 
ATOM     72  O   UNL     1       0.912  -7.056  -3.170  1.00  0.00    -0.274 OA
ATOM     73  N   UNL     1       2.559  -6.414  -4.506  1.00  0.00    -0.326 N 
ATOM     74  H   UNL     1       3.015  -7.274  -4.360  1.00  0.00     0.169 HD
BRANCH  73  75
ATOM     75  C   UNL     1       3.022  -5.608  -5.547  1.00  0.00     0.041 A 
ATOM     76  C   UNL     1       2.554  -5.841  -6.835  1.00  0.00     0.028 A 
ATOM     77  C   UNL     1       3.738  -4.463  -5.277  1.00  0.00     0.028 A 
ATOM     78  C   UNL     1       2.602  -4.809  -7.784  1.00  0.00     0.028 A 
ATOM     79  C   UNL     1       3.640  -3.400  -6.163  1.00  0.00     0.028 A 
ATOM     80  C   UNL     1       3.078  -3.550  -7.429  1.00  0.00     0.041 A 
BRANCH  80  81
ATOM     81  N   UNL     1       3.067  -2.384  -8.212  1.00  0.00    -0.319 N 
ATOM     82  C   UNL     1       2.985  -2.135  -9.561  1.00  0.00     0.291 C 
ATOM     83  H   UNL     1       3.133  -1.562  -7.674  1.00  0.00     0.170 HD
ATOM     84  O   UNL     1       2.949  -0.951  -9.910  1.00  0.00    -0.265 OA
BRANCH  82  85
ATOM     85  C   UNL     1       3.060  -3.215 -10.505  1.00  0.00     0.191 A 
ATOM     86  C   UNL     1       2.113  -4.087 -11.006  1.00  0.00     0.056 A 
ATOM     87  O   UNL     1       4.265  -3.457 -11.105  1.00  0.00    -0.459 OA
ATOM     88  C   UNL     1       2.796  -4.962 -11.884  1.00  0.00     0.043 A 
ATOM     89  C   UNL     1       4.096  -4.519 -11.932  1.00  0.00     0.196 A 
ENDBRANCH  82  85
ENDBRANCH  80  81
ENDBRANCH  73  75
ENDBRANCH  67  71
ENDBRANCH  63  65
ENDBRANCH  62  63
ENDBRANCH  61  62
ENDBRANCH  60  61
ENDBRANCH  59  60
ENDBRANCH   1  59
TORSDOF 21
