REMARK SMILES C[C@H](NC(=O)c1cccc(NC(=O)c2ccccc2C(=O)OCCOCCOCCOC(=O)c2ccc(-c3c4nc(c(-c5ccccc5)c5ccc([nH]5)c(-c5ccccc5)c5nc(c(-c6ccccc6)c6ccc3[nH]6)C=C5)C=C4)cc2)c1)c1ccccc1
REMARK SMILES IDX 25 1 24 2 23 3 22 4 20 5 21 6 19 7 14 8 15 9 16 10 18 11
REMARK SMILES IDX 17 12 12 13 11 14 13 16 10 17 6 18 7 19 82 20 8 21 9 22 4 23
REMARK SMILES IDX 3 24 5 26 2 27 1 28 83 29 84 30 88 31 85 32 87 33 86 34
REMARK SMILES IDX 26 35 27 36 28 37 29 38 30 39 31 40 32 41 33 42 34 43 35 44
REMARK SMILES IDX 81 45 36 46 80 47 37 48 38 49 39 50 74 51 40 52 79 53 73 54
REMARK SMILES IDX 75 55 41 56 78 57 72 58 71 59 42 61 64 62 49 63 63 64 50 65
REMARK SMILES IDX 53 66 62 67 76 68 51 69 52 70 61 72 77 73 54 74 43 75 44 76
REMARK SMILES IDX 48 77 45 78 47 79 46 80 65 81 66 82 70 83 67 84 69 85 68 86
REMARK SMILES IDX 55 87 56 88 60 89 57 90 59 91 58 92
REMARK H PARENT 11 15 3 25 75 60 53 71
REMARK Flexibility Score: inf
ROOT
ATOM      1  O   UNL     1      -1.208   3.710   4.538  1.00  0.00    -0.376 OA
ENDROOT
BRANCH   1   2
ATOM      2  C   UNL     1      -0.674   2.549   3.943  1.00  0.00     0.202 C 
BRANCH   2   3
ATOM      3  C   UNL     1       0.759   2.521   3.404  1.00  0.00     0.261 C 
BRANCH   3   4
ATOM      4  O   UNL     1       1.785   3.292   4.024  1.00  0.00    -0.460 OA
BRANCH   4   5
ATOM      5  C   UNL     1       2.093   4.467   3.446  1.00  0.00     0.339 C 
ATOM      6  O   UNL     1       1.478   5.020   2.553  1.00  0.00    -0.246 OA
BRANCH   5   7
ATOM      7  C   UNL     1       3.221   5.091   4.177  1.00  0.00     0.072 A 
ATOM      8  C   UNL     1       4.344   4.408   4.676  1.00  0.00     0.054 A 
ATOM      9  C   UNL     1       5.294   5.142   5.418  1.00  0.00     0.015 A 
ATOM     10  C   UNL     1       5.157   6.519   5.619  1.00  0.00     0.001 A 
ATOM     11  C   UNL     1       3.100   6.482   4.373  1.00  0.00     0.016 A 
ATOM     12  C   UNL     1       4.062   7.191   5.090  1.00  0.00     0.001 A 
BRANCH   8  13
ATOM     13  C   UNL     1       4.623   2.946   4.586  1.00  0.00     0.256 C 
ATOM     14  N   UNL     1       4.496   2.168   3.451  1.00  0.00    -0.322 N 
ATOM     15  H   UNL     1       4.690   1.214   3.598  1.00  0.00     0.170 HD
ATOM     16  O   UNL     1       4.991   2.384   5.622  1.00  0.00    -0.269 OA
BRANCH  14  17
ATOM     17  C   UNL     1       4.143   2.478   2.128  1.00  0.00     0.042 A 
ATOM     18  C   UNL     1       2.737   1.829   0.256  1.00  0.00     0.041 A 
ATOM     19  C   UNL     1       2.789   3.163  -0.186  1.00  0.00     0.014 A 
ATOM     20  C   UNL     1       3.493   1.478   1.377  1.00  0.00     0.040 A 
ATOM     21  C   UNL     1       3.604   4.104   0.443  1.00  0.00     0.003 A 
ATOM     22  C   UNL     1       4.304   3.751   1.590  1.00  0.00     0.026 A 
BRANCH  18  23
ATOM     23  C   UNL     1       1.988   0.892  -0.618  1.00  0.00     0.251 C 
ATOM     24  N   UNL     1       1.157  -0.136  -0.277  1.00  0.00    -0.346 N 
ATOM     25  H   UNL     1       0.878  -0.590  -1.105  1.00  0.00     0.164 HD
ATOM     26  O   UNL     1       2.115   1.079  -1.835  1.00  0.00    -0.269 OA
BRANCH  24  27
ATOM     27  C   UNL     1       0.522  -0.822   0.854  1.00  0.00     0.109 C 
ATOM     28  C   UNL     1       1.124  -0.695   2.236  1.00  0.00     0.036 C 
BRANCH  27  29
ATOM     29  C   UNL     1      -0.989  -0.635   0.920  1.00  0.00    -0.026 A 
ATOM     30  C   UNL     1      -1.604   0.621   0.870  1.00  0.00     0.006 A 
ATOM     31  C   UNL     1      -1.797  -1.764   1.168  1.00  0.00     0.006 A 
ATOM     32  C   UNL     1      -2.981   0.746   1.105  1.00  0.00     0.000 A 
ATOM     33  C   UNL     1      -3.168  -1.639   1.393  1.00  0.00     0.000 A 
ATOM     34  C   UNL     1      -3.759  -0.380   1.375  1.00  0.00     0.000 A 
ENDBRANCH  27  29
ENDBRANCH  24  27
ENDBRANCH  18  23
ENDBRANCH  14  17
ENDBRANCH   8  13
ENDBRANCH   5   7
ENDBRANCH   4   5
ENDBRANCH   3   4
ENDBRANCH   2   3
ENDBRANCH   1   2
BRANCH   1  35
ATOM     35  C   UNL     1      -0.376   4.498   5.368  1.00  0.00     0.188 C 
BRANCH  35  36
ATOM     36  C   UNL     1       0.532   3.818   6.421  1.00  0.00     0.188 C 
BRANCH  36  37
ATOM     37  O   UNL     1       0.432   2.408   6.405  1.00  0.00    -0.376 OA
BRANCH  37  38
ATOM     38  C   UNL     1      -0.259   1.808   7.487  1.00  0.00     0.202 C 
BRANCH  38  39
ATOM     39  C   UNL     1      -1.688   2.274   7.838  1.00  0.00     0.261 C 
BRANCH  39  40
ATOM     40  O   UNL     1      -2.000   3.671   7.679  1.00  0.00    -0.460 OA
BRANCH  40  41
ATOM     41  C   UNL     1      -1.630   4.544   8.645  1.00  0.00     0.338 C 
ATOM     42  O   UNL     1      -1.042   4.282   9.682  1.00  0.00    -0.246 OA
BRANCH  41  43
ATOM     43  C   UNL     1      -1.836   5.918   8.110  1.00  0.00     0.060 A 
ATOM     44  C   UNL     1      -0.722   6.755   7.922  1.00  0.00     0.016 A 
ATOM     45  C   UNL     1      -3.097   6.333   7.673  1.00  0.00     0.016 A 
ATOM     46  C   UNL     1      -0.867   7.999   7.296  1.00  0.00     0.010 A 
ATOM     47  C   UNL     1      -3.247   7.597   7.086  1.00  0.00     0.010 A 
ATOM     48  C   UNL     1      -2.138   8.445   6.910  1.00  0.00    -0.014 A 
BRANCH  48  49
ATOM     49  C   UNL     1      -2.349   9.870   6.538  1.00  0.00     0.031 A 
ATOM     50  C   UNL     1      -2.778  10.818   7.627  1.00  0.00     0.074 A 
ATOM     51  C   UNL     1      -2.183  10.326   5.283  1.00  0.00     0.049 A 
ATOM     52  N   UNL     1      -3.102  12.083   7.552  1.00  0.00    -0.248 NA
ATOM     53  C   UNL     1      -2.853  10.255   8.987  1.00  0.00     0.031 C 
ATOM     54  C   UNL     1      -1.731   9.537   4.140  1.00  0.00     0.029 A 
ATOM     55  N   UNL     1      -2.397  11.582   4.760  1.00  0.00    -0.354 N 
ATOM     56  C   UNL     1      -3.436  12.461   8.847  1.00  0.00     0.074 A 
ATOM     57  C   UNL     1      -3.292  11.291   9.684  1.00  0.00     0.031 C 
ATOM     58  C   UNL     1      -1.722  10.320   3.045  1.00  0.00     0.029 A 
ATOM     59  C   UNL     1      -2.204  11.656   3.401  1.00  0.00     0.049 A 
ATOM     60  H   UNL     1      -2.663  12.355   5.309  1.00  0.00     0.167 HD
ATOM     61  C   UNL     1      -3.832  13.672   9.302  1.00  0.00     0.031 A 
ATOM     62  C   UNL     1      -2.423  12.672   2.540  1.00  0.00     0.031 A 
ATOM     63  C   UNL     1      -3.994  14.836   8.474  1.00  0.00     0.049 A 
ATOM     64  C   UNL     1      -2.944  13.991   3.061  1.00  0.00     0.074 A 
ATOM     65  C   UNL     1      -4.363  16.114   8.852  1.00  0.00     0.029 A 
ATOM     66  N   UNL     1      -3.814  14.859   7.101  1.00  0.00    -0.354 N 
ATOM     67  N   UNL     1      -3.209  14.350   4.294  1.00  0.00    -0.248 NA
ATOM     68  C   UNL     1      -3.191  15.048   2.067  1.00  0.00     0.031 C 
ATOM     69  C   UNL     1      -4.478  16.894   7.698  1.00  0.00     0.029 A 
ATOM     70  C   UNL     1      -4.105  16.120   6.611  1.00  0.00     0.049 A 
ATOM     71  H   UNL     1      -3.524  14.092   6.555  1.00  0.00     0.167 HD
ATOM     72  C   UNL     1      -3.624  15.677   4.225  1.00  0.00     0.074 A 
ATOM     73  C   UNL     1      -3.554  16.066   2.833  1.00  0.00     0.031 C 
ATOM     74  C   UNL     1      -4.029  16.499   5.224  1.00  0.00     0.031 A 
BRANCH  61  75
ATOM     75  C   UNL     1      -4.164  13.793  10.762  1.00  0.00    -0.014 A 
ATOM     76  C   UNL     1      -3.166  13.756  11.748  1.00  0.00     0.009 A 
ATOM     77  C   UNL     1      -5.497  14.000  11.151  1.00  0.00     0.009 A 
ATOM     78  C   UNL     1      -3.501  13.901  13.097  1.00  0.00     0.001 A 
ATOM     79  C   UNL     1      -5.825  14.175  12.496  1.00  0.00     0.001 A 
ATOM     80  C   UNL     1      -4.828  14.118  13.468  1.00  0.00     0.000 A 
ENDBRANCH  61  75
BRANCH  62  81
ATOM     81  C   UNL     1      -2.205  12.487   1.077  1.00  0.00    -0.014 A 
ATOM     82  C   UNL     1      -1.212  13.210   0.396  1.00  0.00     0.009 A 
ATOM     83  C   UNL     1      -3.035  11.627   0.340  1.00  0.00     0.009 A 
ATOM     84  C   UNL     1      -1.081  13.104  -0.992  1.00  0.00     0.001 A 
ATOM     85  C   UNL     1      -2.879  11.495  -1.042  1.00  0.00     0.001 A 
ATOM     86  C   UNL     1      -1.911  12.244  -1.709  1.00  0.00     0.000 A 
ENDBRANCH  62  81
BRANCH  74  87
ATOM     87  C   UNL     1      -4.390  17.915   4.862  1.00  0.00    -0.014 A 
ATOM     88  C   UNL     1      -5.552  18.213   4.133  1.00  0.00     0.009 A 
ATOM     89  C   UNL     1      -3.577  18.972   5.303  1.00  0.00     0.009 A 
ATOM     90  C   UNL     1      -5.871  19.538   3.823  1.00  0.00     0.001 A 
ATOM     91  C   UNL     1      -3.917  20.296   5.022  1.00  0.00     0.001 A 
ATOM     92  C   UNL     1      -5.058  20.577   4.272  1.00  0.00     0.000 A 
ENDBRANCH  74  87
ENDBRANCH  48  49
ENDBRANCH  41  43
ENDBRANCH  40  41
ENDBRANCH  39  40
ENDBRANCH  38  39
ENDBRANCH  37  38
ENDBRANCH  36  37
ENDBRANCH  35  36
ENDBRANCH   1  35
TORSDOF 22
