REMARK SMILES C/C(=C\C(=O)c1c(O)n(C)c2ccccc2c1=O)Nc1ccc(C(=O)OCCOCCOCCOC(=O)c2ccc(-c3c4nc(c(-c5ccccc5)c5ccc([nH]5)c(-c5ccccc5)c5nc(c(-c6ccccc6)c6ccc3[nH]6)C=C5)C=C4)cc2)cc1
REMARK SMILES IDX 29 1 28 2 27 3 26 4 24 5 25 6 23 7 20 8 21 9 87 10 22 11
REMARK SMILES IDX 86 12 19 13 2 15 1 16 3 17 4 18 5 19 6 20 7 21 17 22 9 23
REMARK SMILES IDX 16 24 18 25 10 26 11 27 15 28 12 29 14 30 13 31 8 32 30 34
REMARK SMILES IDX 31 35 32 36 33 37 34 38 35 39 36 40 37 41 38 42 39 43 85 44
REMARK SMILES IDX 40 45 84 46 41 47 42 48 43 49 78 50 44 51 83 52 77 53 79 54
REMARK SMILES IDX 45 55 82 56 76 57 75 58 46 60 68 61 53 62 67 63 54 64 57 65
REMARK SMILES IDX 66 66 80 67 55 68 56 69 65 71 81 72 58 73 47 74 48 75 52 76
REMARK SMILES IDX 49 77 51 78 50 79 69 80 70 81 74 82 71 83 73 84 72 85 59 86
REMARK SMILES IDX 60 87 64 88 61 89 63 90 62 91
REMARK H PARENT 19 14 8 33 79 59 57 70
REMARK Flexibility Score: inf
ROOT
ATOM      1  O   UNL     1       3.958  -4.483  -5.565  1.00  0.00    -0.376 OA
ENDROOT
BRANCH   1   2
ATOM      2  C   UNL     1       4.246  -5.862  -5.391  1.00  0.00     0.202 C 
BRANCH   2   3
ATOM      3  C   UNL     1       4.332  -6.597  -4.040  1.00  0.00     0.261 C 
BRANCH   3   4
ATOM      4  O   UNL     1       3.593  -6.045  -2.946  1.00  0.00    -0.460 OA
BRANCH   4   5
ATOM      5  C   UNL     1       4.347  -5.629  -1.894  1.00  0.00     0.338 C 
ATOM      6  O   UNL     1       5.559  -5.719  -1.787  1.00  0.00    -0.246 OA
BRANCH   5   7
ATOM      7  C   UNL     1       3.524  -4.827  -0.960  1.00  0.00     0.060 A 
ATOM      8  C   UNL     1       2.020  -3.098   0.694  1.00  0.00     0.038 A 
ATOM      9  C   UNL     1       3.352  -2.816   0.381  1.00  0.00     0.027 A 
ATOM     10  C   UNL     1       1.466  -4.289   0.192  1.00  0.00     0.027 A 
ATOM     11  C   UNL     1       4.097  -3.663  -0.443  1.00  0.00     0.018 A 
ATOM     12  C   UNL     1       2.208  -5.154  -0.629  1.00  0.00     0.018 A 
BRANCH   8  13
ATOM     13  N   UNL     1       1.199  -2.218   1.428  1.00  0.00    -0.359 N 
ATOM     14  H   UNL     1       0.706  -2.636   2.170  1.00  0.00     0.166 HD
BRANCH  13  15
ATOM     15  C   UNL     1       0.973  -0.844   1.270  1.00  0.00     0.016 C 
ATOM     16  C   UNL     1       1.800  -0.099   0.245  1.00  0.00     0.064 C 
ATOM     17  C   UNL     1      -0.018  -0.261   1.988  1.00  0.00     0.074 C 
BRANCH  17  18
ATOM     18  C   UNL     1      -0.670   1.095   1.941  1.00  0.00     0.196 C 
ATOM     19  O   UNL     1      -1.477   1.397   2.817  1.00  0.00    -0.289 OA
BRANCH  18  20
ATOM     20  C   UNL     1      -0.473   1.958   0.760  1.00  0.00     0.130 A 
ATOM     21  C   UNL     1      -0.816   1.524  -0.470  1.00  0.00     0.206 A 
ATOM     22  C   UNL     1       0.244   3.247   0.891  1.00  0.00     0.204 A 
ATOM     23  N   UNL     1      -0.390   2.139  -1.642  1.00  0.00    -0.315 N 
ATOM     24  C   UNL     1       0.595   3.966  -0.354  1.00  0.00     0.047 A 
ATOM     25  O   UNL     1       0.587   3.686   1.983  1.00  0.00    -0.288 OA
ATOM     26  C   UNL     1      -0.485   1.470  -2.942  1.00  0.00     0.153 C 
ATOM     27  C   UNL     1       0.304   3.373  -1.597  1.00  0.00     0.055 A 
ATOM     28  C   UNL     1       1.270   5.193  -0.260  1.00  0.00     0.014 A 
ATOM     29  C   UNL     1       0.740   4.056  -2.744  1.00  0.00     0.027 A 
ATOM     30  C   UNL     1       1.689   5.844  -1.414  1.00  0.00     0.001 A 
ATOM     31  C   UNL     1       1.430   5.271  -2.652  1.00  0.00     0.002 A 
BRANCH  21  32
ATOM     32  O   UNL     1      -1.559   0.370  -0.653  1.00  0.00    -0.494 OA
ATOM     33  H   UNL     1      -1.882  -0.101   0.090  1.00  0.00     0.295 HD
ENDBRANCH  21  32
ENDBRANCH  18  20
ENDBRANCH  17  18
ENDBRANCH  13  15
ENDBRANCH   8  13
ENDBRANCH   5   7
ENDBRANCH   4   5
ENDBRANCH   3   4
ENDBRANCH   2   3
ENDBRANCH   1   2
BRANCH   1  34
ATOM     34  C   UNL     1       3.462  -3.711  -4.497  1.00  0.00     0.188 C 
BRANCH  34  35
ATOM     35  C   UNL     1       1.970  -3.837  -4.125  1.00  0.00     0.188 C 
BRANCH  35  36
ATOM     36  O   UNL     1       1.182  -4.894  -4.635  1.00  0.00    -0.376 OA
BRANCH  36  37
ATOM     37  C   UNL     1       1.000  -5.024  -6.038  1.00  0.00     0.202 C 
BRANCH  37  38
ATOM     38  C   UNL     1       0.760  -3.818  -6.959  1.00  0.00     0.261 C 
BRANCH  38  39
ATOM     39  O   UNL     1       1.633  -2.700  -6.760  1.00  0.00    -0.460 OA
BRANCH  39  40
ATOM     40  C   UNL     1       1.039  -1.575  -6.299  1.00  0.00     0.338 C 
ATOM     41  O   UNL     1      -0.140  -1.402  -6.028  1.00  0.00    -0.246 OA
BRANCH  40  42
ATOM     42  C   UNL     1       2.078  -0.584  -5.982  1.00  0.00     0.060 A 
ATOM     43  C   UNL     1       2.823   0.008  -6.998  1.00  0.00     0.016 A 
ATOM     44  C   UNL     1       2.271  -0.216  -4.644  1.00  0.00     0.016 A 
ATOM     45  C   UNL     1       3.753   0.996  -6.670  1.00  0.00     0.010 A 
ATOM     46  C   UNL     1       3.198   0.772  -4.318  1.00  0.00     0.010 A 
ATOM     47  C   UNL     1       3.931   1.399  -5.332  1.00  0.00    -0.014 A 
BRANCH  47  48
ATOM     48  C   UNL     1       4.783   2.570  -5.018  1.00  0.00     0.031 A 
ATOM     49  C   UNL     1       6.123   2.414  -4.367  1.00  0.00     0.074 A 
ATOM     50  C   UNL     1       4.320   3.795  -5.331  1.00  0.00     0.049 A 
ATOM     51  N   UNL     1       7.028   3.331  -4.138  1.00  0.00    -0.248 NA
ATOM     52  C   UNL     1       6.501   1.065  -3.920  1.00  0.00     0.031 C 
ATOM     53  C   UNL     1       3.021   4.067  -5.951  1.00  0.00     0.029 A 
ATOM     54  N   UNL     1       4.890   5.034  -5.191  1.00  0.00    -0.354 N 
ATOM     55  C   UNL     1       8.099   2.668  -3.555  1.00  0.00     0.074 A 
ATOM     56  C   UNL     1       7.704   1.283  -3.403  1.00  0.00     0.031 C 
ATOM     57  C   UNL     1       2.910   5.385  -6.173  1.00  0.00     0.029 A 
ATOM     58  C   UNL     1       4.111   6.054  -5.679  1.00  0.00     0.049 A 
ATOM     59  H   UNL     1       5.772   5.179  -4.779  1.00  0.00     0.167 HD
ATOM     60  C   UNL     1       9.310   3.168  -3.210  1.00  0.00     0.031 A 
ATOM     61  C   UNL     1       4.334   7.381  -5.734  1.00  0.00     0.031 A 
ATOM     62  C   UNL     1       9.679   4.555  -3.338  1.00  0.00     0.049 A 
ATOM     63  C   UNL     1       5.655   7.923  -5.269  1.00  0.00     0.074 A 
ATOM     64  C   UNL     1      10.897   5.147  -3.052  1.00  0.00     0.029 A 
ATOM     65  N   UNL     1       8.836   5.568  -3.772  1.00  0.00    -0.354 N 
ATOM     66  N   UNL     1       6.692   7.271  -4.804  1.00  0.00    -0.248 NA
ATOM     67  C   UNL     1       5.848   9.377  -5.362  1.00  0.00     0.031 C 
ATOM     68  C   UNL     1      10.768   6.525  -3.235  1.00  0.00     0.029 A 
ATOM     69  C   UNL     1       9.496   6.785  -3.721  1.00  0.00     0.049 A 
ATOM     70  H   UNL     1       7.907   5.441  -4.072  1.00  0.00     0.167 HD
ATOM     71  C   UNL     1       7.674   8.228  -4.580  1.00  0.00     0.074 A 
ATOM     72  C   UNL     1       7.110   9.504  -4.969  1.00  0.00     0.031 C 
ATOM     73  C   UNL     1       8.930   8.056  -4.102  1.00  0.00     0.031 A 
BRANCH  60  74
ATOM     74  C   UNL     1      10.347   2.216  -2.677  1.00  0.00    -0.014 A 
ATOM     75  C   UNL     1      10.824   2.355  -1.363  1.00  0.00     0.009 A 
ATOM     76  C   UNL     1      10.942   1.258  -3.514  1.00  0.00     0.009 A 
ATOM     77  C   UNL     1      11.886   1.571  -0.906  1.00  0.00     0.001 A 
ATOM     78  C   UNL     1      11.982   0.453  -3.045  1.00  0.00     0.001 A 
ATOM     79  C   UNL     1      12.461   0.618  -1.746  1.00  0.00     0.000 A 
ENDBRANCH  60  74
BRANCH  61  80
ATOM     80  C   UNL     1       3.289   8.264  -6.314  1.00  0.00    -0.014 A 
ATOM     81  C   UNL     1       2.068   8.460  -5.646  1.00  0.00     0.009 A 
ATOM     82  C   UNL     1       3.475   8.855  -7.572  1.00  0.00     0.009 A 
ATOM     83  C   UNL     1       1.044   9.200  -6.241  1.00  0.00     0.001 A 
ATOM     84  C   UNL     1       2.461   9.623  -8.149  1.00  0.00     0.001 A 
ATOM     85  C   UNL     1       1.243   9.783  -7.490  1.00  0.00     0.000 A 
ENDBRANCH  61  80
BRANCH  73  86
ATOM     86  C   UNL     1       9.812   9.270  -3.971  1.00  0.00    -0.014 A 
ATOM     87  C   UNL     1      10.966   9.382  -4.765  1.00  0.00     0.009 A 
ATOM     88  C   UNL     1       9.572  10.240  -2.986  1.00  0.00     0.009 A 
ATOM     89  C   UNL     1      11.873  10.422  -4.560  1.00  0.00     0.001 A 
ATOM     90  C   UNL     1      10.464  11.300  -2.806  1.00  0.00     0.001 A 
ATOM     91  C   UNL     1      11.620  11.382  -3.583  1.00  0.00     0.000 A 
ENDBRANCH  73  86
ENDBRANCH  47  48
ENDBRANCH  40  42
ENDBRANCH  39  40
ENDBRANCH  38  39
ENDBRANCH  37  38
ENDBRANCH  36  37
ENDBRANCH  35  36
ENDBRANCH  34  35
ENDBRANCH   1  34
TORSDOF 22
