REMARK SMILES O=C(OCCOCCOCCOC(=O)[C@H]1CC2=c3ccccc3=N[C@H]2[C@@H](c2ccccc2)[NH2+]1)c1ccc(-c2c3nc(c(-c4ccccc4)c4ccc([nH]4)c(-c4ccccc4)c4nc(c(-c5ccccc5)c5ccc2[nH]5)C=C4)C=C3)cc1
REMARK SMILES IDX 7 1 6 2 5 3 4 4 3 5 2 6 1 7 34 8 35 9 81 10 36 11 80 12
REMARK SMILES IDX 37 13 38 14 39 15 74 16 40 17 79 18 73 19 75 20 41 21 78 22
REMARK SMILES IDX 72 23 71 24 42 26 64 27 49 28 63 29 50 30 53 31 62 32 76 33
REMARK SMILES IDX 51 34 52 35 61 37 77 38 54 39 43 40 44 41 48 42 45 43 47 44
REMARK SMILES IDX 46 45 65 46 66 47 70 48 67 49 69 50 68 51 55 52 56 53 60 54
REMARK SMILES IDX 57 55 59 56 58 57 8 58 9 59 10 60 11 61 12 62 13 63 14 64
REMARK SMILES IDX 15 65 16 66 33 67 17 68 26 69 18 72 25 73 19 74 23 75 24 76
REMARK SMILES IDX 20 77 22 78 21 79 27 80 28 81 32 82 29 83 31 84 30 85
REMARK H PARENT 75 25 53 36 33 70 33 71
REMARK Flexibility Score: inf
ROOT
ATOM      1  C   UNL     1       2.726  -0.581   1.807  1.00  0.00     0.188 C 
ENDROOT
BRANCH   1   2
ATOM      2  O   UNL     1       3.885  -0.103   2.477  1.00  0.00    -0.376 OA
BRANCH   2   3
ATOM      3  C   UNL     1       4.913   0.547   1.735  1.00  0.00     0.202 C 
BRANCH   3   4
ATOM      4  C   UNL     1       4.546   1.749   0.860  1.00  0.00     0.261 C 
BRANCH   4   5
ATOM      5  O   UNL     1       3.242   1.733   0.255  1.00  0.00    -0.460 OA
BRANCH   5   6
ATOM      6  C   UNL     1       2.798   1.270  -0.922  1.00  0.00     0.338 C 
ATOM      7  O   UNL     1       1.697   1.628  -1.337  1.00  0.00    -0.246 OA
BRANCH   6   8
ATOM      8  C   UNL     1       3.487   0.243  -1.729  1.00  0.00     0.060 A 
ATOM      9  C   UNL     1       2.889   0.172  -3.430  1.00  0.00     0.016 A 
ATOM     10  C   UNL     1       4.431  -1.076  -1.002  1.00  0.00     0.016 A 
ATOM     11  C   UNL     1       3.175  -1.217  -4.520  1.00  0.00     0.010 A 
ATOM     12  C   UNL     1       4.811  -2.543  -1.994  1.00  0.00     0.010 A 
ATOM     13  C   UNL     1       4.176  -2.636  -3.922  1.00  0.00    -0.014 A 
BRANCH  13  14
ATOM     14  C   UNL     1       4.549  -3.410  -5.266  1.00  0.00     0.031 A 
ATOM     15  C   UNL     1       4.287  -4.864  -5.489  1.00  0.00     0.074 A 
ATOM     16  C   UNL     1       5.237  -2.773  -6.240  1.00  0.00     0.049 A 
ATOM     17  N   UNL     1       5.114  -5.811  -5.841  1.00  0.00    -0.248 NA
ATOM     18  C   UNL     1       2.929  -5.316  -5.218  1.00  0.00     0.031 C 
ATOM     19  C   UNL     1       5.479  -1.333  -6.353  1.00  0.00     0.029 A 
ATOM     20  N   UNL     1       5.924  -3.298  -7.305  1.00  0.00    -0.354 N 
ATOM     21  C   UNL     1       4.442  -7.008  -5.567  1.00  0.00     0.074 A 
ATOM     22  C   UNL     1       3.109  -6.634  -5.174  1.00  0.00     0.031 C 
ATOM     23  C   UNL     1       6.260  -1.088  -7.407  1.00  0.00     0.029 A 
ATOM     24  C   UNL     1       6.656  -2.357  -7.986  1.00  0.00     0.049 A 
ATOM     25  H   UNL     1       5.895  -4.250  -7.555  1.00  0.00     0.167 HD
ATOM     26  C   UNL     1       4.966  -8.260  -5.637  1.00  0.00     0.031 A 
ATOM     27  C   UNL     1       7.587  -2.501  -8.944  1.00  0.00     0.031 A 
ATOM     28  C   UNL     1       6.017  -8.504  -6.603  1.00  0.00     0.049 A 
ATOM     29  C   UNL     1       7.898  -3.891  -9.389  1.00  0.00     0.074 A 
ATOM     30  C   UNL     1       6.454  -9.714  -7.111  1.00  0.00     0.029 A 
ATOM     31  N   UNL     1       6.633  -7.507  -7.348  1.00  0.00    -0.354 N 
ATOM     32  N   UNL     1       7.533  -5.019  -8.825  1.00  0.00    -0.248 NA
ATOM     33  C   UNL     1       8.697  -4.046 -10.605  1.00  0.00     0.031 C 
ATOM     34  C   UNL     1       7.289  -9.447  -8.190  1.00  0.00     0.029 A 
ATOM     35  C   UNL     1       7.329  -8.074  -8.391  1.00  0.00     0.049 A 
ATOM     36  H   UNL     1       6.579  -6.542  -7.159  1.00  0.00     0.167 HD
ATOM     37  C   UNL     1       8.030  -6.024  -9.637  1.00  0.00     0.074 A 
ATOM     38  C   UNL     1       8.710  -5.368 -10.738  1.00  0.00     0.031 C 
ATOM     39  C   UNL     1       7.946  -7.365  -9.482  1.00  0.00     0.031 A 
BRANCH  26  40
ATOM     40  C   UNL     1       4.416  -9.477  -4.895  1.00  0.00    -0.014 A 
ATOM     41  C   UNL     1       5.344 -10.386  -4.324  1.00  0.00     0.009 A 
ATOM     42  C   UNL     1       3.071  -9.854  -4.844  1.00  0.00     0.009 A 
ATOM     43  C   UNL     1       4.954 -11.631  -3.813  1.00  0.00     0.001 A 
ATOM     44  C   UNL     1       2.666 -11.057  -4.244  1.00  0.00     0.001 A 
ATOM     45  C   UNL     1       3.608 -11.960  -3.760  1.00  0.00     0.000 A 
ENDBRANCH  26  40
BRANCH  27  46
ATOM     46  C   UNL     1       8.100  -1.262  -9.582  1.00  0.00    -0.014 A 
ATOM     47  C   UNL     1       8.934  -0.372  -8.880  1.00  0.00     0.009 A 
ATOM     48  C   UNL     1       7.495  -0.830 -10.771  1.00  0.00     0.009 A 
ATOM     49  C   UNL     1       9.085   0.948  -9.319  1.00  0.00     0.001 A 
ATOM     50  C   UNL     1       7.672   0.480 -11.220  1.00  0.00     0.001 A 
ATOM     51  C   UNL     1       8.444   1.374 -10.482  1.00  0.00     0.000 A 
ENDBRANCH  27  46
BRANCH  39  52
ATOM     52  C   UNL     1       8.585  -8.242 -10.511  1.00  0.00    -0.014 A 
ATOM     53  C   UNL     1       7.780  -9.065 -11.317  1.00  0.00     0.009 A 
ATOM     54  C   UNL     1       9.967  -8.461 -10.448  1.00  0.00     0.009 A 
ATOM     55  C   UNL     1       8.347 -10.148 -11.985  1.00  0.00     0.001 A 
ATOM     56  C   UNL     1      10.531  -9.527 -11.143  1.00  0.00     0.001 A 
ATOM     57  C   UNL     1       9.719 -10.383 -11.888  1.00  0.00     0.000 A 
ENDBRANCH  39  52
ENDBRANCH  13  14
ENDBRANCH   6   8
ENDBRANCH   5   6
ENDBRANCH   4   5
ENDBRANCH   3   4
ENDBRANCH   2   3
ENDBRANCH   1   2
BRANCH   1  58
ATOM     58  C   UNL     1       1.833  -1.473   2.665  1.00  0.00     0.188 C 
BRANCH  58  59
ATOM     59  O   UNL     1       2.392  -2.176   3.755  1.00  0.00    -0.376 OA
BRANCH  59  60
ATOM     60  C   UNL     1       3.701  -2.715   3.695  1.00  0.00     0.202 C 
BRANCH  60  61
ATOM     61  C   UNL     1       4.181  -3.486   2.458  1.00  0.00     0.261 C 
BRANCH  61  62
ATOM     62  O   UNL     1       3.223  -3.777   1.438  1.00  0.00    -0.459 OA
BRANCH  62  63
ATOM     63  C   UNL     1       2.228  -4.628   1.813  1.00  0.00     0.365 C 
ATOM     64  O   UNL     1       1.990  -4.963   2.967  1.00  0.00    -0.245 OA
BRANCH  63  65
ATOM     65  C   UNL     1       1.635  -5.337   0.590  1.00  0.00     0.298 C 
ATOM     66  C   UNL     1       1.355  -4.432  -0.648  1.00  0.00     0.111 C 
ATOM     67  N   UNL     1       2.504  -6.517   0.390  1.00  0.00    -0.326 N 
ATOM     68  C   UNL     1       2.411  -4.558  -1.692  1.00  0.00    -0.024 C 
ATOM     69  C   UNL     1       2.517  -7.006  -0.984  1.00  0.00     0.243 C 
ATOM     70  H   UNL     1       2.174  -7.268   0.997  1.00  0.00     0.347 HD
ATOM     71  H   UNL     1       3.457  -6.229   0.614  1.00  0.00     0.347 HD
ATOM     72  C   UNL     1       3.076  -3.630  -2.360  1.00  0.00     0.002 A 
ATOM     73  C   UNL     1       2.991  -5.933  -1.996  1.00  0.00     0.196 C 
ATOM     74  C   UNL     1       3.162  -1.806  -2.515  1.00  0.00     0.010 A 
ATOM     75  C   UNL     1       4.622  -4.570  -2.714  1.00  0.00     0.066 A 
ATOM     76  N   UNL     1       4.479  -5.800  -2.304  1.00  0.00    -0.270 NA
ATOM     77  C   UNL     1       4.750  -1.013  -3.092  1.00  0.00     0.001 A 
ATOM     78  C   UNL     1       6.184  -3.635  -3.278  1.00  0.00     0.028 A 
ATOM     79  C   UNL     1       6.261  -2.118  -3.432  1.00  0.00     0.002 A 
BRANCH  69  80
ATOM     80  C   UNL     1       3.157  -8.376  -0.987  1.00  0.00     0.012 A 
ATOM     81  C   UNL     1       4.537  -8.572  -1.089  1.00  0.00     0.010 A 
ATOM     82  C   UNL     1       2.340  -9.490  -0.713  1.00  0.00     0.010 A 
ATOM     83  C   UNL     1       5.090  -9.839  -0.907  1.00  0.00     0.001 A 
ATOM     84  C   UNL     1       2.892 -10.755  -0.528  1.00  0.00     0.001 A 
ATOM     85  C   UNL     1       4.270 -10.925  -0.614  1.00  0.00     0.000 A 
ENDBRANCH  69  80
ENDBRANCH  63  65
ENDBRANCH  62  63
ENDBRANCH  61  62
ENDBRANCH  60  61
ENDBRANCH  59  60
ENDBRANCH  58  59
ENDBRANCH   1  58
TORSDOF 18
