REMARK SMILES CCCCCCNC(=O)Oc1cccc(-c2ccc([C@H](C)C(=O)OCCOCCOCCOC(=O)c3ccc(-c4c5nc(c(-c6ccccc6)c6ccc([nH]6)c(-c6ccccc6)c6nc(c(-c7ccccc7)c7ccc4[nH]7)C=C6)C=C5)cc3)cc2F)c1
REMARK SMILES IDX 25 1 24 2 22 3 23 4 20 5 21 6 19 7 16 8 17 9 85 10 18 11
REMARK SMILES IDX 84 12 86 13 15 14 11 15 12 16 87 17 13 18 14 19 10 20 8 21
REMARK SMILES IDX 7 22 9 24 6 25 5 26 4 27 3 28 2 29 1 30 26 31 27 32 28 33
REMARK SMILES IDX 29 34 30 35 31 36 32 37 33 38 34 39 35 40 36 41 37 42 83 43
REMARK SMILES IDX 38 44 82 45 39 46 40 47 41 48 76 49 42 50 81 51 75 52 77 53
REMARK SMILES IDX 43 54 80 55 74 56 73 57 44 59 66 60 51 61 65 62 52 63 55 64
REMARK SMILES IDX 64 65 78 66 53 67 54 68 63 70 79 71 56 72 45 73 46 74 50 75
REMARK SMILES IDX 47 76 49 77 48 78 67 79 68 80 72 81 69 82 71 83 70 84 57 85
REMARK SMILES IDX 58 86 62 87 59 88 61 89 60 90
REMARK H PARENT 7 23 77 58 55 69
REMARK Flexibility Score: inf
ROOT
ATOM      1  C   UNL     1      -2.014  -9.079  13.101  1.00  0.00     0.261 C 
ENDROOT
BRANCH   1   2
ATOM      2  O   UNL     1      -3.015  -8.291  12.422  1.00  0.00    -0.463 OA
BRANCH   2   3
ATOM      3  C   UNL     1      -3.453  -7.189  13.085  1.00  0.00     0.313 C 
ATOM      4  O   UNL     1      -3.048  -6.850  14.195  1.00  0.00    -0.252 OA
BRANCH   3   5
ATOM      5  C   UNL     1      -4.562  -6.404  12.365  1.00  0.00     0.126 C 
ATOM      6  C   UNL     1      -4.701  -6.425  10.837  1.00  0.00     0.025 C 
BRANCH   5   7
ATOM      7  C   UNL     1      -5.871  -6.804  12.991  1.00  0.00    -0.031 A 
ATOM      8  C   UNL     1      -8.254  -7.569  14.221  1.00  0.00     0.018 A 
ATOM      9  C   UNL     1      -7.728  -8.333  13.171  1.00  0.00     0.012 A 
ATOM     10  C   UNL     1      -7.563  -6.426  14.644  1.00  0.00     0.131 A 
ATOM     11  C   UNL     1      -6.538  -7.961  12.567  1.00  0.00     0.005 A 
ATOM     12  C   UNL     1      -6.382  -6.038  14.040  1.00  0.00     0.044 A 
ATOM     13  F   UNL     1      -8.035  -5.671  15.648  1.00  0.00    -0.206 F 
BRANCH   8  14
ATOM     14  C   UNL     1      -9.528  -7.941  14.818  1.00  0.00    -0.012 A 
ATOM     15  C   UNL     1     -11.811  -7.370  15.345  1.00  0.00     0.133 A 
ATOM     16  C   UNL     1     -12.015  -8.626  15.909  1.00  0.00     0.047 A 
ATOM     17  C   UNL     1     -10.575  -7.016  14.823  1.00  0.00     0.056 A 
ATOM     18  C   UNL     1     -10.974  -9.554  15.915  1.00  0.00     0.004 A 
ATOM     19  C   UNL     1      -9.738  -9.214  15.366  1.00  0.00     0.009 A 
BRANCH  15  20
ATOM     20  O   UNL     1     -12.848  -6.434  15.438  1.00  0.00    -0.410 OA
BRANCH  20  21
ATOM     21  C   UNL     1     -13.071  -5.593  14.356  1.00  0.00     0.412 C 
ATOM     22  N   UNL     1     -13.809  -4.493  14.690  1.00  0.00    -0.321 N 
ATOM     23  H   UNL     1     -14.043  -3.875  13.960  1.00  0.00     0.167 HD
ATOM     24  O   UNL     1     -12.673  -5.761  13.211  1.00  0.00    -0.224 OA
BRANCH  22  25
ATOM     25  C   UNL     1     -14.277  -4.153  16.015  1.00  0.00     0.119 C 
BRANCH  25  26
ATOM     26  C   UNL     1     -13.869  -2.737  16.418  1.00  0.00     0.021 C 
BRANCH  26  27
ATOM     27  C   UNL     1     -14.461  -1.628  15.542  1.00  0.00     0.002 C 
BRANCH  27  28
ATOM     28  C   UNL     1     -15.989  -1.627  15.434  1.00  0.00    -0.000 C 
BRANCH  28  29
ATOM     29  C   UNL     1     -16.737  -1.526  16.765  1.00  0.00    -0.003 C 
ATOM     30  C   UNL     1     -16.460  -0.228  17.508  1.00  0.00     0.004 C 
ENDBRANCH  28  29
ENDBRANCH  27  28
ENDBRANCH  26  27
ENDBRANCH  25  26
ENDBRANCH  22  25
ENDBRANCH  20  21
ENDBRANCH  15  20
ENDBRANCH   8  14
ENDBRANCH   5   7
ENDBRANCH   3   5
ENDBRANCH   2   3
ENDBRANCH   1   2
BRANCH   1  31
ATOM     31  C   UNL     1      -0.576  -8.963  12.568  1.00  0.00     0.202 C 
BRANCH  31  32
ATOM     32  O   UNL     1       0.049  -7.686  12.522  1.00  0.00    -0.376 OA
BRANCH  32  33
ATOM     33  C   UNL     1      -0.552  -6.620  11.798  1.00  0.00     0.188 C 
BRANCH  33  34
ATOM     34  C   UNL     1      -1.365  -6.923  10.533  1.00  0.00     0.188 C 
BRANCH  34  35
ATOM     35  O   UNL     1      -1.265  -8.242  10.059  1.00  0.00    -0.376 OA
BRANCH  35  36
ATOM     36  C   UNL     1      -0.648  -8.454   8.806  1.00  0.00     0.202 C 
BRANCH  36  37
ATOM     37  C   UNL     1       0.745  -7.851   8.562  1.00  0.00     0.261 C 
BRANCH  37  38
ATOM     38  O   UNL     1       0.962  -6.505   9.024  1.00  0.00    -0.460 OA
BRANCH  38  39
ATOM     39  C   UNL     1       0.416  -5.503   8.294  1.00  0.00     0.338 C 
ATOM     40  O   UNL     1      -0.223  -5.615   7.265  1.00  0.00    -0.246 OA
BRANCH  39  41
ATOM     41  C   UNL     1       0.513  -4.250   9.088  1.00  0.00     0.060 A 
ATOM     42  C   UNL     1      -0.665  -3.552   9.397  1.00  0.00     0.016 A 
ATOM     43  C   UNL     1       1.748  -3.766   9.523  1.00  0.00     0.016 A 
ATOM     44  C   UNL     1      -0.605  -2.342  10.093  1.00  0.00     0.010 A 
ATOM     45  C   UNL     1       1.809  -2.541  10.198  1.00  0.00     0.010 A 
ATOM     46  C   UNL     1       0.637  -1.802  10.447  1.00  0.00    -0.014 A 
BRANCH  46  47
ATOM     47  C   UNL     1       0.733  -0.371  10.837  1.00  0.00     0.031 A 
ATOM     48  C   UNL     1       1.097   0.628   9.767  1.00  0.00     0.074 A 
ATOM     49  C   UNL     1       0.483   0.053  12.088  1.00  0.00     0.049 A 
ATOM     50  N   UNL     1       1.294   1.918   9.862  1.00  0.00    -0.248 NA
ATOM     51  C   UNL     1       1.262   0.093   8.404  1.00  0.00     0.031 C 
ATOM     52  C   UNL     1       0.067  -0.789  13.207  1.00  0.00     0.029 A 
ATOM     53  N   UNL     1       0.553   1.317  12.626  1.00  0.00    -0.354 N 
ATOM     54  C   UNL     1       1.620   2.343   8.579  1.00  0.00     0.074 A 
ATOM     55  C   UNL     1       1.621   1.174   7.729  1.00  0.00     0.031 C 
ATOM     56  C   UNL     1      -0.071  -0.020  14.303  1.00  0.00     0.029 A 
ATOM     57  C   UNL     1       0.280   1.360  13.972  1.00  0.00     0.049 A 
ATOM     58  H   UNL     1       0.777   2.116  12.096  1.00  0.00     0.167 HD
ATOM     59  C   UNL     1       1.889   3.595   8.142  1.00  0.00     0.031 A 
ATOM     60  C   UNL     1       0.331   2.392  14.838  1.00  0.00     0.031 A 
ATOM     61  C   UNL     1       1.900   4.762   8.981  1.00  0.00     0.049 A 
ATOM     62  C   UNL     1       0.719   3.763  14.342  1.00  0.00     0.074 A 
ATOM     63  C   UNL     1       2.151   6.076   8.625  1.00  0.00     0.029 A 
ATOM     64  N   UNL     1       1.656   4.755  10.344  1.00  0.00    -0.354 N 
ATOM     65  N   UNL     1       1.002   4.157  13.124  1.00  0.00    -0.248 NA
ATOM     66  C   UNL     1       0.785   4.837  15.347  1.00  0.00     0.031 C 
ATOM     67  C   UNL     1       2.119   6.856   9.785  1.00  0.00     0.029 A 
ATOM     68  C   UNL     1       1.778   6.038  10.850  1.00  0.00     0.049 A 
ATOM     69  H   UNL     1       1.430   3.957  10.874  1.00  0.00     0.167 HD
ATOM     70  C   UNL     1       1.242   5.525  13.211  1.00  0.00     0.074 A 
ATOM     71  C   UNL     1       1.056   5.896  14.598  1.00  0.00     0.031 C 
ATOM     72  C   UNL     1       1.583   6.397  12.231  1.00  0.00     0.031 A 
BRANCH  59  73
ATOM     73  C   UNL     1       2.235   3.762   6.688  1.00  0.00    -0.014 A 
ATOM     74  C   UNL     1       1.266   3.616   5.683  1.00  0.00     0.009 A 
ATOM     75  C   UNL     1       3.546   4.106   6.323  1.00  0.00     0.009 A 
ATOM     76  C   UNL     1       1.610   3.783   4.340  1.00  0.00     0.001 A 
ATOM     77  C   UNL     1       3.880   4.303   4.982  1.00  0.00     0.001 A 
ATOM     78  C   UNL     1       2.914   4.133   3.992  1.00  0.00     0.000 A 
ENDBRANCH  59  73
BRANCH  60  79
ATOM     79  C   UNL     1       0.038   2.180  16.283  1.00  0.00    -0.014 A 
ATOM     80  C   UNL     1      -1.086   2.770  16.883  1.00  0.00     0.009 A 
ATOM     81  C   UNL     1       0.915   1.431  17.084  1.00  0.00     0.009 A 
ATOM     82  C   UNL     1      -1.305   2.645  18.257  1.00  0.00     0.001 A 
ATOM     83  C   UNL     1       0.676   1.279  18.451  1.00  0.00     0.001 A 
ATOM     84  C   UNL     1      -0.426   1.897  19.040  1.00  0.00     0.000 A 
ENDBRANCH  60  79
BRANCH  72  85
ATOM     85  C   UNL     1       1.725   7.847  12.607  1.00  0.00    -0.014 A 
ATOM     86  C   UNL     1       2.793   8.303  13.394  1.00  0.00     0.009 A 
ATOM     87  C   UNL     1       0.791   8.780  12.126  1.00  0.00     0.009 A 
ATOM     88  C   UNL     1       2.901   9.656  13.725  1.00  0.00     0.001 A 
ATOM     89  C   UNL     1       0.920  10.136  12.430  1.00  0.00     0.001 A 
ATOM     90  C   UNL     1       1.967  10.572  13.239  1.00  0.00     0.000 A 
ENDBRANCH  72  85
ENDBRANCH  46  47
ENDBRANCH  39  41
ENDBRANCH  38  39
ENDBRANCH  37  38
ENDBRANCH  36  37
ENDBRANCH  35  36
ENDBRANCH  34  35
ENDBRANCH  33  34
ENDBRANCH  32  33
ENDBRANCH  31  32
ENDBRANCH   1  31
TORSDOF 26
