REMARK SMILES O=C(Cc1ccn(-c2ccccc2F)c1)OCCOCCOCCOC(=O)c1ccc(-c2c3nc(c(-c4ccccc4)c4ccc([nH]4)c(-c4ccccc4)c4nc(c(-c5ccccc5)c5ccc2[nH]5)C=C4)C=C3)cc1
REMARK SMILES IDX 20 1 19 2 18 3 17 4 16 5 2 6 1 7 3 8 4 9 5 10 15 11 6 12
REMARK SMILES IDX 7 13 8 14 9 15 13 16 10 17 12 18 14 19 11 20 21 21 22 22
REMARK SMILES IDX 23 23 24 24 25 25 26 26 27 27 28 28 29 29 75 30 30 31 74 32
REMARK SMILES IDX 31 33 32 34 33 35 68 36 34 37 73 38 67 39 69 40 35 41 72 42
REMARK SMILES IDX 66 43 65 44 36 46 58 47 43 48 57 49 44 50 47 51 56 52 70 53
REMARK SMILES IDX 45 54 46 55 55 57 71 58 48 59 37 60 38 61 42 62 39 63 41 64
REMARK SMILES IDX 40 65 59 66 60 67 64 68 61 69 63 70 62 71 49 72 50 73 54 74
REMARK SMILES IDX 51 75 53 76 52 77
REMARK H PARENT 69 45 47 56
REMARK Flexibility Score: inf
ROOT
ATOM      1  C   UNL     1       2.799   1.572   1.587  1.00  0.00     0.188 C 
ENDROOT
BRANCH   1   2
ATOM      2  O   UNL     1       4.197   1.528   1.393  1.00  0.00    -0.376 OA
BRANCH   2   3
ATOM      3  C   UNL     1       4.715   0.694   0.369  1.00  0.00     0.202 C 
BRANCH   3   4
ATOM      4  C   UNL     1       4.032   0.742  -1.001  1.00  0.00     0.261 C 
BRANCH   4   5
ATOM      5  O   UNL     1       2.637   0.383  -1.048  1.00  0.00    -0.463 OA
BRANCH   5   6
ATOM      6  C   UNL     1       2.154  -0.880  -0.994  1.00  0.00     0.310 C 
ATOM      7  O   UNL     1       1.156  -1.184  -1.644  1.00  0.00    -0.252 OA
BRANCH   6   8
ATOM      8  C   UNL     1       2.745  -1.821   0.023  1.00  0.00     0.159 C 
BRANCH   8   9
ATOM      9  C   UNL     1       3.726  -2.796  -0.522  1.00  0.00    -0.019 A 
ATOM     10  C   UNL     1       5.084  -2.620  -0.886  1.00  0.00     0.024 A 
ATOM     11  C   UNL     1       3.459  -4.138  -0.700  1.00  0.00     0.095 A 
ATOM     12  C   UNL     1       5.587  -3.851  -1.246  1.00  0.00     0.091 A 
ATOM     13  N   UNL     1       4.583  -4.793  -1.146  1.00  0.00    -0.321 N 
BRANCH  13  14
ATOM     14  C   UNL     1       4.694  -6.181  -1.402  1.00  0.00     0.081 A 
ATOM     15  C   UNL     1       5.944  -6.811  -1.339  1.00  0.00     0.030 A 
ATOM     16  C   UNL     1       3.559  -6.945  -1.698  1.00  0.00     0.147 A 
ATOM     17  C   UNL     1       6.040  -8.190  -1.546  1.00  0.00     0.002 A 
ATOM     18  C   UNL     1       3.660  -8.314  -1.919  1.00  0.00     0.041 A 
ATOM     19  F   UNL     1       2.346  -6.389  -1.836  1.00  0.00    -0.205 F 
ATOM     20  C   UNL     1       4.901  -8.940  -1.837  1.00  0.00     0.003 A 
ENDBRANCH  13  14
ENDBRANCH   8   9
ENDBRANCH   6   8
ENDBRANCH   5   6
ENDBRANCH   4   5
ENDBRANCH   3   4
ENDBRANCH   2   3
ENDBRANCH   1   2
BRANCH   1  21
ATOM     21  C   UNL     1       2.073   2.789   0.983  1.00  0.00     0.188 C 
BRANCH  21  22
ATOM     22  O   UNL     1       2.734   3.899   0.385  1.00  0.00    -0.376 OA
BRANCH  22  23
ATOM     23  C   UNL     1       4.111   4.182   0.559  1.00  0.00     0.202 C 
BRANCH  23  24
ATOM     24  C   UNL     1       4.579   4.727   1.904  1.00  0.00     0.261 C 
BRANCH  24  25
ATOM     25  O   UNL     1       4.406   3.821   2.988  1.00  0.00    -0.460 OA
BRANCH  25  26
ATOM     26  C   UNL     1       3.244   3.990   3.636  1.00  0.00     0.338 C 
ATOM     27  O   UNL     1       2.314   4.730   3.324  1.00  0.00    -0.246 OA
BRANCH  26  28
ATOM     28  C   UNL     1       3.240   3.263   4.904  1.00  0.00     0.060 A 
ATOM     29  C   UNL     1       1.983   3.063   5.486  1.00  0.00     0.016 A 
ATOM     30  C   UNL     1       4.426   3.216   5.644  1.00  0.00     0.016 A 
ATOM     31  C   UNL     1       1.890   3.082   6.859  1.00  0.00     0.010 A 
ATOM     32  C   UNL     1       4.329   3.270   7.018  1.00  0.00     0.010 A 
ATOM     33  C   UNL     1       3.055   3.300   7.601  1.00  0.00    -0.014 A 
BRANCH  33  34
ATOM     34  C   UNL     1       2.906   3.635   9.021  1.00  0.00     0.031 A 
ATOM     35  C   UNL     1       2.936   2.423   9.915  1.00  0.00     0.074 A 
ATOM     36  C   UNL     1       2.718   4.958   9.303  1.00  0.00     0.049 A 
ATOM     37  N   UNL     1       2.485   2.289  11.120  1.00  0.00    -0.248 NA
ATOM     38  C   UNL     1       3.500   1.156   9.382  1.00  0.00     0.031 C 
ATOM     39  C   UNL     1       2.706   6.030   8.283  1.00  0.00     0.029 A 
ATOM     40  N   UNL     1       2.494   5.671  10.461  1.00  0.00    -0.354 N 
ATOM     41  C   UNL     1       2.846   1.004  11.547  1.00  0.00     0.074 A 
ATOM     42  C   UNL     1       3.381   0.318  10.409  1.00  0.00     0.031 C 
ATOM     43  C   UNL     1       2.433   7.222   8.847  1.00  0.00     0.029 A 
ATOM     44  C   UNL     1       2.263   7.054  10.276  1.00  0.00     0.049 A 
ATOM     45  H   UNL     1       2.494   5.249  11.351  1.00  0.00     0.167 HD
ATOM     46  C   UNL     1       2.808   0.614  12.848  1.00  0.00     0.031 A 
ATOM     47  C   UNL     1       1.926   8.007  11.195  1.00  0.00     0.031 A 
ATOM     48  C   UNL     1       2.198   1.598  13.678  1.00  0.00     0.049 A 
ATOM     49  C   UNL     1       1.957   7.361  12.520  1.00  0.00     0.074 A 
ATOM     50  C   UNL     1       0.908   2.036  13.834  1.00  0.00     0.029 A 
ATOM     51  N   UNL     1       3.036   2.496  14.292  1.00  0.00    -0.354 N 
ATOM     52  N   UNL     1       3.035   7.012  13.152  1.00  0.00    -0.248 NA
ATOM     53  C   UNL     1       0.692   7.025  13.184  1.00  0.00     0.031 C 
ATOM     54  C   UNL     1       1.030   3.397  14.207  1.00  0.00     0.029 A 
ATOM     55  C   UNL     1       2.388   3.710  14.307  1.00  0.00     0.049 A 
ATOM     56  H   UNL     1       3.931   2.307  14.655  1.00  0.00     0.167 HD
ATOM     57  C   UNL     1       2.571   6.092  14.063  1.00  0.00     0.074 A 
ATOM     58  C   UNL     1       1.164   6.369  14.242  1.00  0.00     0.031 C 
ATOM     59  C   UNL     1       3.204   4.899  14.194  1.00  0.00     0.031 A 
BRANCH  46  60
ATOM     60  C   UNL     1       3.507  -0.547  13.482  1.00  0.00    -0.014 A 
ATOM     61  C   UNL     1       3.079  -0.954  14.763  1.00  0.00     0.009 A 
ATOM     62  C   UNL     1       4.721  -1.067  13.011  1.00  0.00     0.009 A 
ATOM     63  C   UNL     1       3.862  -1.786  15.564  1.00  0.00     0.001 A 
ATOM     64  C   UNL     1       5.489  -1.932  13.798  1.00  0.00     0.001 A 
ATOM     65  C   UNL     1       5.073  -2.268  15.083  1.00  0.00     0.000 A 
ENDBRANCH  46  60
BRANCH  47  66
ATOM     66  C   UNL     1       1.509   9.453  11.159  1.00  0.00    -0.014 A 
ATOM     67  C   UNL     1       1.475  10.265  10.021  1.00  0.00     0.009 A 
ATOM     68  C   UNL     1       1.061  10.068  12.358  1.00  0.00     0.009 A 
ATOM     69  C   UNL     1       0.961  11.576  10.066  1.00  0.00     0.001 A 
ATOM     70  C   UNL     1       0.522  11.357  12.405  1.00  0.00     0.001 A 
ATOM     71  C   UNL     1       0.462  12.112  11.249  1.00  0.00     0.000 A 
ENDBRANCH  47  66
BRANCH  59  72
ATOM     72  C   UNL     1       4.640   4.899  13.697  1.00  0.00    -0.014 A 
ATOM     73  C   UNL     1       5.620   5.675  14.330  1.00  0.00     0.009 A 
ATOM     74  C   UNL     1       5.009   4.229  12.517  1.00  0.00     0.009 A 
ATOM     75  C   UNL     1       6.910   5.786  13.793  1.00  0.00     0.001 A 
ATOM     76  C   UNL     1       6.296   4.331  11.979  1.00  0.00     0.001 A 
ATOM     77  C   UNL     1       7.247   5.117  12.618  1.00  0.00     0.000 A 
ENDBRANCH  59  72
ENDBRANCH  33  34
ENDBRANCH  26  28
ENDBRANCH  25  26
ENDBRANCH  24  25
ENDBRANCH  23  24
ENDBRANCH  22  23
ENDBRANCH  21  22
ENDBRANCH   1  21
TORSDOF 19
