REMARK SMILES CS(=O)(=O)c1ccc(C2=NN(c3ccc(C(=O)OCCOCCOCCOC(=O)c4ccc(-c5c6nc(c(-c7ccccc7)c7ccc([nH]7)c(-c7ccccc7)c7nc(c(-c8ccccc8)c8ccc5[nH]8)C=C7)C=C6)cc4)cc3)[C@H](c3ccccc3)C2)cc1
REMARK SMILES IDX 22 1 21 2 20 3 19 4 18 5 16 6 17 7 15 8 12 9 13 10 79 11
REMARK SMILES IDX 14 12 78 13 11 14 9 15 10 16 87 17 80 18 8 19 5 20 6 21
REMARK SMILES IDX 89 22 7 23 88 24 2 25 1 26 3 27 4 28 81 29 82 30 86 31 83 32
REMARK SMILES IDX 85 33 84 34 23 35 24 36 25 37 26 38 27 39 28 40 29 41 30 42
REMARK SMILES IDX 31 43 77 44 32 45 76 46 33 47 34 48 35 49 70 50 36 51 75 52
REMARK SMILES IDX 69 53 71 54 37 55 74 56 68 57 67 58 38 60 60 61 45 62 59 63
REMARK SMILES IDX 46 64 49 65 58 66 72 67 47 68 48 69 57 71 73 72 50 73 39 74
REMARK SMILES IDX 40 75 44 76 41 77 43 78 42 79 61 80 62 81 66 82 63 83 65 84
REMARK SMILES IDX 64 85 51 86 52 87 56 88 53 89 55 90 54 91
REMARK H PARENT 71 59 49 70
REMARK Flexibility Score: inf
ROOT
ATOM      1  C   UNL     1      -0.028  -2.958 -14.666  1.00  0.00     0.188 C 
ENDROOT
BRANCH   1   2
ATOM      2  O   UNL     1      -0.009  -2.917 -16.088  1.00  0.00    -0.376 OA
BRANCH   2   3
ATOM      3  C   UNL     1       1.228  -2.791 -16.779  1.00  0.00     0.202 C 
BRANCH   3   4
ATOM      4  C   UNL     1       2.218  -1.682 -16.394  1.00  0.00     0.261 C 
BRANCH   4   5
ATOM      5  O   UNL     1       2.522  -1.613 -14.993  1.00  0.00    -0.460 OA
BRANCH   5   6
ATOM      6  C   UNL     1       2.099  -0.494 -14.355  1.00  0.00     0.338 C 
ATOM      7  O   UNL     1       1.563   0.477 -14.865  1.00  0.00    -0.246 OA
BRANCH   6   8
ATOM      8  C   UNL     1       2.242  -0.644 -12.885  1.00  0.00     0.060 A 
ATOM      9  C   UNL     1       2.546  -0.672 -10.093  1.00  0.00     0.060 A 
ATOM     10  C   UNL     1       1.459  -0.013 -10.675  1.00  0.00     0.029 A 
ATOM     11  C   UNL     1       3.396  -1.427 -10.916  1.00  0.00     0.029 A 
ATOM     12  C   UNL     1       1.311   0.008 -12.065  1.00  0.00     0.018 A 
ATOM     13  C   UNL     1       3.263  -1.402 -12.307  1.00  0.00     0.018 A 
BRANCH   9  14
ATOM     14  N   UNL     1       2.917  -0.432  -8.766  1.00  0.00    -0.257 N 
ATOM     15  C   UNL     1       2.397  -0.086  -6.729  1.00  0.00     0.071 C 
ATOM     16  N   UNL     1       2.151  -0.871  -7.733  1.00  0.00    -0.176 NA
ATOM     17  C   UNL     1       3.264   1.107  -7.027  1.00  0.00     0.091 C 
ATOM     18  C   UNL     1       3.682   0.793  -8.468  1.00  0.00     0.144 C 
BRANCH  15  19
ATOM     19  C   UNL     1       1.883  -0.333  -5.367  1.00  0.00    -0.002 A 
ATOM     20  C   UNL     1       0.950  -0.886  -2.796  1.00  0.00     0.067 A 
ATOM     21  C   UNL     1       1.431  -1.925  -3.599  1.00  0.00     0.021 A 
ATOM     22  C   UNL     1       0.932   0.430  -3.272  1.00  0.00     0.021 A 
ATOM     23  C   UNL     1       1.885  -1.648  -4.890  1.00  0.00     0.011 A 
ATOM     24  C   UNL     1       1.415   0.709  -4.558  1.00  0.00     0.011 A 
BRANCH  20  25
ATOM     25  S   UNL     1       0.316  -1.268  -1.177  1.00  0.00     0.175 S 
ATOM     26  C   UNL     1       1.035  -0.073  -0.084  1.00  0.00     0.163 C 
ATOM     27  O   UNL     1       0.854  -2.562  -0.798  1.00  0.00    -0.224 OA
ATOM     28  O   UNL     1      -1.113  -1.034  -1.227  1.00  0.00    -0.224 OA
ENDBRANCH  20  25
ENDBRANCH  15  19
BRANCH  18  29
ATOM     29  C   UNL     1       5.162   0.578  -8.760  1.00  0.00    -0.023 A 
ATOM     30  C   UNL     1       6.096   0.166  -7.800  1.00  0.00     0.006 A 
ATOM     31  C   UNL     1       5.607   0.710 -10.092  1.00  0.00     0.006 A 
ATOM     32  C   UNL     1       7.418  -0.116  -8.164  1.00  0.00     0.000 A 
ATOM     33  C   UNL     1       6.911   0.381 -10.463  1.00  0.00     0.000 A 
ATOM     34  C   UNL     1       7.819  -0.030  -9.495  1.00  0.00     0.000 A 
ENDBRANCH  18  29
ENDBRANCH   9  14
ENDBRANCH   6   8
ENDBRANCH   5   6
ENDBRANCH   4   5
ENDBRANCH   3   4
ENDBRANCH   2   3
ENDBRANCH   1   2
BRANCH   1  35
ATOM     35  C   UNL     1       0.946  -3.881 -13.901  1.00  0.00     0.188 C 
BRANCH  35  36
ATOM     36  O   UNL     1       1.859  -4.575 -14.714  1.00  0.00    -0.376 OA
BRANCH  36  37
ATOM     37  C   UNL     1       1.584  -5.907 -15.109  1.00  0.00     0.202 C 
BRANCH  37  38
ATOM     38  C   UNL     1       0.176  -6.529 -15.213  1.00  0.00     0.261 C 
BRANCH  38  39
ATOM     39  O   UNL     1      -0.930  -5.816 -14.653  1.00  0.00    -0.460 OA
BRANCH  39  40
ATOM     40  C   UNL     1      -1.327  -6.193 -13.414  1.00  0.00     0.338 C 
ATOM     41  O   UNL     1      -0.827  -7.042 -12.703  1.00  0.00    -0.246 OA
BRANCH  40  42
ATOM     42  C   UNL     1      -2.396  -5.274 -12.975  1.00  0.00     0.060 A 
ATOM     43  C   UNL     1      -2.137  -4.391 -11.919  1.00  0.00     0.016 A 
ATOM     44  C   UNL     1      -3.650  -5.300 -13.588  1.00  0.00     0.016 A 
ATOM     45  C   UNL     1      -3.144  -3.544 -11.456  1.00  0.00     0.010 A 
ATOM     46  C   UNL     1      -4.664  -4.464 -13.110  1.00  0.00     0.010 A 
ATOM     47  C   UNL     1      -4.423  -3.602 -12.024  1.00  0.00    -0.014 A 
BRANCH  47  48
ATOM     48  C   UNL     1      -5.550  -2.882 -11.382  1.00  0.00     0.031 A 
ATOM     49  C   UNL     1      -6.470  -3.643 -10.470  1.00  0.00     0.074 A 
ATOM     50  C   UNL     1      -5.755  -1.572 -11.601  1.00  0.00     0.049 A 
ATOM     51  N   UNL     1      -7.535  -3.231  -9.830  1.00  0.00    -0.248 NA
ATOM     52  C   UNL     1      -6.148  -5.063 -10.258  1.00  0.00     0.031 C 
ATOM     53  C   UNL     1      -4.923  -0.714 -12.441  1.00  0.00     0.029 A 
ATOM     54  N   UNL     1      -6.743  -0.740 -11.137  1.00  0.00    -0.354 N 
ATOM     55  C   UNL     1      -8.014  -4.341  -9.145  1.00  0.00     0.074 A 
ATOM     56  C   UNL     1      -7.145  -5.450  -9.477  1.00  0.00     0.031 C 
ATOM     57  C   UNL     1      -5.448   0.524 -12.448  1.00  0.00     0.029 A 
ATOM     58  C   UNL     1      -6.666   0.535 -11.639  1.00  0.00     0.049 A 
ATOM     59  H   UNL     1      -7.440  -1.030 -10.505  1.00  0.00     0.167 HD
ATOM     60  C   UNL     1      -9.078  -4.431  -8.312  1.00  0.00     0.031 A 
ATOM     61  C   UNL     1      -7.497   1.584 -11.485  1.00  0.00     0.031 A 
ATOM     62  C   UNL     1      -9.960  -3.337  -8.002  1.00  0.00     0.049 A 
ATOM     63  C   UNL     1      -8.714   1.448 -10.609  1.00  0.00     0.074 A 
ATOM     64  C   UNL     1     -11.050  -3.321  -7.151  1.00  0.00     0.029 A 
ATOM     65  N   UNL     1      -9.861  -2.066  -8.549  1.00  0.00    -0.354 N 
ATOM     66  N   UNL     1      -9.132   0.407  -9.930  1.00  0.00    -0.248 NA
ATOM     67  C   UNL     1      -9.567   2.637 -10.471  1.00  0.00     0.031 C 
ATOM     68  C   UNL     1     -11.651  -2.060  -7.234  1.00  0.00     0.029 A 
ATOM     69  C   UNL     1     -10.894  -1.269  -8.082  1.00  0.00     0.049 A 
ATOM     70  H   UNL     1      -9.161  -1.773  -9.175  1.00  0.00     0.167 HD
ATOM     71  C   UNL     1     -10.283   0.821  -9.268  1.00  0.00     0.074 A 
ATOM     72  C   UNL     1     -10.484   2.213  -9.613  1.00  0.00     0.031 C 
ATOM     73  C   UNL     1     -11.096   0.112  -8.445  1.00  0.00     0.031 A 
BRANCH  60  74
ATOM     74  C   UNL     1      -9.368  -5.784  -7.720  1.00  0.00    -0.014 A 
ATOM     75  C   UNL     1      -8.513  -6.371  -6.773  1.00  0.00     0.009 A 
ATOM     76  C   UNL     1     -10.516  -6.485  -8.123  1.00  0.00     0.009 A 
ATOM     77  C   UNL     1      -8.774  -7.652  -6.282  1.00  0.00     0.001 A 
ATOM     78  C   UNL     1     -10.792  -7.751  -7.605  1.00  0.00     0.001 A 
ATOM     79  C   UNL     1      -9.914  -8.340  -6.697  1.00  0.00     0.000 A 
ENDBRANCH  60  74
BRANCH  61  80
ATOM     80  C   UNL     1      -7.214   2.854 -12.203  1.00  0.00    -0.014 A 
ATOM     81  C   UNL     1      -6.798   4.000 -11.508  1.00  0.00     0.009 A 
ATOM     82  C   UNL     1      -7.353   2.921 -13.599  1.00  0.00     0.009 A 
ATOM     83  C   UNL     1      -6.542   5.189 -12.196  1.00  0.00     0.001 A 
ATOM     84  C   UNL     1      -7.067   4.102 -14.286  1.00  0.00     0.001 A 
ATOM     85  C   UNL     1      -6.669   5.237 -13.583  1.00  0.00     0.000 A 
ENDBRANCH  61  80
BRANCH  73  86
ATOM     86  C   UNL     1     -12.270   0.836  -7.842  1.00  0.00    -0.014 A 
ATOM     87  C   UNL     1     -13.373   1.220  -8.620  1.00  0.00     0.009 A 
ATOM     88  C   UNL     1     -12.286   1.106  -6.464  1.00  0.00     0.009 A 
ATOM     89  C   UNL     1     -14.451   1.891  -8.037  1.00  0.00     0.001 A 
ATOM     90  C   UNL     1     -13.378   1.748  -5.878  1.00  0.00     0.001 A 
ATOM     91  C   UNL     1     -14.455   2.150  -6.666  1.00  0.00     0.000 A 
ENDBRANCH  73  86
ENDBRANCH  47  48
ENDBRANCH  40  42
ENDBRANCH  39  40
ENDBRANCH  38  39
ENDBRANCH  37  38
ENDBRANCH  36  37
ENDBRANCH  35  36
ENDBRANCH   1  35
TORSDOF 21
