REMARK SMILES O=C(OCCOCCOCCOC(=O)[C@@H]1[C@@H](C(=O)NCc2ccccc2Br)[C@H]2C=C[C@@H]1O2)c1ccc(-c2c3nc(c(-c4ccccc4)c4ccc([nH]4)c(-c4ccccc4)c4nc(c(-c5ccccc5)c5ccc2[nH]5)C=C4)C=C3)cc1
REMARK SMILES IDX 8 1 7 2 6 3 5 4 4 5 3 6 2 7 1 8 33 9 34 10 80 11 35 12 79 13
REMARK SMILES IDX 36 14 37 15 38 16 73 17 39 18 78 19 72 20 74 21 40 22 77 23
REMARK SMILES IDX 71 24 70 25 41 27 63 28 48 29 62 30 49 31 52 32 61 33 75 34
REMARK SMILES IDX 50 35 51 36 60 38 76 39 53 40 42 41 43 42 47 43 44 44 46 45
REMARK SMILES IDX 45 46 64 47 65 48 69 49 66 50 68 51 67 52 54 53 55 54 59 55
REMARK SMILES IDX 56 56 58 57 57 58 9 59 10 60 11 61 12 62 13 63 14 64 15 65
REMARK SMILES IDX 16 66 31 67 28 68 30 69 32 70 29 71 17 72 18 73 19 74 20 76
REMARK SMILES IDX 21 77 22 78 26 79 23 80 25 81 27 82 24 83
REMARK H PARENT 74 26 52 37 19 75
REMARK Flexibility Score: inf
ROOT
ATOM      1  C   UNL     1       2.112   2.792   1.303  1.00  0.00     0.188 C 
ENDROOT
BRANCH   1   2
ATOM      2  C   UNL     1       2.631   1.889   0.185  1.00  0.00     0.188 C 
BRANCH   2   3
ATOM      3  O   UNL     1       3.966   1.421   0.417  1.00  0.00    -0.376 OA
BRANCH   3   4
ATOM      4  C   UNL     1       4.774   1.438  -0.767  1.00  0.00     0.202 C 
BRANCH   4   5
ATOM      5  C   UNL     1       4.493   0.315  -1.781  1.00  0.00     0.261 C 
BRANCH   5   6
ATOM      6  O   UNL     1       3.153  -0.203  -1.718  1.00  0.00    -0.460 OA
BRANCH   6   7
ATOM      7  C   UNL     1       2.655  -1.215  -0.966  1.00  0.00     0.338 C 
ATOM      8  O   UNL     1       1.473  -1.523  -1.125  1.00  0.00    -0.246 OA
BRANCH   7   9
ATOM      9  C   UNL     1       3.438  -1.980   0.058  1.00  0.00     0.060 A 
ATOM     10  C   UNL     1       4.697  -1.628   0.538  1.00  0.00     0.016 A 
ATOM     11  C   UNL     1       2.837  -3.133   0.605  1.00  0.00     0.016 A 
ATOM     12  C   UNL     1       5.384  -2.429   1.438  1.00  0.00     0.010 A 
ATOM     13  C   UNL     1       3.499  -3.919   1.559  1.00  0.00     0.010 A 
ATOM     14  C   UNL     1       4.796  -3.580   1.952  1.00  0.00    -0.014 A 
BRANCH  14  15
ATOM     15  C   UNL     1       5.635  -4.434   2.817  1.00  0.00     0.031 A 
ATOM     16  C   UNL     1       6.278  -5.641   2.223  1.00  0.00     0.074 A 
ATOM     17  C   UNL     1       5.997  -4.003   4.038  1.00  0.00     0.049 A 
ATOM     18  N   UNL     1       7.174  -6.428   2.751  1.00  0.00    -0.248 NA
ATOM     19  C   UNL     1       5.922  -5.963   0.832  1.00  0.00     0.031 C 
ATOM     20  C   UNL     1       5.580  -2.732   4.609  1.00  0.00     0.029 A 
ATOM     21  N   UNL     1       6.819  -4.535   4.995  1.00  0.00    -0.354 N 
ATOM     22  C   UNL     1       7.529  -7.307   1.743  1.00  0.00     0.074 A 
ATOM     23  C   UNL     1       6.715  -6.995   0.589  1.00  0.00     0.031 C 
ATOM     24  C   UNL     1       6.114  -2.585   5.828  1.00  0.00     0.029 A 
ATOM     25  C   UNL     1       6.894  -3.768   6.134  1.00  0.00     0.049 A 
ATOM     26  H   UNL     1       7.307  -5.382   4.879  1.00  0.00     0.167 HD
ATOM     27  C   UNL     1       8.473  -8.273   1.778  1.00  0.00     0.031 A 
ATOM     28  C   UNL     1       7.511  -3.993   7.306  1.00  0.00     0.031 A 
ATOM     29  C   UNL     1       9.227  -8.604   2.955  1.00  0.00     0.049 A 
ATOM     30  C   UNL     1       8.376  -5.209   7.395  1.00  0.00     0.074 A 
ATOM     31  C   UNL     1      10.123  -9.639   3.146  1.00  0.00     0.029 A 
ATOM     32  N   UNL     1       9.155  -7.906   4.155  1.00  0.00    -0.354 N 
ATOM     33  N   UNL     1       8.664  -6.073   6.452  1.00  0.00    -0.248 NA
ATOM     34  C   UNL     1       9.027  -5.469   8.682  1.00  0.00     0.031 C 
ATOM     35  C   UNL     1      10.553  -9.598   4.478  1.00  0.00     0.029 A 
ATOM     36  C   UNL     1       9.969  -8.505   5.101  1.00  0.00     0.049 A 
ATOM     37  H   UNL     1       8.607  -7.103   4.309  1.00  0.00     0.167 HD
ATOM     38  C   UNL     1       9.554  -6.966   7.018  1.00  0.00     0.074 A 
ATOM     39  C   UNL     1       9.771  -6.525   8.384  1.00  0.00     0.031 C 
ATOM     40  C   UNL     1      10.145  -8.050   6.458  1.00  0.00     0.031 A 
BRANCH  27  41
ATOM     41  C   UNL     1       8.666  -9.055   0.515  1.00  0.00    -0.014 A 
ATOM     42  C   UNL     1       9.322  -8.495  -0.593  1.00  0.00     0.009 A 
ATOM     43  C   UNL     1       8.127 -10.345   0.409  1.00  0.00     0.009 A 
ATOM     44  C   UNL     1       9.405  -9.201  -1.795  1.00  0.00     0.001 A 
ATOM     45  C   UNL     1       8.230 -11.057  -0.787  1.00  0.00     0.001 A 
ATOM     46  C   UNL     1       8.860 -10.481  -1.890  1.00  0.00     0.000 A 
ENDBRANCH  27  41
BRANCH  28  47
ATOM     47  C   UNL     1       7.288  -3.086   8.466  1.00  0.00    -0.014 A 
ATOM     48  C   UNL     1       8.327  -2.328   9.024  1.00  0.00     0.009 A 
ATOM     49  C   UNL     1       6.005  -2.988   9.036  1.00  0.00     0.009 A 
ATOM     50  C   UNL     1       8.094  -1.522  10.145  1.00  0.00     0.001 A 
ATOM     51  C   UNL     1       5.768  -2.161  10.136  1.00  0.00     0.001 A 
ATOM     52  C   UNL     1       6.816  -1.439  10.698  1.00  0.00     0.000 A 
ENDBRANCH  28  47
BRANCH  40  53
ATOM     53  C   UNL     1      11.095  -8.805   7.336  1.00  0.00    -0.014 A 
ATOM     54  C   UNL     1      10.629  -9.586   8.405  1.00  0.00     0.009 A 
ATOM     55  C   UNL     1      12.474  -8.724   7.093  1.00  0.00     0.009 A 
ATOM     56  C   UNL     1      11.533 -10.238   9.242  1.00  0.00     0.001 A 
ATOM     57  C   UNL     1      13.373  -9.403   7.913  1.00  0.00     0.001 A 
ATOM     58  C   UNL     1      12.902 -10.148   8.994  1.00  0.00     0.000 A 
ENDBRANCH  40  53
ENDBRANCH  14  15
ENDBRANCH   7   9
ENDBRANCH   6   7
ENDBRANCH   5   6
ENDBRANCH   4   5
ENDBRANCH   3   4
ENDBRANCH   2   3
ENDBRANCH   1   2
BRANCH   1  59
ATOM     59  O   UNL     1       2.703   4.084   1.434  1.00  0.00    -0.376 OA
BRANCH  59  60
ATOM     60  C   UNL     1       4.120   4.157   1.550  1.00  0.00     0.202 C 
BRANCH  60  61
ATOM     61  C   UNL     1       4.745   3.693   2.871  1.00  0.00     0.261 C 
BRANCH  61  62
ATOM     62  O   UNL     1       4.144   2.509   3.408  1.00  0.00    -0.463 OA
BRANCH  62  63
ATOM     63  C   UNL     1       3.341   2.687   4.486  1.00  0.00     0.312 C 
ATOM     64  O   UNL     1       3.122   3.780   5.014  1.00  0.00    -0.252 OA
BRANCH  63  65
ATOM     65  C   UNL     1       2.648   1.420   4.942  1.00  0.00     0.147 C 
ATOM     66  C   UNL     1       2.781   1.308   6.487  1.00  0.00     0.128 C 
ATOM     67  C   UNL     1       3.372   0.165   4.461  1.00  0.00     0.157 C 
ATOM     68  C   UNL     1       3.589  -0.001   6.614  1.00  0.00     0.155 C 
ATOM     69  C   UNL     1       2.601  -1.061   4.861  1.00  0.00     0.004 C 
ATOM     70  O   UNL     1       4.440   0.121   5.442  1.00  0.00    -0.365 OA
ATOM     71  C   UNL     1       2.771  -1.187   6.182  1.00  0.00     0.004 C 
BRANCH  66  72
ATOM     72  C   UNL     1       1.540   1.206   7.346  1.00  0.00     0.227 C 
ATOM     73  O   UNL     1       1.544   0.496   8.359  1.00  0.00    -0.275 OA
ATOM     74  N   UNL     1       0.421   1.932   7.144  1.00  0.00    -0.352 N 
ATOM     75  H   UNL     1      -0.275   1.749   7.815  1.00  0.00     0.163 HD
BRANCH  74  76
ATOM     76  C   UNL     1       0.007   2.918   6.168  1.00  0.00     0.152 C 
BRANCH  76  77
ATOM     77  C   UNL     1      -1.014   2.388   5.183  1.00  0.00    -0.015 A 
ATOM     78  C   UNL     1      -0.830   2.677   3.815  1.00  0.00     0.007 A 
ATOM     79  C   UNL     1      -2.179   1.687   5.549  1.00  0.00     0.022 A 
ATOM     80  C   UNL     1      -1.741   2.240   2.849  1.00  0.00     0.000 A 
ATOM     81  C   UNL     1      -3.084   1.242   4.577  1.00  0.00     0.016 A 
ATOM     82  Br  UNL     1      -2.657   1.337   7.357  1.00  0.00    -0.050 Br
ATOM     83  C   UNL     1      -2.863   1.514   3.229  1.00  0.00     0.001 A 
ENDBRANCH  76  77
ENDBRANCH  74  76
ENDBRANCH  66  72
ENDBRANCH  63  65
ENDBRANCH  62  63
ENDBRANCH  61  62
ENDBRANCH  60  61
ENDBRANCH  59  60
ENDBRANCH   1  59
TORSDOF 20
