REMARK SMILES C[C@H](CO)CSc1cc(Cl)ccc1C(=O)OCCOCCOCCOC(=O)c1ccc(-c2c3nc(c(-c4ccccc4)c4ccc([nH]4)c(-c4ccccc4)c4nc(c(-c5ccccc5)c5ccc2[nH]5)C=C4)C=C3)cc1
REMARK SMILES IDX 19 1 18 2 17 3 16 4 14 5 15 6 13 7 7 8 8 9 9 10 12 11 10 12
REMARK SMILES IDX 11 13 6 14 5 15 2 16 1 17 3 18 4 19 20 21 21 22 22 23 23 24
REMARK SMILES IDX 24 25 25 26 26 27 27 28 28 29 29 30 75 31 30 32 74 33 31 34
REMARK SMILES IDX 32 35 33 36 68 37 34 38 73 39 67 40 69 41 35 42 72 43 66 44
REMARK SMILES IDX 65 45 36 47 58 48 43 49 57 50 44 51 47 52 56 53 70 54 45 55
REMARK SMILES IDX 46 56 55 58 71 59 48 60 37 61 38 62 42 63 39 64 41 65 40 66
REMARK SMILES IDX 59 67 60 68 64 69 61 70 63 71 62 72 49 73 50 74 54 75 51 76
REMARK SMILES IDX 53 77 52 78
REMARK H PARENT 4 20 69 46 47 57
REMARK Flexibility Score: inf
ROOT
ATOM      1  O   UNL     1      -5.989   2.010  -0.480  1.00  0.00    -0.376 OA
ENDROOT
BRANCH   1   2
ATOM      2  C   UNL     1      -6.218   1.049  -1.498  1.00  0.00     0.202 C 
BRANCH   2   3
ATOM      3  C   UNL     1      -5.166   0.530  -2.499  1.00  0.00     0.261 C 
BRANCH   3   4
ATOM      4  O   UNL     1      -3.786   0.717  -2.163  1.00  0.00    -0.460 OA
BRANCH   4   5
ATOM      5  C   UNL     1      -3.097   1.526  -3.004  1.00  0.00     0.339 C 
ATOM      6  O   UNL     1      -3.546   2.105  -3.983  1.00  0.00    -0.246 OA
BRANCH   5   7
ATOM      7  C   UNL     1      -1.766   1.873  -2.462  1.00  0.00     0.073 A 
ATOM      8  C   UNL     1      -0.728   0.961  -2.229  1.00  0.00     0.023 A 
ATOM      9  C   UNL     1       0.548   1.484  -1.981  1.00  0.00     0.036 A 
ATOM     10  C   UNL     1       0.752   2.844  -1.759  1.00  0.00     0.042 A 
ATOM     11  C   UNL     1      -1.549   3.255  -2.263  1.00  0.00     0.018 A 
ATOM     12  Cl  UNL     1       2.322   3.411  -1.348  1.00  0.00    -0.084 Cl
ATOM     13  C   UNL     1      -0.304   3.734  -1.863  1.00  0.00     0.021 A 
BRANCH   8  14
ATOM     14  S   UNL     1      -0.864  -0.820  -2.269  1.00  0.00    -0.125 SA
BRANCH  14  15
ATOM     15  C   UNL     1      -0.721  -1.246  -0.467  1.00  0.00     0.080 C 
BRANCH  15  16
ATOM     16  C   UNL     1       0.686  -1.680   0.028  1.00  0.00     0.022 C 
ATOM     17  C   UNL     1       0.558  -2.675   1.191  1.00  0.00     0.011 C 
BRANCH  16  18
ATOM     18  C   UNL     1       1.571  -0.485   0.426  1.00  0.00     0.160 C 
BRANCH  18  19
ATOM     19  O   UNL     1       2.544  -0.803   1.413  1.00  0.00    -0.396 OA
ATOM     20  H   UNL     1       2.099  -1.084   2.228  1.00  0.00     0.210 HD
ENDBRANCH  18  19
ENDBRANCH  16  18
ENDBRANCH  15  16
ENDBRANCH  14  15
ENDBRANCH   8  14
ENDBRANCH   5   7
ENDBRANCH   4   5
ENDBRANCH   3   4
ENDBRANCH   2   3
ENDBRANCH   1   2
BRANCH   1  21
ATOM     21  C   UNL     1      -4.700   2.532  -0.263  1.00  0.00     0.188 C 
BRANCH  21  22
ATOM     22  C   UNL     1      -3.715   1.675   0.562  1.00  0.00     0.188 C 
BRANCH  22  23
ATOM     23  O   UNL     1      -4.036   0.350   0.936  1.00  0.00    -0.376 OA
BRANCH  23  24
ATOM     24  C   UNL     1      -5.240   0.089   1.639  1.00  0.00     0.202 C 
BRANCH  24  25
ATOM     25  C   UNL     1      -5.768   0.999   2.764  1.00  0.00     0.261 C 
BRANCH  25  26
ATOM     26  O   UNL     1      -5.606   2.412   2.583  1.00  0.00    -0.460 OA
BRANCH  26  27
ATOM     27  C   UNL     1      -4.683   3.000   3.378  1.00  0.00     0.338 C 
ATOM     28  O   UNL     1      -3.971   2.461   4.217  1.00  0.00    -0.246 OA
BRANCH  27  29
ATOM     29  C   UNL     1      -4.500   4.401   2.961  1.00  0.00     0.060 A 
ATOM     30  C   UNL     1      -3.268   4.784   2.412  1.00  0.00     0.016 A 
ATOM     31  C   UNL     1      -5.514   5.339   3.149  1.00  0.00     0.016 A 
ATOM     32  C   UNL     1      -3.042   6.112   2.054  1.00  0.00     0.010 A 
ATOM     33  C   UNL     1      -5.276   6.676   2.817  1.00  0.00     0.010 A 
ATOM     34  C   UNL     1      -4.033   7.072   2.290  1.00  0.00    -0.014 A 
BRANCH  34  35
ATOM     35  C   UNL     1      -3.711   8.512   2.140  1.00  0.00     0.031 A 
ATOM     36  C   UNL     1      -3.352   9.303   3.367  1.00  0.00     0.074 A 
ATOM     37  C   UNL     1      -3.722   9.106   0.934  1.00  0.00     0.049 A 
ATOM     38  N   UNL     1      -3.087  10.579   3.484  1.00  0.00    -0.248 NA
ATOM     39  C   UNL     1      -3.285   8.553   4.632  1.00  0.00     0.031 C 
ATOM     40  C   UNL     1      -4.002   8.442  -0.337  1.00  0.00     0.029 A 
ATOM     41  N   UNL     1      -3.497  10.416   0.590  1.00  0.00    -0.354 N 
ATOM     42  C   UNL     1      -2.833  10.788   4.833  1.00  0.00     0.074 A 
ATOM     43  C   UNL     1      -3.002   9.514   5.499  1.00  0.00     0.031 C 
ATOM     44  C   UNL     1      -3.943   9.353  -1.325  1.00  0.00     0.029 A 
ATOM     45  C   UNL     1      -3.659  10.667  -0.751  1.00  0.00     0.049 A 
ATOM     46  H   UNL     1      -3.243  11.109   1.241  1.00  0.00     0.167 HD
ATOM     47  C   UNL     1      -2.487  11.935   5.464  1.00  0.00     0.031 A 
ATOM     48  C   UNL     1      -3.613  11.829  -1.431  1.00  0.00     0.031 A 
ATOM     49  C   UNL     1      -2.340  13.207   4.807  1.00  0.00     0.049 A 
ATOM     50  C   UNL     1      -3.322  13.110  -0.691  1.00  0.00     0.074 A 
ATOM     51  C   UNL     1      -1.979  14.424   5.359  1.00  0.00     0.029 A 
ATOM     52  N   UNL     1      -2.559  13.428   3.457  1.00  0.00    -0.354 N 
ATOM     53  N   UNL     1      -3.054  13.292   0.580  1.00  0.00    -0.248 NA
ATOM     54  C   UNL     1      -3.324  14.348  -1.485  1.00  0.00     0.031 C 
ATOM     55  C   UNL     1      -2.045  15.395   4.354  1.00  0.00     0.029 A 
ATOM     56  C   UNL     1      -2.377  14.770   3.163  1.00  0.00     0.049 A 
ATOM     57  H   UNL     1      -2.808  12.735   2.803  1.00  0.00     0.167 HD
ATOM     58  C   UNL     1      -2.827  14.655   0.731  1.00  0.00     0.074 A 
ATOM     59  C   UNL     1      -2.971  15.251  -0.581  1.00  0.00     0.031 C 
ATOM     60  C   UNL     1      -2.526  15.352   1.854  1.00  0.00     0.031 A 
BRANCH  47  61
ATOM     61  C   UNL     1      -2.289  11.873   6.953  1.00  0.00    -0.014 A 
ATOM     62  C   UNL     1      -1.188  11.209   7.518  1.00  0.00     0.009 A 
ATOM     63  C   UNL     1      -3.204  12.514   7.802  1.00  0.00     0.009 A 
ATOM     64  C   UNL     1      -1.029  11.159   8.905  1.00  0.00     0.001 A 
ATOM     65  C   UNL     1      -3.025  12.489   9.186  1.00  0.00     0.001 A 
ATOM     66  C   UNL     1      -1.944  11.803   9.737  1.00  0.00     0.000 A 
ENDBRANCH  47  61
BRANCH  48  67
ATOM     67  C   UNL     1      -3.876  11.851  -2.894  1.00  0.00    -0.014 A 
ATOM     68  C   UNL     1      -2.857  12.177  -3.802  1.00  0.00     0.009 A 
ATOM     69  C   UNL     1      -5.161  11.578  -3.390  1.00  0.00     0.009 A 
ATOM     70  C   UNL     1      -3.125  12.257  -5.171  1.00  0.00     0.001 A 
ATOM     71  C   UNL     1      -5.419  11.626  -4.762  1.00  0.00     0.001 A 
ATOM     72  C   UNL     1      -4.404  11.976  -5.650  1.00  0.00     0.000 A 
ENDBRANCH  48  67
BRANCH  60  73
ATOM     73  C   UNL     1      -2.294  16.832   1.712  1.00  0.00    -0.014 A 
ATOM     74  C   UNL     1      -3.349  17.717   1.440  1.00  0.00     0.009 A 
ATOM     75  C   UNL     1      -1.004  17.354   1.900  1.00  0.00     0.009 A 
ATOM     76  C   UNL     1      -3.109  19.088   1.324  1.00  0.00     0.001 A 
ATOM     77  C   UNL     1      -0.773  18.728   1.817  1.00  0.00     0.001 A 
ATOM     78  C   UNL     1      -1.824  19.593   1.518  1.00  0.00     0.000 A 
ENDBRANCH  60  73
ENDBRANCH  34  35
ENDBRANCH  27  29
ENDBRANCH  26  27
ENDBRANCH  25  26
ENDBRANCH  24  25
ENDBRANCH  23  24
ENDBRANCH  22  23
ENDBRANCH  21  22
ENDBRANCH   1  21
TORSDOF 22
