REMARK SMILES C[C@H](C(=O)OCCOCCOCCOC(=O)c1ccc(-c2c3nc(c(-c4ccccc4)c4ccc([nH]4)c(-c4ccccc4)c4nc(c(-c5ccccc5)c5ccc2[nH]5)C=C4)C=C3)cc1)[C@@H](C)C(=O)[C@H]1CC[C@H](C)CC1
REMARK SMILES IDX 9 1 8 2 7 3 6 4 5 5 3 6 4 7 2 8 1 9 65 10 66 11 67 12 68 13
REMARK SMILES IDX 69 14 73 15 72 16 71 17 74 18 70 19 75 20 10 21 11 22 12 23
REMARK SMILES IDX 13 24 14 25 15 26 16 27 17 28 18 29 64 30 19 31 63 32 20 33
REMARK SMILES IDX 21 34 22 35 57 36 23 37 62 38 56 39 58 40 24 41 61 42 55 43
REMARK SMILES IDX 54 44 25 46 47 47 32 48 46 49 33 50 36 51 45 52 59 53 34 54
REMARK SMILES IDX 35 55 44 57 60 58 37 59 26 60 27 61 31 62 28 63 30 64 29 65
REMARK SMILES IDX 48 66 49 67 53 68 50 69 52 70 51 71 38 72 39 73 43 74 40 75
REMARK SMILES IDX 42 76 41 77
REMARK H PARENT 58 45 36 56
REMARK Flexibility Score: inf
ROOT
ATOM      1  C   UNL     1      -2.285  -0.878   5.512  1.00  0.00     0.188 C 
ENDROOT
BRANCH   1   2
ATOM      2  O   UNL     1      -2.960  -0.739   6.744  1.00  0.00    -0.376 OA
BRANCH   2   3
ATOM      3  C   UNL     1      -4.067   0.146   6.779  1.00  0.00     0.202 C 
BRANCH   3   4
ATOM      4  C   UNL     1      -4.189   1.318   5.799  1.00  0.00     0.261 C 
BRANCH   4   5
ATOM      5  O   UNL     1      -4.208   1.081   4.364  1.00  0.00    -0.463 OA
BRANCH   5   6
ATOM      6  C   UNL     1      -3.219   1.647   3.610  1.00  0.00     0.309 C 
ATOM      7  O   UNL     1      -2.227   2.196   4.083  1.00  0.00    -0.252 OA
BRANCH   6   8
ATOM      8  C   UNL     1      -3.473   1.658   2.103  1.00  0.00     0.106 C 
ATOM      9  C   UNL     1      -4.252   0.463   1.556  1.00  0.00     0.021 C 
BRANCH   8  10
ATOM     10  C   UNL     1      -3.938   3.069   1.644  1.00  0.00     0.067 C 
ATOM     11  C   UNL     1      -3.977   3.191   0.114  1.00  0.00     0.017 C 
BRANCH  10  12
ATOM     12  C   UNL     1      -5.299   3.520   2.194  1.00  0.00     0.139 C 
ATOM     13  O   UNL     1      -6.326   2.939   1.828  1.00  0.00    -0.299 OA
BRANCH  12  14
ATOM     14  C   UNL     1      -5.398   4.626   3.277  1.00  0.00     0.056 C 
ATOM     15  C   UNL     1      -3.924   6.791   6.871  1.00  0.00     0.007 C 
ATOM     16  C   UNL     1      -4.061   5.943   5.612  1.00  0.00    -0.014 C 
ATOM     17  C   UNL     1      -4.489   6.742   4.372  1.00  0.00     0.004 C 
ATOM     18  C   UNL     1      -5.077   4.830   5.848  1.00  0.00     0.004 C 
ATOM     19  C   UNL     1      -4.496   5.854   3.112  1.00  0.00     0.012 C 
ATOM     20  C   UNL     1      -5.166   3.957   4.616  1.00  0.00     0.012 C 
ENDBRANCH  12  14
ENDBRANCH  10  12
ENDBRANCH   8  10
ENDBRANCH   6   8
ENDBRANCH   5   6
ENDBRANCH   4   5
ENDBRANCH   3   4
ENDBRANCH   2   3
ENDBRANCH   1   2
BRANCH   1  21
ATOM     21  C   UNL     1      -3.090  -1.478   4.350  1.00  0.00     0.188 C 
BRANCH  21  22
ATOM     22  O   UNL     1      -4.474  -1.639   4.535  1.00  0.00    -0.376 OA
BRANCH  22  23
ATOM     23  C   UNL     1      -4.968  -2.746   5.274  1.00  0.00     0.202 C 
BRANCH  23  24
ATOM     24  C   UNL     1      -4.108  -3.813   5.992  1.00  0.00     0.261 C 
BRANCH  24  25
ATOM     25  O   UNL     1      -2.684  -3.767   5.854  1.00  0.00    -0.460 OA
BRANCH  25  26
ATOM     26  C   UNL     1      -2.143  -4.428   4.795  1.00  0.00     0.338 C 
ATOM     27  O   UNL     1      -2.725  -5.093   3.972  1.00  0.00    -0.246 OA
BRANCH  26  28
ATOM     28  C   UNL     1      -0.744  -3.938   4.652  1.00  0.00     0.060 A 
ATOM     29  C   UNL     1      -0.375  -3.297   3.456  1.00  0.00     0.016 A 
ATOM     30  C   UNL     1       0.162  -4.024   5.709  1.00  0.00     0.016 A 
ATOM     31  C   UNL     1       0.902  -2.758   3.307  1.00  0.00     0.010 A 
ATOM     32  C   UNL     1       1.459  -3.529   5.542  1.00  0.00     0.010 A 
ATOM     33  C   UNL     1       1.843  -2.926   4.329  1.00  0.00    -0.014 A 
BRANCH  33  34
ATOM     34  C   UNL     1       3.283  -2.755   4.022  1.00  0.00     0.031 A 
ATOM     35  C   UNL     1       4.042  -3.980   3.589  1.00  0.00     0.074 A 
ATOM     36  C   UNL     1       3.906  -1.567   4.104  1.00  0.00     0.049 A 
ATOM     37  N   UNL     1       5.318  -4.128   3.345  1.00  0.00    -0.248 NA
ATOM     38  C   UNL     1       3.247  -5.208   3.411  1.00  0.00     0.031 C 
ATOM     39  C   UNL     1       3.276  -0.292   4.438  1.00  0.00     0.029 A 
ATOM     40  N   UNL     1       5.230  -1.252   3.915  1.00  0.00    -0.354 N 
ATOM     41  C   UNL     1       5.478  -5.466   3.005  1.00  0.00     0.074 A 
ATOM     42  C   UNL     1       4.179  -6.092   3.096  1.00  0.00     0.031 C 
ATOM     43  C   UNL     1       4.220   0.668   4.447  1.00  0.00     0.029 A 
ATOM     44  C   UNL     1       5.522   0.068   4.159  1.00  0.00     0.049 A 
ATOM     45  H   UNL     1       5.905  -1.909   3.631  1.00  0.00     0.167 HD
ATOM     46  C   UNL     1       6.607  -6.120   2.650  1.00  0.00     0.031 A 
ATOM     47  C   UNL     1       6.710   0.706   4.176  1.00  0.00     0.031 A 
ATOM     48  C   UNL     1       7.904  -5.506   2.577  1.00  0.00     0.049 A 
ATOM     49  C   UNL     1       7.971  -0.067   3.874  1.00  0.00     0.074 A 
ATOM     50  C   UNL     1       9.110  -6.081   2.220  1.00  0.00     0.029 A 
ATOM     51  N   UNL     1       8.163  -4.178   2.878  1.00  0.00    -0.354 N 
ATOM     52  N   UNL     1       8.113  -1.327   3.541  1.00  0.00    -0.248 NA
ATOM     53  C   UNL     1       9.237   0.678   3.949  1.00  0.00     0.031 C 
ATOM     54  C   UNL     1      10.111  -5.117   2.369  1.00  0.00     0.029 A 
ATOM     55  C   UNL     1       9.517  -3.923   2.746  1.00  0.00     0.049 A 
ATOM     56  H   UNL     1       7.485  -3.516   3.146  1.00  0.00     0.167 HD
ATOM     57  C   UNL     1       9.475  -1.516   3.332  1.00  0.00     0.074 A 
ATOM     58  C   UNL     1      10.115  -0.238   3.564  1.00  0.00     0.031 C 
ATOM     59  C   UNL     1      10.138  -2.644   2.976  1.00  0.00     0.031 A 
BRANCH  46  60
ATOM     60  C   UNL     1       6.490  -7.591   2.364  1.00  0.00    -0.014 A 
ATOM     61  C   UNL     1       5.832  -8.067   1.220  1.00  0.00     0.009 A 
ATOM     62  C   UNL     1       7.066  -8.514   3.251  1.00  0.00     0.009 A 
ATOM     63  C   UNL     1       5.723  -9.440   0.988  1.00  0.00     0.001 A 
ATOM     64  C   UNL     1       6.984  -9.884   3.000  1.00  0.00     0.001 A 
ATOM     65  C   UNL     1       6.305 -10.346   1.874  1.00  0.00     0.000 A 
ENDBRANCH  46  60
BRANCH  47  66
ATOM     66  C   UNL     1       6.782   2.152   4.520  1.00  0.00    -0.014 A 
ATOM     67  C   UNL     1       7.175   3.099   3.561  1.00  0.00     0.009 A 
ATOM     68  C   UNL     1       6.498   2.589   5.823  1.00  0.00     0.009 A 
ATOM     69  C   UNL     1       7.310   4.446   3.908  1.00  0.00     0.001 A 
ATOM     70  C   UNL     1       6.602   3.941   6.159  1.00  0.00     0.001 A 
ATOM     71  C   UNL     1       7.018   4.867   5.204  1.00  0.00     0.000 A 
ENDBRANCH  47  66
BRANCH  59  72
ATOM     72  C   UNL     1      11.624  -2.543   2.765  1.00  0.00    -0.014 A 
ATOM     73  C   UNL     1      12.509  -2.364   3.839  1.00  0.00     0.009 A 
ATOM     74  C   UNL     1      12.149  -2.681   1.469  1.00  0.00     0.009 A 
ATOM     75  C   UNL     1      13.886  -2.291   3.614  1.00  0.00     0.001 A 
ATOM     76  C   UNL     1      13.526  -2.642   1.252  1.00  0.00     0.001 A 
ATOM     77  C   UNL     1      14.393  -2.436   2.323  1.00  0.00     0.000 A 
ENDBRANCH  59  72
ENDBRANCH  33  34
ENDBRANCH  26  28
ENDBRANCH  25  26
ENDBRANCH  24  25
ENDBRANCH  23  24
ENDBRANCH  22  23
ENDBRANCH  21  22
ENDBRANCH   1  21
TORSDOF 20
