REMARK SMILES COc1c[nH]c(C[N@H+]2CCC[C@@H](c3ccc(C(=O)OCCOCCOCCOC(=O)c4ccc(-c5c6nc(c(-c7ccccc7)c7ccc([nH]7)c(-c7ccccc7)c7nc(c(-c8ccccc8)c8ccc5[nH]8)C=C7)C=C6)cc4)cc3)C2)cc1=O
REMARK SMILES IDX 23 1 22 2 21 3 20 4 19 5 17 6 18 7 16 8 13 9 14 10 80 11
REMARK SMILES IDX 15 12 79 13 12 14 8 15 9 16 81 17 10 19 11 20 7 21 6 22 3 23
REMARK SMILES IDX 4 24 83 25 5 26 82 27 84 28 2 30 1 31 24 32 25 33 26 34
REMARK SMILES IDX 27 35 28 36 29 37 30 38 31 39 32 40 78 41 33 42 77 43 34 44
REMARK SMILES IDX 35 45 36 46 71 47 37 48 76 49 70 50 72 51 38 52 75 53 69 54
REMARK SMILES IDX 68 55 39 57 61 58 46 59 60 60 47 61 50 62 59 63 73 64 48 65
REMARK SMILES IDX 49 66 58 68 74 69 51 70 40 71 41 72 45 73 42 74 44 75 43 76
REMARK SMILES IDX 62 77 63 78 67 79 64 80 66 81 65 82 52 83 53 84 57 85 54 86
REMARK SMILES IDX 56 87 55 88
REMARK H PARENT 8 18 5 29 72 56 50 67
REMARK Flexibility Score: inf
ROOT
ATOM      1  C   UNL     1      -6.508  -0.813   8.653  1.00  0.00     0.188 C 
ENDROOT
BRANCH   1   2
ATOM      2  O   UNL     1      -7.910  -0.748   8.482  1.00  0.00    -0.376 OA
BRANCH   2   3
ATOM      3  C   UNL     1      -8.674  -1.938   8.358  1.00  0.00     0.202 C 
BRANCH   3   4
ATOM      4  C   UNL     1      -8.226  -3.085   7.449  1.00  0.00     0.261 C 
BRANCH   4   5
ATOM      5  O   UNL     1      -6.873  -3.506   7.665  1.00  0.00    -0.460 OA
BRANCH   5   6
ATOM      6  C   UNL     1      -6.071  -3.403   6.578  1.00  0.00     0.338 C 
ATOM      7  O   UNL     1      -6.397  -3.069   5.451  1.00  0.00    -0.246 OA
BRANCH   6   8
ATOM      8  C   UNL     1      -4.658  -3.563   6.971  1.00  0.00     0.060 A 
ATOM      9  C   UNL     1      -1.913  -3.880   7.427  1.00  0.00    -0.039 A 
ATOM     10  C   UNL     1      -2.397  -2.750   6.745  1.00  0.00     0.005 A 
ATOM     11  C   UNL     1      -2.836  -4.789   7.972  1.00  0.00     0.005 A 
ATOM     12  C   UNL     1      -3.756  -2.607   6.493  1.00  0.00     0.016 A 
ATOM     13  C   UNL     1      -4.209  -4.627   7.755  1.00  0.00     0.016 A 
BRANCH   9  14
ATOM     14  C   UNL     1      -0.427  -4.228   7.386  1.00  0.00     0.074 C 
ATOM     15  N   UNL     1       1.368  -4.728   5.659  1.00  0.00    -0.329 N 
ATOM     16  C   UNL     1       2.225  -3.685   6.240  1.00  0.00     0.262 C 
ATOM     17  C   UNL     1      -0.048  -4.449   5.902  1.00  0.00     0.270 C 
ATOM     18  H   UNL     1       1.594  -5.599   6.138  1.00  0.00     0.348 HD
ATOM     19  C   UNL     1       1.953  -3.505   7.738  1.00  0.00     0.062 C 
ATOM     20  C   UNL     1       0.486  -3.166   8.012  1.00  0.00     0.020 C 
BRANCH  15  21
ATOM     21  C   UNL     1       1.653  -4.960   4.223  1.00  0.00     0.317 C 
BRANCH  21  22
ATOM     22  C   UNL     1       1.456  -3.778   3.274  1.00  0.00     0.074 A 
ATOM     23  C   UNL     1       0.864  -1.415   1.769  1.00  0.00     0.182 A 
ATOM     24  C   UNL     1      -0.083  -2.182   2.327  1.00  0.00     0.133 A 
ATOM     25  C   UNL     1       2.277  -1.931   1.880  1.00  0.00     0.223 A 
ATOM     26  N   UNL     1       0.170  -3.354   2.984  1.00  0.00    -0.357 N 
ATOM     27  C   UNL     1       2.507  -3.141   2.725  1.00  0.00     0.083 A 
ATOM     28  O   UNL     1       3.235  -1.394   1.333  1.00  0.00    -0.286 OA
ATOM     29  H   UNL     1      -0.589  -3.917   3.262  1.00  0.00     0.166 HD
BRANCH  23  30
ATOM     30  O   UNL     1       0.530  -0.197   1.208  1.00  0.00    -0.491 OA
ATOM     31  C   UNL     1       1.123   0.041  -0.062  1.00  0.00     0.278 C 
ENDBRANCH  23  30
ENDBRANCH  21  22
ENDBRANCH  15  21
ENDBRANCH   9  14
ENDBRANCH   6   8
ENDBRANCH   5   6
ENDBRANCH   4   5
ENDBRANCH   3   4
ENDBRANCH   2   3
ENDBRANCH   1   2
BRANCH   1  32
ATOM     32  C   UNL     1      -5.880  -1.618   9.810  1.00  0.00     0.188 C 
BRANCH  32  33
ATOM     33  O   UNL     1      -6.687  -2.328  10.724  1.00  0.00    -0.376 OA
BRANCH  33  34
ATOM     34  C   UNL     1      -7.581  -1.651  11.589  1.00  0.00     0.202 C 
BRANCH  34  35
ATOM     35  C   UNL     1      -7.327  -0.252  12.166  1.00  0.00     0.261 C 
BRANCH  35  36
ATOM     36  O   UNL     1      -6.674   0.684  11.306  1.00  0.00    -0.460 OA
BRANCH  36  37
ATOM     37  C   UNL     1      -5.434   1.057  11.711  1.00  0.00     0.338 C 
ATOM     38  O   UNL     1      -4.821   0.674  12.690  1.00  0.00    -0.246 OA
BRANCH  37  39
ATOM     39  C   UNL     1      -4.837   1.919  10.679  1.00  0.00     0.060 A 
ATOM     40  C   UNL     1      -3.709   1.455   9.989  1.00  0.00     0.016 A 
ATOM     41  C   UNL     1      -5.354   3.191  10.436  1.00  0.00     0.016 A 
ATOM     42  C   UNL     1      -3.083   2.276   9.053  1.00  0.00     0.010 A 
ATOM     43  C   UNL     1      -4.712   4.020   9.514  1.00  0.00     0.010 A 
ATOM     44  C   UNL     1      -3.563   3.575   8.836  1.00  0.00    -0.014 A 
BRANCH  44  45
ATOM     45  C   UNL     1      -2.785   4.529   8.014  1.00  0.00     0.031 A 
ATOM     46  C   UNL     1      -1.865   5.494   8.705  1.00  0.00     0.074 A 
ATOM     47  C   UNL     1      -2.908   4.548   6.676  1.00  0.00     0.049 A 
ATOM     48  N   UNL     1      -1.160   6.473   8.200  1.00  0.00    -0.248 NA
ATOM     49  C   UNL     1      -1.722   5.334  10.162  1.00  0.00     0.031 C 
ATOM     50  C   UNL     1      -3.729   3.634   5.885  1.00  0.00     0.029 A 
ATOM     51  N   UNL     1      -2.345   5.388   5.748  1.00  0.00    -0.354 N 
ATOM     52  C   UNL     1      -0.499   7.052   9.275  1.00  0.00     0.074 A 
ATOM     53  C   UNL     1      -0.901   6.330  10.462  1.00  0.00     0.031 C 
ATOM     54  C   UNL     1      -3.629   3.973   4.588  1.00  0.00     0.029 A 
ATOM     55  C   UNL     1      -2.771   5.151   4.465  1.00  0.00     0.049 A 
ATOM     56  H   UNL     1      -1.698   6.093   5.980  1.00  0.00     0.167 HD
ATOM     57  C   UNL     1       0.366   8.093   9.274  1.00  0.00     0.031 A 
ATOM     58  C   UNL     1      -2.523   5.828   3.328  1.00  0.00     0.031 A 
ATOM     59  C   UNL     1       0.749   8.827   8.098  1.00  0.00     0.049 A 
ATOM     60  C   UNL     1      -1.637   7.046   3.368  1.00  0.00     0.074 A 
ATOM     61  C   UNL     1       1.630   9.889   7.994  1.00  0.00     0.029 A 
ATOM     62  N   UNL     1       0.262   8.582   6.824  1.00  0.00    -0.354 N 
ATOM     63  N   UNL     1      -0.998   7.572   4.385  1.00  0.00    -0.248 NA
ATOM     64  C   UNL     1      -1.443   7.767   2.101  1.00  0.00     0.031 C 
ATOM     65  C   UNL     1       1.631  10.326   6.666  1.00  0.00     0.029 A 
ATOM     66  C   UNL     1       0.797   9.496   5.933  1.00  0.00     0.049 A 
ATOM     67  H   UNL     1      -0.370   7.866   6.588  1.00  0.00     0.167 HD
ATOM     68  C   UNL     1      -0.305   8.664   3.876  1.00  0.00     0.074 A 
ATOM     69  C   UNL     1      -0.594   8.720   2.458  1.00  0.00     0.031 C 
ATOM     70  C   UNL     1       0.500   9.540   4.524  1.00  0.00     0.031 A 
BRANCH  57  71
ATOM     71  C   UNL     1       0.925   8.526  10.599  1.00  0.00    -0.014 A 
ATOM     72  C   UNL     1       1.877   7.749  11.278  1.00  0.00     0.009 A 
ATOM     73  C   UNL     1       0.514   9.744  11.161  1.00  0.00     0.009 A 
ATOM     74  C   UNL     1       2.381   8.170  12.511  1.00  0.00     0.001 A 
ATOM     75  C   UNL     1       1.040  10.175  12.380  1.00  0.00     0.001 A 
ATOM     76  C   UNL     1       1.966   9.384  13.058  1.00  0.00     0.000 A 
ENDBRANCH  57  71
BRANCH  58  77
ATOM     77  C   UNL     1      -3.149   5.397   2.050  1.00  0.00    -0.014 A 
ATOM     78  C   UNL     1      -2.369   4.859   1.016  1.00  0.00     0.009 A 
ATOM     79  C   UNL     1      -4.531   5.548   1.849  1.00  0.00     0.009 A 
ATOM     80  C   UNL     1      -2.954   4.506  -0.202  1.00  0.00     0.001 A 
ATOM     81  C   UNL     1      -5.118   5.167   0.641  1.00  0.00     0.001 A 
ATOM     82  C   UNL     1      -4.328   4.656  -0.387  1.00  0.00     0.000 A 
ENDBRANCH  58  77
BRANCH  70  83
ATOM     83  C   UNL     1       1.156  10.617   3.706  1.00  0.00    -0.014 A 
ATOM     84  C   UNL     1       0.424  11.711   3.220  1.00  0.00     0.009 A 
ATOM     85  C   UNL     1       2.540  10.566   3.472  1.00  0.00     0.009 A 
ATOM     86  C   UNL     1       1.062  12.720   2.493  1.00  0.00     0.001 A 
ATOM     87  C   UNL     1       3.179  11.589   2.770  1.00  0.00     0.001 A 
ATOM     88  C   UNL     1       2.439  12.661   2.275  1.00  0.00     0.000 A 
ENDBRANCH  70  83
ENDBRANCH  44  45
ENDBRANCH  37  39
ENDBRANCH  36  37
ENDBRANCH  35  36
ENDBRANCH  34  35
ENDBRANCH  33  34
ENDBRANCH  32  33
ENDBRANCH   1  32
TORSDOF 21
