REMARK SMILES O=C(/C=C/c1ccc(NC(=O)[C@H]2COc3ccccc3C2)cc1)OCCOCCOCCOC(=O)c1ccc(-c2c3nc(c(-c4ccccc4)c4ccc([nH]4)c(-c4ccccc4)c4nc(c(-c5ccccc5)c5ccc2[nH]5)C=C4)C=C3)cc1
REMARK SMILES IDX 28 1 27 2 26 3 25 4 24 5 2 6 1 7 3 8 4 9 5 10 6 11 23 12
REMARK SMILES IDX 7 13 22 14 8 15 9 16 10 17 11 19 12 20 13 21 21 22 14 23
REMARK SMILES IDX 20 24 15 25 19 26 16 27 18 28 17 29 29 30 30 31 31 32 32 33
REMARK SMILES IDX 33 34 34 35 35 36 36 37 37 38 83 39 38 40 82 41 39 42 40 43
REMARK SMILES IDX 41 44 76 45 42 46 81 47 75 48 77 49 43 50 80 51 74 52 73 53
REMARK SMILES IDX 44 55 66 56 51 57 65 58 52 59 55 60 64 61 78 62 53 63 54 64
REMARK SMILES IDX 63 66 79 67 56 68 45 69 46 70 50 71 47 72 49 73 48 74 67 75
REMARK SMILES IDX 68 76 72 77 69 78 71 79 70 80 57 81 58 82 62 83 59 84 61 85
REMARK SMILES IDX 60 86
REMARK H PARENT 9 18 77 54 55 65
REMARK Flexibility Score: inf
ROOT
ATOM      1  C   UNL     1       3.214   1.234   1.210  1.00  0.00     0.188 C 
ENDROOT
BRANCH   1   2
ATOM      2  O   UNL     1       4.432   0.922   0.541  1.00  0.00    -0.376 OA
BRANCH   2   3
ATOM      3  C   UNL     1       4.545   1.258  -0.832  1.00  0.00     0.202 C 
BRANCH   3   4
ATOM      4  C   UNL     1       3.836   0.339  -1.823  1.00  0.00     0.261 C 
BRANCH   4   5
ATOM      5  O   UNL     1       2.552  -0.128  -1.386  1.00  0.00    -0.460 OA
BRANCH   5   6
ATOM      6  C   UNL     1       2.377  -1.449  -1.111  1.00  0.00     0.330 C 
ATOM      7  O   UNL     1       1.419  -2.085  -1.527  1.00  0.00    -0.247 OA
BRANCH   6   8
ATOM      8  C   UNL     1       3.206  -1.965  -0.004  1.00  0.00     0.094 C 
ATOM      9  C   UNL     1       4.493  -2.287  -0.169  1.00  0.00     0.015 C 
BRANCH   9  10
ATOM     10  C   UNL     1       5.384  -2.619   0.938  1.00  0.00    -0.025 A 
ATOM     11  C   UNL     1       6.338  -1.671   1.321  1.00  0.00     0.010 A 
ATOM     12  C   UNL     1       5.382  -3.880   1.534  1.00  0.00     0.010 A 
ATOM     13  C   UNL     1       7.324  -1.994   2.248  1.00  0.00     0.027 A 
ATOM     14  C   UNL     1       6.397  -4.221   2.432  1.00  0.00     0.027 A 
ATOM     15  C   UNL     1       7.379  -3.285   2.771  1.00  0.00     0.041 A 
BRANCH  15  16
ATOM     16  N   UNL     1       8.480  -3.708   3.531  1.00  0.00    -0.326 N 
ATOM     17  C   UNL     1       9.388  -2.869   4.118  1.00  0.00     0.231 C 
ATOM     18  H   UNL     1       8.609  -4.677   3.650  1.00  0.00     0.169 HD
ATOM     19  O   UNL     1      10.579  -2.918   3.815  1.00  0.00    -0.274 OA
BRANCH  17  20
ATOM     20  C   UNL     1       8.914  -2.082   5.326  1.00  0.00     0.121 C 
ATOM     21  C   UNL     1       9.165  -0.578   5.286  1.00  0.00     0.243 C 
ATOM     22  C   UNL     1       7.483  -2.296   5.801  1.00  0.00     0.056 C 
ATOM     23  O   UNL     1       8.798   0.122   6.502  1.00  0.00    -0.492 OA
ATOM     24  C   UNL     1       7.534  -1.825   7.222  1.00  0.00    -0.005 A 
ATOM     25  C   UNL     1       8.219  -0.632   7.491  1.00  0.00     0.122 A 
ATOM     26  C   UNL     1       7.087  -2.634   8.269  1.00  0.00     0.007 A 
ATOM     27  C   UNL     1       8.421  -0.230   8.806  1.00  0.00     0.047 A 
ATOM     28  C   UNL     1       7.349  -2.261   9.584  1.00  0.00     0.001 A 
ATOM     29  C   UNL     1       8.008  -1.059   9.853  1.00  0.00     0.004 A 
ENDBRANCH  17  20
ENDBRANCH  15  16
ENDBRANCH   9  10
ENDBRANCH   6   8
ENDBRANCH   5   6
ENDBRANCH   4   5
ENDBRANCH   3   4
ENDBRANCH   2   3
ENDBRANCH   1   2
BRANCH   1  30
ATOM     30  C   UNL     1       2.499   2.558   0.906  1.00  0.00     0.188 C 
BRANCH  30  31
ATOM     31  O   UNL     1       3.238   3.757   0.711  1.00  0.00    -0.376 OA
BRANCH  31  32
ATOM     32  C   UNL     1       4.497   3.938   1.343  1.00  0.00     0.202 C 
BRANCH  32  33
ATOM     33  C   UNL     1       4.475   4.237   2.840  1.00  0.00     0.261 C 
BRANCH  33  34
ATOM     34  O   UNL     1       4.093   3.095   3.622  1.00  0.00    -0.460 OA
BRANCH  34  35
ATOM     35  C   UNL     1       2.891   3.204   4.231  1.00  0.00     0.338 C 
ATOM     36  O   UNL     1       2.121   4.146   4.181  1.00  0.00    -0.246 OA
BRANCH  35  37
ATOM     37  C   UNL     1       2.541   1.950   4.925  1.00  0.00     0.060 A 
ATOM     38  C   UNL     1       1.246   1.458   4.733  1.00  0.00     0.016 A 
ATOM     39  C   UNL     1       3.396   1.359   5.861  1.00  0.00     0.016 A 
ATOM     40  C   UNL     1       0.762   0.440   5.548  1.00  0.00     0.010 A 
ATOM     41  C   UNL     1       2.907   0.336   6.683  1.00  0.00     0.010 A 
ATOM     42  C   UNL     1       1.568  -0.079   6.571  1.00  0.00    -0.014 A 
BRANCH  42  43
ATOM     43  C   UNL     1       0.919  -0.869   7.646  1.00  0.00     0.031 A 
ATOM     44  C   UNL     1       0.487  -0.160   8.904  1.00  0.00     0.074 A 
ATOM     45  C   UNL     1       0.631  -2.171   7.478  1.00  0.00     0.049 A 
ATOM     46  N   UNL     1      -0.176  -0.624   9.934  1.00  0.00    -0.248 NA
ATOM     47  C   UNL     1       0.844   1.265   9.012  1.00  0.00     0.031 C 
ATOM     48  C   UNL     1       0.946  -2.964   6.292  1.00  0.00     0.029 A 
ATOM     49  N   UNL     1      -0.014  -3.049   8.312  1.00  0.00    -0.354 N 
ATOM     50  C   UNL     1      -0.313   0.448  10.807  1.00  0.00     0.074 A 
ATOM     51  C   UNL     1       0.361   1.577  10.204  1.00  0.00     0.031 C 
ATOM     52  C   UNL     1       0.483  -4.214   6.470  1.00  0.00     0.029 A 
ATOM     53  C   UNL     1      -0.143  -4.311   7.788  1.00  0.00     0.049 A 
ATOM     54  H   UNL     1      -0.353  -2.798   9.202  1.00  0.00     0.167 HD
ATOM     55  C   UNL     1      -0.950   0.497  12.002  1.00  0.00     0.031 A 
ATOM     56  C   UNL     1      -0.703  -5.418   8.313  1.00  0.00     0.031 A 
ATOM     57  C   UNL     1      -1.615  -0.620  12.615  1.00  0.00     0.049 A 
ATOM     58  C   UNL     1      -1.348  -5.355   9.672  1.00  0.00     0.074 A 
ATOM     59  C   UNL     1      -2.297  -0.664  13.818  1.00  0.00     0.029 A 
ATOM     60  N   UNL     1      -1.674  -1.893  12.073  1.00  0.00    -0.354 N 
ATOM     61  N   UNL     1      -1.497  -4.327  10.472  1.00  0.00    -0.248 NA
ATOM     62  C   UNL     1      -1.917  -6.608  10.190  1.00  0.00     0.031 C 
ATOM     63  C   UNL     1      -2.730  -1.978  14.027  1.00  0.00     0.029 A 
ATOM     64  C   UNL     1      -2.362  -2.737  12.928  1.00  0.00     0.049 A 
ATOM     65  H   UNL     1      -1.286  -2.159  11.209  1.00  0.00     0.167 HD
ATOM     66  C   UNL     1      -2.207  -4.801  11.569  1.00  0.00     0.074 A 
ATOM     67  C   UNL     1      -2.464  -6.206  11.329  1.00  0.00     0.031 C 
ATOM     68  C   UNL     1      -2.615  -4.131  12.675  1.00  0.00     0.031 A 
BRANCH  55  69
ATOM     69  C   UNL     1      -0.924   1.805  12.740  1.00  0.00    -0.014 A 
ATOM     70  C   UNL     1      -1.696   2.898  12.316  1.00  0.00     0.009 A 
ATOM     71  C   UNL     1      -0.130   1.938  13.889  1.00  0.00     0.009 A 
ATOM     72  C   UNL     1      -1.647   4.109  13.010  1.00  0.00     0.001 A 
ATOM     73  C   UNL     1      -0.102   3.142  14.595  1.00  0.00     0.001 A 
ATOM     74  C   UNL     1      -0.853   4.228  14.150  1.00  0.00     0.000 A 
ENDBRANCH  55  69
BRANCH  56  75
ATOM     75  C   UNL     1      -0.686  -6.693   7.551  1.00  0.00    -0.014 A 
ATOM     76  C   UNL     1      -1.869  -7.220   7.011  1.00  0.00     0.009 A 
ATOM     77  C   UNL     1       0.512  -7.405   7.389  1.00  0.00     0.009 A 
ATOM     78  C   UNL     1      -1.857  -8.449   6.348  1.00  0.00     0.001 A 
ATOM     79  C   UNL     1       0.526  -8.621   6.703  1.00  0.00     0.001 A 
ATOM     80  C   UNL     1      -0.660  -9.146   6.192  1.00  0.00     0.000 A 
ENDBRANCH  56  75
BRANCH  68  81
ATOM     81  C   UNL     1      -3.421  -4.896  13.687  1.00  0.00    -0.014 A 
ATOM     82  C   UNL     1      -2.827  -5.856  14.521  1.00  0.00     0.009 A 
ATOM     83  C   UNL     1      -4.791  -4.626  13.828  1.00  0.00     0.009 A 
ATOM     84  C   UNL     1      -3.599  -6.556  15.451  1.00  0.00     0.001 A 
ATOM     85  C   UNL     1      -5.554  -5.307  14.777  1.00  0.00     0.001 A 
ATOM     86  C   UNL     1      -4.960  -6.278  15.581  1.00  0.00     0.000 A 
ENDBRANCH  68  81
ENDBRANCH  42  43
ENDBRANCH  35  37
ENDBRANCH  34  35
ENDBRANCH  33  34
ENDBRANCH  32  33
ENDBRANCH  31  32
ENDBRANCH  30  31
ENDBRANCH   1  30
TORSDOF 20
