REMARK SMILES N#CCCn1cc(C(=O)OCCOCCOCCOC(=O)c2ccc(-c3c4nc(c(-c5ccccc5)c5ccc([nH]5)c(-c5ccccc5)c5nc(c(-c6ccccc6)c6ccc3[nH]6)C=C5)C=C4)cc2)c(-c2cccc([N+](=O)[O-])c2)n1
REMARK SMILES IDX 14 1 13 2 12 3 11 4 10 5 8 6 9 7 7 8 5 9 6 10 80 11 70 12
REMARK SMILES IDX 4 13 3 14 2 15 1 16 71 17 72 18 79 19 73 20 75 21 74 22
REMARK SMILES IDX 76 23 77 24 78 25 15 26 16 27 17 28 18 29 19 30 20 31 21 32
REMARK SMILES IDX 22 33 23 34 69 35 24 36 68 37 25 38 26 39 27 40 62 41 28 42
REMARK SMILES IDX 67 43 61 44 63 45 29 46 66 47 60 48 59 49 30 51 52 52 37 53
REMARK SMILES IDX 51 54 38 55 41 56 50 57 64 58 39 59 40 60 49 62 65 63 42 64
REMARK SMILES IDX 31 65 32 66 36 67 33 68 35 69 34 70 53 71 54 72 58 73 55 74
REMARK SMILES IDX 57 75 56 76 43 77 44 78 48 79 45 80 47 81 46 82
REMARK H PARENT 63 50 41 61
REMARK Flexibility Score: inf
ROOT
ATOM      1  C   UNL     1       4.978  -6.326   4.004  1.00  0.00     0.188 C 
ENDROOT
BRANCH   1   2
ATOM      2  O   UNL     1       5.314  -7.481   3.257  1.00  0.00    -0.376 OA
BRANCH   2   3
ATOM      3  C   UNL     1       4.300  -7.947   2.375  1.00  0.00     0.202 C 
BRANCH   3   4
ATOM      4  C   UNL     1       4.112  -7.131   1.086  1.00  0.00     0.261 C 
BRANCH   4   5
ATOM      5  O   UNL     1       4.046  -5.707   1.243  1.00  0.00    -0.460 OA
BRANCH   5   6
ATOM      6  C   UNL     1       2.899  -5.170   1.756  1.00  0.00     0.342 C 
ATOM      7  O   UNL     1       1.922  -5.815   2.070  1.00  0.00    -0.246 OA
BRANCH   6   8
ATOM      8  C   UNL     1       3.067  -3.745   2.004  1.00  0.00     0.106 A 
ATOM      9  N   UNL     1       3.770  -1.667   1.936  1.00  0.00    -0.270 N 
ATOM     10  C   UNL     1       3.893  -2.874   1.319  1.00  0.00     0.125 A 
ATOM     11  N   UNL     1       2.994  -1.701   3.028  1.00  0.00    -0.172 NA
ATOM     12  C   UNL     1       2.551  -2.965   3.080  1.00  0.00     0.107 A 
BRANCH   9  13
ATOM     13  C   UNL     1       4.284  -0.396   1.458  1.00  0.00     0.159 C 
BRANCH  13  14
ATOM     14  C   UNL     1       3.763  -0.072   0.067  1.00  0.00     0.144 C 
BRANCH  14  15
ATOM     15  C   UNL     1       2.243  -0.072   0.067  1.00  0.00     0.064 C 
ATOM     16  N   UNL     1       0.982  -0.072   0.067  1.00  0.00    -0.198 NA
ENDBRANCH  14  15
ENDBRANCH  13  14
ENDBRANCH   9  13
BRANCH  12  17
ATOM     17  C   UNL     1       1.760  -3.429   4.206  1.00  0.00     0.010 A 
ATOM     18  C   UNL     1       2.403  -3.998   5.316  1.00  0.00     0.011 A 
ATOM     19  C   UNL     1       0.368  -3.350   4.166  1.00  0.00     0.096 A 
ATOM     20  C   UNL     1       1.660  -4.555   6.357  1.00  0.00     0.008 A 
ATOM     21  C   UNL     1      -0.371  -3.895   5.223  1.00  0.00     0.270 A 
ATOM     22  C   UNL     1       0.268  -4.514   6.309  1.00  0.00     0.085 A 
BRANCH  21  23
ATOM     23  N   UNL     1      -1.835  -3.825   5.192  1.00  0.00     0.062 N 
ATOM     24  O   UNL     1      -2.459  -4.495   6.028  1.00  0.00    -0.258 OA
ATOM     25  O   UNL     1      -2.362  -3.099   4.339  1.00  0.00    -0.258 OA
ENDBRANCH  21  23
ENDBRANCH  12  17
ENDBRANCH   6   8
ENDBRANCH   5   6
ENDBRANCH   4   5
ENDBRANCH   3   4
ENDBRANCH   2   3
ENDBRANCH   1   2
BRANCH   1  26
ATOM     26  C   UNL     1       5.810  -5.071   3.669  1.00  0.00     0.188 C 
BRANCH  26  27
ATOM     27  O   UNL     1       6.921  -5.094   2.782  1.00  0.00    -0.376 OA
BRANCH  27  28
ATOM     28  C   UNL     1       7.729  -6.252   2.642  1.00  0.00     0.202 C 
BRANCH  28  29
ATOM     29  C   UNL     1       8.497  -6.762   3.857  1.00  0.00     0.261 C 
BRANCH  29  30
ATOM     30  O   UNL     1       7.772  -6.666   5.069  1.00  0.00    -0.460 OA
BRANCH  30  31
ATOM     31  C   UNL     1       7.941  -5.498   5.726  1.00  0.00     0.338 C 
ATOM     32  O   UNL     1       8.564  -4.518   5.357  1.00  0.00    -0.246 OA
BRANCH  31  33
ATOM     33  C   UNL     1       7.308  -5.618   7.045  1.00  0.00     0.060 A 
ATOM     34  C   UNL     1       7.421  -4.513   7.891  1.00  0.00     0.016 A 
ATOM     35  C   UNL     1       6.921  -6.882   7.513  1.00  0.00     0.016 A 
ATOM     36  C   UNL     1       7.434  -4.738   9.247  1.00  0.00     0.010 A 
ATOM     37  C   UNL     1       6.962  -7.112   8.863  1.00  0.00     0.010 A 
ATOM     38  C   UNL     1       7.328  -6.057   9.695  1.00  0.00    -0.014 A 
BRANCH  38  39
ATOM     39  C   UNL     1       7.717  -6.336  11.056  1.00  0.00     0.031 A 
ATOM     40  C   UNL     1       6.647  -6.182  12.052  1.00  0.00     0.074 A 
ATOM     41  C   UNL     1       8.939  -6.822  11.339  1.00  0.00     0.049 A 
ATOM     42  N   UNL     1       6.577  -5.326  13.014  1.00  0.00    -0.248 NA
ATOM     43  C   UNL     1       5.446  -7.011  11.877  1.00  0.00     0.031 C 
ATOM     44  C   UNL     1       9.948  -7.323  10.398  1.00  0.00     0.029 A 
ATOM     45  N   UNL     1       9.482  -7.094  12.554  1.00  0.00    -0.354 N 
ATOM     46  C   UNL     1       5.403  -5.634  13.690  1.00  0.00     0.074 A 
ATOM     47  C   UNL     1       4.663  -6.531  12.840  1.00  0.00     0.031 C 
ATOM     48  C   UNL     1      10.867  -8.043  11.082  1.00  0.00     0.029 A 
ATOM     49  C   UNL     1      10.573  -7.948  12.503  1.00  0.00     0.049 A 
ATOM     50  H   UNL     1       9.133  -6.719  13.395  1.00  0.00     0.167 HD
ATOM     51  C   UNL     1       5.258  -5.368  15.015  1.00  0.00     0.031 A 
ATOM     52  C   UNL     1      11.127  -8.600  13.553  1.00  0.00     0.031 A 
ATOM     53  C   UNL     1       6.209  -4.390  15.478  1.00  0.00     0.049 A 
ATOM     54  C   UNL     1      10.663  -7.939  14.796  1.00  0.00     0.074 A 
ATOM     55  C   UNL     1       6.521  -3.090  15.130  1.00  0.00     0.029 A 
ATOM     56  N   UNL     1       7.268  -4.841  16.229  1.00  0.00    -0.354 N 
ATOM     57  N   UNL     1      11.039  -6.751  15.172  1.00  0.00    -0.248 NA
ATOM     58  C   UNL     1       9.452  -8.437  15.432  1.00  0.00     0.031 C 
ATOM     59  C   UNL     1       7.932  -2.983  15.302  1.00  0.00     0.029 A 
ATOM     60  C   UNL     1       8.397  -4.212  15.775  1.00  0.00     0.049 A 
ATOM     61  H   UNL     1       7.224  -5.498  16.960  1.00  0.00     0.167 HD
ATOM     62  C   UNL     1       9.911  -6.186  15.750  1.00  0.00     0.074 A 
ATOM     63  C   UNL     1       9.008  -7.308  15.992  1.00  0.00     0.031 C 
ATOM     64  C   UNL     1       9.700  -4.837  15.709  1.00  0.00     0.031 A 
BRANCH  51  65
ATOM     65  C   UNL     1       4.558  -6.324  15.954  1.00  0.00    -0.014 A 
ATOM     66  C   UNL     1       4.455  -5.975  17.311  1.00  0.00     0.009 A 
ATOM     67  C   UNL     1       4.254  -7.660  15.624  1.00  0.00     0.009 A 
ATOM     68  C   UNL     1       4.155  -6.932  18.287  1.00  0.00     0.001 A 
ATOM     69  C   UNL     1       3.904  -8.607  16.588  1.00  0.00     0.001 A 
ATOM     70  C   UNL     1       3.888  -8.249  17.926  1.00  0.00     0.000 A 
ENDBRANCH  51  65
BRANCH  52  71
ATOM     71  C   UNL     1      11.804  -9.913  13.564  1.00  0.00    -0.014 A 
ATOM     72  C   UNL     1      12.592 -10.301  14.657  1.00  0.00     0.009 A 
ATOM     73  C   UNL     1      11.476 -10.896  12.611  1.00  0.00     0.009 A 
ATOM     74  C   UNL     1      13.007 -11.631  14.809  1.00  0.00     0.001 A 
ATOM     75  C   UNL     1      11.897 -12.221  12.756  1.00  0.00     0.001 A 
ATOM     76  C   UNL     1      12.650 -12.591  13.864  1.00  0.00     0.000 A 
ENDBRANCH  52  71
BRANCH  64  77
ATOM     77  C   UNL     1      10.845  -3.958  15.272  1.00  0.00    -0.014 A 
ATOM     78  C   UNL     1      11.437  -4.059  14.000  1.00  0.00     0.009 A 
ATOM     79  C   UNL     1      11.241  -2.905  16.109  1.00  0.00     0.009 A 
ATOM     80  C   UNL     1      12.421  -3.152  13.594  1.00  0.00     0.001 A 
ATOM     81  C   UNL     1      12.209  -1.987  15.695  1.00  0.00     0.001 A 
ATOM     82  C   UNL     1      12.803  -2.114  14.440  1.00  0.00     0.000 A 
ENDBRANCH  64  77
ENDBRANCH  38  39
ENDBRANCH  31  33
ENDBRANCH  30  31
ENDBRANCH  29  30
ENDBRANCH  28  29
ENDBRANCH  27  28
ENDBRANCH  26  27
ENDBRANCH   1  26
TORSDOF 22
