REMARK SMILES CC[C@H](C)[C@H](NC(=O)[C@H](C(C)C)n1c(=O)[nH]c2ccccc2c1=O)C(=O)OCCOCCOCCOC(=O)c1ccc(-c2c3nc(c(-c4ccccc4)c4ccc([nH]4)c(-c4ccccc4)c4nc(c(-c5ccccc5)c5ccc2[nH]5)C=C4)C=C3)cc1
REMARK SMILES IDX 31 1 30 2 29 3 28 4 27 5 25 6 26 7 5 8 3 9 4 10 2 11 1 12
REMARK SMILES IDX 6 13 7 14 8 16 9 17 13 18 14 19 23 20 15 21 16 22 22 23
REMARK SMILES IDX 24 24 17 25 21 27 18 28 20 29 19 30 10 31 11 32 12 33 32 34
REMARK SMILES IDX 33 35 34 36 35 37 36 38 37 39 38 40 39 41 40 42 86 43 41 44
REMARK SMILES IDX 85 45 42 46 43 47 44 48 79 49 45 50 84 51 78 52 80 53 46 54
REMARK SMILES IDX 83 55 77 56 76 57 47 59 69 60 54 61 68 62 55 63 58 64 67 65
REMARK SMILES IDX 81 66 56 67 57 68 66 70 82 71 59 72 48 73 49 74 53 75 50 76
REMARK SMILES IDX 52 77 51 78 70 79 71 80 75 81 72 82 74 83 73 84 60 85 61 86
REMARK SMILES IDX 65 87 62 88 64 89 63 90
REMARK H PARENT 6 15 16 26 80 58 58 69
REMARK Flexibility Score: inf
ROOT
ATOM      1  C   UNL     1       2.534   6.798  -4.935  1.00  0.00     0.188 C 
ENDROOT
BRANCH   1   2
ATOM      2  O   UNL     1       1.155   6.944  -5.205  1.00  0.00    -0.376 OA
BRANCH   2   3
ATOM      3  C   UNL     1       0.292   5.821  -5.249  1.00  0.00     0.202 C 
BRANCH   3   4
ATOM      4  C   UNL     1       0.796   4.443  -5.663  1.00  0.00     0.261 C 
BRANCH   4   5
ATOM      5  O   UNL     1       1.967   4.016  -4.957  1.00  0.00    -0.462 OA
BRANCH   5   6
ATOM      6  C   UNL     1       3.107   3.928  -5.695  1.00  0.00     0.328 C 
ATOM      7  O   UNL     1       3.191   4.293  -6.867  1.00  0.00    -0.250 OA
BRANCH   6   8
ATOM      8  C   UNL     1       4.188   3.009  -5.069  1.00  0.00     0.195 C 
BRANCH   8   9
ATOM      9  C   UNL     1       3.499   1.707  -5.431  1.00  0.00     0.019 C 
ATOM     10  C   UNL     1       4.657   1.103  -6.282  1.00  0.00     0.010 C 
BRANCH   9  11
ATOM     11  C   UNL     1       2.702   1.357  -4.050  1.00  0.00     0.002 C 
ATOM     12  C   UNL     1       1.270   0.842  -4.080  1.00  0.00     0.004 C 
ENDBRANCH   9  11
ENDBRANCH   8   9
BRANCH   8  13
ATOM     13  N   UNL     1       4.823   2.767  -3.734  1.00  0.00    -0.341 N 
ATOM     14  C   UNL     1       5.479   1.683  -3.156  1.00  0.00     0.244 C 
ATOM     15  H   UNL     1       4.764   3.545  -3.134  1.00  0.00     0.164 HD
ATOM     16  O   UNL     1       6.142   2.055  -2.167  1.00  0.00    -0.273 OA
BRANCH  14  17
ATOM     17  C   UNL     1       5.591   0.055  -3.658  1.00  0.00     0.187 C 
BRANCH  17  18
ATOM     18  N   UNL     1       6.565  -0.533  -2.670  1.00  0.00    -0.247 N 
ATOM     19  C   UNL     1       7.651  -1.216  -3.198  1.00  0.00     0.329 A 
ATOM     20  C   UNL     1       6.197  -0.620  -1.321  1.00  0.00     0.264 A 
ATOM     21  O   UNL     1       8.020  -1.137  -4.370  1.00  0.00    -0.248 OA
ATOM     22  N   UNL     1       8.255  -2.130  -2.383  1.00  0.00    -0.307 N 
ATOM     23  C   UNL     1       7.153  -1.304  -0.423  1.00  0.00     0.064 A 
ATOM     24  O   UNL     1       5.112  -0.258  -0.868  1.00  0.00    -0.268 OA
ATOM     25  C   UNL     1       8.059  -2.178  -1.010  1.00  0.00     0.055 A 
ATOM     26  H   UNL     1       8.861  -2.790  -2.790  1.00  0.00     0.171 HD
ATOM     27  C   UNL     1       7.132  -1.157   0.966  1.00  0.00     0.016 A 
ATOM     28  C   UNL     1       8.838  -3.030  -0.230  1.00  0.00     0.027 A 
ATOM     29  C   UNL     1       7.990  -1.933   1.752  1.00  0.00     0.001 A 
ATOM     30  C   UNL     1       8.807  -2.899   1.157  1.00  0.00     0.002 A 
ENDBRANCH  17  18
BRANCH  17  31
ATOM     31  C   UNL     1       4.469  -1.159  -3.908  1.00  0.00     0.016 C 
ATOM     32  C   UNL     1       3.493  -1.313  -5.117  1.00  0.00     0.010 C 
ATOM     33  C   UNL     1       5.177  -2.538  -4.064  1.00  0.00     0.010 C 
ENDBRANCH  17  31
ENDBRANCH  14  17
ENDBRANCH   8  13
ENDBRANCH   6   8
ENDBRANCH   5   6
ENDBRANCH   4   5
ENDBRANCH   3   4
ENDBRANCH   2   3
ENDBRANCH   1   2
BRANCH   1  34
ATOM     34  C   UNL     1       3.010   6.153  -3.610  1.00  0.00     0.188 C 
BRANCH  34  35
ATOM     35  O   UNL     1       2.083   5.807  -2.611  1.00  0.00    -0.376 OA
BRANCH  35  36
ATOM     36  C   UNL     1       1.269   6.830  -2.069  1.00  0.00     0.202 C 
BRANCH  36  37
ATOM     37  C   UNL     1       1.772   8.277  -1.865  1.00  0.00     0.261 C 
BRANCH  37  38
ATOM     38  O   UNL     1       2.711   8.797  -2.824  1.00  0.00    -0.460 OA
BRANCH  38  39
ATOM     39  C   UNL     1       4.019   8.872  -2.421  1.00  0.00     0.338 C 
ATOM     40  O   UNL     1       4.454   8.624  -1.328  1.00  0.00    -0.246 OA
BRANCH  39  41
ATOM     41  C   UNL     1       4.875   9.025  -3.641  1.00  0.00     0.060 A 
ATOM     42  C   UNL     1       4.638  10.034  -4.572  1.00  0.00     0.016 A 
ATOM     43  C   UNL     1       5.886   8.076  -3.886  1.00  0.00     0.016 A 
ATOM     44  C   UNL     1       5.434  10.116  -5.723  1.00  0.00     0.010 A 
ATOM     45  C   UNL     1       6.665   8.145  -5.050  1.00  0.00     0.010 A 
ATOM     46  C   UNL     1       6.468   9.188  -5.964  1.00  0.00    -0.014 A 
BRANCH  46  47
ATOM     47  C   UNL     1       7.482   9.483  -7.014  1.00  0.00     0.031 A 
ATOM     48  C   UNL     1       7.502   8.825  -8.362  1.00  0.00     0.074 A 
ATOM     49  C   UNL     1       8.413  10.412  -6.718  1.00  0.00     0.049 A 
ATOM     50  N   UNL     1       8.250   9.119  -9.398  1.00  0.00    -0.248 NA
ATOM     51  C   UNL     1       6.584   7.700  -8.584  1.00  0.00     0.031 C 
ATOM     52  C   UNL     1       8.527  11.091  -5.425  1.00  0.00     0.029 A 
ATOM     53  N   UNL     1       9.420  10.961  -7.473  1.00  0.00    -0.354 N 
ATOM     54  C   UNL     1       7.875   8.243 -10.408  1.00  0.00     0.074 A 
ATOM     55  C   UNL     1       6.865   7.369  -9.842  1.00  0.00     0.031 C 
ATOM     56  C   UNL     1       9.519  11.989  -5.489  1.00  0.00     0.029 A 
ATOM     57  C   UNL     1      10.133  11.932  -6.812  1.00  0.00     0.049 A 
ATOM     58  H   UNL     1       9.612  10.685  -8.399  1.00  0.00     0.167 HD
ATOM     59  C   UNL     1       8.319   8.192 -11.688  1.00  0.00     0.031 A 
ATOM     60  C   UNL     1      11.160  12.706  -7.215  1.00  0.00     0.031 A 
ATOM     61  C   UNL     1       9.344   9.049 -12.238  1.00  0.00     0.049 A 
ATOM     62  C   UNL     1      11.646  12.611  -8.633  1.00  0.00     0.074 A 
ATOM     63  C   UNL     1       9.816   9.089 -13.541  1.00  0.00     0.029 A 
ATOM     64  N   UNL     1      10.061  10.000 -11.529  1.00  0.00    -0.354 N 
ATOM     65  N   UNL     1      11.205  11.849  -9.603  1.00  0.00    -0.248 NA
ATOM     66  C   UNL     1      12.753  13.498  -9.021  1.00  0.00     0.031 C 
ATOM     67  C   UNL     1      10.867  10.005 -13.602  1.00  0.00     0.029 A 
ATOM     68  C   UNL     1      10.993  10.604 -12.360  1.00  0.00     0.049 A 
ATOM     69  H   UNL     1       9.928  10.215 -10.578  1.00  0.00     0.167 HD
ATOM     70  C   UNL     1      11.965  12.177 -10.719  1.00  0.00     0.074 A 
ATOM     71  C   UNL     1      12.877  13.225 -10.314  1.00  0.00     0.031 C 
ATOM     72  C   UNL     1      11.906  11.647 -11.964  1.00  0.00     0.031 A 
BRANCH  59  73
ATOM     73  C   UNL     1       7.692   7.201 -12.635  1.00  0.00    -0.014 A 
ATOM     74  C   UNL     1       8.467   6.168 -13.192  1.00  0.00     0.009 A 
ATOM     75  C   UNL     1       6.392   7.407 -13.123  1.00  0.00     0.009 A 
ATOM     76  C   UNL     1       7.967   5.388 -14.237  1.00  0.00     0.001 A 
ATOM     77  C   UNL     1       5.884   6.606 -14.149  1.00  0.00     0.001 A 
ATOM     78  C   UNL     1       6.676   5.608 -14.715  1.00  0.00     0.000 A 
ENDBRANCH  59  73
BRANCH  60  79
ATOM     79  C   UNL     1      11.766  13.661  -6.249  1.00  0.00    -0.014 A 
ATOM     80  C   UNL     1      12.450  13.182  -5.118  1.00  0.00     0.009 A 
ATOM     81  C   UNL     1      11.616  15.045  -6.411  1.00  0.00     0.009 A 
ATOM     82  C   UNL     1      12.945  14.066  -4.159  1.00  0.00     0.001 A 
ATOM     83  C   UNL     1      12.148  15.929  -5.469  1.00  0.00     0.001 A 
ATOM     84  C   UNL     1      12.800  15.439  -4.338  1.00  0.00     0.000 A 
ENDBRANCH  60  79
BRANCH  72  85
ATOM     85  C   UNL     1      12.849  12.180 -13.012  1.00  0.00    -0.014 A 
ATOM     86  C   UNL     1      12.338  12.857 -14.133  1.00  0.00     0.009 A 
ATOM     87  C   UNL     1      14.225  11.911 -12.956  1.00  0.00     0.009 A 
ATOM     88  C   UNL     1      13.178  13.230 -15.184  1.00  0.00     0.001 A 
ATOM     89  C   UNL     1      15.069  12.316 -13.993  1.00  0.00     0.001 A 
ATOM     90  C   UNL     1      14.544  12.962 -15.112  1.00  0.00     0.000 A 
ENDBRANCH  72  85
ENDBRANCH  46  47
ENDBRANCH  39  41
ENDBRANCH  38  39
ENDBRANCH  37  38
ENDBRANCH  36  37
ENDBRANCH  35  36
ENDBRANCH  34  35
ENDBRANCH   1  34
TORSDOF 23
