REMARK SMILES O=C(OCCOCCOCCOC(=O)c1cn(C2CC2)c2cc(N3CC[NH2+]CC3)ccc2c1=O)c1ccc(-c2c3nc(c(-c4ccccc4)c4ccc([nH]4)c(-c4ccccc4)c4nc(c(-c5ccccc5)c5ccc2[nH]5)C=C4)C=C3)cc1
REMARK SMILES IDX 7 1 6 2 5 3 4 4 3 5 2 6 1 7 35 8 36 9 82 10 37 11 81 12
REMARK SMILES IDX 38 13 39 14 40 15 75 16 41 17 80 18 74 19 76 20 42 21 79 22
REMARK SMILES IDX 73 23 72 24 43 26 65 27 50 28 64 29 51 30 54 31 63 32 77 33
REMARK SMILES IDX 52 34 53 35 62 37 78 38 55 39 44 40 45 41 49 42 46 43 48 44
REMARK SMILES IDX 47 45 66 46 67 47 71 48 68 49 70 50 69 51 56 52 57 53 61 54
REMARK SMILES IDX 58 55 60 56 59 57 8 58 9 59 10 60 11 61 12 62 13 63 14 64
REMARK SMILES IDX 15 65 16 66 33 67 17 68 32 69 34 70 21 71 31 72 22 73 30 74
REMARK SMILES IDX 23 75 18 76 19 77 20 78 24 79 25 80 29 81 26 82 28 83 27 84
REMARK H PARENT 76 25 54 36 27 85 27 86
REMARK Flexibility Score: inf
ROOT
ATOM      1  C   UNL     1       2.716  -1.688   0.096  1.00  0.00     0.188 C 
ENDROOT
BRANCH   1   2
ATOM      2  O   UNL     1       4.000  -1.311  -0.419  1.00  0.00    -0.376 OA
BRANCH   2   3
ATOM      3  C   UNL     1       4.972  -1.105   0.609  1.00  0.00     0.202 C 
BRANCH   3   4
ATOM      4  C   UNL     1       4.784   0.150   1.475  1.00  0.00     0.261 C 
BRANCH   4   5
ATOM      5  O   UNL     1       3.441   0.652   1.535  1.00  0.00    -0.460 OA
BRANCH   5   6
ATOM      6  C   UNL     1       2.786   1.519   0.727  1.00  0.00     0.338 C 
ATOM      7  O   UNL     1       1.679   1.909   1.102  1.00  0.00    -0.246 OA
BRANCH   6   8
ATOM      8  C   UNL     1       3.281   2.017  -0.603  1.00  0.00     0.060 A 
ATOM      9  C   UNL     1       2.444   2.927  -1.280  1.00  0.00     0.016 A 
ATOM     10  C   UNL     1       4.468   1.657  -1.242  1.00  0.00     0.016 A 
ATOM     11  C   UNL     1       2.778   3.441  -2.542  1.00  0.00     0.010 A 
ATOM     12  C   UNL     1       4.811   2.171  -2.500  1.00  0.00     0.010 A 
ATOM     13  C   UNL     1       3.967   3.058  -3.169  1.00  0.00    -0.014 A 
BRANCH  13  14
ATOM     14  C   UNL     1       4.425   3.701  -4.423  1.00  0.00     0.031 A 
ATOM     15  C   UNL     1       4.497   2.983  -5.739  1.00  0.00     0.074 A 
ATOM     16  C   UNL     1       4.954   4.934  -4.338  1.00  0.00     0.049 A 
ATOM     17  N   UNL     1       4.707   3.479  -6.935  1.00  0.00    -0.248 NA
ATOM     18  C   UNL     1       4.348   1.526  -5.716  1.00  0.00     0.031 C 
ATOM     19  C   UNL     1       5.085   5.713  -3.108  1.00  0.00     0.029 A 
ATOM     20  N   UNL     1       5.549   5.707  -5.300  1.00  0.00    -0.354 N 
ATOM     21  C   UNL     1       4.574   2.412  -7.816  1.00  0.00     0.074 A 
ATOM     22  C   UNL     1       4.429   1.235  -7.009  1.00  0.00     0.031 C 
ATOM     23  C   UNL     1       5.781   6.827  -3.378  1.00  0.00     0.029 A 
ATOM     24  C   UNL     1       6.141   6.834  -4.795  1.00  0.00     0.049 A 
ATOM     25  H   UNL     1       5.551   5.476  -6.257  1.00  0.00     0.167 HD
ATOM     26  C   UNL     1       4.566   2.431  -9.170  1.00  0.00     0.031 A 
ATOM     27  C   UNL     1       6.913   7.757  -5.398  1.00  0.00     0.031 A 
ATOM     28  C   UNL     1       5.029   3.545  -9.936  1.00  0.00     0.049 A 
ATOM     29  C   UNL     1       7.128   7.686  -6.883  1.00  0.00     0.074 A 
ATOM     30  C   UNL     1       5.146   3.634 -11.310  1.00  0.00     0.029 A 
ATOM     31  N   UNL     1       5.587   4.680  -9.391  1.00  0.00    -0.354 N 
ATOM     32  N   UNL     1       6.679   6.796  -7.735  1.00  0.00    -0.248 NA
ATOM     33  C   UNL     1       7.920   8.758  -7.501  1.00  0.00     0.031 C 
ATOM     34  C   UNL     1       5.924   4.752 -11.586  1.00  0.00     0.029 A 
ATOM     35  C   UNL     1       6.160   5.424 -10.396  1.00  0.00     0.049 A 
ATOM     36  H   UNL     1       5.578   4.920  -8.436  1.00  0.00     0.167 HD
ATOM     37  C   UNL     1       7.104   7.221  -8.988  1.00  0.00     0.074 A 
ATOM     38  C   UNL     1       7.846   8.445  -8.789  1.00  0.00     0.031 C 
ATOM     39  C   UNL     1       6.887   6.646 -10.194  1.00  0.00     0.031 A 
BRANCH  26  40
ATOM     40  C   UNL     1       4.098   1.262  -9.990  1.00  0.00    -0.014 A 
ATOM     41  C   UNL     1       5.007   0.365 -10.569  1.00  0.00     0.009 A 
ATOM     42  C   UNL     1       2.764   1.243 -10.434  1.00  0.00     0.009 A 
ATOM     43  C   UNL     1       4.574  -0.566 -11.522  1.00  0.00     0.001 A 
ATOM     44  C   UNL     1       2.328   0.298 -11.369  1.00  0.00     0.001 A 
ATOM     45  C   UNL     1       3.234  -0.611 -11.908  1.00  0.00     0.000 A 
ENDBRANCH  26  40
BRANCH  27  46
ATOM     46  C   UNL     1       7.494   8.835  -4.562  1.00  0.00    -0.014 A 
ATOM     47  C   UNL     1       8.470   8.534  -3.596  1.00  0.00     0.009 A 
ATOM     48  C   UNL     1       6.994  10.141  -4.639  1.00  0.00     0.009 A 
ATOM     49  C   UNL     1       8.905   9.510  -2.699  1.00  0.00     0.001 A 
ATOM     50  C   UNL     1       7.455  11.123  -3.761  1.00  0.00     0.001 A 
ATOM     51  C   UNL     1       8.398  10.804  -2.784  1.00  0.00     0.000 A 
ENDBRANCH  27  46
BRANCH  39  52
ATOM     52  C   UNL     1       7.433   7.281 -11.438  1.00  0.00    -0.014 A 
ATOM     53  C   UNL     1       6.534   7.722 -12.425  1.00  0.00     0.009 A 
ATOM     54  C   UNL     1       8.797   7.187 -11.743  1.00  0.00     0.009 A 
ATOM     55  C   UNL     1       6.982   7.997 -13.715  1.00  0.00     0.001 A 
ATOM     56  C   UNL     1       9.247   7.503 -13.026  1.00  0.00     0.001 A 
ATOM     57  C   UNL     1       8.338   7.885 -14.015  1.00  0.00     0.000 A 
ENDBRANCH  39  52
ENDBRANCH  13  14
ENDBRANCH   6   8
ENDBRANCH   5   6
ENDBRANCH   4   5
ENDBRANCH   3   4
ENDBRANCH   2   3
ENDBRANCH   1   2
BRANCH   1  58
ATOM     58  C   UNL     1       2.097  -2.935  -0.537  1.00  0.00     0.188 C 
BRANCH  58  59
ATOM     59  O   UNL     1       2.831  -4.155  -0.490  1.00  0.00    -0.376 OA
BRANCH  59  60
ATOM     60  C   UNL     1       4.166  -4.159  -0.975  1.00  0.00     0.202 C 
BRANCH  60  61
ATOM     61  C   UNL     1       4.431  -3.850  -2.454  1.00  0.00     0.261 C 
BRANCH  61  62
ATOM     62  O   UNL     1       3.691  -2.750  -2.996  1.00  0.00    -0.459 OA
BRANCH  62  63
ATOM     63  C   UNL     1       2.589  -3.110  -3.700  1.00  0.00     0.343 C 
ATOM     64  O   UNL     1       2.191  -4.256  -3.886  1.00  0.00    -0.246 OA
BRANCH  63  65
ATOM     65  C   UNL     1       2.046  -1.960  -4.413  1.00  0.00     0.124 A 
ATOM     66  C   UNL     1       2.210  -2.043  -5.731  1.00  0.00     0.106 A 
ATOM     67  C   UNL     1       1.411  -0.757  -3.865  1.00  0.00     0.203 A 
ATOM     68  N   UNL     1       1.902  -1.087  -6.671  1.00  0.00    -0.343 N 
ATOM     69  C   UNL     1       1.076   0.325  -4.836  1.00  0.00     0.047 A 
ATOM     70  O   UNL     1       1.154  -0.638  -2.674  1.00  0.00    -0.288 OA
ATOM     71  C   UNL     1       1.328   0.154  -6.217  1.00  0.00     0.054 A 
ATOM     72  C   UNL     1       0.562   1.528  -4.336  1.00  0.00     0.016 A 
ATOM     73  C   UNL     1       1.043   1.256  -7.054  1.00  0.00     0.053 A 
ATOM     74  C   UNL     1       0.354   2.610  -5.190  1.00  0.00     0.027 A 
ATOM     75  C   UNL     1       0.603   2.508  -6.560  1.00  0.00     0.039 A 
BRANCH  68  76
ATOM     76  C   UNL     1       2.429  -1.330  -8.042  1.00  0.00     0.087 C 
ATOM     77  C   UNL     1       3.796  -1.975  -8.249  1.00  0.00     0.027 C 
ATOM     78  C   UNL     1       2.560  -2.690  -8.690  1.00  0.00     0.027 C 
ENDBRANCH  68  76
BRANCH  75  79
ATOM     79  N   UNL     1       0.435   3.600  -7.388  1.00  0.00    -0.360 N 
ATOM     80  C   UNL     1      -0.392   3.530  -8.594  1.00  0.00     0.178 C 
ATOM     81  C   UNL     1       0.934   4.943  -7.037  1.00  0.00     0.178 C 
ATOM     82  C   UNL     1      -1.519   4.591  -8.518  1.00  0.00     0.282 C 
ATOM     83  C   UNL     1      -0.215   5.983  -7.052  1.00  0.00     0.282 C 
ATOM     84  N   UNL     1      -1.031   5.969  -8.287  1.00  0.00    -0.343 N 
ATOM     85  H   UNL     1      -1.824   6.601  -8.181  1.00  0.00     0.346 HD
ATOM     86  H   UNL     1      -0.466   6.275  -9.080  1.00  0.00     0.346 HD
ENDBRANCH  75  79
ENDBRANCH  63  65
ENDBRANCH  62  63
ENDBRANCH  61  62
ENDBRANCH  60  61
ENDBRANCH  59  60
ENDBRANCH  58  59
ENDBRANCH   1  58
TORSDOF 19
