REMARK SMILES CCn1c([C@@H]2CCC[N@@H+](Cc3ccc(C(=O)OCCOCCOCCOC(=O)c4ccc(-c5c6nc(c(-c7ccccc7)c7ccc([nH]7)c(-c7ccccc7)c7nc(c(-c8ccccc8)c8ccc5[nH]8)C=C7)C=C6)cc4)cc3)C2)nn(C)c1=O
REMARK SMILES IDX 21 1 20 2 19 3 18 4 17 5 15 6 16 7 14 8 11 9 12 10 78 11
REMARK SMILES IDX 13 12 77 13 10 14 9 15 5 16 6 17 79 18 7 19 8 20 4 22 3 23
REMARK SMILES IDX 83 24 80 25 81 26 84 27 82 28 2 29 1 30 22 31 23 32 24 33
REMARK SMILES IDX 25 34 26 35 27 36 28 37 29 38 30 39 76 40 31 41 75 42 32 43
REMARK SMILES IDX 33 44 34 45 69 46 35 47 74 48 68 49 70 50 36 51 73 52 67 53
REMARK SMILES IDX 66 54 37 56 59 57 44 58 58 59 45 60 48 61 57 62 71 63 46 64
REMARK SMILES IDX 47 65 56 67 72 68 49 69 38 70 39 71 43 72 40 73 42 74 41 75
REMARK SMILES IDX 60 76 61 77 65 78 62 79 64 80 63 81 50 82 51 83 55 84 52 85
REMARK SMILES IDX 54 86 53 87
REMARK H PARENT 9 21 70 55 48 66
REMARK Flexibility Score: inf
ROOT
ATOM      1  C   UNL     1       7.364   9.267  -8.259  1.00  0.00     0.188 C 
ENDROOT
BRANCH   1   2
ATOM      2  O   UNL     1       8.471   8.928  -9.084  1.00  0.00    -0.376 OA
BRANCH   2   3
ATOM      3  C   UNL     1       9.543   8.264  -8.408  1.00  0.00     0.202 C 
BRANCH   3   4
ATOM      4  C   UNL     1       9.289   6.790  -8.046  1.00  0.00     0.261 C 
BRANCH   4   5
ATOM      5  O   UNL     1       8.053   6.569  -7.359  1.00  0.00    -0.460 OA
BRANCH   5   6
ATOM      6  C   UNL     1       8.018   6.848  -6.037  1.00  0.00     0.338 C 
ATOM      7  O   UNL     1       8.957   7.185  -5.341  1.00  0.00    -0.246 OA
BRANCH   6   8
ATOM      8  C   UNL     1       6.595   6.878  -5.614  1.00  0.00     0.060 A 
ATOM      9  C   UNL     1       3.907   7.114  -4.878  1.00  0.00     0.006 A 
ATOM     10  C   UNL     1       4.891   7.824  -4.180  1.00  0.00     0.010 A 
ATOM     11  C   UNL     1       4.273   6.337  -5.985  1.00  0.00     0.010 A 
ATOM     12  C   UNL     1       6.231   7.713  -4.551  1.00  0.00     0.016 A 
ATOM     13  C   UNL     1       5.610   6.185  -6.328  1.00  0.00     0.016 A 
BRANCH   9  14
ATOM     14  C   UNL     1       2.478   7.132  -4.408  1.00  0.00     0.299 C 
BRANCH  14  15
ATOM     15  N   UNL     1       2.038   5.910  -3.727  1.00  0.00    -0.331 N 
ATOM     16  C   UNL     1       1.124   3.621  -3.946  1.00  0.00     0.113 C 
ATOM     17  C   UNL     1       1.514   3.350  -2.491  1.00  0.00     0.023 C 
ATOM     18  C   UNL     1       1.930   4.740  -4.598  1.00  0.00     0.274 C 
ATOM     19  C   UNL     1       1.940   4.578  -1.687  1.00  0.00     0.062 C 
ATOM     20  C   UNL     1       2.754   5.592  -2.496  1.00  0.00     0.262 C 
ATOM     21  H   UNL     1       1.090   6.156  -3.442  1.00  0.00     0.348 HD
BRANCH  16  22
ATOM     22  C   UNL     1      -0.361   3.706  -4.290  1.00  0.00     0.142 A 
ATOM     23  N   UNL     1      -1.183   4.770  -4.145  1.00  0.00    -0.279 N 
ATOM     24  C   UNL     1      -2.336   4.434  -4.822  1.00  0.00     0.345 A 
ATOM     25  N   UNL     1      -0.912   2.682  -4.886  1.00  0.00    -0.155 NA
ATOM     26  N   UNL     1      -2.156   3.118  -5.230  1.00  0.00    -0.216 N 
ATOM     27  O   UNL     1      -3.293   5.145  -5.086  1.00  0.00    -0.246 OA
ATOM     28  C   UNL     1      -3.019   2.367  -6.097  1.00  0.00     0.179 C 
BRANCH  23  29
ATOM     29  C   UNL     1      -0.885   6.112  -3.673  1.00  0.00     0.125 C 
ATOM     30  C   UNL     1      -2.049   6.997  -3.257  1.00  0.00     0.028 C 
ENDBRANCH  23  29
ENDBRANCH  16  22
ENDBRANCH  14  15
ENDBRANCH   9  14
ENDBRANCH   6   8
ENDBRANCH   5   6
ENDBRANCH   4   5
ENDBRANCH   3   4
ENDBRANCH   2   3
ENDBRANCH   1   2
BRANCH   1  31
ATOM     31  C   UNL     1       6.015   8.661  -8.694  1.00  0.00     0.188 C 
BRANCH  31  32
ATOM     32  O   UNL     1       5.959   7.499  -9.513  1.00  0.00    -0.376 OA
BRANCH  32  33
ATOM     33  C   UNL     1       6.754   7.411 -10.691  1.00  0.00     0.202 C 
BRANCH  33  34
ATOM     34  C   UNL     1       6.628   8.476 -11.780  1.00  0.00     0.261 C 
BRANCH  34  35
ATOM     35  O   UNL     1       6.785   9.808 -11.305  1.00  0.00    -0.460 OA
BRANCH  35  36
ATOM     36  C   UNL     1       5.627  10.486 -11.156  1.00  0.00     0.338 C 
ATOM     37  O   UNL     1       4.497  10.056 -11.315  1.00  0.00    -0.246 OA
BRANCH  36  38
ATOM     38  C   UNL     1       5.916  11.885 -10.803  1.00  0.00     0.060 A 
ATOM     39  C   UNL     1       4.807  12.717 -10.639  1.00  0.00     0.016 A 
ATOM     40  C   UNL     1       7.219  12.402 -10.858  1.00  0.00     0.016 A 
ATOM     41  C   UNL     1       4.979  14.076 -10.783  1.00  0.00     0.010 A 
ATOM     42  C   UNL     1       7.391  13.765 -10.998  1.00  0.00     0.010 A 
ATOM     43  C   UNL     1       6.256  14.570 -11.071  1.00  0.00    -0.014 A 
BRANCH  43  44
ATOM     44  C   UNL     1       6.316  15.925 -11.582  1.00  0.00     0.031 A 
ATOM     45  C   UNL     1       6.047  17.007 -10.617  1.00  0.00     0.074 A 
ATOM     46  C   UNL     1       6.578  16.189 -12.876  1.00  0.00     0.049 A 
ATOM     47  N   UNL     1       5.070  17.852 -10.628  1.00  0.00    -0.248 NA
ATOM     48  C   UNL     1       6.950  17.120  -9.467  1.00  0.00     0.031 C 
ATOM     49  C   UNL     1       7.116  15.281 -13.893  1.00  0.00     0.029 A 
ATOM     50  N   UNL     1       6.500  17.383 -13.526  1.00  0.00    -0.354 N 
ATOM     51  C   UNL     1       5.310  18.713  -9.566  1.00  0.00     0.074 A 
ATOM     52  C   UNL     1       6.419  18.160  -8.825  1.00  0.00     0.031 C 
ATOM     53  C   UNL     1       7.525  16.008 -14.956  1.00  0.00     0.029 A 
ATOM     54  C   UNL     1       7.152  17.398 -14.745  1.00  0.00     0.049 A 
ATOM     55  H   UNL     1       6.023  18.163 -13.161  1.00  0.00     0.167 HD
ATOM     56  C   UNL     1       4.709  19.927  -9.466  1.00  0.00     0.031 A 
ATOM     57  C   UNL     1       7.434  18.489 -15.493  1.00  0.00     0.031 A 
ATOM     58  C   UNL     1       3.539  20.043 -10.292  1.00  0.00     0.049 A 
ATOM     59  C   UNL     1       6.537  19.588 -15.072  1.00  0.00     0.074 A 
ATOM     60  C   UNL     1       2.323  19.395 -10.358  1.00  0.00     0.029 A 
ATOM     61  N   UNL     1       3.646  20.763 -11.456  1.00  0.00    -0.354 N 
ATOM     62  N   UNL     1       5.259  19.619 -15.317  1.00  0.00    -0.248 NA
ATOM     63  C   UNL     1       6.995  20.514 -14.048  1.00  0.00     0.031 C 
ATOM     64  C   UNL     1       1.964  19.406 -11.737  1.00  0.00     0.029 A 
ATOM     65  C   UNL     1       2.980  20.065 -12.430  1.00  0.00     0.049 A 
ATOM     66  H   UNL     1       4.114  21.622 -11.569  1.00  0.00     0.167 HD
ATOM     67  C   UNL     1       4.699  20.248 -14.215  1.00  0.00     0.074 A 
ATOM     68  C   UNL     1       5.819  20.895 -13.542  1.00  0.00     0.031 C 
ATOM     69  C   UNL     1       3.432  19.950 -13.800  1.00  0.00     0.031 A 
BRANCH  56  70
ATOM     70  C   UNL     1       5.395  21.123  -8.869  1.00  0.00    -0.014 A 
ATOM     71  C   UNL     1       4.656  22.291  -8.623  1.00  0.00     0.009 A 
ATOM     72  C   UNL     1       6.798  21.224  -8.784  1.00  0.00     0.009 A 
ATOM     73  C   UNL     1       5.293  23.505  -8.341  1.00  0.00     0.001 A 
ATOM     74  C   UNL     1       7.435  22.422  -8.460  1.00  0.00     0.001 A 
ATOM     75  C   UNL     1       6.682  23.570  -8.259  1.00  0.00     0.000 A 
ENDBRANCH  56  70
BRANCH  57  76
ATOM     76  C   UNL     1       8.595  18.701 -16.378  1.00  0.00    -0.014 A 
ATOM     77  C   UNL     1       8.588  19.718 -17.343  1.00  0.00     0.009 A 
ATOM     78  C   UNL     1       9.818  18.057 -16.109  1.00  0.00     0.009 A 
ATOM     79  C   UNL     1       9.770  20.093 -17.995  1.00  0.00     0.001 A 
ATOM     80  C   UNL     1      10.994  18.425 -16.765  1.00  0.00     0.001 A 
ATOM     81  C   UNL     1      10.972  19.454 -17.699  1.00  0.00     0.000 A 
ENDBRANCH  57  76
BRANCH  69  82
ATOM     82  C   UNL     1       2.557  19.151 -14.735  1.00  0.00    -0.014 A 
ATOM     83  C   UNL     1       2.898  17.857 -15.166  1.00  0.00     0.009 A 
ATOM     84  C   UNL     1       1.293  19.654 -15.076  1.00  0.00     0.009 A 
ATOM     85  C   UNL     1       2.017  17.106 -15.950  1.00  0.00     0.001 A 
ATOM     86  C   UNL     1       0.403  18.894 -15.840  1.00  0.00     0.001 A 
ATOM     87  C   UNL     1       0.768  17.624 -16.283  1.00  0.00     0.000 A 
ENDBRANCH  69  82
ENDBRANCH  43  44
ENDBRANCH  36  38
ENDBRANCH  35  36
ENDBRANCH  34  35
ENDBRANCH  33  34
ENDBRANCH  32  33
ENDBRANCH  31  32
ENDBRANCH   1  31
TORSDOF 21
