REMARK SMILES O=C(COc1ccccc1/C=C1/SC(=S)N(c2ccc(F)c(Cl)c2)C1=O)OCCOCCOCCOC(=O)c1ccc(-c2c3nc(c(-c4ccccc4)c4ccc([nH]4)c(-c4ccccc4)c4nc(c(-c5ccccc5)c5ccc2[nH]5)C=C4)C=C3)cc1
REMARK SMILES IDX 31 1 30 2 29 3 28 4 27 5 2 6 1 7 3 8 4 9 5 10 6 11 10 12
REMARK SMILES IDX 7 13 9 14 8 15 11 16 12 17 13 18 25 19 14 20 16 21 26 22
REMARK SMILES IDX 15 23 17 24 18 25 24 26 19 27 22 28 20 29 23 30 21 31 32 32
REMARK SMILES IDX 33 33 34 34 35 35 36 36 37 37 38 38 39 39 40 40 86 41 41 42
REMARK SMILES IDX 85 43 42 44 43 45 44 46 79 47 45 48 84 49 78 50 80 51 46 52
REMARK SMILES IDX 83 53 77 54 76 55 47 57 69 58 54 59 68 60 55 61 58 62 67 63
REMARK SMILES IDX 81 64 56 65 57 66 66 68 82 69 59 70 48 71 49 72 53 73 50 74
REMARK SMILES IDX 52 75 51 76 70 77 71 78 75 79 72 80 74 81 73 82 60 83 61 84
REMARK SMILES IDX 65 85 62 86 64 87 63 88
REMARK H PARENT 80 56 58 67
REMARK Flexibility Score: inf
ROOT
ATOM      1  C   UNL     1       3.598   1.962  -1.970  1.00  0.00     0.188 C 
ENDROOT
BRANCH   1   2
ATOM      2  O   UNL     1       4.980   1.640  -1.842  1.00  0.00    -0.376 OA
BRANCH   2   3
ATOM      3  C   UNL     1       5.437   1.527  -0.507  1.00  0.00     0.202 C 
BRANCH   3   4
ATOM      4  C   UNL     1       4.892   0.307   0.222  1.00  0.00     0.261 C 
BRANCH   4   5
ATOM      5  O   UNL     1       3.468   0.092   0.067  1.00  0.00    -0.461 OA
BRANCH   5   6
ATOM      6  C   UNL     1       2.462   0.692   0.747  1.00  0.00     0.344 C 
ATOM      7  O   UNL     1       1.318   0.703   0.295  1.00  0.00    -0.248 OA
BRANCH   6   8
ATOM      8  C   UNL     1       2.790   1.333   2.058  1.00  0.00     0.351 C 
BRANCH   8   9
ATOM      9  O   UNL     1       3.679   0.504   2.783  1.00  0.00    -0.481 OA
BRANCH   9  10
ATOM     10  C   UNL     1       3.069  -0.252   3.738  1.00  0.00     0.127 A 
ATOM     11  C   UNL     1       3.357   0.170   5.041  1.00  0.00     0.047 A 
ATOM     12  C   UNL     1       2.284  -1.394   3.496  1.00  0.00     0.018 A 
ATOM     13  C   UNL     1       2.833  -0.512   6.129  1.00  0.00     0.004 A 
ATOM     14  C   UNL     1       1.760  -2.062   4.613  1.00  0.00     0.012 A 
ATOM     15  C   UNL     1       2.031  -1.627   5.914  1.00  0.00     0.001 A 
BRANCH  12  16
ATOM     16  C   UNL     1       1.868  -1.938   2.188  1.00  0.00     0.033 C 
ATOM     17  C   UNL     1       2.584  -2.557   1.233  1.00  0.00     0.081 C 
ATOM     18  S   UNL     1       1.861  -3.092  -0.242  1.00  0.00    -0.054 SA
ATOM     19  C   UNL     1       4.053  -2.800   1.184  1.00  0.00     0.270 C 
ATOM     20  C   UNL     1       3.410  -3.450  -1.001  1.00  0.00     0.152 C 
ATOM     21  N   UNL     1       4.441  -3.191  -0.106  1.00  0.00    -0.261 N 
ATOM     22  O   UNL     1       4.782  -2.596   2.147  1.00  0.00    -0.268 OA
ATOM     23  S   UNL     1       3.468  -4.131  -2.530  1.00  0.00    -0.051 S 
BRANCH  21  24
ATOM     24  C   UNL     1       5.838  -3.192  -0.449  1.00  0.00     0.052 A 
ATOM     25  C   UNL     1       6.797  -3.658   0.466  1.00  0.00     0.030 A 
ATOM     26  C   UNL     1       6.293  -2.567  -1.626  1.00  0.00     0.050 A 
ATOM     27  C   UNL     1       8.164  -3.479   0.234  1.00  0.00     0.043 A 
ATOM     28  C   UNL     1       7.661  -2.368  -1.846  1.00  0.00     0.078 A 
ATOM     29  C   UNL     1       8.588  -2.821  -0.913  1.00  0.00     0.141 A 
ATOM     30  Cl  UNL     1       8.176  -1.490  -3.235  1.00  0.00    -0.081 Cl
ATOM     31  F   UNL     1       9.900  -2.604  -1.085  1.00  0.00    -0.205 F 
ENDBRANCH  21  24
ENDBRANCH  12  16
ENDBRANCH   9  10
ENDBRANCH   8   9
ENDBRANCH   6   8
ENDBRANCH   5   6
ENDBRANCH   4   5
ENDBRANCH   3   4
ENDBRANCH   2   3
ENDBRANCH   1   2
BRANCH   1  32
ATOM     32  C   UNL     1       2.810   0.842  -2.675  1.00  0.00     0.188 C 
BRANCH  32  33
ATOM     33  O   UNL     1       3.669  -0.059  -3.372  1.00  0.00    -0.376 OA
BRANCH  33  34
ATOM     34  C   UNL     1       3.730   0.159  -4.779  1.00  0.00     0.202 C 
BRANCH  34  35
ATOM     35  C   UNL     1       4.504   1.415  -5.209  1.00  0.00     0.261 C 
BRANCH  35  36
ATOM     36  O   UNL     1       3.944   2.683  -4.803  1.00  0.00    -0.460 OA
BRANCH  36  37
ATOM     37  C   UNL     1       2.672   2.990  -5.157  1.00  0.00     0.338 C 
ATOM     38  O   UNL     1       1.954   2.370  -5.907  1.00  0.00    -0.246 OA
BRANCH  37  39
ATOM     39  C   UNL     1       2.211   4.102  -4.270  1.00  0.00     0.060 A 
ATOM     40  C   UNL     1       0.953   3.996  -3.659  1.00  0.00     0.016 A 
ATOM     41  C   UNL     1       3.043   5.183  -3.951  1.00  0.00     0.016 A 
ATOM     42  C   UNL     1       0.510   4.986  -2.771  1.00  0.00     0.010 A 
ATOM     43  C   UNL     1       2.599   6.175  -3.066  1.00  0.00     0.010 A 
ATOM     44  C   UNL     1       1.313   6.103  -2.499  1.00  0.00    -0.014 A 
BRANCH  44  45
ATOM     45  C   UNL     1       0.720   7.305  -1.850  1.00  0.00     0.031 A 
ATOM     46  C   UNL     1       0.172   8.383  -2.752  1.00  0.00     0.074 A 
ATOM     47  C   UNL     1       0.635   7.457  -0.515  1.00  0.00     0.049 A 
ATOM     48  N   UNL     1      -0.401   9.518  -2.443  1.00  0.00    -0.248 NA
ATOM     49  C   UNL     1       0.291   8.143  -4.201  1.00  0.00     0.031 C 
ATOM     50  C   UNL     1       1.093   6.497   0.487  1.00  0.00     0.029 A 
ATOM     51  N   UNL     1       0.126   8.498   0.227  1.00  0.00    -0.354 N 
ATOM     52  C   UNL     1      -0.720  10.118  -3.655  1.00  0.00     0.074 A 
ATOM     53  C   UNL     1      -0.239   9.247  -4.703  1.00  0.00     0.031 C 
ATOM     54  C   UNL     1       0.849   6.998   1.714  1.00  0.00     0.029 A 
ATOM     55  C   UNL     1       0.234   8.319   1.586  1.00  0.00     0.049 A 
ATOM     56  H   UNL     1      -0.278   9.299  -0.178  1.00  0.00     0.167 HD
ATOM     57  C   UNL     1      -1.370  11.282  -3.887  1.00  0.00     0.031 A 
ATOM     58  C   UNL     1      -0.115   9.131   2.606  1.00  0.00     0.031 A 
ATOM     59  C   UNL     1      -1.833  12.177  -2.865  1.00  0.00     0.049 A 
ATOM     60  C   UNL     1      -0.761  10.466   2.319  1.00  0.00     0.074 A 
ATOM     61  C   UNL     1      -2.501  13.381  -3.013  1.00  0.00     0.029 A 
ATOM     62  N   UNL     1      -1.669  11.973  -1.507  1.00  0.00    -0.354 N 
ATOM     63  N   UNL     1      -1.096  10.998   1.169  1.00  0.00    -0.248 NA
ATOM     64  C   UNL     1      -1.089  11.309   3.482  1.00  0.00     0.031 C 
ATOM     65  C   UNL     1      -2.698  13.929  -1.742  1.00  0.00     0.029 A 
ATOM     66  C   UNL     1      -2.202  13.039  -0.803  1.00  0.00     0.049 A 
ATOM     67  H   UNL     1      -1.238  11.186  -1.101  1.00  0.00     0.167 HD
ATOM     68  C   UNL     1      -1.698  12.215   1.472  1.00  0.00     0.074 A 
ATOM     69  C   UNL     1      -1.700  12.337   2.913  1.00  0.00     0.031 C 
ATOM     70  C   UNL     1      -2.203  13.150   0.630  1.00  0.00     0.031 A 
BRANCH  57  71
ATOM     71  C   UNL     1      -1.602  11.659  -5.322  1.00  0.00    -0.014 A 
ATOM     72  C   UNL     1      -2.560  10.989  -6.098  1.00  0.00     0.009 A 
ATOM     73  C   UNL     1      -0.874  12.713  -5.894  1.00  0.00     0.009 A 
ATOM     74  C   UNL     1      -2.765  11.349  -7.430  1.00  0.00     0.001 A 
ATOM     75  C   UNL     1      -1.100  13.088  -7.219  1.00  0.00     0.001 A 
ATOM     76  C   UNL     1      -2.040  12.402  -7.987  1.00  0.00     0.000 A 
ENDBRANCH  57  71
BRANCH  58  77
ATOM     77  C   UNL     1       0.147   8.735   4.018  1.00  0.00    -0.014 A 
ATOM     78  C   UNL     1      -0.913   8.460   4.896  1.00  0.00     0.009 A 
ATOM     79  C   UNL     1       1.459   8.713   4.515  1.00  0.00     0.009 A 
ATOM     80  C   UNL     1      -0.668   8.209   6.249  1.00  0.00     0.001 A 
ATOM     81  C   UNL     1       1.704   8.433   5.862  1.00  0.00     0.001 A 
ATOM     82  C   UNL     1       0.640   8.194   6.730  1.00  0.00     0.000 A 
ENDBRANCH  58  77
BRANCH  70  83
ATOM     83  C   UNL     1      -2.836  14.370   1.243  1.00  0.00    -0.014 A 
ATOM     84  C   UNL     1      -2.061  15.364   1.861  1.00  0.00     0.009 A 
ATOM     85  C   UNL     1      -4.227  14.545   1.165  1.00  0.00     0.009 A 
ATOM     86  C   UNL     1      -2.670  16.490   2.420  1.00  0.00     0.001 A 
ATOM     87  C   UNL     1      -4.830  15.685   1.698  1.00  0.00     0.001 A 
ATOM     88  C   UNL     1      -4.053  16.651   2.334  1.00  0.00     0.000 A 
ENDBRANCH  70  83
ENDBRANCH  44  45
ENDBRANCH  37  39
ENDBRANCH  36  37
ENDBRANCH  35  36
ENDBRANCH  34  35
ENDBRANCH  33  34
ENDBRANCH  32  33
ENDBRANCH   1  32
TORSDOF 21
