REMARK SMILES C=CC[NH2+]CC(=O)N1CCC[C@@H]1C(=O)OCCOCCOCCOC(=O)c1ccc(-c2c3nc(c(-c4ccccc4)c4ccc([nH]4)c(-c4ccccc4)c4nc(c(-c5ccccc5)c5ccc2[nH]5)C=C4)C=C3)cc1
REMARK SMILES IDX 18 1 17 2 16 3 15 4 13 5 14 6 12 7 8 8 9 9 10 10 11 11 6 12
REMARK SMILES IDX 7 13 5 14 4 15 3 18 2 19 1 20 19 21 20 22 21 23 22 24 23 25
REMARK SMILES IDX 24 26 25 27 26 28 27 29 28 30 74 31 29 32 73 33 30 34 31 35
REMARK SMILES IDX 32 36 67 37 33 38 72 39 66 40 68 41 34 42 71 43 65 44 64 45
REMARK SMILES IDX 35 47 57 48 42 49 56 50 43 51 46 52 55 53 69 54 44 55 45 56
REMARK SMILES IDX 54 58 70 59 47 60 36 61 37 62 41 63 38 64 40 65 39 66 58 67
REMARK SMILES IDX 59 68 63 69 60 70 62 71 61 72 48 73 49 74 53 75 50 76 52 77
REMARK SMILES IDX 51 78
REMARK H PARENT 4 16 4 17 68 46 46 57
REMARK Flexibility Score: inf
ROOT
ATOM      1  O   UNL     1      -8.825   0.934  -1.070  1.00  0.00    -0.376 OA
ENDROOT
BRANCH   1   2
ATOM      2  C   UNL     1      -8.455   1.985  -0.172  1.00  0.00     0.202 C 
BRANCH   2   3
ATOM      3  C   UNL     1      -7.183   1.780   0.665  1.00  0.00     0.261 C 
BRANCH   3   4
ATOM      4  O   UNL     1      -5.992   1.620  -0.134  1.00  0.00    -0.462 OA
BRANCH   4   5
ATOM      5  C   UNL     1      -5.289   0.484   0.086  1.00  0.00     0.328 C 
ATOM      6  O   UNL     1      -5.536  -0.312   0.989  1.00  0.00    -0.250 OA
BRANCH   5   7
ATOM      7  C   UNL     1      -4.160   0.235  -0.923  1.00  0.00     0.195 C 
ATOM      8  N   UNL     1      -2.914   0.118  -0.177  1.00  0.00    -0.324 N 
ATOM      9  C   UNL     1      -1.835   0.612  -1.014  1.00  0.00     0.121 C 
ATOM     10  C   UNL     1      -2.457   1.741  -1.793  1.00  0.00     0.024 C 
ATOM     11  C   UNL     1      -3.871   1.246  -2.043  1.00  0.00     0.039 C 
BRANCH   8  12
ATOM     12  C   UNL     1      -2.758  -1.022   0.615  1.00  0.00     0.278 C 
ATOM     13  O   UNL     1      -2.710  -2.155   0.145  1.00  0.00    -0.268 OA
BRANCH  12  14
ATOM     14  C   UNL     1      -2.588  -0.712   2.124  1.00  0.00     0.362 C 
BRANCH  14  15
ATOM     15  N   UNL     1      -1.175  -0.869   2.579  1.00  0.00    -0.335 N 
ATOM     16  H   UNL     1      -1.083  -0.543   3.541  1.00  0.00     0.347 HD
ATOM     17  H   UNL     1      -0.899  -1.851   2.541  1.00  0.00     0.347 HD
BRANCH  15  18
ATOM     18  C   UNL     1      -0.328  -0.074   1.707  1.00  0.00     0.289 C 
BRANCH  18  19
ATOM     19  C   UNL     1       1.136  -0.053   1.964  1.00  0.00     0.025 C 
ATOM     20  C   UNL     1       2.002  -0.153   0.942  1.00  0.00     0.010 C 
ENDBRANCH  18  19
ENDBRANCH  15  18
ENDBRANCH  14  15
ENDBRANCH  12  14
ENDBRANCH   8  12
ENDBRANCH   5   7
ENDBRANCH   4   5
ENDBRANCH   3   4
ENDBRANCH   2   3
ENDBRANCH   1   2
BRANCH   1  21
ATOM     21  C   UNL     1      -7.835   0.463  -1.977  1.00  0.00     0.188 C 
BRANCH  21  22
ATOM     22  C   UNL     1      -7.236   1.505  -2.927  1.00  0.00     0.188 C 
BRANCH  22  23
ATOM     23  O   UNL     1      -7.082   2.788  -2.354  1.00  0.00    -0.376 OA
BRANCH  23  24
ATOM     24  C   UNL     1      -7.124   3.945  -3.181  1.00  0.00     0.202 C 
BRANCH  24  25
ATOM     25  C   UNL     1      -8.310   4.123  -4.154  1.00  0.00     0.261 C 
BRANCH  25  26
ATOM     26  O   UNL     1      -8.565   3.057  -5.089  1.00  0.00    -0.460 OA
BRANCH  26  27
ATOM     27  C   UNL     1      -7.543   2.634  -5.868  1.00  0.00     0.338 C 
ATOM     28  O   UNL     1      -6.473   3.199  -6.033  1.00  0.00    -0.246 OA
BRANCH  27  29
ATOM     29  C   UNL     1      -7.817   1.220  -6.255  1.00  0.00     0.060 A 
ATOM     30  C   UNL     1      -6.778   0.282  -6.136  1.00  0.00     0.016 A 
ATOM     31  C   UNL     1      -9.094   0.793  -6.628  1.00  0.00     0.016 A 
ATOM     32  C   UNL     1      -7.000  -1.069  -6.433  1.00  0.00     0.010 A 
ATOM     33  C   UNL     1      -9.310  -0.553  -6.945  1.00  0.00     0.010 A 
ATOM     34  C   UNL     1      -8.257  -1.485  -6.886  1.00  0.00    -0.014 A 
BRANCH  34  35
ATOM     35  C   UNL     1      -8.438  -2.803  -7.551  1.00  0.00     0.031 A 
ATOM     36  C   UNL     1      -8.382  -2.825  -9.056  1.00  0.00     0.074 A 
ATOM     37  C   UNL     1      -8.699  -3.937  -6.875  1.00  0.00     0.049 A 
ATOM     38  N   UNL     1      -8.709  -3.777  -9.890  1.00  0.00    -0.248 NA
ATOM     39  C   UNL     1      -7.902  -1.593  -9.707  1.00  0.00     0.031 C 
ATOM     40  C   UNL     1      -8.709  -4.085  -5.422  1.00  0.00     0.029 A 
ATOM     41  N   UNL     1      -9.035  -5.188  -7.342  1.00  0.00    -0.354 N 
ATOM     42  C   UNL     1      -8.511  -3.246 -11.159  1.00  0.00     0.074 A 
ATOM     43  C   UNL     1      -8.040  -1.891 -10.989  1.00  0.00     0.031 C 
ATOM     44  C   UNL     1      -9.062  -5.349  -5.115  1.00  0.00     0.029 A 
ATOM     45  C   UNL     1      -9.355  -6.082  -6.347  1.00  0.00     0.049 A 
ATOM     46  H   UNL     1      -9.044  -5.420  -8.299  1.00  0.00     0.167 HD
ATOM     47  C   UNL     1      -8.716  -3.831 -12.361  1.00  0.00     0.031 A 
ATOM     48  C   UNL     1      -9.868  -7.328  -6.424  1.00  0.00     0.031 A 
ATOM     49  C   UNL     1      -9.183  -5.178 -12.534  1.00  0.00     0.049 A 
ATOM     50  C   UNL     1     -10.174  -7.925  -7.779  1.00  0.00     0.074 A 
ATOM     51  C   UNL     1      -9.402  -5.864 -13.716  1.00  0.00     0.029 A 
ATOM     52  N   UNL     1      -9.508  -6.038 -11.500  1.00  0.00    -0.354 N 
ATOM     53  N   UNL     1      -9.975  -7.421  -8.973  1.00  0.00    -0.248 NA
ATOM     54  C   UNL     1     -10.780  -9.268  -7.796  1.00  0.00     0.031 C 
ATOM     55  C   UNL     1      -9.921  -7.120 -13.397  1.00  0.00     0.029 A 
ATOM     56  C   UNL     1      -9.952  -7.241 -12.017  1.00  0.00     0.049 A 
ATOM     57  H   UNL     1      -9.434  -5.825 -10.541  1.00  0.00     0.167 HD
ATOM     58  C   UNL     1     -10.380  -8.401  -9.874  1.00  0.00     0.074 A 
ATOM     59  C   UNL     1     -10.839  -9.528  -9.094  1.00  0.00     0.031 C 
ATOM     60  C   UNL     1     -10.367  -8.370 -11.229  1.00  0.00     0.031 A 
BRANCH  47  61
ATOM     61  C   UNL     1      -8.483  -3.004 -13.592  1.00  0.00    -0.014 A 
ATOM     62  C   UNL     1      -7.189  -2.666 -14.016  1.00  0.00     0.009 A 
ATOM     63  C   UNL     1      -9.581  -2.618 -14.379  1.00  0.00     0.009 A 
ATOM     64  C   UNL     1      -7.002  -1.941 -15.194  1.00  0.00     0.001 A 
ATOM     65  C   UNL     1      -9.388  -1.920 -15.571  1.00  0.00     0.001 A 
ATOM     66  C   UNL     1      -8.100  -1.577 -15.975  1.00  0.00     0.000 A 
ENDBRANCH  47  61
BRANCH  48  67
ATOM     67  C   UNL     1     -10.186  -8.101  -5.190  1.00  0.00    -0.014 A 
ATOM     68  C   UNL     1      -9.505  -9.294  -4.897  1.00  0.00     0.009 A 
ATOM     69  C   UNL     1     -11.225  -7.693  -4.338  1.00  0.00     0.009 A 
ATOM     70  C   UNL     1      -9.885 -10.080  -3.805  1.00  0.00     0.001 A 
ATOM     71  C   UNL     1     -11.579  -8.462  -3.227  1.00  0.00     0.001 A 
ATOM     72  C   UNL     1     -10.919  -9.662  -2.969  1.00  0.00     0.000 A 
ENDBRANCH  48  67
BRANCH  60  73
ATOM     73  C   UNL     1     -10.769  -9.614 -11.972  1.00  0.00    -0.014 A 
ATOM     74  C   UNL     1     -12.108 -10.022 -12.061  1.00  0.00     0.009 A 
ATOM     75  C   UNL     1      -9.791 -10.331 -12.682  1.00  0.00     0.009 A 
ATOM     76  C   UNL     1     -12.454 -11.135 -12.831  1.00  0.00     0.001 A 
ATOM     77  C   UNL     1     -10.143 -11.422 -13.474  1.00  0.00     0.001 A 
ATOM     78  C   UNL     1     -11.475 -11.828 -13.544  1.00  0.00     0.000 A 
ENDBRANCH  60  73
ENDBRANCH  34  35
ENDBRANCH  27  29
ENDBRANCH  26  27
ENDBRANCH  25  26
ENDBRANCH  24  25
ENDBRANCH  23  24
ENDBRANCH  22  23
ENDBRANCH  21  22
ENDBRANCH   1  21
TORSDOF 22
