REMARK SMILES O=C(OCCOCCOCCOC(=O)c1ccccc1Sc1ccc(S(=O)(=O)N2CCCC2)cc1[N+](=O)[O-])c1ccc(-c2c3nc(c(-c4ccccc4)c4ccc([nH]4)c(-c4ccccc4)c4nc(c(-c5ccccc5)c5ccc2[nH]5)C=C4)C=C3)cc1
REMARK SMILES IDX 8 1 7 2 6 3 5 4 4 5 3 6 2 7 1 8 39 9 40 10 86 11 41 12 85 13
REMARK SMILES IDX 42 14 43 15 44 16 79 17 45 18 84 19 78 20 80 21 46 22 83 23
REMARK SMILES IDX 77 24 76 25 47 27 69 28 54 29 68 30 55 31 58 32 67 33 81 34
REMARK SMILES IDX 56 35 57 36 66 38 82 39 59 40 48 41 49 42 53 43 50 44 52 45
REMARK SMILES IDX 51 46 70 47 71 48 75 49 72 50 74 51 73 52 60 53 61 54 65 55
REMARK SMILES IDX 62 56 64 57 63 58 9 59 10 60 11 61 12 62 13 63 14 64 15 65
REMARK SMILES IDX 16 66 20 67 17 68 19 69 18 70 21 71 22 72 23 73 35 74 24 75
REMARK SMILES IDX 34 76 25 77 36 78 37 79 38 80 26 81 27 82 28 83 29 84 30 85
REMARK SMILES IDX 33 86 31 87 32 88
REMARK H PARENT 80 26 58 37
REMARK Flexibility Score: inf
ROOT
ATOM      1  C   UNL     1       1.639   0.230   2.091  1.00  0.00     0.188 C 
ENDROOT
BRANCH   1   2
ATOM      2  C   UNL     1       2.200   0.961   0.875  1.00  0.00     0.188 C 
BRANCH   2   3
ATOM      3  O   UNL     1       3.468   0.402   0.526  1.00  0.00    -0.376 OA
BRANCH   3   4
ATOM      4  C   UNL     1       4.456   1.355   0.147  1.00  0.00     0.202 C 
BRANCH   4   5
ATOM      5  C   UNL     1       4.353   1.796  -1.307  1.00  0.00     0.261 C 
BRANCH   5   6
ATOM      6  O   UNL     1       3.120   1.454  -1.966  1.00  0.00    -0.460 OA
BRANCH   6   7
ATOM      7  C   UNL     1       2.557   0.264  -2.272  1.00  0.00     0.338 C 
ATOM      8  O   UNL     1       1.365   0.258  -2.586  1.00  0.00    -0.246 OA
BRANCH   7   9
ATOM      9  C   UNL     1       3.273  -1.046  -2.327  1.00  0.00     0.060 A 
ATOM     10  C   UNL     1       4.390  -1.408  -1.576  1.00  0.00     0.016 A 
ATOM     11  C   UNL     1       2.710  -2.023  -3.171  1.00  0.00     0.016 A 
ATOM     12  C   UNL     1       4.949  -2.677  -1.665  1.00  0.00     0.010 A 
ATOM     13  C   UNL     1       3.270  -3.298  -3.282  1.00  0.00     0.010 A 
ATOM     14  C   UNL     1       4.412  -3.614  -2.542  1.00  0.00    -0.014 A 
BRANCH  14  15
ATOM     15  C   UNL     1       5.200  -4.825  -2.819  1.00  0.00     0.031 A 
ATOM     16  C   UNL     1       6.035  -4.840  -4.060  1.00  0.00     0.074 A 
ATOM     17  C   UNL     1       5.303  -5.805  -1.907  1.00  0.00     0.049 A 
ATOM     18  N   UNL     1       6.769  -5.800  -4.547  1.00  0.00    -0.248 NA
ATOM     19  C   UNL     1       6.081  -3.585  -4.834  1.00  0.00     0.031 C 
ATOM     20  C   UNL     1       4.707  -5.773  -0.573  1.00  0.00     0.029 A 
ATOM     21  N   UNL     1       5.968  -7.002  -1.948  1.00  0.00    -0.354 N 
ATOM     22  C   UNL     1       7.354  -5.272  -5.689  1.00  0.00     0.074 A 
ATOM     23  C   UNL     1       6.891  -3.911  -5.828  1.00  0.00     0.031 C 
ATOM     24  C   UNL     1       5.024  -6.908   0.069  1.00  0.00     0.029 A 
ATOM     25  C   UNL     1       5.755  -7.776  -0.835  1.00  0.00     0.049 A 
ATOM     26  H   UNL     1       6.541  -7.278  -2.700  1.00  0.00     0.167 HD
ATOM     27  C   UNL     1       8.198  -5.886  -6.545  1.00  0.00     0.031 A 
ATOM     28  C   UNL     1       6.056  -9.065  -0.599  1.00  0.00     0.031 A 
ATOM     29  C   UNL     1       8.621  -7.248  -6.387  1.00  0.00     0.049 A 
ATOM     30  C   UNL     1       6.818  -9.795  -1.661  1.00  0.00     0.074 A 
ATOM     31  C   UNL     1       9.417  -8.010  -7.220  1.00  0.00     0.029 A 
ATOM     32  N   UNL     1       8.267  -8.054  -5.313  1.00  0.00    -0.354 N 
ATOM     33  N   UNL     1       7.308  -9.324  -2.784  1.00  0.00    -0.248 NA
ATOM     34  C   UNL     1       7.074 -11.220  -1.436  1.00  0.00     0.031 C 
ATOM     35  C   UNL     1       9.491  -9.299  -6.680  1.00  0.00     0.029 A 
ATOM     36  C   UNL     1       8.793  -9.321  -5.481  1.00  0.00     0.049 A 
ATOM     37  H   UNL     1       7.721  -7.766  -4.546  1.00  0.00     0.167 HD
ATOM     38  C   UNL     1       7.955 -10.387  -3.389  1.00  0.00     0.074 A 
ATOM     39  C   UNL     1       7.806 -11.524  -2.498  1.00  0.00     0.031 C 
ATOM     40  C   UNL     1       8.616 -10.423  -4.571  1.00  0.00     0.031 A 
BRANCH  27  41
ATOM     41  C   UNL     1       8.614  -5.113  -7.760  1.00  0.00    -0.014 A 
ATOM     42  C   UNL     1       9.546  -4.066  -7.691  1.00  0.00     0.009 A 
ATOM     43  C   UNL     1       8.034  -5.428  -8.998  1.00  0.00     0.009 A 
ATOM     44  C   UNL     1       9.868  -3.333  -8.836  1.00  0.00     0.001 A 
ATOM     45  C   UNL     1       8.374  -4.709 -10.144  1.00  0.00     0.001 A 
ATOM     46  C   UNL     1       9.285  -3.658 -10.061  1.00  0.00     0.000 A 
ENDBRANCH  27  41
BRANCH  28  47
ATOM     47  C   UNL     1       5.540  -9.758   0.614  1.00  0.00    -0.014 A 
ATOM     48  C   UNL     1       6.403 -10.269   1.593  1.00  0.00     0.009 A 
ATOM     49  C   UNL     1       4.155  -9.947   0.775  1.00  0.00     0.009 A 
ATOM     50  C   UNL     1       5.894 -10.979   2.686  1.00  0.00     0.001 A 
ATOM     51  C   UNL     1       3.647 -10.630   1.881  1.00  0.00     0.001 A 
ATOM     52  C   UNL     1       4.518 -11.158   2.830  1.00  0.00     0.000 A 
ENDBRANCH  28  47
BRANCH  40  53
ATOM     53  C   UNL     1       9.251 -11.729  -4.935  1.00  0.00    -0.014 A 
ATOM     54  C   UNL     1       8.477 -12.821  -5.351  1.00  0.00     0.009 A 
ATOM     55  C   UNL     1      10.648 -11.850  -4.887  1.00  0.00     0.009 A 
ATOM     56  C   UNL     1       9.092 -14.027  -5.681  1.00  0.00     0.001 A 
ATOM     57  C   UNL     1      11.261 -13.047  -5.249  1.00  0.00     0.001 A 
ATOM     58  C   UNL     1      10.482 -14.137  -5.636  1.00  0.00     0.000 A 
ENDBRANCH  40  53
ENDBRANCH  14  15
ENDBRANCH   7   9
ENDBRANCH   6   7
ENDBRANCH   5   6
ENDBRANCH   4   5
ENDBRANCH   3   4
ENDBRANCH   2   3
ENDBRANCH   1   2
BRANCH   1  59
ATOM     59  O   UNL     1       2.388   0.392   3.292  1.00  0.00    -0.376 OA
BRANCH  59  60
ATOM     60  C   UNL     1       3.788   0.213   3.202  1.00  0.00     0.202 C 
BRANCH  60  61
ATOM     61  C   UNL     1       4.393  -1.134   2.819  1.00  0.00     0.261 C 
BRANCH  61  62
ATOM     62  O   UNL     1       3.643  -2.119   2.121  1.00  0.00    -0.460 OA
BRANCH  62  63
ATOM     63  C   UNL     1       2.832  -2.818   2.947  1.00  0.00     0.339 C 
ATOM     64  O   UNL     1       2.388  -2.467   4.026  1.00  0.00    -0.246 OA
BRANCH  63  65
ATOM     65  C   UNL     1       2.601  -4.155   2.423  1.00  0.00     0.074 A 
ATOM     66  C   UNL     1       1.643  -4.243   1.394  1.00  0.00     0.017 A 
ATOM     67  C   UNL     1       3.181  -5.296   3.003  1.00  0.00     0.027 A 
ATOM     68  C   UNL     1       1.218  -5.486   0.940  1.00  0.00     0.001 A 
ATOM     69  C   UNL     1       2.682  -6.538   2.556  1.00  0.00     0.016 A 
ATOM     70  C   UNL     1       1.720  -6.634   1.540  1.00  0.00     0.001 A 
BRANCH  67  71
ATOM     71  S   UNL     1       4.613  -5.453   4.089  1.00  0.00    -0.082 SA
BRANCH  71  72
ATOM     72  C   UNL     1       4.884  -3.980   5.058  1.00  0.00     0.090 A 
ATOM     73  C   UNL     1       6.122  -3.331   4.834  1.00  0.00     0.024 A 
ATOM     74  C   UNL     1       4.038  -3.408   6.026  1.00  0.00     0.284 A 
ATOM     75  C   UNL     1       6.426  -2.086   5.422  1.00  0.00     0.023 A 
ATOM     76  C   UNL     1       4.328  -2.138   6.591  1.00  0.00     0.108 A 
ATOM     77  C   UNL     1       5.491  -1.452   6.252  1.00  0.00     0.089 A 
BRANCH  74  78
ATOM     78  N   UNL     1       2.795  -4.062   6.471  1.00  0.00     0.063 N 
ATOM     79  O   UNL     1       1.940  -3.349   7.018  1.00  0.00    -0.258 OA
ATOM     80  O   UNL     1       2.699  -5.290   6.361  1.00  0.00    -0.258 OA
ENDBRANCH  74  78
BRANCH  77  81
ATOM     81  S   UNL     1       5.827   0.236   6.771  1.00  0.00     0.243 S 
ATOM     82  O   UNL     1       6.673   0.112   7.927  1.00  0.00    -0.207 OA
ATOM     83  O   UNL     1       6.291   0.919   5.567  1.00  0.00    -0.207 OA
BRANCH  81  84
ATOM     84  N   UNL     1       4.412   0.987   7.247  1.00  0.00    -0.198 NA
ATOM     85  C   UNL     1       3.674   0.606   8.455  1.00  0.00     0.102 C 
ATOM     86  C   UNL     1       3.488   1.723   6.380  1.00  0.00     0.102 C 
ATOM     87  C   UNL     1       2.210   0.512   8.000  1.00  0.00     0.018 C 
ATOM     88  C   UNL     1       2.191   0.955   6.538  1.00  0.00     0.018 C 
ENDBRANCH  81  84
ENDBRANCH  77  81
ENDBRANCH  71  72
ENDBRANCH  67  71
ENDBRANCH  63  65
ENDBRANCH  62  63
ENDBRANCH  61  62
ENDBRANCH  60  61
ENDBRANCH  59  60
ENDBRANCH   1  59
TORSDOF 22
