REMARK SMILES O=C(CNC(=O)N1CC(OCCOCCOCCOC(=O)c2ccc(-c3c4nc(c(-c5ccccc5)c5ccc([nH]5)c(-c5ccccc5)c5nc(c(-c6ccccc6)c6ccc3[nH]6)C=C5)C=C4)cc2)=Nc2ccccc21)N[C@H](C(=O)[O-])c1ccccc1
REMARK SMILES IDX 14 1 13 2 12 3 11 4 10 5 9 6 7 7 8 8 76 9 71 10 75 11 70 12
REMARK SMILES IDX 72 13 74 14 73 15 5 16 4 17 6 19 3 20 2 21 1 22 77 23 78 25
REMARK SMILES IDX 82 26 83 27 87 28 84 29 86 30 85 31 79 32 80 33 81 34 15 35
REMARK SMILES IDX 16 36 17 37 18 38 19 39 20 40 21 41 22 42 23 43 69 44 24 45
REMARK SMILES IDX 68 46 25 47 26 48 27 49 62 50 28 51 67 52 61 53 63 54 29 55
REMARK SMILES IDX 66 56 60 57 59 58 30 60 52 61 37 62 51 63 38 64 41 65 50 66
REMARK SMILES IDX 64 67 39 68 40 69 49 71 65 72 42 73 31 74 32 75 36 76 33 77
REMARK SMILES IDX 35 78 34 79 53 80 54 81 58 82 55 83 57 84 56 85 43 86 44 87
REMARK SMILES IDX 48 88 45 89 47 90 46 91
REMARK H PARENT 4 18 77 24 63 59 41 70
REMARK Flexibility Score: inf
ROOT
ATOM      1  C   UNL     1      -0.428  -4.384  -4.270  1.00  0.00     0.188 C 
ENDROOT
BRANCH   1   2
ATOM      2  O   UNL     1      -1.509  -5.306  -4.362  1.00  0.00    -0.376 OA
BRANCH   2   3
ATOM      3  C   UNL     1      -1.284  -6.678  -4.064  1.00  0.00     0.201 C 
BRANCH   3   4
ATOM      4  C   UNL     1      -0.699  -7.508  -5.209  1.00  0.00     0.259 C 
BRANCH   4   5
ATOM      5  O   UNL     1       0.745  -7.473  -5.235  1.00  0.00    -0.477 OA
BRANCH   5   6
ATOM      6  C   UNL     1       1.341  -6.574  -6.052  1.00  0.00     0.209 C 
ATOM      7  N   UNL     1       3.324  -5.115  -6.076  1.00  0.00    -0.283 N 
ATOM      8  C   UNL     1       2.831  -6.473  -5.844  1.00  0.00     0.224 C 
ATOM      9  C   UNL     1       2.653  -4.389  -7.120  1.00  0.00     0.072 A 
ATOM     10  C   UNL     1       1.373  -4.835  -7.542  1.00  0.00     0.091 A 
ATOM     11  C   UNL     1       3.212  -3.282  -7.767  1.00  0.00     0.029 A 
ATOM     12  N   UNL     1       0.678  -5.878  -6.912  1.00  0.00    -0.214 NA
ATOM     13  C   UNL     1       0.676  -4.154  -8.544  1.00  0.00     0.030 A 
ATOM     14  C   UNL     1       2.501  -2.608  -8.770  1.00  0.00     0.002 A 
ATOM     15  C   UNL     1       1.236  -3.042  -9.157  1.00  0.00     0.002 A 
BRANCH   7  16
ATOM     16  C   UNL     1       4.561  -4.847  -5.532  1.00  0.00     0.322 C 
ATOM     17  N   UNL     1       4.825  -3.648  -4.956  1.00  0.00    -0.329 N 
ATOM     18  H   UNL     1       5.760  -3.521  -4.672  1.00  0.00     0.165 HD
ATOM     19  O   UNL     1       5.423  -5.725  -5.434  1.00  0.00    -0.248 OA
BRANCH  17  20
ATOM     20  C   UNL     1       3.950  -2.523  -4.693  1.00  0.00     0.218 C 
BRANCH  20  21
ATOM     21  C   UNL     1       3.851  -1.946  -3.272  1.00  0.00     0.240 C 
ATOM     22  O   UNL     1       3.430  -0.800  -3.114  1.00  0.00    -0.273 OA
ATOM     23  N   UNL     1       3.993  -2.838  -2.241  1.00  0.00    -0.342 N 
ATOM     24  H   UNL     1       4.343  -3.741  -2.420  1.00  0.00     0.164 HD
BRANCH  23  25
ATOM     25  C   UNL     1       3.622  -2.453  -0.853  1.00  0.00     0.158 C 
BRANCH  25  26
ATOM     26  C   UNL     1       3.346  -3.670   0.041  1.00  0.00    -0.020 A 
ATOM     27  C   UNL     1       3.260  -4.977  -0.467  1.00  0.00     0.006 A 
ATOM     28  C   UNL     1       3.081  -3.495   1.413  1.00  0.00     0.006 A 
ATOM     29  C   UNL     1       2.972  -6.065   0.366  1.00  0.00     0.000 A 
ATOM     30  C   UNL     1       2.796  -4.581   2.248  1.00  0.00     0.000 A 
ATOM     31  C   UNL     1       2.748  -5.868   1.724  1.00  0.00     0.000 A 
ENDBRANCH  25  26
BRANCH  25  32
ATOM     32  C   UNL     1       4.657  -1.476  -0.176  1.00  0.00     0.068 C 
ATOM     33  O   UNL     1       4.164  -0.604   0.603  1.00  0.00    -0.548 OA
ATOM     34  O   UNL     1       5.872  -1.674  -0.488  1.00  0.00    -0.548 OA
ENDBRANCH  25  32
ENDBRANCH  23  25
ENDBRANCH  20  21
ENDBRANCH  17  20
ENDBRANCH   7  16
ENDBRANCH   5   6
ENDBRANCH   4   5
ENDBRANCH   3   4
ENDBRANCH   2   3
ENDBRANCH   1   2
BRANCH   1  35
ATOM     35  C   UNL     1       0.685  -4.628  -3.238  1.00  0.00     0.188 C 
BRANCH  35  36
ATOM     36  O   UNL     1       0.266  -4.973  -1.924  1.00  0.00    -0.376 OA
BRANCH  36  37
ATOM     37  C   UNL     1      -0.744  -4.157  -1.340  1.00  0.00     0.202 C 
BRANCH  37  38
ATOM     38  C   UNL     1      -0.377  -2.686  -1.119  1.00  0.00     0.261 C 
BRANCH  38  39
ATOM     39  O   UNL     1      -0.138  -2.006  -2.365  1.00  0.00    -0.460 OA
BRANCH  39  40
ATOM     40  C   UNL     1      -0.106  -0.656  -2.284  1.00  0.00     0.338 C 
ATOM     41  O   UNL     1      -0.408   0.003  -1.292  1.00  0.00    -0.246 OA
BRANCH  40  42
ATOM     42  C   UNL     1       0.290  -0.037  -3.580  1.00  0.00     0.060 A 
ATOM     43  C   UNL     1       0.882  -0.762  -4.617  1.00  0.00     0.016 A 
ATOM     44  C   UNL     1       0.128   1.342  -3.736  1.00  0.00     0.016 A 
ATOM     45  C   UNL     1       1.417  -0.103  -5.732  1.00  0.00     0.010 A 
ATOM     46  C   UNL     1       0.588   1.991  -4.889  1.00  0.00     0.010 A 
ATOM     47  C   UNL     1       1.281   1.285  -5.883  1.00  0.00    -0.014 A 
BRANCH  47  48
ATOM     48  C   UNL     1       1.889   2.006  -7.041  1.00  0.00     0.031 A 
ATOM     49  C   UNL     1       2.892   3.110  -6.816  1.00  0.00     0.074 A 
ATOM     50  C   UNL     1       1.547   1.687  -8.306  1.00  0.00     0.049 A 
ATOM     51  N   UNL     1       3.356   3.990  -7.672  1.00  0.00    -0.248 NA
ATOM     52  C   UNL     1       3.420   3.262  -5.452  1.00  0.00     0.031 C 
ATOM     53  C   UNL     1       0.620   0.624  -8.688  1.00  0.00     0.029 A 
ATOM     54  N   UNL     1       1.957   2.216  -9.508  1.00  0.00    -0.354 N 
ATOM     55  C   UNL     1       4.152   4.856  -6.929  1.00  0.00     0.074 A 
ATOM     56  C   UNL     1       4.139   4.372  -5.565  1.00  0.00     0.031 C 
ATOM     57  C   UNL     1       0.596   0.523 -10.026  1.00  0.00     0.029 A 
ATOM     58  C   UNL     1       1.431   1.571 -10.601  1.00  0.00     0.049 A 
ATOM     59  H   UNL     1       2.570   2.983  -9.578  1.00  0.00     0.167 HD
ATOM     60  C   UNL     1       4.803   5.971  -7.345  1.00  0.00     0.031 A 
ATOM     61  C   UNL     1       1.576   1.807 -11.919  1.00  0.00     0.031 A 
ATOM     62  C   UNL     1       4.853   6.423  -8.714  1.00  0.00     0.049 A 
ATOM     63  C   UNL     1       2.347   3.017 -12.363  1.00  0.00     0.074 A 
ATOM     64  C   UNL     1       5.456   7.558  -9.232  1.00  0.00     0.029 A 
ATOM     65  N   UNL     1       4.298   5.745  -9.788  1.00  0.00    -0.354 N 
ATOM     66  N   UNL     1       2.994   3.896 -11.639  1.00  0.00    -0.248 NA
ATOM     67  C   UNL     1       2.364   3.295 -13.807  1.00  0.00     0.031 C 
ATOM     68  C   UNL     1       5.231   7.586 -10.614  1.00  0.00     0.029 A 
ATOM     69  C   UNL     1       4.534   6.441 -10.964  1.00  0.00     0.049 A 
ATOM     70  H   UNL     1       3.808   4.893  -9.726  1.00  0.00     0.167 HD
ATOM     71  C   UNL     1       3.463   4.849 -12.531  1.00  0.00     0.074 A 
ATOM     72  C   UNL     1       3.084   4.406 -13.857  1.00  0.00     0.031 C 
ATOM     73  C   UNL     1       4.121   6.006 -12.272  1.00  0.00     0.031 A 
BRANCH  60  74
ATOM     74  C   UNL     1       5.440   6.837  -6.291  1.00  0.00    -0.014 A 
ATOM     75  C   UNL     1       6.620   6.467  -5.630  1.00  0.00     0.009 A 
ATOM     76  C   UNL     1       4.845   8.070  -5.975  1.00  0.00     0.009 A 
ATOM     77  C   UNL     1       7.169   7.299  -4.649  1.00  0.00     0.001 A 
ATOM     78  C   UNL     1       5.410   8.912  -5.015  1.00  0.00     0.001 A 
ATOM     79  C   UNL     1       6.567   8.521  -4.346  1.00  0.00     0.000 A 
ENDBRANCH  60  74
BRANCH  61  80
ATOM     80  C   UNL     1       0.945   0.901 -12.916  1.00  0.00    -0.014 A 
ATOM     81  C   UNL     1       1.744   0.101 -13.748  1.00  0.00     0.009 A 
ATOM     82  C   UNL     1      -0.452   0.813 -13.033  1.00  0.00     0.009 A 
ATOM     83  C   UNL     1       1.158  -0.764 -14.676  1.00  0.00     0.001 A 
ATOM     84  C   UNL     1      -1.034  -0.080 -13.934  1.00  0.00     0.001 A 
ATOM     85  C   UNL     1      -0.230  -0.863 -14.760  1.00  0.00     0.000 A 
ENDBRANCH  61  80
BRANCH  73  86
ATOM     86  C   UNL     1       4.438   6.877 -13.454  1.00  0.00    -0.014 A 
ATOM     87  C   UNL     1       3.423   7.594 -14.110  1.00  0.00     0.009 A 
ATOM     88  C   UNL     1       5.756   6.981 -13.921  1.00  0.00     0.009 A 
ATOM     89  C   UNL     1       3.717   8.362 -15.238  1.00  0.00     0.001 A 
ATOM     90  C   UNL     1       6.051   7.770 -15.034  1.00  0.00     0.001 A 
ATOM     91  C   UNL     1       5.030   8.450 -15.698  1.00  0.00     0.000 A 
ENDBRANCH  73  86
ENDBRANCH  47  48
ENDBRANCH  40  42
ENDBRANCH  39  40
ENDBRANCH  38  39
ENDBRANCH  37  38
ENDBRANCH  36  37
ENDBRANCH  35  36
ENDBRANCH   1  35
TORSDOF 22
