REMARK SMILES Cc1noc(C[N@H+]2CCC[C@@H](c3ccc(C(=O)OCCOCCOCCOC(=O)c4ccc(-c5c6nc(c(-c7ccccc7)c7ccc([nH]7)c(-c7ccccc7)c7nc(c(-c8ccccc8)c8ccc5[nH]8)C=C7)C=C6)cc4)cc3)C2)n1
REMARK SMILES IDX 22 1 21 2 20 3 19 4 18 5 16 6 17 7 15 8 12 9 13 10 79 11
REMARK SMILES IDX 14 12 78 13 11 14 7 15 8 16 80 17 9 19 10 20 6 21 5 22 1 23
REMARK SMILES IDX 2 24 3 25 81 26 4 27 23 28 24 29 25 30 26 31 27 32 28 33
REMARK SMILES IDX 29 34 30 35 31 36 77 37 32 38 76 39 33 40 34 41 35 42 70 43
REMARK SMILES IDX 36 44 75 45 69 46 71 47 37 48 74 49 68 50 67 51 38 53 60 54
REMARK SMILES IDX 45 55 59 56 46 57 49 58 58 59 72 60 47 61 48 62 57 64 73 65
REMARK SMILES IDX 50 66 39 67 40 68 44 69 41 70 43 71 42 72 61 73 62 74 66 75
REMARK SMILES IDX 63 76 65 77 64 78 51 79 52 80 56 81 53 82 55 83 54 84
REMARK H PARENT 7 18 71 52 49 63
REMARK Flexibility Score: inf
ROOT
ATOM      1  C   UNL     1      -5.423   6.759  -4.035  1.00  0.00     0.188 C 
ENDROOT
BRANCH   1   2
ATOM      2  O   UNL     1      -6.513   7.549  -3.590  1.00  0.00    -0.376 OA
BRANCH   2   3
ATOM      3  C   UNL     1      -6.271   8.721  -2.823  1.00  0.00     0.202 C 
BRANCH   3   4
ATOM      4  C   UNL     1      -5.364   8.667  -1.589  1.00  0.00     0.261 C 
BRANCH   4   5
ATOM      5  O   UNL     1      -4.063   8.122  -1.851  1.00  0.00    -0.460 OA
BRANCH   5   6
ATOM      6  C   UNL     1      -3.756   7.016  -1.131  1.00  0.00     0.338 C 
ATOM      7  O   UNL     1      -4.426   6.503  -0.249  1.00  0.00    -0.246 OA
BRANCH   6   8
ATOM      8  C   UNL     1      -2.557   6.361  -1.691  1.00  0.00     0.060 A 
ATOM      9  C   UNL     1      -0.287   4.949  -2.537  1.00  0.00    -0.039 A 
ATOM     10  C   UNL     1      -1.511   4.285  -2.342  1.00  0.00     0.005 A 
ATOM     11  C   UNL     1      -0.248   6.347  -2.401  1.00  0.00     0.005 A 
ATOM     12  C   UNL     1      -2.630   4.981  -1.896  1.00  0.00     0.016 A 
ATOM     13  C   UNL     1      -1.383   7.056  -1.988  1.00  0.00     0.016 A 
BRANCH   9  14
ATOM     14  C   UNL     1       1.004   4.151  -2.702  1.00  0.00     0.074 C 
ATOM     15  N   UNL     1       2.335   2.361  -1.464  1.00  0.00    -0.327 N 
ATOM     16  C   UNL     1       2.302   1.514  -2.664  1.00  0.00     0.262 C 
ATOM     17  C   UNL     1       1.201   3.297  -1.425  1.00  0.00     0.270 C 
ATOM     18  H   UNL     1       3.194   2.908  -1.515  1.00  0.00     0.348 HD
ATOM     19  C   UNL     1       2.246   2.354  -3.942  1.00  0.00     0.062 C 
ATOM     20  C   UNL     1       1.019   3.265  -3.955  1.00  0.00     0.020 C 
BRANCH  15  21
ATOM     21  C   UNL     1       2.375   1.542  -0.216  1.00  0.00     0.364 C 
BRANCH  21  22
ATOM     22  C   UNL     1       1.180   0.665   0.026  1.00  0.00     0.281 A 
ATOM     23  C   UNL     1      -2.191  -0.281   0.232  1.00  0.00     0.093 C 
ATOM     24  C   UNL     1      -0.720  -0.194   0.179  1.00  0.00     0.169 A 
ATOM     25  N   UNL     1       0.066  -1.245  -0.085  1.00  0.00    -0.063 NA
ATOM     26  N   UNL     1      -0.063   1.000   0.302  1.00  0.00    -0.191 NA
ATOM     27  O   UNL     1       1.340  -0.674  -0.186  1.00  0.00    -0.333 OA
ENDBRANCH  21  22
ENDBRANCH  15  21
ENDBRANCH   9  14
ENDBRANCH   6   8
ENDBRANCH   5   6
ENDBRANCH   4   5
ENDBRANCH   3   4
ENDBRANCH   2   3
ENDBRANCH   1   2
BRANCH   1  28
ATOM     28  C   UNL     1      -4.240   7.398  -4.791  1.00  0.00     0.188 C 
BRANCH  28  29
ATOM     29  O   UNL     1      -4.229   8.793  -4.973  1.00  0.00    -0.376 OA
BRANCH  29  30
ATOM     30  C   UNL     1      -5.012   9.424  -5.970  1.00  0.00     0.202 C 
BRANCH  30  31
ATOM     31  C   UNL     1      -5.832   8.725  -7.068  1.00  0.00     0.261 C 
BRANCH  31  32
ATOM     32  O   UNL     1      -6.097   7.331  -6.925  1.00  0.00    -0.460 OA
BRANCH  32  33
ATOM     33  C   UNL     1      -5.389   6.527  -7.754  1.00  0.00     0.338 C 
ATOM     34  O   UNL     1      -4.529   6.852  -8.553  1.00  0.00    -0.246 OA
BRANCH  33  35
ATOM     35  C   UNL     1      -5.707   5.125  -7.439  1.00  0.00     0.060 A 
ATOM     36  C   UNL     1      -4.678   4.299  -6.972  1.00  0.00     0.016 A 
ATOM     37  C   UNL     1      -6.988   4.619  -7.662  1.00  0.00     0.016 A 
ATOM     38  C   UNL     1      -4.921   2.944  -6.760  1.00  0.00     0.010 A 
ATOM     39  C   UNL     1      -7.226   3.257  -7.463  1.00  0.00     0.010 A 
ATOM     40  C   UNL     1      -6.185   2.410  -7.045  1.00  0.00    -0.014 A 
BRANCH  40  41
ATOM     41  C   UNL     1      -6.367   0.940  -7.080  1.00  0.00     0.031 A 
ATOM     42  C   UNL     1      -6.263   0.234  -8.404  1.00  0.00     0.074 A 
ATOM     43  C   UNL     1      -6.594   0.240  -5.956  1.00  0.00     0.049 A 
ATOM     44  N   UNL     1      -6.395  -1.039  -8.678  1.00  0.00    -0.248 NA
ATOM     45  C   UNL     1      -5.966   1.077  -9.574  1.00  0.00     0.031 C 
ATOM     46  C   UNL     1      -6.671   0.800  -4.609  1.00  0.00     0.029 A 
ATOM     47  N   UNL     1      -6.804  -1.104  -5.779  1.00  0.00    -0.354 N 
ATOM     48  C   UNL     1      -6.199  -1.149 -10.049  1.00  0.00     0.074 A 
ATOM     49  C   UNL     1      -5.972   0.187 -10.555  1.00  0.00     0.031 C 
ATOM     50  C   UNL     1      -6.912  -0.197  -3.739  1.00  0.00     0.029 A 
ATOM     51  C   UNL     1      -7.037  -1.456  -4.473  1.00  0.00     0.049 A 
ATOM     52  H   UNL     1      -6.788  -1.755  -6.518  1.00  0.00     0.167 HD
ATOM     53  C   UNL     1      -6.201  -2.262 -10.819  1.00  0.00     0.031 A 
ATOM     54  C   UNL     1      -7.332  -2.655  -3.936  1.00  0.00     0.031 A 
ATOM     55  C   UNL     1      -6.454  -3.588 -10.325  1.00  0.00     0.049 A 
ATOM     56  C   UNL     1      -7.428  -3.864  -4.828  1.00  0.00     0.074 A 
ATOM     57  C   UNL     1      -6.476  -4.781 -11.027  1.00  0.00     0.029 A 
ATOM     58  N   UNL     1      -6.742  -3.894  -9.005  1.00  0.00    -0.354 N 
ATOM     59  N   UNL     1      -7.218  -3.961  -6.119  1.00  0.00    -0.248 NA
ATOM     60  C   UNL     1      -7.799  -5.133  -4.184  1.00  0.00     0.031 C 
ATOM     61  C   UNL     1      -6.829  -5.803 -10.139  1.00  0.00     0.029 A 
ATOM     62  C   UNL     1      -6.970  -5.253  -8.874  1.00  0.00     0.049 A 
ATOM     63  H   UNL     1      -6.779  -3.242  -8.268  1.00  0.00     0.167 HD
ATOM     64  C   UNL     1      -7.398  -5.302  -6.434  1.00  0.00     0.074 A 
ATOM     65  C   UNL     1      -7.726  -5.983  -5.199  1.00  0.00     0.031 C 
ATOM     66  C   UNL     1      -7.295  -5.917  -7.638  1.00  0.00     0.031 A 
BRANCH  53  67
ATOM     67  C   UNL     1      -5.954  -2.077 -12.289  1.00  0.00    -0.014 A 
ATOM     68  C   UNL     1      -4.682  -1.733 -12.776  1.00  0.00     0.009 A 
ATOM     69  C   UNL     1      -7.005  -2.257 -13.201  1.00  0.00     0.009 A 
ATOM     70  C   UNL     1      -4.478  -1.538 -14.143  1.00  0.00     0.001 A 
ATOM     71  C   UNL     1      -6.791  -2.088 -14.570  1.00  0.00     0.001 A 
ATOM     72  C   UNL     1      -5.531  -1.718 -15.039  1.00  0.00     0.000 A 
ENDBRANCH  53  67
BRANCH  54  73
ATOM     73  C   UNL     1      -7.571  -2.779  -2.474  1.00  0.00    -0.014 A 
ATOM     74  C   UNL     1      -6.652  -3.455  -1.657  1.00  0.00     0.009 A 
ATOM     75  C   UNL     1      -8.730  -2.242  -1.893  1.00  0.00     0.009 A 
ATOM     76  C   UNL     1      -6.901  -3.611  -0.292  1.00  0.00     0.001 A 
ATOM     77  C   UNL     1      -8.963  -2.376  -0.523  1.00  0.00     0.001 A 
ATOM     78  C   UNL     1      -8.053  -3.068   0.275  1.00  0.00     0.000 A 
ENDBRANCH  54  73
BRANCH  66  79
ATOM     79  C   UNL     1      -7.498  -7.406  -7.674  1.00  0.00    -0.014 A 
ATOM     80  C   UNL     1      -8.772  -7.975  -7.525  1.00  0.00     0.009 A 
ATOM     81  C   UNL     1      -6.399  -8.250  -7.906  1.00  0.00     0.009 A 
ATOM     82  C   UNL     1      -8.936  -9.361  -7.577  1.00  0.00     0.001 A 
ATOM     83  C   UNL     1      -6.571  -9.632  -7.985  1.00  0.00     0.001 A 
ATOM     84  C   UNL     1      -7.837 -10.187  -7.811  1.00  0.00     0.000 A 
ENDBRANCH  66  79
ENDBRANCH  40  41
ENDBRANCH  33  35
ENDBRANCH  32  33
ENDBRANCH  31  32
ENDBRANCH  30  31
ENDBRANCH  29  30
ENDBRANCH  28  29
ENDBRANCH   1  28
TORSDOF 20
