REMARK SMILES COC(=O)C1=C(C)N(c2cccc(OC)c2)C(=O)/C1=C\c1ccc(C(=O)OCCOCCOCCOC(=O)c2ccc(-c3c4nc(c(-c5ccccc5)c5ccc([nH]5)c(-c5ccccc5)c5nc(c(-c6ccccc6)c6ccc3[nH]6)C=C5)C=C4)cc2)cc1
REMARK SMILES IDX 31 1 30 2 29 3 28 4 27 5 25 6 26 7 24 8 21 9 22 10 88 11
REMARK SMILES IDX 23 12 87 13 20 14 5 15 6 16 19 17 7 18 8 19 17 20 18 21 3 22
REMARK SMILES IDX 4 23 2 24 1 25 9 26 10 27 16 28 11 29 13 30 12 31 14 32
REMARK SMILES IDX 15 33 32 34 33 35 34 36 35 37 36 38 37 39 38 40 39 41 40 42
REMARK SMILES IDX 86 43 41 44 85 45 42 46 43 47 44 48 79 49 45 50 84 51 78 52
REMARK SMILES IDX 80 53 46 54 83 55 77 56 76 57 47 59 69 60 54 61 68 62 55 63
REMARK SMILES IDX 58 64 67 65 81 66 56 67 57 68 66 70 82 71 59 72 48 73 49 74
REMARK SMILES IDX 53 75 50 76 52 77 51 78 70 79 71 80 75 81 72 82 74 83 73 84
REMARK SMILES IDX 60 85 61 86 65 87 62 88 64 89 63 90
REMARK H PARENT 80 58 58 69
REMARK Flexibility Score: inf
ROOT
ATOM      1  C   UNL     1       7.652  -8.110   5.824  1.00  0.00     0.188 C 
ENDROOT
BRANCH   1   2
ATOM      2  O   UNL     1       7.954  -9.184   6.692  1.00  0.00    -0.376 OA
BRANCH   2   3
ATOM      3  C   UNL     1       7.064 -10.281   6.827  1.00  0.00     0.202 C 
BRANCH   3   4
ATOM      4  C   UNL     1       5.535 -10.128   6.837  1.00  0.00     0.261 C 
BRANCH   4   5
ATOM      5  O   UNL     1       4.993  -9.219   5.874  1.00  0.00    -0.460 OA
BRANCH   5   6
ATOM      6  C   UNL     1       4.469  -8.079   6.390  1.00  0.00     0.338 C 
ATOM      7  O   UNL     1       4.402  -7.777   7.571  1.00  0.00    -0.246 OA
BRANCH   6   8
ATOM      8  C   UNL     1       4.154  -7.129   5.299  1.00  0.00     0.060 A 
ATOM      9  C   UNL     1       3.408  -5.241   3.388  1.00  0.00    -0.025 A 
ATOM     10  C   UNL     1       4.026  -4.821   4.571  1.00  0.00     0.009 A 
ATOM     11  C   UNL     1       3.266  -6.610   3.117  1.00  0.00     0.009 A 
ATOM     12  C   UNL     1       4.393  -5.767   5.528  1.00  0.00     0.016 A 
ATOM     13  C   UNL     1       3.633  -7.557   4.074  1.00  0.00     0.016 A 
BRANCH   9  14
ATOM     14  C   UNL     1       2.697  -4.274   2.547  1.00  0.00     0.023 C 
ATOM     15  C   UNL     1       0.515  -3.146   1.967  1.00  0.00     0.092 C 
ATOM     16  C   UNL     1      -0.730  -3.205   2.492  1.00  0.00     0.039 C 
ATOM     17  C   UNL     1       1.384  -4.035   2.716  1.00  0.00     0.057 C 
ATOM     18  C   UNL     1      -1.908  -2.403   2.043  1.00  0.00     0.066 C 
ATOM     19  N   UNL     1      -0.743  -4.053   3.600  1.00  0.00    -0.280 N 
ATOM     20  C   UNL     1       0.524  -4.639   3.794  1.00  0.00     0.263 C 
ATOM     21  O   UNL     1       0.863  -5.447   4.640  1.00  0.00    -0.268 OA
BRANCH  15  22
ATOM     22  C   UNL     1       0.975  -2.286   0.864  1.00  0.00     0.340 C 
ATOM     23  O   UNL     1       1.716  -2.661  -0.032  1.00  0.00    -0.246 OA
BRANCH  22  24
ATOM     24  O   UNL     1       0.533  -1.018   1.054  1.00  0.00    -0.465 OA
ATOM     25  C   UNL     1       1.005  -0.078   0.088  1.00  0.00     0.282 C 
ENDBRANCH  22  24
ENDBRANCH  15  22
BRANCH  19  26
ATOM     26  C   UNL     1      -1.767  -4.259   4.563  1.00  0.00     0.053 A 
ATOM     27  C   UNL     1      -3.092  -4.515   4.208  1.00  0.00     0.027 A 
ATOM     28  C   UNL     1      -1.432  -4.168   5.926  1.00  0.00     0.073 A 
ATOM     29  C   UNL     1      -4.068  -4.646   5.200  1.00  0.00     0.006 A 
ATOM     30  C   UNL     1      -2.404  -4.266   6.919  1.00  0.00     0.120 A 
ATOM     31  C   UNL     1      -3.724  -4.509   6.547  1.00  0.00     0.046 A 
BRANCH  30  32
ATOM     32  O   UNL     1      -2.183  -4.124   8.262  1.00  0.00    -0.497 OA
ATOM     33  C   UNL     1      -0.859  -3.775   8.656  1.00  0.00     0.278 C 
ENDBRANCH  30  32
ENDBRANCH  19  26
ENDBRANCH   9  14
ENDBRANCH   6   8
ENDBRANCH   5   6
ENDBRANCH   4   5
ENDBRANCH   3   4
ENDBRANCH   2   3
ENDBRANCH   1   2
BRANCH   1  34
ATOM     34  C   UNL     1       7.377  -8.365   4.328  1.00  0.00     0.188 C 
BRANCH  34  35
ATOM     35  O   UNL     1       7.284  -9.696   3.887  1.00  0.00    -0.376 OA
BRANCH  35  36
ATOM     36  C   UNL     1       8.453 -10.472   3.689  1.00  0.00     0.202 C 
BRANCH  36  37
ATOM     37  C   UNL     1       9.908  -9.961   3.751  1.00  0.00     0.261 C 
BRANCH  37  38
ATOM     38  O   UNL     1      10.159  -8.682   4.338  1.00  0.00    -0.460 OA
BRANCH  38  39
ATOM     39  C   UNL     1      10.473  -7.686   3.474  1.00  0.00     0.338 C 
ATOM     40  O   UNL     1      10.535  -7.747   2.257  1.00  0.00    -0.246 OA
BRANCH  39  41
ATOM     41  C   UNL     1      10.576  -6.425   4.230  1.00  0.00     0.060 A 
ATOM     42  C   UNL     1       9.573  -5.457   4.081  1.00  0.00     0.016 A 
ATOM     43  C   UNL     1      11.665  -6.195   5.071  1.00  0.00     0.016 A 
ATOM     44  C   UNL     1       9.652  -4.256   4.786  1.00  0.00     0.010 A 
ATOM     45  C   UNL     1      11.754  -4.980   5.756  1.00  0.00     0.010 A 
ATOM     46  C   UNL     1      10.755  -4.000   5.610  1.00  0.00    -0.014 A 
BRANCH  46  47
ATOM     47  C   UNL     1      10.927  -2.673   6.247  1.00  0.00     0.031 A 
ATOM     48  C   UNL     1      11.857  -1.675   5.619  1.00  0.00     0.074 A 
ATOM     49  C   UNL     1      10.277  -2.365   7.383  1.00  0.00     0.049 A 
ATOM     50  N   UNL     1      12.230  -0.499   6.056  1.00  0.00    -0.248 NA
ATOM     51  C   UNL     1      12.445  -2.054   4.324  1.00  0.00     0.031 C 
ATOM     52  C   UNL     1       9.310  -3.223   8.065  1.00  0.00     0.029 A 
ATOM     53  N   UNL     1      10.351  -1.244   8.173  1.00  0.00    -0.354 N 
ATOM     54  C   UNL     1      13.106  -0.003   5.099  1.00  0.00     0.074 A 
ATOM     55  C   UNL     1      13.225  -1.014   4.070  1.00  0.00     0.031 C 
ATOM     56  C   UNL     1       8.892  -2.603   9.182  1.00  0.00     0.029 A 
ATOM     57  C   UNL     1       9.596  -1.329   9.317  1.00  0.00     0.049 A 
ATOM     58  H   UNL     1      10.894  -0.456   7.942  1.00  0.00     0.167 HD
ATOM     59  C   UNL     1      13.755   1.186   5.081  1.00  0.00     0.031 A 
ATOM     60  C   UNL     1       9.512  -0.493  10.370  1.00  0.00     0.031 A 
ATOM     61  C   UNL     1      13.657   2.179   6.119  1.00  0.00     0.049 A 
ATOM     62  C   UNL     1      10.331   0.771  10.380  1.00  0.00     0.074 A 
ATOM     63  C   UNL     1      14.259   3.423   6.180  1.00  0.00     0.029 A 
ATOM     64  N   UNL     1      12.924   2.032   7.286  1.00  0.00    -0.354 N 
ATOM     65  N   UNL     1      11.128   1.250   9.455  1.00  0.00    -0.248 NA
ATOM     66  C   UNL     1      10.241   1.610  11.586  1.00  0.00     0.031 C 
ATOM     67  C   UNL     1      13.949   3.998   7.417  1.00  0.00     0.029 A 
ATOM     68  C   UNL     1      13.097   3.143   8.095  1.00  0.00     0.049 A 
ATOM     69  H   UNL     1      12.363   1.253   7.507  1.00  0.00     0.167 HD
ATOM     70  C   UNL     1      11.618   2.450   9.958  1.00  0.00     0.074 A 
ATOM     71  C   UNL     1      11.010   2.639  11.258  1.00  0.00     0.031 C 
ATOM     72  C   UNL     1      12.496   3.315   9.393  1.00  0.00     0.031 A 
BRANCH  59  73
ATOM     73  C   UNL     1      14.669   1.458   3.919  1.00  0.00    -0.014 A 
ATOM     74  C   UNL     1      14.166   1.692   2.629  1.00  0.00     0.009 A 
ATOM     75  C   UNL     1      16.057   1.513   4.126  1.00  0.00     0.009 A 
ATOM     76  C   UNL     1      15.037   1.939   1.565  1.00  0.00     0.001 A 
ATOM     77  C   UNL     1      16.922   1.791   3.067  1.00  0.00     0.001 A 
ATOM     78  C   UNL     1      16.413   1.993   1.786  1.00  0.00     0.000 A 
ENDBRANCH  59  73
BRANCH  60  79
ATOM     79  C   UNL     1       8.649  -0.840  11.531  1.00  0.00    -0.014 A 
ATOM     80  C   UNL     1       7.506  -0.082  11.826  1.00  0.00     0.009 A 
ATOM     81  C   UNL     1       8.978  -1.921  12.365  1.00  0.00     0.009 A 
ATOM     82  C   UNL     1       6.723  -0.385  12.943  1.00  0.00     0.001 A 
ATOM     83  C   UNL     1       8.176  -2.242  13.462  1.00  0.00     0.001 A 
ATOM     84  C   UNL     1       7.055  -1.468  13.756  1.00  0.00     0.000 A 
ENDBRANCH  60  79
BRANCH  72  85
ATOM     85  C   UNL     1      12.843   4.556  10.171  1.00  0.00    -0.014 A 
ATOM     86  C   UNL     1      13.646   4.493  11.320  1.00  0.00     0.009 A 
ATOM     87  C   UNL     1      12.405   5.811   9.718  1.00  0.00     0.009 A 
ATOM     88  C   UNL     1      13.978   5.658  12.016  1.00  0.00     0.001 A 
ATOM     89  C   UNL     1      12.765   6.976  10.396  1.00  0.00     0.001 A 
ATOM     90  C   UNL     1      13.543   6.899  11.550  1.00  0.00     0.000 A 
ENDBRANCH  72  85
ENDBRANCH  46  47
ENDBRANCH  39  41
ENDBRANCH  38  39
ENDBRANCH  37  38
ENDBRANCH  36  37
ENDBRANCH  35  36
ENDBRANCH  34  35
ENDBRANCH   1  34
TORSDOF 22
