REMARK SMILES O=C(C[C@@H]([NH2+]Cc1ccccc1)C(=O)/N=c1/[nH]c(-c2ccccc2)cs1)OCCOCCOCCOC(=O)c1ccc(-c2c3nc(c(-c4ccccc4)c4ccc([nH]4)c(-c4ccccc4)c4nc(c(-c5ccccc5)c5ccc2[nH]5)C=C4)C=C3)cc1
REMARK SMILES IDX 31 1 30 2 29 3 28 4 27 5 2 6 1 7 3 8 4 9 5 10 6 13 7 14 8 15
REMARK SMILES IDX 12 16 9 17 11 18 10 19 13 20 14 21 15 22 16 23 17 24 26 25
REMARK SMILES IDX 18 26 25 28 19 29 20 30 24 31 21 32 23 33 22 34 32 35 33 36
REMARK SMILES IDX 34 37 35 38 36 39 37 40 38 41 39 42 40 43 86 44 41 45 85 46
REMARK SMILES IDX 42 47 43 48 44 49 79 50 45 51 84 52 78 53 80 54 46 55 83 56
REMARK SMILES IDX 77 57 76 58 47 60 69 61 54 62 68 63 55 64 58 65 67 66 81 67
REMARK SMILES IDX 56 68 57 69 66 71 82 72 59 73 48 74 49 75 53 76 50 77 52 78
REMARK SMILES IDX 51 79 70 80 71 81 75 82 72 83 74 84 73 85 60 86 61 87 65 88
REMARK SMILES IDX 62 89 64 90 63 91
REMARK H PARENT 5 11 5 12 17 27 80 59 58 70
REMARK Flexibility Score: inf
ROOT
ATOM      1  C   UNL     1       2.467  -0.371   1.893  1.00  0.00     0.188 C 
ENDROOT
BRANCH   1   2
ATOM      2  O   UNL     1       3.857  -0.646   1.878  1.00  0.00    -0.376 OA
BRANCH   2   3
ATOM      3  C   UNL     1       4.724   0.114   1.035  1.00  0.00     0.202 C 
BRANCH   3   4
ATOM      4  C   UNL     1       4.206   1.381   0.357  1.00  0.00     0.261 C 
BRANCH   4   5
ATOM      5  O   UNL     1       3.222   1.313  -0.723  1.00  0.00    -0.463 OA
BRANCH   5   6
ATOM      6  C   UNL     1       2.613   0.308  -1.383  1.00  0.00     0.312 C 
ATOM      7  O   UNL     1       1.547   0.518  -1.958  1.00  0.00    -0.252 OA
BRANCH   6   8
ATOM      8  C   UNL     1       3.252  -1.043  -1.438  1.00  0.00     0.198 C 
BRANCH   8   9
ATOM      9  C   UNL     1       4.403  -1.138  -2.436  1.00  0.00     0.286 C 
BRANCH   9  10
ATOM     10  N   UNL     1       5.440  -0.080  -2.281  1.00  0.00    -0.332 N 
ATOM     11  H   UNL     1       6.128  -0.388  -1.593  1.00  0.00     0.347 HD
ATOM     12  H   UNL     1       4.979   0.777  -1.976  1.00  0.00     0.347 HD
BRANCH  10  13
ATOM     13  C   UNL     1       6.128   0.196  -3.555  1.00  0.00     0.297 C 
BRANCH  13  14
ATOM     14  C   UNL     1       5.210   0.940  -4.503  1.00  0.00     0.006 A 
ATOM     15  C   UNL     1       4.917   2.295  -4.285  1.00  0.00     0.009 A 
ATOM     16  C   UNL     1       4.514   0.245  -5.504  1.00  0.00     0.009 A 
ATOM     17  C   UNL     1       3.915   2.926  -5.022  1.00  0.00     0.001 A 
ATOM     18  C   UNL     1       3.499   0.874  -6.224  1.00  0.00     0.001 A 
ATOM     19  C   UNL     1       3.196   2.211  -5.978  1.00  0.00     0.000 A 
ENDBRANCH  13  14
ENDBRANCH  10  13
ENDBRANCH   9  10
BRANCH   9  20
ATOM     20  C   UNL     1       5.031  -2.558  -2.390  1.00  0.00     0.307 C 
ATOM     21  O   UNL     1       4.565  -3.459  -3.087  1.00  0.00    -0.265 OA
BRANCH  20  22
ATOM     22  N   UNL     1       6.107  -2.751  -1.545  1.00  0.00    -0.180 NA
ATOM     23  C   UNL     1       5.884  -3.396  -0.451  1.00  0.00     0.190 A 
ATOM     24  N   UNL     1       6.801  -3.743   0.522  1.00  0.00    -0.330 N 
ATOM     25  S   UNL     1       4.279  -3.953   0.104  1.00  0.00    -0.105 S 
ATOM     26  C   UNL     1       6.285  -4.334   1.661  1.00  0.00     0.058 A 
ATOM     27  H   UNL     1       7.765  -3.579   0.411  1.00  0.00     0.169 HD
ATOM     28  C   UNL     1       4.951  -4.452   1.611  1.00  0.00     0.095 A 
BRANCH  26  29
ATOM     29  C   UNL     1       7.065  -4.787   2.828  1.00  0.00    -0.001 A 
ATOM     30  C   UNL     1       8.268  -4.188   3.214  1.00  0.00     0.010 A 
ATOM     31  C   UNL     1       6.584  -5.857   3.615  1.00  0.00     0.010 A 
ATOM     32  C   UNL     1       8.946  -4.627   4.361  1.00  0.00     0.001 A 
ATOM     33  C   UNL     1       7.247  -6.282   4.766  1.00  0.00     0.001 A 
ATOM     34  C   UNL     1       8.432  -5.664   5.141  1.00  0.00     0.000 A 
ENDBRANCH  26  29
ENDBRANCH  20  22
ENDBRANCH   9  20
ENDBRANCH   8   9
ENDBRANCH   6   8
ENDBRANCH   5   6
ENDBRANCH   4   5
ENDBRANCH   3   4
ENDBRANCH   2   3
ENDBRANCH   1   2
BRANCH   1  35
ATOM     35  C   UNL     1       1.905   0.079   3.247  1.00  0.00     0.188 C 
BRANCH  35  36
ATOM     36  O   UNL     1       2.741   0.874   4.075  1.00  0.00    -0.376 OA
BRANCH  36  37
ATOM     37  C   UNL     1       3.946   0.286   4.563  1.00  0.00     0.202 C 
BRANCH  37  38
ATOM     38  C   UNL     1       3.877  -1.080   5.264  1.00  0.00     0.261 C 
BRANCH  38  39
ATOM     39  O   UNL     1       3.439  -2.168   4.427  1.00  0.00    -0.460 OA
BRANCH  39  40
ATOM     40  C   UNL     1       2.339  -2.834   4.852  1.00  0.00     0.338 C 
ATOM     41  O   UNL     1       1.630  -2.579   5.812  1.00  0.00    -0.246 OA
BRANCH  40  42
ATOM     42  C   UNL     1       2.093  -3.986   3.973  1.00  0.00     0.060 A 
ATOM     43  C   UNL     1       1.150  -3.924   2.940  1.00  0.00     0.016 A 
ATOM     44  C   UNL     1       2.769  -5.173   4.246  1.00  0.00     0.016 A 
ATOM     45  C   UNL     1       0.879  -5.066   2.169  1.00  0.00     0.010 A 
ATOM     46  C   UNL     1       2.528  -6.295   3.448  1.00  0.00     0.010 A 
ATOM     47  C   UNL     1       1.554  -6.267   2.426  1.00  0.00    -0.014 A 
BRANCH  47  48
ATOM     48  C   UNL     1       1.130  -7.568   1.833  1.00  0.00     0.031 A 
ATOM     49  C   UNL     1       0.576  -8.606   2.777  1.00  0.00     0.074 A 
ATOM     50  C   UNL     1       1.273  -7.882   0.530  1.00  0.00     0.049 A 
ATOM     51  N   UNL     1       0.376  -9.885   2.594  1.00  0.00    -0.248 NA
ATOM     52  C   UNL     1       0.256  -8.134   4.136  1.00  0.00     0.031 C 
ATOM     53  C   UNL     1       1.753  -6.993  -0.523  1.00  0.00     0.029 A 
ATOM     54  N   UNL     1       1.039  -9.072  -0.121  1.00  0.00    -0.354 N 
ATOM     55  C   UNL     1      -0.018 -10.378   3.832  1.00  0.00     0.074 A 
ATOM     56  C   UNL     1       0.019  -9.273   4.763  1.00  0.00     0.031 C 
ATOM     57  C   UNL     1       1.784  -7.667  -1.688  1.00  0.00     0.029 A 
ATOM     58  C   UNL     1       1.361  -9.047  -1.457  1.00  0.00     0.049 A 
ATOM     59  H   UNL     1       0.674  -9.868   0.329  1.00  0.00     0.167 HD
ATOM     60  C   UNL     1      -0.398 -11.631   4.171  1.00  0.00     0.031 A 
ATOM     61  C   UNL     1       1.334 -10.029  -2.382  1.00  0.00     0.031 A 
ATOM     62  C   UNL     1      -0.511 -12.720   3.243  1.00  0.00     0.049 A 
ATOM     63  C   UNL     1       0.902 -11.421  -1.991  1.00  0.00     0.074 A 
ATOM     64  C   UNL     1      -0.946 -14.011   3.480  1.00  0.00     0.029 A 
ATOM     65  N   UNL     1      -0.209 -12.636   1.894  1.00  0.00    -0.354 N 
ATOM     66  N   UNL     1       0.527 -11.876  -0.820  1.00  0.00    -0.248 NA
ATOM     67  C   UNL     1       0.885 -12.437  -3.058  1.00  0.00     0.031 C 
ATOM     68  C   UNL     1      -0.876 -14.721   2.277  1.00  0.00     0.029 A 
ATOM     69  C   UNL     1      -0.444 -13.855   1.285  1.00  0.00     0.049 A 
ATOM     70  H   UNL     1       0.123 -11.829   1.438  1.00  0.00     0.167 HD
ATOM     71  C   UNL     1       0.193 -13.212  -1.018  1.00  0.00     0.074 A 
ATOM     72  C   UNL     1       0.406 -13.496  -2.420  1.00  0.00     0.031 C 
ATOM     73  C   UNL     1      -0.255 -14.120  -0.117  1.00  0.00     0.031 A 
BRANCH  60  74
ATOM     74  C   UNL     1      -0.704 -11.880   5.620  1.00  0.00    -0.014 A 
ATOM     75  C   UNL     1      -1.831 -11.315   6.239  1.00  0.00     0.009 A 
ATOM     76  C   UNL     1       0.167 -12.672   6.383  1.00  0.00     0.009 A 
ATOM     77  C   UNL     1      -2.046 -11.489   7.607  1.00  0.00     0.001 A 
ATOM     78  C   UNL     1      -0.072 -12.876   7.743  1.00  0.00     0.001 A 
ATOM     79  C   UNL     1      -1.168 -12.272   8.356  1.00  0.00     0.000 A 
ENDBRANCH  60  74
BRANCH  61  80
ATOM     80  C   UNL     1       1.722  -9.746  -3.792  1.00  0.00    -0.014 A 
ATOM     81  C   UNL     1       0.749  -9.730  -4.804  1.00  0.00     0.009 A 
ATOM     82  C   UNL     1       3.064  -9.536  -4.140  1.00  0.00     0.009 A 
ATOM     83  C   UNL     1       1.116  -9.539  -6.139  1.00  0.00     0.001 A 
ATOM     84  C   UNL     1       3.425  -9.318  -5.472  1.00  0.00     0.001 A 
ATOM     85  C   UNL     1       2.453  -9.329  -6.471  1.00  0.00     0.000 A 
ENDBRANCH  61  80
BRANCH  73  86
ATOM     86  C   UNL     1      -0.613 -15.492  -0.616  1.00  0.00    -0.014 A 
ATOM     87  C   UNL     1       0.372 -16.427  -0.962  1.00  0.00     0.009 A 
ATOM     88  C   UNL     1      -1.963 -15.877  -0.657  1.00  0.00     0.009 A 
ATOM     89  C   UNL     1       0.010 -17.717  -1.359  1.00  0.00     0.001 A 
ATOM     90  C   UNL     1      -2.320 -17.174  -1.030  1.00  0.00     0.001 A 
ATOM     91  C   UNL     1      -1.333 -18.091  -1.386  1.00  0.00     0.000 A 
ENDBRANCH  73  86
ENDBRANCH  47  48
ENDBRANCH  40  42
ENDBRANCH  39  40
ENDBRANCH  38  39
ENDBRANCH  37  38
ENDBRANCH  36  37
ENDBRANCH  35  36
ENDBRANCH   1  35
TORSDOF 24
