REMARK SMILES CC(C)CCc1cc2c(cc1Cl)C=C(C(=O)OCCOCCOCCOC(=O)c1ccc(-c3c4nc(c(-c5ccccc5)c5ccc([nH]5)c(-c5ccccc5)c5nc(c(-c6ccccc6)c6ccc3[nH]6)C=C5)C=C4)cc1)[C@@H](C(F)(F)F)O2
REMARK SMILES IDX 21 1 20 2 19 3 18 4 17 5 15 6 16 7 14 8 6 9 7 10 11 11 8 12
REMARK SMILES IDX 10 13 12 14 9 15 82 16 13 17 77 18 5 19 4 20 2 21 1 22 3 23
REMARK SMILES IDX 78 24 79 25 80 26 81 27 22 28 23 29 24 30 25 31 26 32 27 33
REMARK SMILES IDX 28 34 29 35 30 36 76 37 31 38 75 39 32 40 33 41 34 42 69 43
REMARK SMILES IDX 35 44 74 45 68 46 70 47 36 48 73 49 67 50 66 51 37 53 59 54
REMARK SMILES IDX 44 55 58 56 45 57 48 58 57 59 71 60 46 61 47 62 56 64 72 65
REMARK SMILES IDX 49 66 38 67 39 68 43 69 40 70 42 71 41 72 60 73 61 74 65 75
REMARK SMILES IDX 62 76 64 77 63 78 50 79 51 80 55 81 52 82 54 83 53 84
REMARK H PARENT 70 52 48 63
REMARK Flexibility Score: inf
ROOT
ATOM      1  C   UNL     1      -0.091   1.635  10.250  1.00  0.00     0.188 C 
ENDROOT
BRANCH   1   2
ATOM      2  O   UNL     1       0.528   2.120  11.419  1.00  0.00    -0.376 OA
BRANCH   2   3
ATOM      3  C   UNL     1       1.365   3.264  11.398  1.00  0.00     0.202 C 
BRANCH   3   4
ATOM      4  C   UNL     1       2.109   3.779  10.157  1.00  0.00     0.261 C 
BRANCH   4   5
ATOM      5  O   UNL     1       1.446   3.598   8.903  1.00  0.00    -0.460 OA
BRANCH   5   6
ATOM      6  C   UNL     1       2.059   2.741   8.051  1.00  0.00     0.338 C 
ATOM      7  O   UNL     1       3.103   2.140   8.240  1.00  0.00    -0.246 OA
BRANCH   6   8
ATOM      8  C   UNL     1       1.182   2.497   6.890  1.00  0.00     0.087 C 
ATOM      9  C   UNL     1      -1.053   0.478   2.882  1.00  0.00    -0.026 A 
ATOM     10  C   UNL     1      -1.006   1.769   3.442  1.00  0.00     0.052 A 
ATOM     11  C   UNL     1      -0.566  -0.591   3.652  1.00  0.00     0.045 A 
ATOM     12  C   UNL     1      -0.361   2.006   4.656  1.00  0.00     0.128 A 
ATOM     13  C   UNL     1       0.062  -0.355   4.879  1.00  0.00     0.032 A 
ATOM     14  Cl  UNL     1      -0.679  -2.235   3.134  1.00  0.00    -0.084 Cl
ATOM     15  C   UNL     1       0.211   0.949   5.357  1.00  0.00     0.019 A 
ATOM     16  O   UNL     1      -0.317   3.307   5.067  1.00  0.00    -0.475 OA
ATOM     17  C   UNL     1       1.010   1.217   6.537  1.00  0.00     0.027 C 
ATOM     18  C   UNL     1       0.534   3.662   6.192  1.00  0.00     0.316 C 
BRANCH   9  19
ATOM     19  C   UNL     1      -1.583   0.305   1.473  1.00  0.00     0.037 C 
BRANCH  19  20
ATOM     20  C   UNL     1      -0.968   1.270   0.438  1.00  0.00     0.008 C 
BRANCH  20  21
ATOM     21  C   UNL     1       0.574   1.263   0.354  1.00  0.00    -0.017 C 
ATOM     22  C   UNL     1       1.126  -0.076  -0.132  1.00  0.00     0.007 C 
ATOM     23  C   UNL     1       1.050   2.388  -0.569  1.00  0.00     0.007 C 
ENDBRANCH  20  21
ENDBRANCH  19  20
ENDBRANCH   9  19
BRANCH  18  24
ATOM     24  C   UNL     1       1.563   4.699   5.721  1.00  0.00     0.430 C 
ATOM     25  F   UNL     1       0.969   5.714   5.049  1.00  0.00    -0.167 F 
ATOM     26  F   UNL     1       2.222   5.257   6.764  1.00  0.00    -0.167 F 
ATOM     27  F   UNL     1       2.490   4.155   4.901  1.00  0.00    -0.167 F 
ENDBRANCH  18  24
ENDBRANCH   6   8
ENDBRANCH   5   6
ENDBRANCH   4   5
ENDBRANCH   3   4
ENDBRANCH   2   3
ENDBRANCH   1   2
BRANCH   1  28
ATOM     28  C   UNL     1      -1.205   2.454   9.565  1.00  0.00     0.188 C 
BRANCH  28  29
ATOM     29  O   UNL     1      -1.548   3.741  10.032  1.00  0.00    -0.376 OA
BRANCH  29  30
ATOM     30  C   UNL     1      -2.009   3.905  11.364  1.00  0.00     0.202 C 
BRANCH  30  31
ATOM     31  C   UNL     1      -2.972   2.914  12.038  1.00  0.00     0.261 C 
BRANCH  31  32
ATOM     32  O   UNL     1      -2.660   1.527  11.861  1.00  0.00    -0.460 OA
BRANCH  32  33
ATOM     33  C   UNL     1      -3.554   0.821  11.116  1.00  0.00     0.338 C 
ATOM     34  O   UNL     1      -4.567   1.227  10.594  1.00  0.00    -0.246 OA
BRANCH  33  35
ATOM     35  C   UNL     1      -2.982  -0.517  10.852  1.00  0.00     0.060 A 
ATOM     36  C   UNL     1      -2.672  -1.378  11.904  1.00  0.00     0.016 A 
ATOM     37  C   UNL     1      -2.753  -0.901   9.523  1.00  0.00     0.016 A 
ATOM     38  C   UNL     1      -2.149  -2.641  11.620  1.00  0.00     0.010 A 
ATOM     39  C   UNL     1      -2.213  -2.157   9.242  1.00  0.00     0.010 A 
ATOM     40  C   UNL     1      -1.929  -3.045  10.289  1.00  0.00    -0.014 A 
BRANCH  40  41
ATOM     41  C   UNL     1      -1.589  -4.459  10.000  1.00  0.00     0.031 A 
ATOM     42  C   UNL     1      -0.196  -4.898   9.671  1.00  0.00     0.074 A 
ATOM     43  C   UNL     1      -2.587  -5.361  10.048  1.00  0.00     0.049 A 
ATOM     44  N   UNL     1       0.259  -6.116   9.521  1.00  0.00    -0.248 NA
ATOM     45  C   UNL     1       0.814  -3.847   9.482  1.00  0.00     0.031 C 
ATOM     46  C   UNL     1      -3.987  -5.040  10.331  1.00  0.00     0.029 A 
ATOM     47  N   UNL     1      -2.580  -6.723   9.882  1.00  0.00    -0.354 N 
ATOM     48  C   UNL     1       1.613  -5.986   9.245  1.00  0.00     0.074 A 
ATOM     49  C   UNL     1       1.896  -4.565   9.200  1.00  0.00     0.031 C 
ATOM     50  C   UNL     1      -4.697  -6.177  10.358  1.00  0.00     0.029 A 
ATOM     51  C   UNL     1      -3.813  -7.301  10.065  1.00  0.00     0.049 A 
ATOM     52  H   UNL     1      -1.772  -7.235   9.653  1.00  0.00     0.167 HD
ATOM     53  C   UNL     1       2.531  -6.966   9.067  1.00  0.00     0.031 A 
ATOM     54  C   UNL     1      -4.194  -8.592  10.018  1.00  0.00     0.031 A 
ATOM     55  C   UNL     1       2.231  -8.377   9.090  1.00  0.00     0.049 A 
ATOM     56  C   UNL     1      -3.162  -9.655   9.774  1.00  0.00     0.074 A 
ATOM     57  C   UNL     1       3.109  -9.441   8.966  1.00  0.00     0.029 A 
ATOM     58  N   UNL     1       0.963  -8.923   9.228  1.00  0.00    -0.354 N 
ATOM     59  N   UNL     1      -1.869  -9.523   9.611  1.00  0.00    -0.248 NA
ATOM     60  C   UNL     1      -3.636 -11.046   9.726  1.00  0.00     0.031 C 
ATOM     61  C   UNL     1       2.367 -10.623   8.948  1.00  0.00     0.029 A 
ATOM     62  C   UNL     1       1.034 -10.306   9.150  1.00  0.00     0.049 A 
ATOM     63  H   UNL     1       0.136  -8.406   9.362  1.00  0.00     0.167 HD
ATOM     64  C   UNL     1      -1.370 -10.811   9.464  1.00  0.00     0.074 A 
ATOM     65  C   UNL     1      -2.498 -11.712   9.577  1.00  0.00     0.031 C 
ATOM     66  C   UNL     1      -0.090 -11.204   9.255  1.00  0.00     0.031 A 
BRANCH  53  67
ATOM     67  C   UNL     1       3.967  -6.572   8.840  1.00  0.00    -0.014 A 
ATOM     68  C   UNL     1       4.594  -6.876   7.620  1.00  0.00     0.009 A 
ATOM     69  C   UNL     1       4.739  -6.032   9.881  1.00  0.00     0.009 A 
ATOM     70  C   UNL     1       5.966  -6.671   7.455  1.00  0.00     0.001 A 
ATOM     71  C   UNL     1       6.105  -5.800   9.703  1.00  0.00     0.001 A 
ATOM     72  C   UNL     1       6.719  -6.132   8.496  1.00  0.00     0.000 A 
ENDBRANCH  53  67
BRANCH  54  73
ATOM     73  C   UNL     1      -5.621  -8.932  10.262  1.00  0.00    -0.014 A 
ATOM     74  C   UNL     1      -6.614  -8.534   9.351  1.00  0.00     0.009 A 
ATOM     75  C   UNL     1      -6.006  -9.590  11.438  1.00  0.00     0.009 A 
ATOM     76  C   UNL     1      -7.963  -8.759   9.628  1.00  0.00     0.001 A 
ATOM     77  C   UNL     1      -7.355  -9.845  11.697  1.00  0.00     0.001 A 
ATOM     78  C   UNL     1      -8.332  -9.419  10.798  1.00  0.00     0.000 A 
ENDBRANCH  54  73
BRANCH  66  79
ATOM     79  C   UNL     1       0.189 -12.679   9.137  1.00  0.00    -0.014 A 
ATOM     80  C   UNL     1       0.971 -13.322  10.112  1.00  0.00     0.009 A 
ATOM     81  C   UNL     1      -0.220 -13.409   8.011  1.00  0.00     0.009 A 
ATOM     82  C   UNL     1       1.358 -14.653   9.950  1.00  0.00     0.001 A 
ATOM     83  C   UNL     1       0.139 -14.751   7.868  1.00  0.00     0.001 A 
ATOM     84  C   UNL     1       0.938 -15.368   8.830  1.00  0.00     0.000 A 
ENDBRANCH  66  79
ENDBRANCH  40  41
ENDBRANCH  33  35
ENDBRANCH  32  33
ENDBRANCH  31  32
ENDBRANCH  30  31
ENDBRANCH  29  30
ENDBRANCH  28  29
ENDBRANCH   1  28
TORSDOF 21
