REMARK SMILES O=C(N/N=C/c1ccc(C(=O)OCCOCCOCCOC(=O)c2ccc(-c3c4nc(c(-c5ccccc5)c5ccc([nH]5)c(-c5ccccc5)c5nc(c(-c6ccccc6)c6ccc3[nH]6)C=C5)C=C4)cc2)cc1)C(=O)Nc1ccc2c(c1)OCO2
REMARK SMILES IDX 16 1 15 2 14 3 13 4 12 5 10 6 11 7 9 8 6 9 7 10 73 11 8 12
REMARK SMILES IDX 72 13 5 14 4 15 3 16 1 17 2 18 74 20 75 21 76 22 77 24 78 25
REMARK SMILES IDX 82 26 79 27 81 28 80 29 83 30 85 31 84 32 17 33 18 34 19 35
REMARK SMILES IDX 20 36 21 37 22 38 23 39 24 40 25 41 71 42 26 43 70 44 27 45
REMARK SMILES IDX 28 46 29 47 64 48 30 49 69 50 63 51 65 52 31 53 68 54 62 55
REMARK SMILES IDX 61 56 32 58 54 59 39 60 53 61 40 62 43 63 52 64 66 65 41 66
REMARK SMILES IDX 42 67 51 69 67 70 44 71 33 72 34 73 38 74 35 75 37 76 36 77
REMARK SMILES IDX 55 78 56 79 60 80 57 81 59 82 58 83 45 84 46 85 50 86 47 87
REMARK SMILES IDX 49 88 48 89
REMARK H PARENT 3 19 76 23 65 57 43 68
REMARK Flexibility Score: inf
ROOT
ATOM      1  C   UNL     1      11.920   1.762   1.263  1.00  0.00     0.188 C 
ENDROOT
BRANCH   1   2
ATOM      2  O   UNL     1      13.328   1.647   1.138  1.00  0.00    -0.376 OA
BRANCH   2   3
ATOM      3  C   UNL     1      13.903   1.218  -0.090  1.00  0.00     0.202 C 
BRANCH   3   4
ATOM      4  C   UNL     1      13.333   0.019  -0.860  1.00  0.00     0.261 C 
BRANCH   4   5
ATOM      5  O   UNL     1      11.928   0.117  -1.134  1.00  0.00    -0.460 OA
BRANCH   5   6
ATOM      6  C   UNL     1      11.161  -0.831  -0.544  1.00  0.00     0.338 C 
ATOM      7  O   UNL     1      11.544  -1.789   0.107  1.00  0.00    -0.246 OA
BRANCH   6   8
ATOM      8  C   UNL     1       9.735  -0.459  -0.621  1.00  0.00     0.060 A 
ATOM      9  C   UNL     1       6.674  -0.169  -0.775  1.00  0.00    -0.005 A 
ATOM     10  C   UNL     1       7.542  -0.391   0.439  1.00  0.00     0.010 A 
ATOM     11  C   UNL     1       7.738   0.251  -1.784  1.00  0.00     0.010 A 
ATOM     12  C   UNL     1       8.947  -0.597   0.502  1.00  0.00     0.016 A 
ATOM     13  C   UNL     1       9.152   0.088  -1.734  1.00  0.00     0.016 A 
BRANCH   9  14
ATOM     14  C   UNL     1       4.581  -0.541  -1.021  1.00  0.00     0.141 C 
ATOM     15  N   UNL     1       3.460   0.174  -1.387  1.00  0.00    -0.180 NA
BRANCH  15  16
ATOM     16  N   UNL     1       2.318  -0.325  -0.859  1.00  0.00    -0.239 N 
ATOM     17  O   UNL     1       0.963  -0.740   0.911  1.00  0.00    -0.262 OA
ATOM     18  C   UNL     1       1.976  -0.191   0.480  1.00  0.00     0.329 C 
ATOM     19  H   UNL     1       1.699  -0.806  -1.454  1.00  0.00     0.194 HD
BRANCH  18  20
ATOM     20  C   UNL     1       2.780   0.738   1.433  1.00  0.00     0.315 C 
ATOM     21  O   UNL     1       2.154   1.583   2.075  1.00  0.00    -0.263 OA
ATOM     22  N   UNL     1       4.144   0.585   1.702  1.00  0.00    -0.318 N 
ATOM     23  H   UNL     1       4.453   0.705   2.629  1.00  0.00     0.170 HD
BRANCH  22  24
ATOM     24  C   UNL     1       5.097   0.270   0.717  1.00  0.00     0.045 A 
ATOM     25  C   UNL     1       5.467  -1.524   0.497  1.00  0.00     0.030 A 
ATOM     26  C   UNL     1       5.199   1.422  -0.704  1.00  0.00     0.076 A 
ATOM     27  C   UNL     1       5.875  -2.159  -1.177  1.00  0.00     0.053 A 
ATOM     28  C   UNL     1       5.444   0.720  -2.358  1.00  0.00     0.167 A 
ATOM     29  C   UNL     1       5.763  -1.035  -2.578  1.00  0.00     0.165 A 
ATOM     30  O   UNL     1       5.250   1.230  -3.600  1.00  0.00    -0.454 OA
ATOM     31  O   UNL     1       5.755  -1.261  -3.911  1.00  0.00    -0.454 OA
ATOM     32  C   UNL     1       5.182   0.003  -4.424  1.00  0.00     0.468 C 
ENDBRANCH  22  24
ENDBRANCH  18  20
ENDBRANCH  15  16
ENDBRANCH   9  14
ENDBRANCH   6   8
ENDBRANCH   5   6
ENDBRANCH   4   5
ENDBRANCH   3   4
ENDBRANCH   2   3
ENDBRANCH   1   2
BRANCH   1  33
ATOM     33  C   UNL     1      11.121   2.655   0.290  1.00  0.00     0.188 C 
BRANCH  33  34
ATOM     34  O   UNL     1      11.803   3.142  -0.837  1.00  0.00    -0.376 OA
BRANCH  34  35
ATOM     35  C   UNL     1      12.569   4.332  -0.752  1.00  0.00     0.202 C 
BRANCH  35  36
ATOM     36  C   UNL     1      12.803   5.182   0.515  1.00  0.00     0.261 C 
BRANCH  36  37
ATOM     37  O   UNL     1      12.350   4.679   1.774  1.00  0.00    -0.460 OA
BRANCH  37  38
ATOM     38  C   UNL     1      11.218   5.247   2.259  1.00  0.00     0.338 C 
ATOM     39  O   UNL     1      10.527   6.097   1.726  1.00  0.00    -0.246 OA
BRANCH  38  40
ATOM     40  C   UNL     1      10.821   4.537   3.490  1.00  0.00     0.060 A 
ATOM     41  C   UNL     1       9.616   3.821   3.494  1.00  0.00     0.016 A 
ATOM     42  C   UNL     1      11.607   4.614   4.640  1.00  0.00     0.016 A 
ATOM     43  C   UNL     1       9.178   3.200   4.664  1.00  0.00     0.010 A 
ATOM     44  C   UNL     1      11.156   4.009   5.816  1.00  0.00     0.010 A 
ATOM     45  C   UNL     1       9.927   3.325   5.842  1.00  0.00    -0.014 A 
BRANCH  45  46
ATOM     46  C   UNL     1       9.347   2.905   7.141  1.00  0.00     0.031 A 
ATOM     47  C   UNL     1       8.698   3.948   8.009  1.00  0.00     0.074 A 
ATOM     48  C   UNL     1       9.389   1.625   7.547  1.00  0.00     0.049 A 
ATOM     49  N   UNL     1       8.185   3.830   9.207  1.00  0.00    -0.248 NA
ATOM     50  C   UNL     1       8.618   5.306   7.447  1.00  0.00     0.031 C 
ATOM     51  C   UNL     1       9.937   0.508   6.781  1.00  0.00     0.029 A 
ATOM     52  N   UNL     1       8.963   1.054   8.721  1.00  0.00    -0.354 N 
ATOM     53  C   UNL     1       7.729   5.098   9.545  1.00  0.00     0.074 A 
ATOM     54  C   UNL     1       8.053   5.975   8.440  1.00  0.00     0.031 C 
ATOM     55  C   UNL     1       9.819  -0.617   7.509  1.00  0.00     0.029 A 
ATOM     56  C   UNL     1       9.225  -0.291   8.805  1.00  0.00     0.049 A 
ATOM     57  H   UNL     1       8.513   1.561   9.434  1.00  0.00     0.167 HD
ATOM     58  C   UNL     1       7.094   5.501  10.672  1.00  0.00     0.031 A 
ATOM     59  C   UNL     1       9.029  -1.153   9.822  1.00  0.00     0.031 A 
ATOM     60  C   UNL     1       6.797   4.641  11.786  1.00  0.00     0.049 A 
ATOM     61  C   UNL     1       8.423  -0.660  11.110  1.00  0.00     0.074 A 
ATOM     62  C   UNL     1       6.160   4.955  12.973  1.00  0.00     0.029 A 
ATOM     63  N   UNL     1       7.129   3.297  11.853  1.00  0.00    -0.354 N 
ATOM     64  N   UNL     1       7.984   0.537  11.415  1.00  0.00    -0.248 NA
ATOM     65  C   UNL     1       8.284  -1.643  12.195  1.00  0.00     0.031 C 
ATOM     66  C   UNL     1       6.157   3.815  13.783  1.00  0.00     0.029 A 
ATOM     67  C   UNL     1       6.734   2.774  13.073  1.00  0.00     0.049 A 
ATOM     68  H   UNL     1       7.578   2.789  11.139  1.00  0.00     0.167 HD
ATOM     69  C   UNL     1       7.484   0.442  12.709  1.00  0.00     0.074 A 
ATOM     70  C   UNL     1       7.668  -0.932  13.128  1.00  0.00     0.031 C 
ATOM     71  C   UNL     1       6.919   1.404  13.479  1.00  0.00     0.031 A 
BRANCH  58  72
ATOM     72  C   UNL     1       6.719   6.954  10.764  1.00  0.00    -0.014 A 
ATOM     73  C   UNL     1       5.699   7.497   9.966  1.00  0.00     0.009 A 
ATOM     74  C   UNL     1       7.390   7.790  11.670  1.00  0.00     0.009 A 
ATOM     75  C   UNL     1       5.390   8.856  10.042  1.00  0.00     0.001 A 
ATOM     76  C   UNL     1       7.056   9.142  11.767  1.00  0.00     0.001 A 
ATOM     77  C   UNL     1       6.066   9.676  10.945  1.00  0.00     0.000 A 
ENDBRANCH  58  72
BRANCH  59  78
ATOM     78  C   UNL     1       9.422  -2.580   9.677  1.00  0.00    -0.014 A 
ATOM     79  C   UNL     1       8.444  -3.586   9.624  1.00  0.00     0.009 A 
ATOM     80  C   UNL     1      10.775  -2.948   9.622  1.00  0.00     0.009 A 
ATOM     81  C   UNL     1       8.814  -4.930   9.541  1.00  0.00     0.001 A 
ATOM     82  C   UNL     1      11.141  -4.291   9.510  1.00  0.00     0.001 A 
ATOM     83  C   UNL     1      10.161  -5.281   9.479  1.00  0.00     0.000 A 
ENDBRANCH  59  78
BRANCH  71  84
ATOM     84  C   UNL     1       6.409   0.999  14.835  1.00  0.00    -0.014 A 
ATOM     85  C   UNL     1       7.284   0.694  15.889  1.00  0.00     0.009 A 
ATOM     86  C   UNL     1       5.025   0.967  15.072  1.00  0.00     0.009 A 
ATOM     87  C   UNL     1       6.783   0.334  17.142  1.00  0.00     0.001 A 
ATOM     88  C   UNL     1       4.527   0.638  16.333  1.00  0.00     0.001 A 
ATOM     89  C   UNL     1       5.406   0.312  17.365  1.00  0.00     0.000 A 
ENDBRANCH  71  84
ENDBRANCH  45  46
ENDBRANCH  38  40
ENDBRANCH  37  38
ENDBRANCH  36  37
ENDBRANCH  35  36
ENDBRANCH  34  35
ENDBRANCH  33  34
ENDBRANCH   1  33
TORSDOF 21
