REMARK SMILES Cc1c(CC(=O)N[C@H](CO)C(=O)OCCOCCOCCOC(=O)c2ccc(-c3c4nc(c(-c5ccccc5)c5ccc([nH]5)c(-c5ccccc5)c5nc(c(-c6ccccc6)c6ccc3[nH]6)C=C5)C=C4)cc2)cc(-c2ccc(S(C)(=O)=O)cc2)n1-c1ccc(F)cc1
REMARK SMILES IDX 16 1 15 2 14 3 13 4 11 5 12 6 8 7 7 8 5 9 6 10 4 12 3 13
REMARK SMILES IDX 1 14 2 15 85 16 73 17 74 18 86 19 87 20 92 21 88 22 91 23
REMARK SMILES IDX 89 24 90 25 75 26 76 27 84 28 77 29 83 30 78 31 79 32 80 33
REMARK SMILES IDX 81 34 82 35 9 36 10 37 17 39 18 40 19 41 20 42 21 43 22 44
REMARK SMILES IDX 23 45 24 46 25 47 26 48 72 49 27 50 71 51 28 52 29 53 30 54
REMARK SMILES IDX 65 55 31 56 70 57 64 58 66 59 32 60 69 61 63 62 62 63 33 65
REMARK SMILES IDX 55 66 40 67 54 68 41 69 44 70 53 71 67 72 42 73 43 74 52 76
REMARK SMILES IDX 68 77 45 78 34 79 35 80 39 81 36 82 38 83 37 84 56 85 57 86
REMARK SMILES IDX 61 87 58 88 60 89 59 90 46 91 47 92 51 93 48 94 50 95 49 96
REMARK H PARENT 7 11 10 38 66 64 44 75
REMARK Flexibility Score: inf
ROOT
ATOM      1  O   UNL     1       0.934  -4.491  -7.541  1.00  0.00    -0.376 OA
ENDROOT
BRANCH   1   2
ATOM      2  C   UNL     1       2.352  -4.449  -7.463  1.00  0.00     0.202 C 
BRANCH   2   3
ATOM      3  C   UNL     1       3.042  -3.166  -6.999  1.00  0.00     0.261 C 
BRANCH   3   4
ATOM      4  O   UNL     1       2.631  -2.672  -5.709  1.00  0.00    -0.462 OA
BRANCH   4   5
ATOM      5  C   UNL     1       2.299  -1.351  -5.687  1.00  0.00     0.331 C 
ATOM      6  O   UNL     1       2.106  -0.679  -6.698  1.00  0.00    -0.250 OA
BRANCH   5   7
ATOM      7  C   UNL     1       2.432  -0.698  -4.306  1.00  0.00     0.218 C 
BRANCH   7   8
ATOM      8  N   UNL     1       3.802  -0.260  -3.996  1.00  0.00    -0.341 N 
ATOM      9  C   UNL     1       4.936  -0.934  -3.661  1.00  0.00     0.225 C 
ATOM     10  O   UNL     1       5.885  -0.243  -3.272  1.00  0.00    -0.275 OA
ATOM     11  H   UNL     1       3.922   0.716  -4.040  1.00  0.00     0.164 HD
BRANCH   9  12
ATOM     12  C   UNL     1       5.103  -2.440  -3.829  1.00  0.00     0.137 C 
BRANCH  12  13
ATOM     13  C   UNL     1       4.436  -3.280  -2.780  1.00  0.00    -0.017 A 
ATOM     14  C   UNL     1       5.962  -2.771  -0.752  1.00  0.00     0.065 C 
ATOM     15  C   UNL     1       4.776  -3.370  -1.437  1.00  0.00     0.024 A 
ATOM     16  N   UNL     1       3.853  -4.196  -0.802  1.00  0.00    -0.314 N 
ATOM     17  C   UNL     1       3.364  -4.196  -2.976  1.00  0.00     0.033 A 
ATOM     18  C   UNL     1       2.934  -4.662  -1.745  1.00  0.00     0.053 A 
BRANCH  16  19
ATOM     19  C   UNL     1       3.778  -4.465   0.589  1.00  0.00     0.046 A 
ATOM     20  C   UNL     1       3.570  -5.780   1.030  1.00  0.00     0.029 A 
ATOM     21  C   UNL     1       3.773  -3.397   1.493  1.00  0.00     0.029 A 
ATOM     22  C   UNL     1       3.324  -6.022   2.379  1.00  0.00     0.041 A 
ATOM     23  C   UNL     1       3.514  -3.648   2.839  1.00  0.00     0.041 A 
ATOM     24  C   UNL     1       3.284  -4.952   3.267  1.00  0.00     0.123 A 
ATOM     25  F   UNL     1       3.001  -5.181   4.556  1.00  0.00    -0.207 F 
ENDBRANCH  16  19
BRANCH  18  26
ATOM     26  C   UNL     1       1.687  -5.381  -1.415  1.00  0.00    -0.001 A 
ATOM     27  C   UNL     1       0.722  -4.793  -0.576  1.00  0.00     0.011 A 
ATOM     28  C   UNL     1       1.445  -6.668  -1.911  1.00  0.00     0.011 A 
ATOM     29  C   UNL     1      -0.437  -5.487  -0.208  1.00  0.00     0.021 A 
ATOM     30  C   UNL     1       0.285  -7.370  -1.548  1.00  0.00     0.021 A 
ATOM     31  C   UNL     1      -0.643  -6.782  -0.683  1.00  0.00     0.067 A 
BRANCH  31  32
ATOM     32  S   UNL     1      -2.126  -7.668  -0.240  1.00  0.00     0.175 S 
ATOM     33  C   UNL     1      -1.876  -8.125   1.455  1.00  0.00     0.163 C 
ATOM     34  O   UNL     1      -3.224  -6.697  -0.266  1.00  0.00    -0.224 OA
ATOM     35  O   UNL     1      -2.178  -8.879  -1.007  1.00  0.00    -0.224 OA
ENDBRANCH  31  32
ENDBRANCH  18  26
ENDBRANCH  12  13
ENDBRANCH   9  12
ENDBRANCH   7   8
BRANCH   7  36
ATOM     36  C   UNL     1       1.674  -1.259  -3.106  1.00  0.00     0.193 C 
BRANCH  36  37
ATOM     37  O   UNL     1       0.438  -1.851  -3.466  1.00  0.00    -0.394 OA
ATOM     38  H   UNL     1      -0.138  -1.180  -3.867  1.00  0.00     0.210 HD
ENDBRANCH  36  37
ENDBRANCH   7  36
ENDBRANCH   5   7
ENDBRANCH   4   5
ENDBRANCH   3   4
ENDBRANCH   2   3
ENDBRANCH   1   2
BRANCH   1  39
ATOM     39  C   UNL     1       0.181  -4.221  -6.370  1.00  0.00     0.188 C 
BRANCH  39  40
ATOM     40  C   UNL     1       0.327  -5.126  -5.136  1.00  0.00     0.188 C 
BRANCH  40  41
ATOM     41  O   UNL     1       1.375  -6.072  -5.107  1.00  0.00    -0.376 OA
BRANCH  41  42
ATOM     42  C   UNL     1       1.188  -7.295  -5.817  1.00  0.00     0.202 C 
BRANCH  42  43
ATOM     43  C   UNL     1      -0.105  -8.121  -5.588  1.00  0.00     0.261 C 
BRANCH  43  44
ATOM     44  O   UNL     1      -1.284  -7.848  -6.422  1.00  0.00    -0.460 OA
BRANCH  44  45
ATOM     45  C   UNL     1      -2.475  -7.674  -5.757  1.00  0.00     0.338 C 
ATOM     46  O   UNL     1      -2.546  -7.317  -4.589  1.00  0.00    -0.246 OA
BRANCH  45  47
ATOM     47  C   UNL     1      -3.737  -7.971  -6.566  1.00  0.00     0.060 A 
ATOM     48  C   UNL     1      -4.539  -6.933  -7.024  1.00  0.00     0.016 A 
ATOM     49  C   UNL     1      -4.323  -9.253  -6.650  1.00  0.00     0.016 A 
ATOM     50  C   UNL     1      -5.835  -7.189  -7.602  1.00  0.00     0.010 A 
ATOM     51  C   UNL     1      -5.669  -9.501  -7.188  1.00  0.00     0.010 A 
ATOM     52  C   UNL     1      -6.487  -8.476  -7.701  1.00  0.00    -0.014 A 
BRANCH  52  53
ATOM     53  C   UNL     1      -8.109  -8.486  -7.890  1.00  0.00     0.031 A 
ATOM     54  C   UNL     1      -8.548  -7.421  -6.947  1.00  0.00     0.074 A 
ATOM     55  C   UNL     1      -9.184  -9.181  -8.464  1.00  0.00     0.049 A 
ATOM     56  N   UNL     1      -8.243  -7.536  -5.688  1.00  0.00    -0.248 NA
ATOM     57  C   UNL     1      -8.968  -6.083  -7.360  1.00  0.00     0.031 C 
ATOM     58  C   UNL     1      -9.146 -10.430  -9.245  1.00  0.00     0.029 A 
ATOM     59  N   UNL     1     -10.606  -8.938  -8.492  1.00  0.00    -0.354 N 
ATOM     60  C   UNL     1      -8.670  -6.385  -5.078  1.00  0.00     0.074 A 
ATOM     61  C   UNL     1      -8.909  -5.459  -6.178  1.00  0.00     0.031 C 
ATOM     62  C   UNL     1     -10.368 -10.744  -9.773  1.00  0.00     0.029 A 
ATOM     63  C   UNL     1     -11.393  -9.782  -9.368  1.00  0.00     0.049 A 
ATOM     64  H   UNL     1     -11.021  -8.234  -7.944  1.00  0.00     0.167 HD
ATOM     65  C   UNL     1      -9.404  -6.561  -3.941  1.00  0.00     0.031 A 
ATOM     66  C   UNL     1     -12.751  -9.774  -9.700  1.00  0.00     0.031 A 
ATOM     67  C   UNL     1     -10.813  -6.432  -4.200  1.00  0.00     0.049 A 
ATOM     68  C   UNL     1     -13.449  -9.108  -8.595  1.00  0.00     0.074 A 
ATOM     69  C   UNL     1     -11.547  -5.500  -4.906  1.00  0.00     0.029 A 
ATOM     70  N   UNL     1     -11.581  -7.577  -4.133  1.00  0.00    -0.354 N 
ATOM     71  N   UNL     1     -13.747  -9.751  -7.507  1.00  0.00    -0.248 NA
ATOM     72  C   UNL     1     -13.986  -7.756  -8.691  1.00  0.00     0.031 C 
ATOM     73  C   UNL     1     -12.459  -6.263  -5.664  1.00  0.00     0.029 A 
ATOM     74  C   UNL     1     -12.545  -7.538  -5.122  1.00  0.00     0.049 A 
ATOM     75  H   UNL     1     -11.460  -8.307  -3.483  1.00  0.00     0.167 HD
ATOM     76  C   UNL     1     -13.964  -8.743  -6.620  1.00  0.00     0.074 A 
ATOM     77  C   UNL     1     -14.392  -7.615  -7.426  1.00  0.00     0.031 C 
ATOM     78  C   UNL     1     -13.208  -8.765  -5.494  1.00  0.00     0.031 A 
BRANCH  65  79
ATOM     79  C   UNL     1      -8.787  -7.546  -2.982  1.00  0.00    -0.014 A 
ATOM     80  C   UNL     1      -8.159  -7.060  -1.831  1.00  0.00     0.009 A 
ATOM     81  C   UNL     1      -8.620  -8.908  -3.310  1.00  0.00     0.009 A 
ATOM     82  C   UNL     1      -7.317  -7.890  -1.081  1.00  0.00     0.001 A 
ATOM     83  C   UNL     1      -7.750  -9.723  -2.587  1.00  0.00     0.001 A 
ATOM     84  C   UNL     1      -7.087  -9.208  -1.479  1.00  0.00     0.000 A 
ENDBRANCH  65  79
BRANCH  66  85
ATOM     85  C   UNL     1     -13.843 -10.354 -10.652  1.00  0.00    -0.014 A 
ATOM     86  C   UNL     1     -15.187 -10.539 -10.166  1.00  0.00     0.009 A 
ATOM     87  C   UNL     1     -13.742 -10.338 -12.048  1.00  0.00     0.009 A 
ATOM     88  C   UNL     1     -16.335 -10.565 -10.985  1.00  0.00     0.001 A 
ATOM     89  C   UNL     1     -14.899 -10.404 -12.881  1.00  0.00     0.001 A 
ATOM     90  C   UNL     1     -16.191 -10.476 -12.354  1.00  0.00     0.000 A 
ENDBRANCH  66  85
BRANCH  78  91
ATOM     91  C   UNL     1     -12.930 -10.121  -4.866  1.00  0.00    -0.014 A 
ATOM     92  C   UNL     1     -12.488 -11.270  -5.561  1.00  0.00     0.009 A 
ATOM     93  C   UNL     1     -13.177 -10.265  -3.494  1.00  0.00     0.009 A 
ATOM     94  C   UNL     1     -12.358 -12.512  -4.928  1.00  0.00     0.001 A 
ATOM     95  C   UNL     1     -13.000 -11.495  -2.849  1.00  0.00     0.001 A 
ATOM     96  C   UNL     1     -12.607 -12.621  -3.567  1.00  0.00     0.000 A 
ENDBRANCH  78  91
ENDBRANCH  52  53
ENDBRANCH  45  47
ENDBRANCH  44  45
ENDBRANCH  43  44
ENDBRANCH  42  43
ENDBRANCH  41  42
ENDBRANCH  40  41
ENDBRANCH  39  40
ENDBRANCH   1  39
TORSDOF 25
