REMARK SMILES Cc1cccc(-c2ncc(C[NH+]3CCC4(CC3)NC(=O)C[C@H]4C(=O)OCCOCCOCCOC(=O)c3ccc(-c4c5nc(c(-c6ccccc6)c6ccc([nH]6)c(-c6ccccc6)c6nc(c(-c7ccccc7)c7ccc4[nH]7)C=C6)C=C5)cc3)cn2)c1
REMARK SMILES IDX 29 1 28 2 27 3 26 4 25 5 23 6 24 7 22 8 12 9 13 10 17 11
REMARK SMILES IDX 14 13 16 14 15 15 18 16 19 17 21 19 20 20 11 21 10 22 7 23
REMARK SMILES IDX 8 24 86 25 9 26 85 27 6 28 1 29 2 30 3 31 87 32 4 33 5 34
REMARK SMILES IDX 30 35 31 36 32 37 33 38 34 39 35 40 36 41 37 42 38 43 84 44
REMARK SMILES IDX 39 45 83 46 40 47 41 48 42 49 77 50 43 51 82 52 76 53 78 54
REMARK SMILES IDX 44 55 81 56 75 57 74 58 45 60 67 61 52 62 66 63 53 64 56 65
REMARK SMILES IDX 65 66 79 67 54 68 55 69 64 71 80 72 57 73 46 74 47 75 51 76
REMARK SMILES IDX 48 77 50 78 49 79 68 80 69 81 73 82 70 83 72 84 71 85 58 86
REMARK SMILES IDX 59 87 63 88 60 89 62 90 61 91
REMARK H PARENT 12 12 18 18 78 59 56 70
REMARK Flexibility Score: inf
ROOT
ATOM      1  C   UNL     1      -2.237   7.532  -5.637  1.00  0.00     0.188 C 
ENDROOT
BRANCH   1   2
ATOM      2  O   UNL     1      -1.046   6.832  -6.090  1.00  0.00    -0.376 OA
BRANCH   2   3
ATOM      3  C   UNL     1      -0.504   5.505  -5.768  1.00  0.00     0.202 C 
BRANCH   3   4
ATOM      4  C   UNL     1       0.062   4.624  -4.291  1.00  0.00     0.261 C 
BRANCH   4   5
ATOM      5  O   UNL     1       0.641   4.875  -2.538  1.00  0.00    -0.463 OA
BRANCH   5   6
ATOM      6  C   UNL     1       1.470   5.661  -1.469  1.00  0.00     0.311 C 
ATOM      7  O   UNL     1       2.189   6.670  -1.614  1.00  0.00    -0.252 OA
BRANCH   6   8
ATOM      8  C   UNL     1       1.262   5.504  -0.024  1.00  0.00     0.134 C 
ATOM      9  N   UNL     1      -3.405   7.366   0.260  1.00  0.00    -0.331 N 
ATOM     10  C   UNL     1      -2.106   7.600   1.332  1.00  0.00     0.264 C 
ATOM     11  C   UNL     1      -2.667   6.799  -1.419  1.00  0.00     0.264 C 
ATOM     12  H   UNL     1      -3.973   8.177   0.013  1.00  0.00     0.348 HD
ATOM     13  C   UNL     1      -0.716   6.447   1.622  1.00  0.00     0.091 C 
ATOM     14  C   UNL     1      -1.227   5.094  -1.299  1.00  0.00     0.091 C 
ATOM     15  C   UNL     1      -0.145   5.186   0.351  1.00  0.00     0.064 C 
ATOM     16  N   UNL     1       0.094   3.972   1.094  1.00  0.00    -0.349 N 
ATOM     17  C   UNL     1       1.425   3.686   1.361  1.00  0.00     0.221 C 
ATOM     18  H   UNL     1      -0.639   3.386   1.391  1.00  0.00     0.164 HD
ATOM     19  C   UNL     1       2.285   4.720   0.740  1.00  0.00     0.117 C 
ATOM     20  O   UNL     1       1.838   2.754   2.027  1.00  0.00    -0.275 OA
BRANCH   9  21
ATOM     21  C   UNL     1      -4.447   6.215   1.129  1.00  0.00     0.302 C 
BRANCH  21  22
ATOM     22  C   UNL     1      -4.215   4.586   1.433  1.00  0.00     0.043 A 
ATOM     23  C   UNL     1      -2.902   2.105   1.028  1.00  0.00     0.159 A 
ATOM     24  N   UNL     1      -2.490   2.924   2.022  1.00  0.00    -0.236 NA
ATOM     25  N   UNL     1      -4.083   2.330   0.419  1.00  0.00    -0.236 NA
ATOM     26  C   UNL     1      -3.224   4.077   2.268  1.00  0.00     0.124 A 
ATOM     27  C   UNL     1      -4.728   3.534   0.676  1.00  0.00     0.124 A 
BRANCH  23  28
ATOM     28  C   UNL     1      -2.026   0.932   0.594  1.00  0.00     0.019 A 
ATOM     29  C   UNL     1       1.738   0.015   0.093  1.00  0.00     0.044 C 
ATOM     30  C   UNL     1       0.234  -0.113   0.146  1.00  0.00    -0.050 A 
ATOM     31  C   UNL     1      -0.355  -1.355  -0.012  1.00  0.00     0.003 A 
ATOM     32  C   UNL     1      -0.615   0.991   0.416  1.00  0.00     0.015 A 
ATOM     33  C   UNL     1      -1.745  -1.459   0.054  1.00  0.00     0.001 A 
ATOM     34  C   UNL     1      -2.561  -0.339   0.344  1.00  0.00     0.012 A 
ENDBRANCH  23  28
ENDBRANCH  21  22
ENDBRANCH   9  21
ENDBRANCH   6   8
ENDBRANCH   5   6
ENDBRANCH   4   5
ENDBRANCH   3   4
ENDBRANCH   2   3
ENDBRANCH   1   2
BRANCH   1  35
ATOM     35  C   UNL     1      -3.637   6.876  -5.551  1.00  0.00     0.188 C 
BRANCH  35  36
ATOM     36  O   UNL     1      -3.576   5.461  -5.479  1.00  0.00    -0.376 OA
BRANCH  36  37
ATOM     37  C   UNL     1      -4.821   4.762  -5.341  1.00  0.00     0.202 C 
BRANCH  37  38
ATOM     38  C   UNL     1      -5.670   5.005  -4.047  1.00  0.00     0.261 C 
BRANCH  38  39
ATOM     39  O   UNL     1      -5.133   4.294  -2.875  1.00  0.00    -0.460 OA
BRANCH  39  40
ATOM     40  C   UNL     1      -4.888   5.041  -1.732  1.00  0.00     0.338 C 
ATOM     41  O   UNL     1      -5.671   5.896  -1.363  1.00  0.00    -0.246 OA
BRANCH  40  42
ATOM     42  C   UNL     1      -3.340   4.843  -1.279  1.00  0.00     0.060 A 
ATOM     43  C   UNL     1      -2.268   5.721  -0.042  1.00  0.00     0.016 A 
ATOM     44  C   UNL     1      -2.820   5.012  -2.805  1.00  0.00     0.016 A 
ATOM     45  C   UNL     1      -0.865   6.890  -0.792  1.00  0.00     0.010 A 
ATOM     46  C   UNL     1      -1.638   6.058  -3.291  1.00  0.00     0.010 A 
ATOM     47  C   UNL     1      -0.494   6.903  -2.541  1.00  0.00    -0.014 A 
BRANCH  47  48
ATOM     48  C   UNL     1       1.064   6.779  -3.602  1.00  0.00     0.031 A 
ATOM     49  C   UNL     1       2.433   5.443  -3.617  1.00  0.00     0.074 A 
ATOM     50  C   UNL     1       1.205   7.599  -4.655  1.00  0.00     0.049 A 
ATOM     51  N   UNL     1       3.688   5.605  -3.221  1.00  0.00    -0.248 NA
ATOM     52  C   UNL     1       2.284   3.784  -3.459  1.00  0.00     0.031 C 
ATOM     53  C   UNL     1       2.169   7.543  -5.755  1.00  0.00     0.029 A 
ATOM     54  N   UNL     1       0.459   8.728  -4.947  1.00  0.00    -0.354 N 
ATOM     55  C   UNL     1       4.265   4.314  -3.007  1.00  0.00     0.074 A 
ATOM     56  C   UNL     1       3.246   3.433  -2.631  1.00  0.00     0.031 C 
ATOM     57  C   UNL     1       2.209   8.763  -6.333  1.00  0.00     0.029 A 
ATOM     58  C   UNL     1       1.362   9.632  -5.521  1.00  0.00     0.049 A 
ATOM     59  H   UNL     1      -0.503   8.866  -4.786  1.00  0.00     0.167 HD
ATOM     60  C   UNL     1       5.336   3.843  -3.714  1.00  0.00     0.031 A 
ATOM     61  C   UNL     1       1.778  10.651  -4.715  1.00  0.00     0.031 A 
ATOM     62  C   UNL     1       5.725   4.909  -4.596  1.00  0.00     0.049 A 
ATOM     63  C   UNL     1       3.244  10.438  -4.385  1.00  0.00     0.074 A 
ATOM     64  C   UNL     1       5.372   5.213  -5.899  1.00  0.00     0.029 A 
ATOM     65  N   UNL     1       6.035   6.099  -3.975  1.00  0.00    -0.354 N 
ATOM     66  N   UNL     1       3.841   9.275  -4.276  1.00  0.00    -0.248 NA
ATOM     67  C   UNL     1       4.178  11.555  -4.346  1.00  0.00     0.031 C 
ATOM     68  C   UNL     1       5.424   6.639  -6.022  1.00  0.00     0.029 A 
ATOM     69  C   UNL     1       5.810   7.173  -4.803  1.00  0.00     0.049 A 
ATOM     70  H   UNL     1       6.376   6.170  -3.054  1.00  0.00     0.167 HD
ATOM     71  C   UNL     1       5.198   9.465  -4.244  1.00  0.00     0.074 A 
ATOM     72  C   UNL     1       5.353  10.909  -4.266  1.00  0.00     0.031 C 
ATOM     73  C   UNL     1       6.145   8.479  -4.265  1.00  0.00     0.031 A 
BRANCH  60  74
ATOM     74  C   UNL     1       5.704   2.360  -3.882  1.00  0.00    -0.014 A 
ATOM     75  C   UNL     1       6.477   1.982  -4.990  1.00  0.00     0.009 A 
ATOM     76  C   UNL     1       5.338   1.293  -3.021  1.00  0.00     0.009 A 
ATOM     77  C   UNL     1       6.816   0.642  -5.254  1.00  0.00     0.001 A 
ATOM     78  C   UNL     1       5.623  -0.057  -3.308  1.00  0.00     0.001 A 
ATOM     79  C   UNL     1       6.372  -0.381  -4.426  1.00  0.00     0.000 A 
ENDBRANCH  60  74
BRANCH  61  80
ATOM     80  C   UNL     1       0.651  11.102  -3.806  1.00  0.00    -0.014 A 
ATOM     81  C   UNL     1      -0.546  11.552  -4.431  1.00  0.00     0.009 A 
ATOM     82  C   UNL     1       0.555  10.674  -2.473  1.00  0.00     0.009 A 
ATOM     83  C   UNL     1      -1.797  11.436  -3.804  1.00  0.00     0.001 A 
ATOM     84  C   UNL     1      -0.701  10.593  -1.837  1.00  0.00     0.001 A 
ATOM     85  C   UNL     1      -1.875  10.932  -2.513  1.00  0.00     0.000 A 
ENDBRANCH  61  80
BRANCH  73  86
ATOM     86  C   UNL     1       7.546   8.633  -3.689  1.00  0.00    -0.014 A 
ATOM     87  C   UNL     1       7.936   9.706  -2.887  1.00  0.00     0.009 A 
ATOM     88  C   UNL     1       8.467   7.556  -3.777  1.00  0.00     0.009 A 
ATOM     89  C   UNL     1       9.190   9.733  -2.268  1.00  0.00     0.001 A 
ATOM     90  C   UNL     1       9.664   7.525  -3.067  1.00  0.00     0.001 A 
ATOM     91  C   UNL     1      10.041   8.636  -2.337  1.00  0.00     0.000 A 
ENDBRANCH  73  86
ENDBRANCH  47  48
ENDBRANCH  40  42
ENDBRANCH  39  40
ENDBRANCH  38  39
ENDBRANCH  37  38
ENDBRANCH  36  37
ENDBRANCH  35  36
ENDBRANCH   1  35
TORSDOF 20
