REMARK SMILES O=C(CCC(=O)OCCOCCOCCOC(=O)c1ccc(-c2c3nc(c(-c4ccccc4)c4ccc([nH]4)c(-c4ccccc4)c4nc(c(-c5ccccc5)c5ccc2[nH]5)C=C4)C=C3)cc1)Nc1ncc([N+](=O)[O-])s1
REMARK SMILES IDX 11 1 10 2 9 3 8 4 7 5 5 6 6 7 4 8 3 9 2 10 1 11 67 12 68 14
REMARK SMILES IDX 69 15 75 16 70 17 71 18 72 19 73 20 74 21 12 22 13 23 14 24
REMARK SMILES IDX 15 25 16 26 17 27 18 28 19 29 20 30 66 31 21 32 65 33 22 34
REMARK SMILES IDX 23 35 24 36 59 37 25 38 64 39 58 40 60 41 26 42 63 43 57 44
REMARK SMILES IDX 56 45 27 47 49 48 34 49 48 50 35 51 38 52 47 53 61 54 36 55
REMARK SMILES IDX 37 56 46 58 62 59 39 60 28 61 29 62 33 63 30 64 32 65 31 66
REMARK SMILES IDX 50 67 51 68 55 69 52 70 54 71 53 72 40 73 41 74 45 75 42 76
REMARK SMILES IDX 44 77 43 78
REMARK H PARENT 67 13 60 46 38 57
REMARK Flexibility Score: inf
ROOT
ATOM      1  C   UNL     1       6.761   0.160   0.381  1.00  0.00     0.188 C 
ENDROOT
BRANCH   1   2
ATOM      2  O   UNL     1       7.515  -1.047   0.404  1.00  0.00    -0.376 OA
BRANCH   2   3
ATOM      3  C   UNL     1       6.813  -2.243   0.062  1.00  0.00     0.202 C 
BRANCH   3   4
ATOM      4  C   UNL     1       5.624  -2.587   0.972  1.00  0.00     0.261 C 
BRANCH   4   5
ATOM      5  O   UNL     1       4.590  -1.566   0.988  1.00  0.00    -0.463 OA
BRANCH   5   6
ATOM      6  C   UNL     1       4.192  -1.139   2.218  1.00  0.00     0.306 C 
ATOM      7  O   UNL     1       4.582  -1.628   3.272  1.00  0.00    -0.252 OA
BRANCH   6   8
ATOM      8  C   UNL     1       3.276   0.075   2.211  1.00  0.00     0.132 C 
BRANCH   8   9
ATOM      9  C   UNL     1       2.748   0.675   0.913  1.00  0.00     0.112 C 
BRANCH   9  10
ATOM     10  C   UNL     1       1.767  -0.200   0.160  1.00  0.00     0.226 C 
ATOM     11  O   UNL     1       0.564   0.029   0.197  1.00  0.00    -0.275 OA
ATOM     12  N   UNL     1       2.391  -1.234  -0.488  1.00  0.00    -0.302 N 
ATOM     13  H   UNL     1       3.372  -1.298  -0.437  1.00  0.00     0.172 HD
BRANCH  12  14
ATOM     14  C   UNL     1       1.715  -2.178  -1.198  1.00  0.00     0.195 A 
ATOM     15  N   UNL     1       0.524  -2.136  -1.736  1.00  0.00    -0.221 NA
ATOM     16  S   UNL     1       2.579  -3.644  -1.351  1.00  0.00    -0.024 S 
ATOM     17  C   UNL     1       0.227  -3.381  -2.266  1.00  0.00     0.212 A 
ATOM     18  C   UNL     1       1.194  -4.334  -2.050  1.00  0.00     0.345 A 
BRANCH  18  19
ATOM     19  N   UNL     1       1.124  -5.726  -2.345  1.00  0.00     0.076 N 
ATOM     20  O   UNL     1       1.992  -6.465  -1.864  1.00  0.00    -0.257 OA
ATOM     21  O   UNL     1       0.176  -6.092  -3.051  1.00  0.00    -0.257 OA
ENDBRANCH  18  19
ENDBRANCH  12  14
ENDBRANCH   9  10
ENDBRANCH   8   9
ENDBRANCH   6   8
ENDBRANCH   5   6
ENDBRANCH   4   5
ENDBRANCH   3   4
ENDBRANCH   2   3
ENDBRANCH   1   2
BRANCH   1  22
ATOM     22  C   UNL     1       6.141   0.503  -0.973  1.00  0.00     0.188 C 
BRANCH  22  23
ATOM     23  O   UNL     1       5.372  -0.521  -1.593  1.00  0.00    -0.376 OA
BRANCH  23  24
ATOM     24  C   UNL     1       5.007  -0.285  -2.963  1.00  0.00     0.202 C 
BRANCH  24  25
ATOM     25  C   UNL     1       6.114   0.156  -3.954  1.00  0.00     0.261 C 
BRANCH  25  26
ATOM     26  O   UNL     1       6.828   1.374  -3.640  1.00  0.00    -0.460 OA
BRANCH  26  27
ATOM     27  C   UNL     1       6.107   2.470  -3.309  1.00  0.00     0.338 C 
ATOM     28  O   UNL     1       4.908   2.622  -3.481  1.00  0.00    -0.246 OA
BRANCH  27  29
ATOM     29  C   UNL     1       6.934   3.347  -2.430  1.00  0.00     0.060 A 
ATOM     30  C   UNL     1       6.299   3.973  -1.345  1.00  0.00     0.016 A 
ATOM     31  C   UNL     1       8.311   3.512  -2.610  1.00  0.00     0.016 A 
ATOM     32  C   UNL     1       7.015   4.811  -0.486  1.00  0.00     0.010 A 
ATOM     33  C   UNL     1       9.027   4.367  -1.758  1.00  0.00     0.010 A 
ATOM     34  C   UNL     1       8.372   5.061  -0.723  1.00  0.00    -0.014 A 
BRANCH  34  35
ATOM     35  C   UNL     1       9.019   6.241  -0.085  1.00  0.00     0.031 A 
ATOM     36  C   UNL     1       9.099   7.513  -0.894  1.00  0.00     0.074 A 
ATOM     37  C   UNL     1       9.475   6.230   1.182  1.00  0.00     0.049 A 
ATOM     38  N   UNL     1       9.645   8.663  -0.590  1.00  0.00    -0.248 NA
ATOM     39  C   UNL     1       8.475   7.479  -2.228  1.00  0.00     0.031 C 
ATOM     40  C   UNL     1       9.409   5.099   2.105  1.00  0.00     0.029 A 
ATOM     41  N   UNL     1      10.093   7.221   1.910  1.00  0.00    -0.354 N 
ATOM     42  C   UNL     1       9.433   9.482  -1.694  1.00  0.00     0.074 A 
ATOM     43  C   UNL     1       8.747   8.690  -2.688  1.00  0.00     0.031 C 
ATOM     44  C   UNL     1       9.974   5.457   3.274  1.00  0.00     0.029 A 
ATOM     45  C   UNL     1      10.472   6.829   3.172  1.00  0.00     0.049 A 
ATOM     46  H   UNL     1      10.249   8.127   1.559  1.00  0.00     0.167 HD
ATOM     47  C   UNL     1       9.765  10.782  -1.867  1.00  0.00     0.031 A 
ATOM     48  C   UNL     1      11.162   7.492   4.123  1.00  0.00     0.031 A 
ATOM     49  C   UNL     1      10.458  11.579  -0.893  1.00  0.00     0.049 A 
ATOM     50  C   UNL     1      11.609   8.913   3.866  1.00  0.00     0.074 A 
ATOM     51  C   UNL     1      10.852  12.903  -0.988  1.00  0.00     0.029 A 
ATOM     52  N   UNL     1      10.856  11.129   0.353  1.00  0.00    -0.354 N 
ATOM     53  N   UNL     1      11.399   9.675   2.819  1.00  0.00    -0.248 NA
ATOM     54  C   UNL     1      12.379   9.570   4.935  1.00  0.00     0.031 C 
ATOM     55  C   UNL     1      11.537  13.238   0.183  1.00  0.00     0.029 A 
ATOM     56  C   UNL     1      11.504  12.145   1.034  1.00  0.00     0.049 A 
ATOM     57  H   UNL     1      10.702  10.222   0.704  1.00  0.00     0.167 HD
ATOM     58  C   UNL     1      11.968  10.908   3.124  1.00  0.00     0.074 A 
ATOM     59  C   UNL     1      12.519  10.798   4.457  1.00  0.00     0.031 C 
ATOM     60  C   UNL     1      12.027  12.033   2.370  1.00  0.00     0.031 A 
BRANCH  47  61
ATOM     61  C   UNL     1       9.400  11.422  -3.177  1.00  0.00    -0.014 A 
ATOM     62  C   UNL     1       8.065  11.720  -3.494  1.00  0.00     0.009 A 
ATOM     63  C   UNL     1      10.409  11.776  -4.086  1.00  0.00     0.009 A 
ATOM     64  C   UNL     1       7.747  12.337  -4.705  1.00  0.00     0.001 A 
ATOM     65  C   UNL     1      10.091  12.421  -5.282  1.00  0.00     0.001 A 
ATOM     66  C   UNL     1       8.760  12.695  -5.593  1.00  0.00     0.000 A 
ENDBRANCH  47  61
BRANCH  48  67
ATOM     67  C   UNL     1      11.523   6.828   5.408  1.00  0.00    -0.014 A 
ATOM     68  C   UNL     1      11.016   7.296   6.632  1.00  0.00     0.009 A 
ATOM     69  C   UNL     1      12.447   5.771   5.423  1.00  0.00     0.009 A 
ATOM     70  C   UNL     1      11.464   6.754   7.841  1.00  0.00     0.001 A 
ATOM     71  C   UNL     1      12.864   5.206   6.631  1.00  0.00     0.001 A 
ATOM     72  C   UNL     1      12.386   5.709   7.839  1.00  0.00     0.000 A 
ENDBRANCH  48  67
BRANCH  60  73
ATOM     73  C   UNL     1      12.637  13.261   2.990  1.00  0.00    -0.014 A 
ATOM     74  C   UNL     1      14.012  13.356   3.251  1.00  0.00     0.009 A 
ATOM     75  C   UNL     1      11.816  14.364   3.279  1.00  0.00     0.009 A 
ATOM     76  C   UNL     1      14.544  14.512   3.829  1.00  0.00     0.001 A 
ATOM     77  C   UNL     1      12.355  15.531   3.822  1.00  0.00     0.001 A 
ATOM     78  C   UNL     1      13.716  15.599   4.109  1.00  0.00     0.000 A 
ENDBRANCH  60  73
ENDBRANCH  34  35
ENDBRANCH  27  29
ENDBRANCH  26  27
ENDBRANCH  25  26
ENDBRANCH  24  25
ENDBRANCH  23  24
ENDBRANCH  22  23
ENDBRANCH   1  22
TORSDOF 21
