REMARK SMILES O=C(OCCOCCOCCOC(=O)[C@H]1Sc2[nH]c(=O)sc2[C@H]2c3cc(Br)cc(Br)c3OC(=O)[C@H]21)c1ccc(-c2c3nc(c(-c4ccccc4)c4ccc([nH]4)c(-c4ccccc4)c4nc(c(-c5ccccc5)c5ccc2[nH]5)C=C4)C=C3)cc1
REMARK SMILES IDX 7 1 6 2 5 3 4 4 3 5 2 6 1 7 36 8 37 9 83 10 38 11 82 12
REMARK SMILES IDX 39 13 40 14 41 15 76 16 42 17 81 18 75 19 77 20 43 21 80 22
REMARK SMILES IDX 74 23 73 24 44 26 66 27 51 28 65 29 52 30 55 31 64 32 78 33
REMARK SMILES IDX 53 34 54 35 63 37 79 38 56 39 45 40 46 41 50 42 47 43 49 44
REMARK SMILES IDX 48 45 67 46 68 47 72 48 69 49 71 50 70 51 57 52 58 53 62 54
REMARK SMILES IDX 59 55 61 56 60 57 8 58 9 59 10 60 11 61 12 62 13 63 14 64
REMARK SMILES IDX 15 65 16 66 35 67 17 68 23 69 33 70 18 71 22 72 24 73 32 74
REMARK SMILES IDX 34 75 19 76 21 78 25 79 31 80 20 81 26 82 29 83 27 84 28 85
REMARK SMILES IDX 30 86
REMARK H PARENT 77 25 55 36 18 77
REMARK Flexibility Score: inf
ROOT
ATOM      1  C   UNL     1       3.019   0.067   1.445  1.00  0.00     0.188 C 
ENDROOT
BRANCH   1   2
ATOM      2  O   UNL     1       4.412   0.236   1.428  1.00  0.00    -0.376 OA
BRANCH   2   3
ATOM      3  C   UNL     1       5.146   0.427   0.239  1.00  0.00     0.202 C 
BRANCH   3   4
ATOM      4  C   UNL     1       4.628   1.159  -1.010  1.00  0.00     0.261 C 
BRANCH   4   5
ATOM      5  O   UNL     1       3.228   1.433  -1.144  1.00  0.00    -0.460 OA
BRANCH   5   6
ATOM      6  C   UNL     1       2.183   0.699  -1.572  1.00  0.00     0.338 C 
ATOM      7  O   UNL     1       1.076   1.236  -1.616  1.00  0.00    -0.246 OA
BRANCH   6   8
ATOM      8  C   UNL     1       2.233  -0.765  -1.865  1.00  0.00     0.060 A 
ATOM      9  C   UNL     1       3.360  -1.494  -2.235  1.00  0.00     0.016 A 
ATOM     10  C   UNL     1       0.978  -1.412  -1.863  1.00  0.00     0.016 A 
ATOM     11  C   UNL     1       3.197  -2.737  -2.839  1.00  0.00     0.010 A 
ATOM     12  C   UNL     1       0.816  -2.661  -2.435  1.00  0.00     0.010 A 
ATOM     13  C   UNL     1       1.911  -3.254  -3.039  1.00  0.00    -0.014 A 
BRANCH  13  14
ATOM     14  C   UNL     1       1.740  -4.395  -3.928  1.00  0.00     0.031 A 
ATOM     15  C   UNL     1       2.475  -5.615  -3.524  1.00  0.00     0.074 A 
ATOM     16  C   UNL     1       0.970  -4.360  -5.037  1.00  0.00     0.049 A 
ATOM     17  N   UNL     1       3.562  -6.083  -4.041  1.00  0.00    -0.248 NA
ATOM     18  C   UNL     1       2.038  -6.313  -2.311  1.00  0.00     0.031 C 
ATOM     19  C   UNL     1       0.012  -3.340  -5.478  1.00  0.00     0.029 A 
ATOM     20  N   UNL     1       0.848  -5.312  -6.001  1.00  0.00    -0.354 N 
ATOM     21  C   UNL     1       3.858  -7.242  -3.331  1.00  0.00     0.074 A 
ATOM     22  C   UNL     1       2.983  -7.246  -2.184  1.00  0.00     0.031 C 
ATOM     23  C   UNL     1      -0.749  -3.836  -6.485  1.00  0.00     0.029 A 
ATOM     24  C   UNL     1      -0.220  -5.132  -6.872  1.00  0.00     0.049 A 
ATOM     25  H   UNL     1       1.469  -6.072  -6.076  1.00  0.00     0.167 HD
ATOM     26  C   UNL     1       4.649  -8.218  -3.856  1.00  0.00     0.031 A 
ATOM     27  C   UNL     1      -0.634  -6.001  -7.829  1.00  0.00     0.031 A 
ATOM     28  C   UNL     1       5.372  -7.753  -5.012  1.00  0.00     0.049 A 
ATOM     29  C   UNL     1       0.512  -6.884  -8.145  1.00  0.00     0.074 A 
ATOM     30  C   UNL     1       6.335  -6.789  -5.231  1.00  0.00     0.029 A 
ATOM     31  N   UNL     1       4.830  -8.030  -6.245  1.00  0.00    -0.354 N 
ATOM     32  N   UNL     1       1.593  -6.457  -8.731  1.00  0.00    -0.248 NA
ATOM     33  C   UNL     1       0.655  -8.116  -7.387  1.00  0.00     0.031 C 
ATOM     34  C   UNL     1       5.972  -6.188  -6.473  1.00  0.00     0.029 A 
ATOM     35  C   UNL     1       4.864  -6.870  -6.978  1.00  0.00     0.049 A 
ATOM     36  H   UNL     1       4.482  -8.900  -6.546  1.00  0.00     0.167 HD
ATOM     37  C   UNL     1       2.628  -7.086  -8.057  1.00  0.00     0.074 A 
ATOM     38  C   UNL     1       1.988  -8.164  -7.302  1.00  0.00     0.031 C 
ATOM     39  C   UNL     1       3.858  -6.500  -7.949  1.00  0.00     0.031 A 
BRANCH  26  40
ATOM     40  C   UNL     1       4.480  -9.684  -3.558  1.00  0.00    -0.014 A 
ATOM     41  C   UNL     1       5.404 -10.598  -4.095  1.00  0.00     0.009 A 
ATOM     42  C   UNL     1       3.303 -10.224  -3.007  1.00  0.00     0.009 A 
ATOM     43  C   UNL     1       5.132 -11.972  -4.135  1.00  0.00     0.001 A 
ATOM     44  C   UNL     1       3.044 -11.597  -3.011  1.00  0.00     0.001 A 
ATOM     45  C   UNL     1       3.948 -12.469  -3.600  1.00  0.00     0.000 A 
ENDBRANCH  26  40
BRANCH  27  46
ATOM     46  C   UNL     1      -2.013  -6.350  -8.239  1.00  0.00    -0.014 A 
ATOM     47  C   UNL     1      -2.252  -7.068  -9.425  1.00  0.00     0.009 A 
ATOM     48  C   UNL     1      -3.062  -6.263  -7.307  1.00  0.00     0.009 A 
ATOM     49  C   UNL     1      -3.476  -7.718  -9.642  1.00  0.00     0.001 A 
ATOM     50  C   UNL     1      -4.283  -6.912  -7.524  1.00  0.00     0.001 A 
ATOM     51  C   UNL     1      -4.484  -7.655  -8.683  1.00  0.00     0.000 A 
ENDBRANCH  27  46
BRANCH  39  52
ATOM     52  C   UNL     1       4.096  -5.226  -8.730  1.00  0.00    -0.014 A 
ATOM     53  C   UNL     1       3.345  -4.051  -8.538  1.00  0.00     0.009 A 
ATOM     54  C   UNL     1       5.197  -5.169  -9.596  1.00  0.00     0.009 A 
ATOM     55  C   UNL     1       3.663  -2.870  -9.221  1.00  0.00     0.001 A 
ATOM     56  C   UNL     1       5.528  -3.985 -10.261  1.00  0.00     0.001 A 
ATOM     57  C   UNL     1       4.757  -2.839 -10.081  1.00  0.00     0.000 A 
ENDBRANCH  39  52
ENDBRANCH  13  14
ENDBRANCH   6   8
ENDBRANCH   5   6
ENDBRANCH   4   5
ENDBRANCH   3   4
ENDBRANCH   2   3
ENDBRANCH   1   2
BRANCH   1  58
ATOM     58  C   UNL     1       2.249   1.063   2.337  1.00  0.00     0.188 C 
BRANCH  58  59
ATOM     59  O   UNL     1       2.929   2.208   2.826  1.00  0.00    -0.376 OA
BRANCH  59  60
ATOM     60  C   UNL     1       4.197   1.997   3.437  1.00  0.00     0.202 C 
BRANCH  60  61
ATOM     61  C   UNL     1       4.374   0.858   4.470  1.00  0.00     0.261 C 
BRANCH  61  62
ATOM     62  O   UNL     1       3.729  -0.408   4.167  1.00  0.00    -0.462 OA
BRANCH  62  63
ATOM     63  C   UNL     1       2.920  -0.919   5.138  1.00  0.00     0.320 C 
ATOM     64  O   UNL     1       2.698  -0.372   6.215  1.00  0.00    -0.251 OA
BRANCH  63  65
ATOM     65  C   UNL     1       2.246  -2.257   4.774  1.00  0.00     0.178 C 
ATOM     66  S   UNL     1       1.057  -2.035   3.408  1.00  0.00    -0.091 SA
ATOM     67  C   UNL     1       3.046  -3.568   4.913  1.00  0.00     0.137 C 
ATOM     68  C   UNL     1       1.106  -3.483   2.548  1.00  0.00     0.091 A 
ATOM     69  C   UNL     1       2.960  -4.674   3.815  1.00  0.00     0.082 C 
ATOM     70  C   UNL     1       4.495  -3.416   5.363  1.00  0.00     0.317 C 
ATOM     71  N   UNL     1       0.237  -3.641   1.510  1.00  0.00    -0.307 N 
ATOM     72  C   UNL     1       1.892  -4.535   2.776  1.00  0.00     0.049 A 
ATOM     73  C   UNL     1       4.362  -5.024   3.313  1.00  0.00     0.007 A 
ATOM     74  O   UNL     1       5.062  -4.655   5.579  1.00  0.00    -0.425 OA
ATOM     75  O   UNL     1       5.089  -2.376   5.590  1.00  0.00    -0.251 OA
ATOM     76  C   UNL     1       0.231  -4.863   0.890  1.00  0.00     0.305 A 
ATOM     77  H   UNL     1      -0.357  -2.912   1.218  1.00  0.00     0.171 HD
ATOM     78  S   UNL     1       1.398  -5.879   1.740  1.00  0.00    -0.078 S 
ATOM     79  C   UNL     1       4.737  -5.306   1.995  1.00  0.00     0.024 A 
ATOM     80  C   UNL     1       5.356  -5.116   4.303  1.00  0.00     0.148 A 
ATOM     81  O   UNL     1      -0.431  -5.205  -0.064  1.00  0.00    -0.257 OA
ATOM     82  C   UNL     1       6.037  -5.739   1.708  1.00  0.00     0.019 A 
ATOM     83  C   UNL     1       6.636  -5.602   4.029  1.00  0.00     0.062 A 
ATOM     84  Br  UNL     1       6.522  -6.080  -0.089  1.00  0.00    -0.051 Br
ATOM     85  C   UNL     1       6.979  -5.920   2.720  1.00  0.00     0.035 A 
ATOM     86  Br  UNL     1       7.925  -5.815   5.399  1.00  0.00    -0.047 Br
ENDBRANCH  63  65
ENDBRANCH  62  63
ENDBRANCH  61  62
ENDBRANCH  60  61
ENDBRANCH  59  60
ENDBRANCH  58  59
ENDBRANCH   1  58
TORSDOF 17
