REMARK SMILES COc1cccc(NC(=O)/C(C#N)=C\c2ccc(O[C@@H](C)C(=O)OCCOCCOCCOC(=O)c3ccc(-c4c5nc(c(-c6ccccc6)c6ccc([nH]6)c(-c6ccccc6)c6nc(c(-c7ccccc7)c7ccc4[nH]7)C=C6)C=C5)cc3)cc2)c1
REMARK SMILES IDX 26 1 25 2 24 3 22 4 23 5 20 6 21 7 19 8 18 9 15 10 16 11
REMARK SMILES IDX 85 12 17 13 84 14 14 15 11 16 9 17 8 18 10 20 7 21 3 22 4 23
REMARK SMILES IDX 86 24 5 25 6 26 2 27 1 28 12 29 13 30 27 31 28 32 29 33
REMARK SMILES IDX 30 34 31 35 32 36 33 37 34 38 35 39 36 40 37 41 83 42 38 43
REMARK SMILES IDX 82 44 39 45 40 46 41 47 76 48 42 49 81 50 75 51 77 52 43 53
REMARK SMILES IDX 80 54 74 55 73 56 44 58 66 59 51 60 65 61 52 62 55 63 64 64
REMARK SMILES IDX 78 65 53 66 54 67 63 69 79 70 56 71 45 72 46 73 50 74 47 75
REMARK SMILES IDX 49 76 48 77 67 78 68 79 72 80 69 81 71 82 70 83 57 84 58 85
REMARK SMILES IDX 62 86 59 87 61 88 60 89
REMARK H PARENT 8 19 77 57 55 68
REMARK Flexibility Score: inf
ROOT
ATOM      1  C   UNL     1       9.856   3.851   9.627  1.00  0.00     0.202 C 
ENDROOT
BRANCH   1   2
ATOM      2  C   UNL     1       9.828   3.178   8.242  1.00  0.00     0.261 C 
BRANCH   2   3
ATOM      3  O   UNL     1       9.717   1.741   8.280  1.00  0.00    -0.461 OA
BRANCH   3   4
ATOM      4  C   UNL     1      10.653   0.995   7.639  1.00  0.00     0.347 C 
ATOM      5  O   UNL     1      11.578   1.475   6.991  1.00  0.00    -0.248 OA
BRANCH   4   6
ATOM      6  C   UNL     1      10.482  -0.553   7.846  1.00  0.00     0.279 C 
ATOM      7  C   UNL     1      10.583  -1.261   6.495  1.00  0.00     0.066 C 
BRANCH   6   8
ATOM      8  O   UNL     1       9.528  -1.247   8.646  1.00  0.00    -0.479 OA
BRANCH   8   9
ATOM      9  C   UNL     1       8.190  -1.022   8.514  1.00  0.00     0.120 A 
ATOM     10  C   UNL     1       5.418  -0.630   8.457  1.00  0.00    -0.024 A 
ATOM     11  C   UNL     1       5.959  -1.576   9.326  1.00  0.00     0.012 A 
ATOM     12  C   UNL     1       6.275   0.167   7.695  1.00  0.00     0.012 A 
ATOM     13  C   UNL     1       7.349  -1.757   9.363  1.00  0.00     0.047 A 
ATOM     14  C   UNL     1       7.633  -0.087   7.660  1.00  0.00     0.047 A 
BRANCH  10  15
ATOM     15  C   UNL     1       3.983  -0.382   8.326  1.00  0.00     0.033 C 
ATOM     16  C   UNL     1       3.293  -0.274   7.161  1.00  0.00     0.118 C 
BRANCH  16  17
ATOM     17  C   UNL     1       3.879  -0.717   5.832  1.00  0.00     0.266 C 
ATOM     18  N   UNL     1       3.386  -0.440   4.594  1.00  0.00    -0.321 N 
ATOM     19  H   UNL     1       4.091  -0.454   3.906  1.00  0.00     0.170 HD
ATOM     20  O   UNL     1       4.948  -1.340   5.788  1.00  0.00    -0.268 OA
BRANCH  18  21
ATOM     21  C   UNL     1       2.134  -0.141   4.052  1.00  0.00     0.045 A 
ATOM     22  C   UNL     1       0.880   0.703   2.161  1.00  0.00     0.120 A 
ATOM     23  C   UNL     1      -0.292   0.657   2.907  1.00  0.00     0.046 A 
ATOM     24  C   UNL     1       2.099   0.341   2.737  1.00  0.00     0.072 A 
ATOM     25  C   UNL     1      -0.269   0.089   4.175  1.00  0.00     0.006 A 
ATOM     26  C   UNL     1       0.933  -0.374   4.708  1.00  0.00     0.026 A 
BRANCH  22  27
ATOM     27  O   UNL     1       0.795   1.158   0.874  1.00  0.00    -0.497 OA
ATOM     28  C   UNL     1       1.150   0.130  -0.054  1.00  0.00     0.278 C 
ENDBRANCH  22  27
ENDBRANCH  18  21
ENDBRANCH  16  17
BRANCH  16  29
ATOM     29  C   UNL     1       2.064   0.424   7.290  1.00  0.00     0.105 C 
ATOM     30  N   UNL     1       1.081   1.011   7.504  1.00  0.00    -0.192 NA
ENDBRANCH  16  29
ENDBRANCH  10  15
ENDBRANCH   8   9
ENDBRANCH   6   8
ENDBRANCH   4   6
ENDBRANCH   3   4
ENDBRANCH   2   3
ENDBRANCH   1   2
BRANCH   1  31
ATOM     31  O   UNL     1      10.740   3.346  10.623  1.00  0.00    -0.376 OA
BRANCH  31  32
ATOM     32  C   UNL     1      10.782   1.942  10.851  1.00  0.00     0.188 C 
BRANCH  32  33
ATOM     33  C   UNL     1       9.461   1.158  10.970  1.00  0.00     0.188 C 
BRANCH  33  34
ATOM     34  O   UNL     1       8.301   1.929  10.746  1.00  0.00    -0.376 OA
BRANCH  34  35
ATOM     35  C   UNL     1       7.441   2.095  11.859  1.00  0.00     0.202 C 
BRANCH  35  36
ATOM     36  C   UNL     1       8.039   2.706  13.142  1.00  0.00     0.261 C 
BRANCH  36  37
ATOM     37  O   UNL     1       9.335   2.230  13.558  1.00  0.00    -0.460 OA
BRANCH  37  38
ATOM     38  C   UNL     1       9.410   1.010  14.143  1.00  0.00     0.338 C 
ATOM     39  O   UNL     1       8.485   0.257  14.381  1.00  0.00    -0.246 OA
BRANCH  38  40
ATOM     40  C   UNL     1      10.846   0.637  14.243  1.00  0.00     0.060 A 
ATOM     41  C   UNL     1      11.331  -0.463  13.516  1.00  0.00     0.016 A 
ATOM     42  C   UNL     1      11.717   1.385  15.035  1.00  0.00     0.016 A 
ATOM     43  C   UNL     1      12.679  -0.830  13.601  1.00  0.00     0.010 A 
ATOM     44  C   UNL     1      13.060   1.001  15.139  1.00  0.00     0.010 A 
ATOM     45  C   UNL     1      13.544  -0.126  14.447  1.00  0.00    -0.014 A 
BRANCH  45  46
ATOM     46  C   UNL     1      14.900  -0.656  14.752  1.00  0.00     0.031 A 
ATOM     47  C   UNL     1      15.118  -1.372  16.058  1.00  0.00     0.074 A 
ATOM     48  C   UNL     1      15.929  -0.505  13.899  1.00  0.00     0.049 A 
ATOM     49  N   UNL     1      16.221  -1.858  16.570  1.00  0.00    -0.248 NA
ATOM     50  C   UNL     1      13.929  -1.554  16.905  1.00  0.00     0.031 C 
ATOM     51  C   UNL     1      15.856   0.130  12.586  1.00  0.00     0.029 A 
ATOM     52  N   UNL     1      17.249  -0.868  14.027  1.00  0.00    -0.354 N 
ATOM     53  C   UNL     1      15.863  -2.384  17.805  1.00  0.00     0.074 A 
ATOM     54  C   UNL     1      14.449  -2.127  17.978  1.00  0.00     0.031 C 
ATOM     55  C   UNL     1      17.081   0.122  12.031  1.00  0.00     0.029 A 
ATOM     56  C   UNL     1      18.031  -0.479  12.966  1.00  0.00     0.049 A 
ATOM     57  H   UNL     1      17.600  -1.359  14.804  1.00  0.00     0.167 HD
ATOM     58  C   UNL     1      16.636  -3.023  18.716  1.00  0.00     0.031 A 
ATOM     59  C   UNL     1      19.363  -0.571  12.780  1.00  0.00     0.031 A 
ATOM     60  C   UNL     1      18.049  -3.256  18.558  1.00  0.00     0.049 A 
ATOM     61  C   UNL     1      20.223  -1.212  13.840  1.00  0.00     0.074 A 
ATOM     62  C   UNL     1      18.913  -3.918  19.412  1.00  0.00     0.029 A 
ATOM     63  N   UNL     1      18.808  -2.815  17.485  1.00  0.00    -0.354 N 
ATOM     64  N   UNL     1      19.868  -1.741  14.986  1.00  0.00    -0.248 NA
ATOM     65  C   UNL     1      21.668  -1.276  13.573  1.00  0.00     0.031 C 
ATOM     66  C   UNL     1      20.209  -3.806  18.896  1.00  0.00     0.029 A 
ATOM     67  C   UNL     1      20.139  -3.153  17.676  1.00  0.00     0.049 A 
ATOM     68  H   UNL     1      18.454  -2.333  16.702  1.00  0.00     0.167 HD
ATOM     69  C   UNL     1      21.038  -2.226  15.562  1.00  0.00     0.074 A 
ATOM     70  C   UNL     1      22.110  -1.942  14.630  1.00  0.00     0.031 C 
ATOM     71  C   UNL     1      21.205  -2.856  16.752  1.00  0.00     0.031 A 
BRANCH  58  72
ATOM     72  C   UNL     1      15.973  -3.461  19.996  1.00  0.00    -0.014 A 
ATOM     73  C   UNL     1      14.990  -4.465  20.015  1.00  0.00     0.009 A 
ATOM     74  C   UNL     1      16.344  -2.858  21.208  1.00  0.00     0.009 A 
ATOM     75  C   UNL     1      14.354  -4.812  21.209  1.00  0.00     0.001 A 
ATOM     76  C   UNL     1      15.736  -3.235  22.407  1.00  0.00     0.001 A 
ATOM     77  C   UNL     1      14.730  -4.199  22.404  1.00  0.00     0.000 A 
ENDBRANCH  58  72
BRANCH  59  78
ATOM     78  C   UNL     1      19.975  -0.021  11.540  1.00  0.00    -0.014 A 
ATOM     79  C   UNL     1      20.536  -0.871  10.575  1.00  0.00     0.009 A 
ATOM     80  C   UNL     1      19.995   1.365  11.313  1.00  0.00     0.009 A 
ATOM     81  C   UNL     1      21.116  -0.345   9.418  1.00  0.00     0.001 A 
ATOM     82  C   UNL     1      20.545   1.886  10.140  1.00  0.00     0.001 A 
ATOM     83  C   UNL     1      21.112   1.031   9.197  1.00  0.00     0.000 A 
ENDBRANCH  59  78
BRANCH  71  84
ATOM     84  C   UNL     1      22.595  -3.319  17.106  1.00  0.00    -0.014 A 
ATOM     85  C   UNL     1      23.624  -2.411  17.404  1.00  0.00     0.009 A 
ATOM     86  C   UNL     1      22.867  -4.695  17.183  1.00  0.00     0.009 A 
ATOM     87  C   UNL     1      24.903  -2.871  17.730  1.00  0.00     0.001 A 
ATOM     88  C   UNL     1      24.135  -5.152  17.547  1.00  0.00     0.001 A 
ATOM     89  C   UNL     1      25.155  -4.240  17.808  1.00  0.00     0.000 A 
ENDBRANCH  71  84
ENDBRANCH  45  46
ENDBRANCH  38  40
ENDBRANCH  37  38
ENDBRANCH  36  37
ENDBRANCH  35  36
ENDBRANCH  34  35
ENDBRANCH  33  34
ENDBRANCH  32  33
ENDBRANCH  31  32
ENDBRANCH   1  31
TORSDOF 24
