REMARK SMILES COc1cc(/C=C/C(=O)c2ccc(OCC(=O)OCCOCCOCCOC(=O)c3ccc(-c4c5nc(c(-c6ccccc6)c6ccc([nH]6)c(-c6ccccc6)c6nc(c(-c7ccccc7)c7ccc4[nH]7)C=C6)C=C5)cc3)cc2)cc2c1OCCO2
REMARK SMILES IDX 20 1 19 2 18 3 16 4 17 5 15 6 14 7 13 8 10 9 11 10 79 11
REMARK SMILES IDX 12 12 78 13 8 14 9 15 7 16 6 17 5 18 3 19 4 20 82 21 81 22
REMARK SMILES IDX 83 23 80 24 86 25 84 26 85 27 2 28 1 29 21 30 22 31 23 32
REMARK SMILES IDX 24 33 25 34 26 35 27 36 28 37 29 38 30 39 31 40 77 41 32 42
REMARK SMILES IDX 76 43 33 44 34 45 35 46 70 47 36 48 75 49 69 50 71 51 37 52
REMARK SMILES IDX 74 53 68 54 67 55 38 57 60 58 45 59 59 60 46 61 49 62 58 63
REMARK SMILES IDX 72 64 47 65 48 66 57 68 73 69 50 70 39 71 40 72 44 73 41 74
REMARK SMILES IDX 43 75 42 76 61 77 62 78 66 79 63 80 65 81 64 82 51 83 52 84
REMARK SMILES IDX 56 85 53 86 55 87 54 88
REMARK H PARENT 71 56 49 67
REMARK Flexibility Score: inf
ROOT
ATOM      1  C   UNL     1      -7.279   3.420   1.740  1.00  0.00     0.202 C 
ENDROOT
BRANCH   1   2
ATOM      2  C   UNL     1      -8.427   3.536   2.752  1.00  0.00     0.261 C 
BRANCH   2   3
ATOM      3  O   UNL     1      -7.923   3.662   4.104  1.00  0.00    -0.461 OA
BRANCH   3   4
ATOM      4  C   UNL     1      -8.441   2.830   5.046  1.00  0.00     0.344 C 
ATOM      5  O   UNL     1      -9.421   2.113   4.872  1.00  0.00    -0.248 OA
BRANCH   4   6
ATOM      6  C   UNL     1      -7.572   2.746   6.317  1.00  0.00     0.351 C 
BRANCH   6   7
ATOM      7  O   UNL     1      -6.666   3.816   6.562  1.00  0.00    -0.482 OA
BRANCH   7   8
ATOM      8  C   UNL     1      -5.459   3.570   7.168  1.00  0.00     0.120 A 
ATOM      9  C   UNL     1      -2.756   3.280   7.996  1.00  0.00     0.022 A 
ATOM     10  C   UNL     1      -3.256   4.528   7.608  1.00  0.00     0.016 A 
ATOM     11  C   UNL     1      -3.649   2.210   8.098  1.00  0.00     0.016 A 
ATOM     12  C   UNL     1      -4.589   4.665   7.188  1.00  0.00     0.047 A 
ATOM     13  C   UNL     1      -5.003   2.363   7.704  1.00  0.00     0.047 A 
BRANCH   9  14
ATOM     14  C   UNL     1      -1.279   3.169   8.221  1.00  0.00     0.185 C 
ATOM     15  O   UNL     1      -0.722   3.944   8.991  1.00  0.00    -0.289 OA
BRANCH  14  16
ATOM     16  C   UNL     1      -0.498   2.213   7.365  1.00  0.00     0.053 C 
ATOM     17  C   UNL     1       0.664   2.626   6.817  1.00  0.00     0.012 C 
BRANCH  17  18
ATOM     18  C   UNL     1       1.414   1.938   5.740  1.00  0.00    -0.018 A 
ATOM     19  C   UNL     1       1.526   1.336   3.341  1.00  0.00     0.165 A 
ATOM     20  C   UNL     1       0.880   1.912   4.449  1.00  0.00     0.058 A 
ATOM     21  C   UNL     1       2.821   0.860   3.507  1.00  0.00     0.203 A 
ATOM     22  C   UNL     1       3.411   0.948   4.784  1.00  0.00     0.165 A 
ATOM     23  O   UNL     1       3.502   0.396   2.412  1.00  0.00    -0.483 OA
ATOM     24  C   UNL     1       2.704   1.443   5.897  1.00  0.00     0.058 A 
ATOM     25  O   UNL     1       4.722   0.597   5.013  1.00  0.00    -0.486 OA
ATOM     26  C   UNL     1       4.763  -0.193   2.733  1.00  0.00     0.271 C 
ATOM     27  C   UNL     1       5.474   0.623   3.793  1.00  0.00     0.271 C 
BRANCH  19  28
ATOM     28  O   UNL     1       0.787   1.375   2.188  1.00  0.00    -0.493 OA
ATOM     29  C   UNL     1       1.082   0.429   1.165  1.00  0.00     0.278 C 
ENDBRANCH  19  28
ENDBRANCH  17  18
ENDBRANCH  14  16
ENDBRANCH   9  14
ENDBRANCH   7   8
ENDBRANCH   6   7
ENDBRANCH   4   6
ENDBRANCH   3   4
ENDBRANCH   2   3
ENDBRANCH   1   2
BRANCH   1  30
ATOM     30  O   UNL     1      -6.489   2.242   1.889  1.00  0.00    -0.376 OA
BRANCH  30  31
ATOM     31  C   UNL     1      -5.667   2.167   3.052  1.00  0.00     0.188 C 
BRANCH  31  32
ATOM     32  C   UNL     1      -5.013   3.470   3.523  1.00  0.00     0.188 C 
BRANCH  32  33
ATOM     33  O   UNL     1      -4.207   4.022   2.488  1.00  0.00    -0.376 OA
BRANCH  33  34
ATOM     34  C   UNL     1      -2.856   4.206   2.880  1.00  0.00     0.202 C 
BRANCH  34  35
ATOM     35  C   UNL     1      -2.007   2.994   2.479  1.00  0.00     0.261 C 
BRANCH  35  36
ATOM     36  O   UNL     1      -2.342   1.696   3.050  1.00  0.00    -0.460 OA
BRANCH  36  37
ATOM     37  C   UNL     1      -2.412   1.613   4.392  1.00  0.00     0.338 C 
ATOM     38  O   UNL     1      -2.332   2.551   5.163  1.00  0.00    -0.246 OA
BRANCH  37  39
ATOM     39  C   UNL     1      -2.594   0.241   4.914  1.00  0.00     0.060 A 
ATOM     40  C   UNL     1      -3.752  -0.028   5.643  1.00  0.00     0.016 A 
ATOM     41  C   UNL     1      -1.534  -0.669   4.952  1.00  0.00     0.016 A 
ATOM     42  C   UNL     1      -3.834  -1.168   6.451  1.00  0.00     0.010 A 
ATOM     43  C   UNL     1      -1.632  -1.835   5.732  1.00  0.00     0.010 A 
ATOM     44  C   UNL     1      -2.779  -2.094   6.500  1.00  0.00    -0.014 A 
BRANCH  44  45
ATOM     45  C   UNL     1      -2.935  -3.374   7.252  1.00  0.00     0.031 A 
ATOM     46  C   UNL     1      -2.117  -3.713   8.473  1.00  0.00     0.074 A 
ATOM     47  C   UNL     1      -3.842  -4.269   6.812  1.00  0.00     0.049 A 
ATOM     48  N   UNL     1      -2.081  -4.836   9.151  1.00  0.00    -0.248 NA
ATOM     49  C   UNL     1      -1.240  -2.663   9.007  1.00  0.00     0.031 C 
ATOM     50  C   UNL     1      -4.732  -4.071   5.666  1.00  0.00     0.029 A 
ATOM     51  N   UNL     1      -4.168  -5.520   7.275  1.00  0.00    -0.354 N 
ATOM     52  C   UNL     1      -1.164  -4.640  10.178  1.00  0.00     0.074 A 
ATOM     53  C   UNL     1      -0.670  -3.284  10.035  1.00  0.00     0.031 C 
ATOM     54  C   UNL     1      -5.516  -5.149   5.530  1.00  0.00     0.029 A 
ATOM     55  C   UNL     1      -5.136  -6.143   6.527  1.00  0.00     0.049 A 
ATOM     56  H   UNL     1      -3.748  -5.929   8.066  1.00  0.00     0.167 HD
ATOM     57  C   UNL     1      -0.764  -5.508  11.142  1.00  0.00     0.031 A 
ATOM     58  C   UNL     1      -5.640  -7.389   6.592  1.00  0.00     0.031 A 
ATOM     59  C   UNL     1      -1.246  -6.860  11.295  1.00  0.00     0.049 A 
ATOM     60  C   UNL     1      -5.127  -8.353   7.616  1.00  0.00     0.074 A 
ATOM     61  C   UNL     1      -0.891  -7.800  12.252  1.00  0.00     0.029 A 
ATOM     62  N   UNL     1      -2.180  -7.469  10.474  1.00  0.00    -0.354 N 
ATOM     63  N   UNL     1      -4.232  -8.159   8.552  1.00  0.00    -0.248 NA
ATOM     64  C   UNL     1      -5.682  -9.713   7.579  1.00  0.00     0.031 C 
ATOM     65  C   UNL     1      -1.578  -8.990  11.983  1.00  0.00     0.029 A 
ATOM     66  C   UNL     1      -2.393  -8.777  10.885  1.00  0.00     0.049 A 
ATOM     67  H   UNL     1      -2.627  -7.038   9.710  1.00  0.00     0.167 HD
ATOM     68  C   UNL     1      -4.114  -9.373   9.214  1.00  0.00     0.074 A 
ATOM     69  C   UNL     1      -5.045 -10.289   8.589  1.00  0.00     0.031 C 
ATOM     70  C   UNL     1      -3.298  -9.695  10.247  1.00  0.00     0.031 A 
BRANCH  57  71
ATOM     71  C   UNL     1       0.293  -5.045  12.107  1.00  0.00    -0.014 A 
ATOM     72  C   UNL     1      -0.019  -4.198  13.180  1.00  0.00     0.009 A 
ATOM     73  C   UNL     1       1.603  -5.539  11.988  1.00  0.00     0.009 A 
ATOM     74  C   UNL     1       0.966  -3.838  14.104  1.00  0.00     0.001 A 
ATOM     75  C   UNL     1       2.580  -5.192  12.923  1.00  0.00     0.001 A 
ATOM     76  C   UNL     1       2.263  -4.338  13.977  1.00  0.00     0.000 A 
ENDBRANCH  57  71
BRANCH  58  77
ATOM     77  C   UNL     1      -6.661  -7.806   5.601  1.00  0.00    -0.014 A 
ATOM     78  C   UNL     1      -8.004  -7.946   5.976  1.00  0.00     0.009 A 
ATOM     79  C   UNL     1      -6.297  -8.022   4.262  1.00  0.00     0.009 A 
ATOM     80  C   UNL     1      -8.965  -8.296   5.026  1.00  0.00     0.001 A 
ATOM     81  C   UNL     1      -7.264  -8.347   3.311  1.00  0.00     0.001 A 
ATOM     82  C   UNL     1      -8.596  -8.487   3.694  1.00  0.00     0.000 A 
ENDBRANCH  58  77
BRANCH  70  83
ATOM     83  C   UNL     1      -3.383 -11.103  10.761  1.00  0.00    -0.014 A 
ATOM     84  C   UNL     1      -2.794 -12.164  10.056  1.00  0.00     0.009 A 
ATOM     85  C   UNL     1      -4.061 -11.373  11.960  1.00  0.00     0.009 A 
ATOM     86  C   UNL     1      -2.910 -13.474  10.525  1.00  0.00     0.001 A 
ATOM     87  C   UNL     1      -4.158 -12.682  12.436  1.00  0.00     0.001 A 
ATOM     88  C   UNL     1      -3.591 -13.732  11.714  1.00  0.00     0.000 A 
ENDBRANCH  70  83
ENDBRANCH  44  45
ENDBRANCH  37  39
ENDBRANCH  36  37
ENDBRANCH  35  36
ENDBRANCH  34  35
ENDBRANCH  33  34
ENDBRANCH  32  33
ENDBRANCH  31  32
ENDBRANCH  30  31
ENDBRANCH   1  30
TORSDOF 23
