REMARK SMILES O=C(OCCOCCOCCOC(=O)[C@@]1(Cc2cn3ccccc3n2)CCC[NH2+]C1)c1ccc(-c2c3nc(c(-c4ccccc4)c4ccc([nH]4)c(-c4ccccc4)c4nc(c(-c5ccccc5)c5ccc2[nH]5)C=C4)C=C3)cc1
REMARK SMILES IDX 7 1 6 2 5 3 4 4 3 5 2 6 1 7 31 8 32 9 78 10 33 11 77 12
REMARK SMILES IDX 34 13 35 14 36 15 71 16 37 17 76 18 70 19 72 20 38 21 75 22
REMARK SMILES IDX 69 23 68 24 39 26 61 27 46 28 60 29 47 30 50 31 59 32 73 33
REMARK SMILES IDX 48 34 49 35 58 37 74 38 51 39 40 40 41 41 45 42 42 43 44 44
REMARK SMILES IDX 43 45 62 46 63 47 67 48 64 49 66 50 65 51 52 52 53 53 57 54
REMARK SMILES IDX 54 55 56 56 55 57 8 58 9 59 10 60 11 61 12 62 13 63 14 64
REMARK SMILES IDX 15 65 26 66 30 67 27 68 29 69 28 70 16 73 17 74 18 75 25 76
REMARK SMILES IDX 19 77 24 78 20 79 23 80 21 81 22 82
REMARK H PARENT 72 25 50 36 29 71 29 72
REMARK Flexibility Score: inf
ROOT
ATOM      1  C   UNL     1      -0.957   4.867   3.476  1.00  0.00     0.188 C 
ENDROOT
BRANCH   1   2
ATOM      2  O   UNL     1      -0.475   3.518   3.537  1.00  0.00    -0.376 OA
BRANCH   2   3
ATOM      3  C   UNL     1      -1.145   2.725   4.525  1.00  0.00     0.202 C 
BRANCH   3   4
ATOM      4  C   UNL     1      -0.732   3.009   5.980  1.00  0.00     0.261 C 
BRANCH   4   5
ATOM      5  O   UNL     1      -0.212   4.335   6.188  1.00  0.00    -0.460 OA
BRANCH   5   6
ATOM      6  C   UNL     1       1.066   4.777   6.098  1.00  0.00     0.338 C 
ATOM      7  O   UNL     1       1.301   5.955   6.379  1.00  0.00    -0.246 OA
BRANCH   6   8
ATOM      8  C   UNL     1       2.223   3.923   5.690  1.00  0.00     0.060 A 
ATOM      9  C   UNL     1       2.121   2.730   4.980  1.00  0.00     0.016 A 
ATOM     10  C   UNL     1       3.514   4.378   6.015  1.00  0.00     0.016 A 
ATOM     11  C   UNL     1       3.228   1.943   4.710  1.00  0.00     0.010 A 
ATOM     12  C   UNL     1       4.648   3.619   5.699  1.00  0.00     0.010 A 
ATOM     13  C   UNL     1       4.495   2.369   5.088  1.00  0.00    -0.014 A 
BRANCH  13  14
ATOM     14  C   UNL     1       5.592   1.388   4.995  1.00  0.00     0.031 A 
ATOM     15  C   UNL     1       6.053   0.738   6.262  1.00  0.00     0.074 A 
ATOM     16  C   UNL     1       6.016   0.954   3.794  1.00  0.00     0.049 A 
ATOM     17  N   UNL     1       6.958  -0.185   6.432  1.00  0.00    -0.248 NA
ATOM     18  C   UNL     1       5.377   1.159   7.503  1.00  0.00     0.031 C 
ATOM     19  C   UNL     1       5.482   1.399   2.510  1.00  0.00     0.029 A 
ATOM     20  N   UNL     1       6.950   0.017   3.450  1.00  0.00    -0.354 N 
ATOM     21  C   UNL     1       6.973  -0.442   7.796  1.00  0.00     0.074 A 
ATOM     22  C   UNL     1       6.005   0.435   8.413  1.00  0.00     0.031 C 
ATOM     23  C   UNL     1       6.082   0.730   1.516  1.00  0.00     0.029 A 
ATOM     24  C   UNL     1       7.093  -0.139   2.091  1.00  0.00     0.049 A 
ATOM     25  H   UNL     1       7.471  -0.496   4.110  1.00  0.00     0.167 HD
ATOM     26  C   UNL     1       7.731  -1.336   8.468  1.00  0.00     0.031 A 
ATOM     27  C   UNL     1       7.965  -0.881   1.388  1.00  0.00     0.031 A 
ATOM     28  C   UNL     1       8.698  -2.180   7.824  1.00  0.00     0.049 A 
ATOM     29  C   UNL     1       8.909  -1.746   2.167  1.00  0.00     0.074 A 
ATOM     30  C   UNL     1       9.576  -3.082   8.392  1.00  0.00     0.029 A 
ATOM     31  N   UNL     1       8.914  -2.213   6.451  1.00  0.00    -0.354 N 
ATOM     32  N   UNL     1       8.964  -1.936   3.464  1.00  0.00    -0.248 NA
ATOM     33  C   UNL     1       9.898  -2.504   1.396  1.00  0.00     0.031 C 
ATOM     34  C   UNL     1      10.367  -3.614   7.367  1.00  0.00     0.029 A 
ATOM     35  C   UNL     1       9.935  -3.097   6.154  1.00  0.00     0.049 A 
ATOM     36  H   UNL     1       8.413  -1.685   5.788  1.00  0.00     0.167 HD
ATOM     37  C   UNL     1       9.971  -2.864   3.668  1.00  0.00     0.074 A 
ATOM     38  C   UNL     1      10.490  -3.204   2.354  1.00  0.00     0.031 C 
ATOM     39  C   UNL     1      10.424  -3.396   4.830  1.00  0.00     0.031 A 
BRANCH  26  40
ATOM     40  C   UNL     1       7.596  -1.344   9.964  1.00  0.00    -0.014 A 
ATOM     41  C   UNL     1       6.436  -1.813  10.604  1.00  0.00     0.009 A 
ATOM     42  C   UNL     1       8.628  -0.803  10.746  1.00  0.00     0.009 A 
ATOM     43  C   UNL     1       6.294  -1.690  11.990  1.00  0.00     0.001 A 
ATOM     44  C   UNL     1       8.496  -0.709  12.132  1.00  0.00     0.001 A 
ATOM     45  C   UNL     1       7.324  -1.138  12.751  1.00  0.00     0.000 A 
ENDBRANCH  26  40
BRANCH  27  46
ATOM     46  C   UNL     1       7.999  -0.804  -0.098  1.00  0.00    -0.014 A 
ATOM     47  C   UNL     1       7.663  -1.911  -0.890  1.00  0.00     0.009 A 
ATOM     48  C   UNL     1       8.364   0.394  -0.737  1.00  0.00     0.009 A 
ATOM     49  C   UNL     1       7.715  -1.827  -2.285  1.00  0.00     0.001 A 
ATOM     50  C   UNL     1       8.385   0.485  -2.131  1.00  0.00     0.001 A 
ATOM     51  C   UNL     1       8.071  -0.629  -2.904  1.00  0.00     0.000 A 
ENDBRANCH  27  46
BRANCH  39  52
ATOM     52  C   UNL     1      11.503  -4.430   4.710  1.00  0.00    -0.014 A 
ATOM     53  C   UNL     1      12.812  -4.081   4.346  1.00  0.00     0.009 A 
ATOM     54  C   UNL     1      11.202  -5.771   4.992  1.00  0.00     0.009 A 
ATOM     55  C   UNL     1      13.791  -5.066   4.225  1.00  0.00     0.001 A 
ATOM     56  C   UNL     1      12.191  -6.748   4.905  1.00  0.00     0.001 A 
ATOM     57  C   UNL     1      13.481  -6.396   4.511  1.00  0.00     0.000 A 
ENDBRANCH  39  52
ENDBRANCH  13  14
ENDBRANCH   6   8
ENDBRANCH   5   6
ENDBRANCH   4   5
ENDBRANCH   3   4
ENDBRANCH   2   3
ENDBRANCH   1   2
BRANCH   1  58
ATOM     58  C   UNL     1      -1.046   5.396   2.046  1.00  0.00     0.188 C 
BRANCH  58  59
ATOM     59  O   UNL     1      -1.992   4.769   1.185  1.00  0.00    -0.376 OA
BRANCH  59  60
ATOM     60  C   UNL     1      -1.913   3.358   1.034  1.00  0.00     0.202 C 
BRANCH  60  61
ATOM     61  C   UNL     1      -0.710   2.766   0.284  1.00  0.00     0.261 C 
BRANCH  61  62
ATOM     62  O   UNL     1       0.585   3.274   0.651  1.00  0.00    -0.463 OA
BRANCH  62  63
ATOM     63  C   UNL     1       1.121   4.184  -0.212  1.00  0.00     0.318 C 
ATOM     64  O   UNL     1       0.532   4.608  -1.204  1.00  0.00    -0.251 OA
BRANCH  63  65
ATOM     65  C   UNL     1       2.556   4.605   0.143  1.00  0.00     0.122 C 
ATOM     66  C   UNL     1       2.592   6.153   0.086  1.00  0.00     0.031 C 
ATOM     67  C   UNL     1       2.917   4.198   1.587  1.00  0.00     0.279 C 
ATOM     68  C   UNL     1       3.844   6.789   0.693  1.00  0.00     0.063 C 
ATOM     69  N   UNL     1       4.214   4.709   2.037  1.00  0.00    -0.345 N 
ATOM     70  C   UNL     1       4.270   6.168   2.021  1.00  0.00     0.260 C 
ATOM     71  H   UNL     1       4.382   4.385   2.990  1.00  0.00     0.346 HD
ATOM     72  H   UNL     1       4.927   4.362   1.396  1.00  0.00     0.346 HD
BRANCH  65  73
ATOM     73  C   UNL     1       3.416   3.877  -0.936  1.00  0.00     0.082 C 
BRANCH  73  74
ATOM     74  C   UNL     1       4.828   4.318  -1.112  1.00  0.00     0.061 A 
ATOM     75  C   UNL     1       5.947   3.983  -0.382  1.00  0.00     0.116 A 
ATOM     76  N   UNL     1       5.162   5.213  -2.108  1.00  0.00    -0.234 NA
ATOM     77  N   UNL     1       6.931   4.837  -0.797  1.00  0.00    -0.307 N 
ATOM     78  C   UNL     1       6.422   5.529  -1.889  1.00  0.00     0.136 A 
ATOM     79  C   UNL     1       8.185   5.075  -0.243  1.00  0.00     0.093 A 
ATOM     80  C   UNL     1       7.278   6.486  -2.501  1.00  0.00     0.048 A 
ATOM     81  C   UNL     1       8.970   6.019  -0.791  1.00  0.00     0.018 A 
ATOM     82  C   UNL     1       8.493   6.730  -1.970  1.00  0.00     0.005 A 
ENDBRANCH  73  74
ENDBRANCH  65  73
ENDBRANCH  63  65
ENDBRANCH  62  63
ENDBRANCH  61  62
ENDBRANCH  60  61
ENDBRANCH  59  60
ENDBRANCH  58  59
ENDBRANCH   1  58
TORSDOF 19
