REMARK SMILES Cc1ccc(S(=O)(=O)n2cc(C(=O)C(=O)NCC(=O)NCC(=O)OCCOCCOCCOC(=O)c3ccc(-c4c5nc(c(-c6ccccc6)c6ccc([nH]6)c(-c6ccccc6)c6nc(c(-c7ccccc7)c7ccc4[nH]7)C=C6)C=C5)cc3)c3ccccc32)cc1
REMARK SMILES IDX 26 1 25 2 24 3 22 4 23 5 21 6 20 7 18 8 19 9 17 11 16 12
REMARK SMILES IDX 14 13 15 14 12 16 13 17 11 18 9 19 10 20 89 21 84 22 88 23
REMARK SMILES IDX 85 24 87 25 86 26 6 27 7 28 8 29 5 30 1 31 2 32 3 33 91 34
REMARK SMILES IDX 4 35 90 36 27 37 28 38 29 39 30 40 31 41 32 42 33 43 34 44
REMARK SMILES IDX 35 45 36 46 37 47 83 48 38 49 82 50 39 51 40 52 41 53 76 54
REMARK SMILES IDX 42 55 81 56 75 57 77 58 43 59 80 60 74 61 73 62 44 64 66 65
REMARK SMILES IDX 51 66 65 67 52 68 55 69 64 70 78 71 53 72 54 73 63 75 79 76
REMARK SMILES IDX 56 77 45 78 46 79 50 80 47 81 49 82 48 83 67 84 68 85 72 86
REMARK SMILES IDX 69 87 71 88 70 89 57 90 58 91 62 92 59 93 61 94 60 95
REMARK H PARENT 20 10 16 15 77 63 55 74
REMARK Flexibility Score: inf
ROOT
ATOM      1  C   UNL     1     -12.623   0.303   2.127  1.00  0.00     0.202 C 
ENDROOT
BRANCH   1   2
ATOM      2  C   UNL     1     -11.562   1.404   2.274  1.00  0.00     0.261 C 
BRANCH   2   3
ATOM      3  O   UNL     1     -11.337   2.563   0.959  1.00  0.00    -0.462 OA
BRANCH   3   4
ATOM      4  C   UNL     1     -10.637   3.479   0.003  1.00  0.00     0.325 C 
ATOM      5  O   UNL     1     -11.391   4.039  -0.803  1.00  0.00    -0.250 OA
BRANCH   4   6
ATOM      6  C   UNL     1      -8.927   4.074  -0.020  1.00  0.00     0.238 C 
BRANCH   6   7
ATOM      7  N   UNL     1      -8.560   5.643  -0.020  1.00  0.00    -0.344 N 
ATOM      8  C   UNL     1      -8.331   6.640   0.922  1.00  0.00     0.239 C 
ATOM      9  O   UNL     1      -9.037   7.657   0.856  1.00  0.00    -0.273 OA
ATOM     10  H   UNL     1      -8.476   5.990  -0.937  1.00  0.00     0.164 HD
BRANCH   8  11
ATOM     11  C   UNL     1      -7.147   6.681   1.887  1.00  0.00     0.216 C 
BRANCH  11  12
ATOM     12  N   UNL     1      -6.778   5.357   2.259  1.00  0.00    -0.340 N 
ATOM     13  C   UNL     1      -5.743   4.548   1.931  1.00  0.00     0.292 C 
ATOM     14  O   UNL     1      -5.606   3.505   2.553  1.00  0.00    -0.265 OA
ATOM     15  H   UNL     1      -7.411   4.941   2.888  1.00  0.00     0.164 HD
BRANCH  13  16
ATOM     16  C   UNL     1      -4.879   4.857   0.725  1.00  0.00     0.252 C 
ATOM     17  O   UNL     1      -4.885   6.020   0.328  1.00  0.00    -0.283 OA
BRANCH  16  18
ATOM     18  C   UNL     1      -4.170   3.777   0.012  1.00  0.00     0.054 A 
ATOM     19  N   UNL     1      -3.090   1.522  -0.550  1.00  0.00    -0.240 N 
ATOM     20  C   UNL     1      -3.734   2.586   0.533  1.00  0.00     0.117 A 
ATOM     21  C   UNL     1      -3.166   2.644  -1.792  1.00  0.00     0.065 A 
ATOM     22  C   UNL     1      -3.795   3.837  -1.339  1.00  0.00     0.012 A 
ATOM     23  C   UNL     1      -2.652   2.691  -3.124  1.00  0.00     0.028 A 
ATOM     24  C   UNL     1      -3.967   4.940  -2.221  1.00  0.00     0.011 A 
ATOM     25  C   UNL     1      -2.750   3.843  -3.918  1.00  0.00     0.002 A 
ATOM     26  C   UNL     1      -3.414   4.961  -3.481  1.00  0.00     0.001 A 
BRANCH  19  27
ATOM     27  S   UNL     1      -3.167  -0.976  -0.503  1.00  0.00     0.268 S 
ATOM     28  O   UNL     1      -3.092  -1.738  -1.759  1.00  0.00    -0.201 OA
ATOM     29  O   UNL     1      -3.658  -1.665   0.701  1.00  0.00    -0.201 OA
BRANCH  27  30
ATOM     30  C   UNL     1      -1.798  -0.466  -0.153  1.00  0.00     0.088 A 
ATOM     31  C   UNL     1       2.918   0.291   0.376  1.00  0.00     0.044 C 
ATOM     32  C   UNL     1       1.429   0.251   0.605  1.00  0.00    -0.051 A 
ATOM     33  C   UNL     1       0.816  -1.352   0.635  1.00  0.00     0.005 A 
ATOM     34  C   UNL     1       0.541   1.664   0.288  1.00  0.00     0.005 A 
ATOM     35  C   UNL     1      -0.715  -1.772   0.278  1.00  0.00     0.022 A 
ATOM     36  C   UNL     1      -1.144   1.477  -0.125  1.00  0.00     0.022 A 
ENDBRANCH  27  30
ENDBRANCH  19  27
ENDBRANCH  16  18
ENDBRANCH  13  16
ENDBRANCH  11  12
ENDBRANCH   8  11
ENDBRANCH   6   7
ENDBRANCH   4   6
ENDBRANCH   3   4
ENDBRANCH   2   3
ENDBRANCH   1   2
BRANCH   1  37
ATOM     37  O   UNL     1     -13.607   0.373   1.124  1.00  0.00    -0.376 OA
BRANCH  37  38
ATOM     38  C   UNL     1     -13.681   1.583   0.408  1.00  0.00     0.188 C 
BRANCH  38  39
ATOM     39  C   UNL     1     -13.845   2.866   1.217  1.00  0.00     0.188 C 
BRANCH  39  40
ATOM     40  O   UNL     1     -13.396   2.848   2.565  1.00  0.00    -0.376 OA
BRANCH  40  41
ATOM     41  C   UNL     1     -14.236   2.735   3.685  1.00  0.00     0.202 C 
BRANCH  41  42
ATOM     42  C   UNL     1     -15.515   3.434   3.396  1.00  0.00     0.261 C 
BRANCH  42  43
ATOM     43  O   UNL     1     -15.370   4.885   3.177  1.00  0.00    -0.460 OA
BRANCH  43  44
ATOM     44  C   UNL     1     -14.471   5.573   2.406  1.00  0.00     0.338 C 
ATOM     45  O   UNL     1     -14.864   6.231   1.444  1.00  0.00    -0.246 OA
BRANCH  44  46
ATOM     46  C   UNL     1     -12.991   5.545   2.715  1.00  0.00     0.060 A 
ATOM     47  C   UNL     1     -12.129   5.791   1.686  1.00  0.00     0.016 A 
ATOM     48  C   UNL     1     -12.368   5.083   3.863  1.00  0.00     0.016 A 
ATOM     49  C   UNL     1     -10.845   5.202   1.716  1.00  0.00     0.010 A 
ATOM     50  C   UNL     1     -11.145   4.327   3.777  1.00  0.00     0.010 A 
ATOM     51  C   UNL     1     -10.412   4.167   2.583  1.00  0.00    -0.014 A 
BRANCH  51  52
ATOM     52  C   UNL     1      -9.346   2.728   2.386  1.00  0.00     0.031 A 
ATOM     53  C   UNL     1      -8.624   2.693   3.678  1.00  0.00     0.074 A 
ATOM     54  C   UNL     1      -9.199   1.541   1.414  1.00  0.00     0.049 A 
ATOM     55  N   UNL     1      -8.220   1.659   4.304  1.00  0.00    -0.248 NA
ATOM     56  C   UNL     1      -8.324   3.953   4.396  1.00  0.00     0.031 C 
ATOM     57  C   UNL     1      -8.913   0.039   1.617  1.00  0.00     0.029 A 
ATOM     58  N   UNL     1      -9.816   1.299   0.107  1.00  0.00    -0.354 N 
ATOM     59  C   UNL     1      -7.246   2.155   5.145  1.00  0.00     0.074 A 
ATOM     60  C   UNL     1      -7.486   3.557   5.341  1.00  0.00     0.031 C 
ATOM     61  C   UNL     1      -9.168  -0.740   0.513  1.00  0.00     0.029 A 
ATOM     62  C   UNL     1      -9.707   0.081  -0.545  1.00  0.00     0.049 A 
ATOM     63  H   UNL     1     -10.323   2.026  -0.322  1.00  0.00     0.167 HD
ATOM     64  C   UNL     1      -6.048   1.531   5.193  1.00  0.00     0.031 A 
ATOM     65  C   UNL     1      -9.539   0.065  -1.904  1.00  0.00     0.031 A 
ATOM     66  C   UNL     1      -5.978   0.499   4.166  1.00  0.00     0.049 A 
ATOM     67  C   UNL     1      -8.050   0.190  -1.976  1.00  0.00     0.074 A 
ATOM     68  C   UNL     1      -6.534  -0.759   4.044  1.00  0.00     0.029 A 
ATOM     69  N   UNL     1      -5.711   0.911   2.870  1.00  0.00    -0.354 N 
ATOM     70  N   UNL     1      -7.370   0.889  -1.098  1.00  0.00    -0.248 NA
ATOM     71  C   UNL     1      -7.292  -0.875  -2.601  1.00  0.00     0.031 C 
ATOM     72  C   UNL     1      -6.467  -1.136   2.663  1.00  0.00     0.029 A 
ATOM     73  C   UNL     1      -6.018  -0.049   1.917  1.00  0.00     0.049 A 
ATOM     74  H   UNL     1      -5.341   1.796   2.648  1.00  0.00     0.167 HD
ATOM     75  C   UNL     1      -6.524  -0.059  -0.550  1.00  0.00     0.074 A 
ATOM     76  C   UNL     1      -6.367  -1.031  -1.646  1.00  0.00     0.031 C 
ATOM     77  C   UNL     1      -5.753   0.255   0.517  1.00  0.00     0.031 A 
BRANCH  64  78
ATOM     78  C   UNL     1      -5.091   1.752   6.316  1.00  0.00    -0.014 A 
ATOM     79  C   UNL     1      -4.358   0.627   6.696  1.00  0.00     0.009 A 
ATOM     80  C   UNL     1      -5.034   2.873   7.169  1.00  0.00     0.009 A 
ATOM     81  C   UNL     1      -3.776   0.543   7.958  1.00  0.00     0.001 A 
ATOM     82  C   UNL     1      -4.451   2.796   8.436  1.00  0.00     0.001 A 
ATOM     83  C   UNL     1      -3.863   1.610   8.846  1.00  0.00     0.000 A 
ENDBRANCH  64  78
BRANCH  65  84
ATOM     84  C   UNL     1     -10.476   0.935  -2.690  1.00  0.00    -0.014 A 
ATOM     85  C   UNL     1     -11.841   0.573  -2.724  1.00  0.00     0.009 A 
ATOM     86  C   UNL     1     -10.125   2.225  -3.100  1.00  0.00     0.009 A 
ATOM     87  C   UNL     1     -12.835   1.544  -2.896  1.00  0.00     0.001 A 
ATOM     88  C   UNL     1     -11.123   3.187  -3.304  1.00  0.00     0.001 A 
ATOM     89  C   UNL     1     -12.469   2.865  -3.111  1.00  0.00     0.000 A 
ENDBRANCH  65  84
BRANCH  77  90
ATOM     90  C   UNL     1      -4.370   0.449   0.117  1.00  0.00    -0.014 A 
ATOM     91  C   UNL     1      -3.812   0.403  -1.785  1.00  0.00     0.009 A 
ATOM     92  C   UNL     1      -2.851   0.428   1.378  1.00  0.00     0.009 A 
ATOM     93  C   UNL     1      -1.885   0.256  -2.085  1.00  0.00     0.001 A 
ATOM     94  C   UNL     1      -0.923   0.224   1.133  1.00  0.00     0.001 A 
ATOM     95  C   UNL     1      -0.364   0.067  -0.886  1.00  0.00     0.000 A 
ENDBRANCH  77  90
ENDBRANCH  51  52
ENDBRANCH  44  46
ENDBRANCH  43  44
ENDBRANCH  42  43
ENDBRANCH  41  42
ENDBRANCH  40  41
ENDBRANCH  39  40
ENDBRANCH  38  39
ENDBRANCH  37  38
ENDBRANCH   1  37
TORSDOF 24
