REMARK SMILES C[C@H]1[C@H](C)CC[C@@]2(C(=O)OCCOCCOCCOC(=O)c3ccc(-c4c5nc(c(-c6ccccc6)c6ccc([nH]6)c(-c6ccccc6)c6nc(c(-c7ccccc7)c7ccc4[nH]7)C=C6)C=C5)cc3)CC[C@@]3(C)C(=CC[C@@H]4[C@@]5(C)CC[C@H](O)C(C)(C)[C@@H]5CC[C@]43C)[C@H]12
REMARK SMILES IDX 15 1 14 2 13 3 12 4 11 5 10 6 8 7 9 8 7 9 1 10 2 11 3 12
REMARK SMILES IDX 92 13 4 14 5 15 74 16 6 17 70 18 72 19 75 20 71 21 73 22
REMARK SMILES IDX 90 23 76 24 77 25 89 26 91 27 78 28 88 29 79 30 80 31 87 32
REMARK SMILES IDX 81 33 84 34 82 35 85 36 86 37 83 38 16 40 17 41 18 42 19 43
REMARK SMILES IDX 20 44 21 45 22 46 23 47 69 48 24 49 68 50 25 51 26 52 27 53
REMARK SMILES IDX 62 54 28 55 67 56 61 57 63 58 29 59 66 60 60 61 59 62 30 64
REMARK SMILES IDX 52 65 37 66 51 67 38 68 41 69 50 70 64 71 39 72 40 73 49 75
REMARK SMILES IDX 65 76 42 77 31 78 32 79 36 80 33 81 35 82 34 83 53 84 54 85
REMARK SMILES IDX 58 86 55 87 57 88 56 89 43 90 44 91 48 92 45 93 47 94 46 95
REMARK H PARENT 83 39 63 63 41 74
REMARK Flexibility Score: inf
ROOT
ATOM      1  C   UNL     1      -3.258   2.356   1.740  1.00  0.00     0.188 C 
ENDROOT
BRANCH   1   2
ATOM      2  C   UNL     1      -3.484   2.723   0.236  1.00  0.00     0.188 C 
BRANCH   2   3
ATOM      3  O   UNL     1      -3.908   1.642  -0.564  1.00  0.00    -0.376 OA
BRANCH   3   4
ATOM      4  C   UNL     1      -2.846   0.816  -0.974  1.00  0.00     0.202 C 
BRANCH   4   5
ATOM      5  C   UNL     1      -1.642   0.692  -0.045  1.00  0.00     0.261 C 
BRANCH   5   6
ATOM      6  O   UNL     1      -0.698   1.819   0.279  1.00  0.00    -0.463 OA
BRANCH   6   7
ATOM      7  C   UNL     1      -0.400   3.059   0.749  1.00  0.00     0.312 C 
ATOM      8  O   UNL     1      -1.174   3.955   1.063  1.00  0.00    -0.252 OA
BRANCH   7   9
ATOM      9  C   UNL     1       1.127   3.211   0.971  1.00  0.00     0.075 C 
ATOM     10  C   UNL     1       2.533  -0.218  -0.470  1.00  0.00     0.008 C 
ATOM     11  C   UNL     1       1.747   0.767   0.391  1.00  0.00    -0.003 C 
ATOM     12  C   UNL     1       1.958   0.498   1.931  1.00  0.00    -0.011 C 
ATOM     13  C   UNL     1       1.873   2.321  -0.070  1.00  0.00     0.036 C 
ATOM     14  C   UNL     1       1.493  -0.901   2.393  1.00  0.00     0.008 C 
ATOM     15  C   UNL     1       1.196   1.471   2.834  1.00  0.00     0.005 C 
ATOM     16  C   UNL     1       1.307   2.908  -1.464  1.00  0.00    -0.063 C 
ATOM     17  C   UNL     1       1.421   2.905   2.448  1.00  0.00     0.020 C 
ATOM     18  C   UNL     1       1.574   4.684   0.803  1.00  0.00     0.020 C 
ATOM     19  C   UNL     1       1.500   4.458  -1.774  1.00  0.00    -0.006 C 
ATOM     20  C   UNL     1       0.428   2.210  -2.213  1.00  0.00    -0.027 C 
ATOM     21  C   UNL     1       1.179   5.310  -0.517  1.00  0.00     0.013 C 
ATOM     22  C   UNL     1       2.999   4.664  -2.095  1.00  0.00     0.017 C 
ATOM     23  C   UNL     1       0.555   5.005  -3.030  1.00  0.00    -0.020 C 
ATOM     24  C   UNL     1      -0.655   2.851  -3.059  1.00  0.00     0.032 C 
ATOM     25  C   UNL     1      -0.861   4.367  -2.811  1.00  0.00     0.006 C 
ATOM     26  C   UNL     1       0.414   6.548  -3.113  1.00  0.00     0.008 C 
ATOM     27  C   UNL     1       1.182   4.577  -4.390  1.00  0.00     0.012 C 
ATOM     28  C   UNL     1      -2.168   5.020  -3.507  1.00  0.00    -0.025 C 
ATOM     29  C   UNL     1      -0.670   7.020  -4.109  1.00  0.00     0.005 C 
ATOM     30  C   UNL     1      -2.454   4.292  -4.834  1.00  0.00     0.012 C 
ATOM     31  C   UNL     1      -3.424   4.807  -2.587  1.00  0.00     0.010 C 
ATOM     32  C   UNL     1      -2.059   6.587  -3.627  1.00  0.00     0.003 C 
ATOM     33  C   UNL     1      -4.713   5.483  -3.084  1.00  0.00     0.033 C 
ATOM     34  C   UNL     1      -3.312   7.314  -4.291  1.00  0.00    -0.006 C 
ATOM     35  C   UNL     1      -4.555   6.968  -3.420  1.00  0.00     0.120 C 
ATOM     36  C   UNL     1      -3.535   7.004  -5.786  1.00  0.00     0.014 C 
ATOM     37  C   UNL     1      -3.167   8.857  -4.251  1.00  0.00     0.014 C 
BRANCH  35  38
ATOM     38  O   UNL     1      -5.770   7.454  -3.992  1.00  0.00    -0.393 OA
ATOM     39  H   UNL     1      -5.941   6.993  -4.828  1.00  0.00     0.210 HD
ENDBRANCH  35  38
ENDBRANCH   7   9
ENDBRANCH   6   7
ENDBRANCH   5   6
ENDBRANCH   4   5
ENDBRANCH   3   4
ENDBRANCH   2   3
ENDBRANCH   1   2
BRANCH   1  40
ATOM     40  O   UNL     1      -3.876   1.200   2.282  1.00  0.00    -0.376 OA
BRANCH  40  41
ATOM     41  C   UNL     1      -5.175   0.889   1.835  1.00  0.00     0.202 C 
BRANCH  41  42
ATOM     42  C   UNL     1      -6.250   1.986   1.957  1.00  0.00     0.261 C 
BRANCH  42  43
ATOM     43  O   UNL     1      -5.936   3.303   1.427  1.00  0.00    -0.460 OA
BRANCH  43  44
ATOM     44  C   UNL     1      -5.569   4.278   2.314  1.00  0.00     0.338 C 
ATOM     45  O   UNL     1      -5.570   4.172   3.523  1.00  0.00    -0.246 OA
BRANCH  44  46
ATOM     46  C   UNL     1      -4.976   5.478   1.620  1.00  0.00     0.060 A 
ATOM     47  C   UNL     1      -3.708   5.960   2.005  1.00  0.00     0.016 A 
ATOM     48  C   UNL     1      -5.687   6.185   0.656  1.00  0.00     0.016 A 
ATOM     49  C   UNL     1      -3.192   7.174   1.498  1.00  0.00     0.010 A 
ATOM     50  C   UNL     1      -5.179   7.408   0.168  1.00  0.00     0.010 A 
ATOM     51  C   UNL     1      -3.952   7.950   0.620  1.00  0.00    -0.014 A 
BRANCH  51  52
ATOM     52  C   UNL     1      -3.662   9.409   0.373  1.00  0.00     0.031 A 
ATOM     53  C   UNL     1      -4.597  10.417   1.008  1.00  0.00     0.074 A 
ATOM     54  C   UNL     1      -2.641   9.898  -0.363  1.00  0.00     0.049 A 
ATOM     55  N   UNL     1      -4.699  11.709   0.816  1.00  0.00    -0.248 NA
ATOM     56  C   UNL     1      -5.535   9.883   2.009  1.00  0.00     0.031 C 
ATOM     57  C   UNL     1      -1.542   9.129  -0.931  1.00  0.00     0.029 A 
ATOM     58  N   UNL     1      -2.399  11.187  -0.807  1.00  0.00    -0.354 N 
ATOM     59  C   UNL     1      -5.714  12.136   1.664  1.00  0.00     0.074 A 
ATOM     60  C   UNL     1      -6.238  10.959   2.322  1.00  0.00     0.031 C 
ATOM     61  C   UNL     1      -0.803   9.931  -1.724  1.00  0.00     0.029 A 
ATOM     62  C   UNL     1      -1.381  11.274  -1.733  1.00  0.00     0.049 A 
ATOM     63  H   UNL     1      -2.905  11.970  -0.490  1.00  0.00     0.167 HD
ATOM     64  C   UNL     1      -6.159  13.391   1.910  1.00  0.00     0.031 A 
ATOM     65  C   UNL     1      -0.984  12.293  -2.529  1.00  0.00     0.031 A 
ATOM     66  C   UNL     1      -5.659  14.580   1.274  1.00  0.00     0.049 A 
ATOM     67  C   UNL     1      -1.624  13.653  -2.397  1.00  0.00     0.074 A 
ATOM     68  C   UNL     1      -6.035  15.894   1.492  1.00  0.00     0.029 A 
ATOM     69  N   UNL     1      -4.685  14.601   0.291  1.00  0.00    -0.354 N 
ATOM     70  N   UNL     1      -2.571  14.045  -1.581  1.00  0.00    -0.248 NA
ATOM     71  C   UNL     1      -1.105  14.723  -3.267  1.00  0.00     0.031 C 
ATOM     72  C   UNL     1      -5.338  16.705   0.591  1.00  0.00     0.029 A 
ATOM     73  C   UNL     1      -4.473  15.903  -0.134  1.00  0.00     0.049 A 
ATOM     74  H   UNL     1      -4.212  13.809  -0.054  1.00  0.00     0.167 HD
ATOM     75  C   UNL     1      -2.708  15.414  -1.788  1.00  0.00     0.074 A 
ATOM     76  C   UNL     1      -1.763  15.783  -2.818  1.00  0.00     0.031 C 
ATOM     77  C   UNL     1      -3.529  16.285  -1.152  1.00  0.00     0.031 A 
BRANCH  64  78
ATOM     78  C   UNL     1      -7.274  13.536   2.909  1.00  0.00    -0.014 A 
ATOM     79  C   UNL     1      -7.065  13.289   4.276  1.00  0.00     0.009 A 
ATOM     80  C   UNL     1      -8.547  13.938   2.478  1.00  0.00     0.009 A 
ATOM     81  C   UNL     1      -8.121  13.395   5.183  1.00  0.00     0.001 A 
ATOM     82  C   UNL     1      -9.592  14.078   3.392  1.00  0.00     0.001 A 
ATOM     83  C   UNL     1      -9.382  13.794   4.740  1.00  0.00     0.000 A 
ENDBRANCH  64  78
BRANCH  65  84
ATOM     84  C   UNL     1       0.073  12.090  -3.563  1.00  0.00    -0.014 A 
ATOM     85  C   UNL     1       1.355  12.637  -3.410  1.00  0.00     0.009 A 
ATOM     86  C   UNL     1      -0.226  11.414  -4.756  1.00  0.00     0.009 A 
ATOM     87  C   UNL     1       2.306  12.518  -4.430  1.00  0.00     0.001 A 
ATOM     88  C   UNL     1       0.735  11.264  -5.760  1.00  0.00     0.001 A 
ATOM     89  C   UNL     1       2.000  11.823  -5.599  1.00  0.00     0.000 A 
ENDBRANCH  65  84
BRANCH  77  90
ATOM     90  C   UNL     1      -3.399  17.748  -1.484  1.00  0.00    -0.014 A 
ATOM     91  C   UNL     1      -3.815  18.271  -2.717  1.00  0.00     0.009 A 
ATOM     92  C   UNL     1      -2.890  18.630  -0.514  1.00  0.00     0.009 A 
ATOM     93  C   UNL     1      -3.694  19.638  -2.984  1.00  0.00     0.001 A 
ATOM     94  C   UNL     1      -2.801  19.999  -0.770  1.00  0.00     0.001 A 
ATOM     95  C   UNL     1      -3.194  20.501  -2.009  1.00  0.00     0.000 A 
ENDBRANCH  77  90
ENDBRANCH  51  52
ENDBRANCH  44  46
ENDBRANCH  43  44
ENDBRANCH  42  43
ENDBRANCH  41  42
ENDBRANCH  40  41
ENDBRANCH   1  40
TORSDOF 18
