REMARK SMILES CC[NH+]1CC[NH+]([C@@H]2CC(=O)N(c3ccc(C(=O)OCCOCCOCCOC(=O)c4ccc(-c5c6nc(c(-c7ccccc7)c7ccc([nH]7)c(-c7ccccc7)c7nc(c(-c8ccccc8)c8ccc5[nH]8)C=C7)C=C6)cc4)cc3)C2=O)CC1
REMARK SMILES IDX 22 1 21 2 20 3 19 4 18 5 16 6 17 7 15 8 12 9 13 10 79 11
REMARK SMILES IDX 14 12 78 13 11 14 7 15 8 16 80 17 9 18 81 19 10 20 6 21 3 22
REMARK SMILES IDX 4 23 83 24 5 26 82 27 2 29 1 30 23 31 24 32 25 33 26 34
REMARK SMILES IDX 27 35 28 36 29 37 30 38 31 39 77 40 32 41 76 42 33 43 34 44
REMARK SMILES IDX 35 45 70 46 36 47 75 48 69 49 71 50 37 51 74 52 68 53 67 54
REMARK SMILES IDX 38 56 60 57 45 58 59 59 46 60 49 61 58 62 72 63 47 64 48 65
REMARK SMILES IDX 57 67 73 68 50 69 39 70 40 71 44 72 41 73 43 74 42 75 61 76
REMARK SMILES IDX 62 77 66 78 63 79 65 80 64 81 51 82 52 83 56 84 53 85 55 86
REMARK SMILES IDX 54 87
REMARK H PARENT 3 25 6 28 71 55 49 66
REMARK Flexibility Score: inf
ROOT
ATOM      1  C   UNL     1      -6.172   2.979  10.335  1.00  0.00     0.188 C 
ENDROOT
BRANCH   1   2
ATOM      2  O   UNL     1      -6.838   2.569  11.515  1.00  0.00    -0.376 OA
BRANCH   2   3
ATOM      3  C   UNL     1      -6.101   2.114  12.639  1.00  0.00     0.202 C 
BRANCH   3   4
ATOM      4  C   UNL     1      -4.904   1.161  12.507  1.00  0.00     0.261 C 
BRANCH   4   5
ATOM      5  O   UNL     1      -3.958   1.510  11.493  1.00  0.00    -0.460 OA
BRANCH   5   6
ATOM      6  C   UNL     1      -3.886   0.639  10.451  1.00  0.00     0.338 C 
ATOM      7  O   UNL     1      -4.499  -0.394  10.309  1.00  0.00    -0.246 OA
BRANCH   6   8
ATOM      8  C   UNL     1      -3.073   1.247   9.376  1.00  0.00     0.060 A 
ATOM      9  C   UNL     1      -1.569   2.294   7.254  1.00  0.00     0.052 A 
ATOM     10  C   UNL     1      -2.857   1.790   7.026  1.00  0.00     0.028 A 
ATOM     11  C   UNL     1      -1.083   2.336   8.571  1.00  0.00     0.028 A 
ATOM     12  C   UNL     1      -3.591   1.236   8.076  1.00  0.00     0.018 A 
ATOM     13  C   UNL     1      -1.837   1.834   9.635  1.00  0.00     0.018 A 
BRANCH   9  14
ATOM     14  N   UNL     1      -0.736   2.640   6.160  1.00  0.00    -0.245 N 
ATOM     15  C   UNL     1      -0.043   3.123   3.960  1.00  0.00     0.285 C 
ATOM     16  C   UNL     1       1.157   2.683   4.783  1.00  0.00     0.176 C 
ATOM     17  C   UNL     1      -1.188   3.161   4.969  1.00  0.00     0.292 C 
ATOM     18  C   UNL     1       0.610   2.375   6.137  1.00  0.00     0.240 C 
ATOM     19  O   UNL     1      -2.308   3.597   4.727  1.00  0.00    -0.267 OA
ATOM     20  O   UNL     1       1.309   1.895   7.021  1.00  0.00    -0.274 OA
BRANCH  15  21
ATOM     21  N   UNL     1      -0.413   2.369   2.746  1.00  0.00    -0.315 N 
ATOM     22  N   UNL     1       0.972  -0.190   1.943  1.00  0.00    -0.326 N 
ATOM     23  C   UNL     1       1.587   1.132   1.742  1.00  0.00     0.324 C 
ATOM     24  C   UNL     1      -0.018  -0.134   3.040  1.00  0.00     0.324 C 
ATOM     25  H   UNL     1       1.755  -0.798   2.184  1.00  0.00     0.348 HD
ATOM     26  C   UNL     1       0.614   2.333   1.693  1.00  0.00     0.325 C 
ATOM     27  C   UNL     1      -1.018   1.041   2.930  1.00  0.00     0.325 C 
ATOM     28  H   UNL     1      -1.176   2.960   2.418  1.00  0.00     0.349 HD
BRANCH  22  29
ATOM     29  C   UNL     1       0.373  -0.815   0.753  1.00  0.00     0.259 C 
ATOM     30  C   UNL     1       1.066  -0.561  -0.580  1.00  0.00     0.071 C 
ENDBRANCH  22  29
ENDBRANCH  15  21
ENDBRANCH   9  14
ENDBRANCH   6   8
ENDBRANCH   5   6
ENDBRANCH   4   5
ENDBRANCH   3   4
ENDBRANCH   2   3
ENDBRANCH   1   2
BRANCH   1  31
ATOM     31  C   UNL     1      -5.083   4.071  10.377  1.00  0.00     0.188 C 
BRANCH  31  32
ATOM     32  O   UNL     1      -4.670   4.558  11.630  1.00  0.00    -0.376 OA
BRANCH  32  33
ATOM     33  C   UNL     1      -5.463   5.486  12.350  1.00  0.00     0.202 C 
BRANCH  33  34
ATOM     34  C   UNL     1      -6.717   6.213  11.829  1.00  0.00     0.261 C 
BRANCH  34  35
ATOM     35  O   UNL     1      -7.365   5.697  10.666  1.00  0.00    -0.460 OA
BRANCH  35  36
ATOM     36  C   UNL     1      -7.202   6.429   9.537  1.00  0.00     0.338 C 
ATOM     37  O   UNL     1      -6.536   7.439   9.393  1.00  0.00    -0.246 OA
BRANCH  36  38
ATOM     38  C   UNL     1      -7.848   5.718   8.420  1.00  0.00     0.060 A 
ATOM     39  C   UNL     1      -7.046   5.183   7.403  1.00  0.00     0.016 A 
ATOM     40  C   UNL     1      -9.238   5.613   8.364  1.00  0.00     0.016 A 
ATOM     41  C   UNL     1      -7.638   4.549   6.311  1.00  0.00     0.010 A 
ATOM     42  C   UNL     1      -9.829   4.998   7.259  1.00  0.00     0.010 A 
ATOM     43  C   UNL     1      -9.035   4.485   6.217  1.00  0.00    -0.014 A 
BRANCH  43  44
ATOM     44  C   UNL     1      -9.680   4.037   4.960  1.00  0.00     0.031 A 
ATOM     45  C   UNL     1     -10.157   5.079   3.987  1.00  0.00     0.074 A 
ATOM     46  C   UNL     1      -9.856   2.732   4.692  1.00  0.00     0.049 A 
ATOM     47  N   UNL     1     -10.839   4.932   2.881  1.00  0.00    -0.248 NA
ATOM     48  C   UNL     1      -9.822   6.476   4.311  1.00  0.00     0.031 C 
ATOM     49  C   UNL     1      -9.399   1.624   5.528  1.00  0.00     0.029 A 
ATOM     50  N   UNL     1     -10.490   2.122   3.638  1.00  0.00    -0.354 N 
ATOM     51  C   UNL     1     -11.022   6.215   2.381  1.00  0.00     0.074 A 
ATOM     52  C   UNL     1     -10.405   7.129   3.317  1.00  0.00     0.031 C 
ATOM     53  C   UNL     1      -9.787   0.466   4.964  1.00  0.00     0.029 A 
ATOM     54  C   UNL     1     -10.552   0.755   3.752  1.00  0.00     0.049 A 
ATOM     55  H   UNL     1     -10.864   2.617   2.874  1.00  0.00     0.167 HD
ATOM     56  C   UNL     1     -11.644   6.599   1.241  1.00  0.00     0.031 A 
ATOM     57  C   UNL     1     -11.183  -0.155   2.983  1.00  0.00     0.031 A 
ATOM     58  C   UNL     1     -12.279   5.693   0.322  1.00  0.00     0.049 A 
ATOM     59  C   UNL     1     -11.953   0.305   1.772  1.00  0.00     0.074 A 
ATOM     60  C   UNL     1     -12.936   5.986  -0.861  1.00  0.00     0.029 A 
ATOM     61  N   UNL     1     -12.343   4.319   0.488  1.00  0.00    -0.354 N 
ATOM     62  N   UNL     1     -12.104   1.517   1.296  1.00  0.00    -0.248 NA
ATOM     63  C   UNL     1     -12.637  -0.735   0.987  1.00  0.00     0.031 C 
ATOM     64  C   UNL     1     -13.448   4.793  -1.381  1.00  0.00     0.029 A 
ATOM     65  C   UNL     1     -13.052   3.751  -0.557  1.00  0.00     0.049 A 
ATOM     66  H   UNL     1     -11.944   3.821   1.237  1.00  0.00     0.167 HD
ATOM     67  C   UNL     1     -12.870   1.382   0.143  1.00  0.00     0.074 A 
ATOM     68  C   UNL     1     -13.141  -0.031  -0.016  1.00  0.00     0.031 C 
ATOM     69  C   UNL     1     -13.307   2.342  -0.708  1.00  0.00     0.031 A 
BRANCH  56  70
ATOM     70  C   UNL     1     -11.697   8.072   0.947  1.00  0.00    -0.014 A 
ATOM     71  C   UNL     1     -10.545   8.783   0.575  1.00  0.00     0.009 A 
ATOM     72  C   UNL     1     -12.922   8.752   1.018  1.00  0.00     0.009 A 
ATOM     73  C   UNL     1     -10.614  10.153   0.314  1.00  0.00     0.001 A 
ATOM     74  C   UNL     1     -12.994  10.115   0.726  1.00  0.00     0.001 A 
ATOM     75  C   UNL     1     -11.839  10.816   0.384  1.00  0.00     0.000 A 
ENDBRANCH  56  70
BRANCH  57  76
ATOM     76  C   UNL     1     -11.151  -1.596   3.352  1.00  0.00    -0.014 A 
ATOM     77  C   UNL     1     -10.476  -2.528   2.549  1.00  0.00     0.009 A 
ATOM     78  C   UNL     1     -11.829  -2.052   4.494  1.00  0.00     0.009 A 
ATOM     79  C   UNL     1     -10.506  -3.888   2.865  1.00  0.00     0.001 A 
ATOM     80  C   UNL     1     -11.830  -3.408   4.825  1.00  0.00     0.001 A 
ATOM     81  C   UNL     1     -11.178  -4.327   4.005  1.00  0.00     0.000 A 
ENDBRANCH  57  76
BRANCH  69  82
ATOM     82  C   UNL     1     -14.082   1.899  -1.919  1.00  0.00    -0.014 A 
ATOM     83  C   UNL     1     -15.398   1.424  -1.814  1.00  0.00     0.009 A 
ATOM     84  C   UNL     1     -13.501   2.014  -3.192  1.00  0.00     0.009 A 
ATOM     85  C   UNL     1     -16.105   1.046  -2.958  1.00  0.00     0.001 A 
ATOM     86  C   UNL     1     -14.221   1.666  -4.336  1.00  0.00     0.001 A 
ATOM     87  C   UNL     1     -15.519   1.174  -4.217  1.00  0.00     0.000 A 
ENDBRANCH  69  82
ENDBRANCH  43  44
ENDBRANCH  36  38
ENDBRANCH  35  36
ENDBRANCH  34  35
ENDBRANCH  33  34
ENDBRANCH  32  33
ENDBRANCH  31  32
ENDBRANCH   1  31
TORSDOF 20
