REMARK SMILES Cc1ccnc(C(=O)c2[nH]c3cc(F)ccc3c2CC(=O)OCCOCCOCCOC(=O)c2ccc(-c3c4nc(c(-c5ccccc5)c5ccc([nH]5)c(-c5ccccc5)c5nc(c(-c6ccccc6)c6ccc3[nH]6)C=C5)C=C4)cc2)c1
REMARK SMILES IDX 26 1 25 2 24 3 23 4 22 5 20 6 21 7 19 8 18 9 9 10 10 11
REMARK SMILES IDX 11 12 17 14 12 15 16 16 13 17 15 18 14 19 7 20 8 21 6 22
REMARK SMILES IDX 1 23 2 24 3 25 82 26 4 27 5 28 27 29 28 30 29 31 30 32 31 33
REMARK SMILES IDX 32 34 33 35 34 36 35 37 81 38 36 39 80 40 37 41 38 42 39 43
REMARK SMILES IDX 74 44 40 45 79 46 73 47 75 48 41 49 78 50 72 51 71 52 42 54
REMARK SMILES IDX 64 55 49 56 63 57 50 58 53 59 62 60 76 61 51 62 52 63 61 65
REMARK SMILES IDX 77 66 54 67 43 68 44 69 48 70 45 71 47 72 46 73 65 74 66 75
REMARK SMILES IDX 70 76 67 77 69 78 68 79 55 80 56 81 60 82 57 83 59 84 58 85
REMARK H PARENT 10 13 75 53 53 64
REMARK Flexibility Score: inf
ROOT
ATOM      1  C   UNL     1       4.777  -3.252   0.520  1.00  0.00     0.188 C 
ENDROOT
BRANCH   1   2
ATOM      2  O   UNL     1       5.987  -3.987   0.669  1.00  0.00    -0.376 OA
BRANCH   2   3
ATOM      3  C   UNL     1       5.920  -5.402   0.544  1.00  0.00     0.202 C 
BRANCH   3   4
ATOM      4  C   UNL     1       5.082  -6.112   1.607  1.00  0.00     0.261 C 
BRANCH   4   5
ATOM      5  O   UNL     1       3.670  -5.819   1.484  1.00  0.00    -0.463 OA
BRANCH   5   6
ATOM      6  C   UNL     1       3.007  -5.649   2.655  1.00  0.00     0.310 C 
ATOM      7  O   UNL     1       3.537  -5.795   3.756  1.00  0.00    -0.252 OA
BRANCH   6   8
ATOM      8  C   UNL     1       1.554  -5.234   2.559  1.00  0.00     0.161 C 
BRANCH   8   9
ATOM      9  C   UNL     1       0.828  -5.218   1.234  1.00  0.00     0.000 A 
ATOM     10  C   UNL     1       0.440  -4.098   0.485  1.00  0.00     0.093 A 
ATOM     11  N   UNL     1      -0.208  -4.564  -0.637  1.00  0.00    -0.351 N 
ATOM     12  C   UNL     1      -0.525  -5.890  -0.485  1.00  0.00     0.049 A 
ATOM     13  H   UNL     1      -0.415  -4.023  -1.433  1.00  0.00     0.167 HD
ATOM     14  C   UNL     1       0.144  -6.341   0.652  1.00  0.00     0.004 A 
ATOM     15  C   UNL     1      -1.366  -6.704  -1.252  1.00  0.00     0.066 A 
ATOM     16  C   UNL     1      -0.035  -7.686   1.044  1.00  0.00     0.013 A 
ATOM     17  C   UNL     1      -1.558  -8.009  -0.807  1.00  0.00     0.125 A 
ATOM     18  C   UNL     1      -0.908  -8.504   0.316  1.00  0.00     0.040 A 
ATOM     19  F   UNL     1      -2.411  -8.802  -1.470  1.00  0.00    -0.207 F 
BRANCH  10  20
ATOM     20  C   UNL     1       0.647  -2.690   0.777  1.00  0.00     0.227 C 
ATOM     21  O   UNL     1       1.429  -2.295   1.640  1.00  0.00    -0.285 OA
BRANCH  20  22
ATOM     22  C   UNL     1      -0.141  -1.662   0.037  1.00  0.00     0.113 A 
ATOM     23  C   UNL     1      -3.485   0.095   0.223  1.00  0.00     0.044 C 
ATOM     24  C   UNL     1      -2.083  -0.277  -0.161  1.00  0.00    -0.047 A 
ATOM     25  C   UNL     1      -1.343   0.552  -1.008  1.00  0.00     0.023 A 
ATOM     26  C   UNL     1      -1.460  -1.402   0.392  1.00  0.00     0.036 A 
ATOM     27  C   UNL     1      -0.051   0.181  -1.340  1.00  0.00     0.112 A 
ATOM     28  N   UNL     1       0.556  -0.926  -0.861  1.00  0.00    -0.253 NA
ENDBRANCH  20  22
ENDBRANCH  10  20
ENDBRANCH   8   9
ENDBRANCH   6   8
ENDBRANCH   5   6
ENDBRANCH   4   5
ENDBRANCH   3   4
ENDBRANCH   2   3
ENDBRANCH   1   2
BRANCH   1  29
ATOM     29  C   UNL     1       3.814  -3.645  -0.620  1.00  0.00     0.188 C 
BRANCH  29  30
ATOM     30  O   UNL     1       4.356  -4.200  -1.813  1.00  0.00    -0.376 OA
BRANCH  30  31
ATOM     31  C   UNL     1       5.401  -3.473  -2.446  1.00  0.00     0.202 C 
BRANCH  31  32
ATOM     32  C   UNL     1       4.983  -2.088  -2.928  1.00  0.00     0.261 C 
BRANCH  32  33
ATOM     33  O   UNL     1       4.814  -1.199  -1.809  1.00  0.00    -0.460 OA
BRANCH  33  34
ATOM     34  C   UNL     1       4.096  -0.091  -2.095  1.00  0.00     0.338 C 
ATOM     35  O   UNL     1       3.694   0.251  -3.196  1.00  0.00    -0.246 OA
BRANCH  34  36
ATOM     36  C   UNL     1       3.812   0.700  -0.879  1.00  0.00     0.060 A 
ATOM     37  C   UNL     1       3.139   0.130   0.196  1.00  0.00     0.016 A 
ATOM     38  C   UNL     1       3.991   2.081  -0.922  1.00  0.00     0.016 A 
ATOM     39  C   UNL     1       2.490   0.944   1.128  1.00  0.00     0.010 A 
ATOM     40  C   UNL     1       3.426   2.891   0.071  1.00  0.00     0.010 A 
ATOM     41  C   UNL     1       2.596   2.339   1.063  1.00  0.00    -0.014 A 
BRANCH  41  42
ATOM     42  C   UNL     1       1.759   3.215   1.939  1.00  0.00     0.031 A 
ATOM     43  C   UNL     1       0.806   4.220   1.324  1.00  0.00     0.074 A 
ATOM     44  C   UNL     1       1.787   3.093   3.282  1.00  0.00     0.049 A 
ATOM     45  N   UNL     1       0.111   5.169   1.904  1.00  0.00    -0.248 NA
ATOM     46  C   UNL     1       0.604   4.146  -0.133  1.00  0.00     0.031 C 
ATOM     47  C   UNL     1       2.572   2.112   4.033  1.00  0.00     0.029 A 
ATOM     48  N   UNL     1       1.123   3.800   4.257  1.00  0.00    -0.354 N 
ATOM     49  C   UNL     1      -0.574   5.823   0.885  1.00  0.00     0.074 A 
ATOM     50  C   UNL     1      -0.208   5.171  -0.353  1.00  0.00     0.031 C 
ATOM     51  C   UNL     1       2.315   2.253   5.342  1.00  0.00     0.029 A 
ATOM     52  C   UNL     1       1.431   3.397   5.534  1.00  0.00     0.049 A 
ATOM     53  H   UNL     1       0.487   4.525   4.059  1.00  0.00     0.167 HD
ATOM     54  C   UNL     1      -1.428   6.873   0.967  1.00  0.00     0.031 A 
ATOM     55  C   UNL     1       1.092   3.915   6.731  1.00  0.00     0.031 A 
ATOM     56  C   UNL     1      -1.805   7.529   2.191  1.00  0.00     0.049 A 
ATOM     57  C   UNL     1       0.243   5.154   6.786  1.00  0.00     0.074 A 
ATOM     58  C   UNL     1      -2.628   8.630   2.363  1.00  0.00     0.029 A 
ATOM     59  N   UNL     1      -1.393   7.140   3.455  1.00  0.00    -0.354 N 
ATOM     60  N   UNL     1      -0.329   5.811   5.808  1.00  0.00    -0.248 NA
ATOM     61  C   UNL     1       0.012   5.733   8.118  1.00  0.00     0.031 C 
ATOM     62  C   UNL     1      -2.674   8.937   3.727  1.00  0.00     0.029 A 
ATOM     63  C   UNL     1      -1.927   7.992   4.409  1.00  0.00     0.049 A 
ATOM     64  H   UNL     1      -0.807   6.373   3.647  1.00  0.00     0.167 HD
ATOM     65  C   UNL     1      -0.993   6.874   6.406  1.00  0.00     0.074 A 
ATOM     66  C   UNL     1      -0.784   6.753   7.833  1.00  0.00     0.031 C 
ATOM     67  C   UNL     1      -1.704   7.871   5.824  1.00  0.00     0.031 A 
BRANCH  54  68
ATOM     68  C   UNL     1      -1.988   7.419  -0.318  1.00  0.00    -0.014 A 
ATOM     69  C   UNL     1      -3.012   6.756  -1.011  1.00  0.00     0.009 A 
ATOM     70  C   UNL     1      -1.528   8.654  -0.804  1.00  0.00     0.009 A 
ATOM     71  C   UNL     1      -3.551   7.311  -2.174  1.00  0.00     0.001 A 
ATOM     72  C   UNL     1      -2.084   9.217  -1.953  1.00  0.00     0.001 A 
ATOM     73  C   UNL     1      -3.092   8.543  -2.640  1.00  0.00     0.000 A 
ENDBRANCH  54  68
BRANCH  55  74
ATOM     74  C   UNL     1       1.632   3.321   7.984  1.00  0.00    -0.014 A 
ATOM     75  C   UNL     1       0.778   2.732   8.929  1.00  0.00     0.009 A 
ATOM     76  C   UNL     1       3.009   3.376   8.258  1.00  0.00     0.009 A 
ATOM     77  C   UNL     1       1.289   2.234  10.131  1.00  0.00     0.001 A 
ATOM     78  C   UNL     1       3.521   2.842   9.441  1.00  0.00     0.001 A 
ATOM     79  C   UNL     1       2.660   2.283  10.382  1.00  0.00     0.000 A 
ENDBRANCH  55  74
BRANCH  67  80
ATOM     80  C   UNL     1      -2.326   8.885   6.742  1.00  0.00    -0.014 A 
ATOM     81  C   UNL     1      -1.539   9.826   7.427  1.00  0.00     0.009 A 
ATOM     82  C   UNL     1      -3.716   8.891   6.936  1.00  0.00     0.009 A 
ATOM     83  C   UNL     1      -2.127  10.716   8.327  1.00  0.00     0.001 A 
ATOM     84  C   UNL     1      -4.304   9.803   7.814  1.00  0.00     0.001 A 
ATOM     85  C   UNL     1      -3.508  10.704   8.519  1.00  0.00     0.000 A 
ENDBRANCH  67  80
ENDBRANCH  41  42
ENDBRANCH  34  36
ENDBRANCH  33  34
ENDBRANCH  32  33
ENDBRANCH  31  32
ENDBRANCH  30  31
ENDBRANCH  29  30
ENDBRANCH   1  29
TORSDOF 20
