REMARK SMILES Cc1nn([C@H]2CCS(=O)(=O)C2)c(C)c1/C=C(\CC(=O)OCCOCCOCCOC(=O)c1ccc(-c2c3nc(c(-c4ccccc4)c4ccc([nH]4)c(-c4ccccc4)c4nc(c(-c5ccccc5)c5ccc2[nH]5)C=C4)C=C3)cc1)c1nc2ccccc2s1
REMARK SMILES IDX 24 1 23 2 22 3 21 4 20 5 18 6 19 7 17 8 16 9 15 10 14 11
REMARK SMILES IDX 1 12 2 13 3 14 4 15 12 16 13 17 5 18 6 19 11 20 7 21 8 22
REMARK SMILES IDX 9 23 10 24 80 25 81 26 88 27 82 28 87 29 83 30 86 31 84 32
REMARK SMILES IDX 85 33 25 34 26 35 27 36 28 37 29 38 30 39 31 40 32 41 33 42
REMARK SMILES IDX 79 43 34 44 78 45 35 46 36 47 37 48 72 49 38 50 77 51 71 52
REMARK SMILES IDX 73 53 39 54 76 55 70 56 69 57 40 59 62 60 47 61 61 62 48 63
REMARK SMILES IDX 51 64 60 65 74 66 49 67 50 68 59 70 75 71 52 72 41 73 42 74
REMARK SMILES IDX 46 75 43 76 45 77 44 78 63 79 64 80 68 81 65 82 67 83 66 84
REMARK SMILES IDX 53 85 54 86 58 87 55 88 57 89 56 90
REMARK H PARENT 73 58 51 69
REMARK Flexibility Score: inf
ROOT
ATOM      1  C   UNL     1       6.463  -3.632  -3.933  1.00  0.00     0.188 C 
ENDROOT
BRANCH   1   2
ATOM      2  O   UNL     1       6.967  -4.458  -2.889  1.00  0.00    -0.376 OA
BRANCH   2   3
ATOM      3  C   UNL     1       6.719  -5.851  -2.917  1.00  0.00     0.202 C 
BRANCH   3   4
ATOM      4  C   UNL     1       5.276  -6.268  -2.576  1.00  0.00     0.261 C 
BRANCH   4   5
ATOM      5  O   UNL     1       4.234  -5.455  -3.177  1.00  0.00    -0.463 OA
BRANCH   5   6
ATOM      6  C   UNL     1       3.891  -4.366  -2.452  1.00  0.00     0.310 C 
ATOM      7  O   UNL     1       4.285  -4.173  -1.300  1.00  0.00    -0.252 OA
BRANCH   6   8
ATOM      8  C   UNL     1       3.023  -3.291  -3.124  1.00  0.00     0.161 C 
BRANCH   8   9
ATOM      9  C   UNL     1       2.195  -3.217  -4.400  1.00  0.00    -0.000 C 
ATOM     10  C   UNL     1       0.855  -3.453  -4.383  1.00  0.00     0.019 C 
BRANCH  10  11
ATOM     11  C   UNL     1       0.029  -4.140  -3.434  1.00  0.00     0.019 A 
ATOM     12  C   UNL     1      -1.604  -5.235  -5.191  1.00  0.00     0.069 C 
ATOM     13  C   UNL     1      -1.053  -4.978  -3.834  1.00  0.00     0.067 A 
ATOM     14  N   UNL     1      -1.583  -5.608  -2.789  1.00  0.00    -0.177 NA
ATOM     15  N   UNL     1      -0.822  -5.228  -1.748  1.00  0.00    -0.265 N 
ATOM     16  C   UNL     1      -0.028  -4.144  -2.043  1.00  0.00     0.043 A 
ATOM     17  C   UNL     1       0.541  -3.264  -0.983  1.00  0.00     0.067 C 
BRANCH  15  18
ATOM     18  C   UNL     1      -0.986  -6.022  -0.550  1.00  0.00     0.123 C 
ATOM     19  C   UNL     1      -0.633  -7.504  -0.815  1.00  0.00     0.044 C 
ATOM     20  C   UNL     1      -0.186  -5.694   0.706  1.00  0.00     0.164 C 
ATOM     21  C   UNL     1      -0.977  -8.232   0.474  1.00  0.00     0.139 C 
ATOM     22  S   UNL     1      -0.559  -7.077   1.772  1.00  0.00     0.152 S 
ATOM     23  O   UNL     1      -1.744  -6.769   2.518  1.00  0.00    -0.229 OA
ATOM     24  O   UNL     1       0.678  -7.518   2.411  1.00  0.00    -0.229 OA
ENDBRANCH  15  18
ENDBRANCH  10  11
BRANCH   9  25
ATOM     25  C   UNL     1       2.701  -2.606  -5.633  1.00  0.00     0.121 A 
ATOM     26  N   UNL     1       3.548  -1.592  -5.712  1.00  0.00    -0.236 NA
ATOM     27  S   UNL     1       2.258  -3.244  -7.202  1.00  0.00    -0.114 S 
ATOM     28  C   UNL     1       3.854  -1.284  -7.043  1.00  0.00     0.082 A 
ATOM     29  C   UNL     1       3.265  -2.105  -8.000  1.00  0.00     0.055 A 
ATOM     30  C   UNL     1       4.715  -0.260  -7.493  1.00  0.00     0.030 A 
ATOM     31  C   UNL     1       3.527  -1.956  -9.377  1.00  0.00     0.021 A 
ATOM     32  C   UNL     1       5.061  -0.163  -8.847  1.00  0.00     0.002 A 
ATOM     33  C   UNL     1       4.469  -1.004  -9.779  1.00  0.00     0.002 A 
ENDBRANCH   9  25
ENDBRANCH   8   9
ENDBRANCH   6   8
ENDBRANCH   5   6
ENDBRANCH   4   5
ENDBRANCH   3   4
ENDBRANCH   2   3
ENDBRANCH   1   2
BRANCH   1  34
ATOM     34  C   UNL     1       5.725  -4.198  -5.170  1.00  0.00     0.188 C 
BRANCH  34  35
ATOM     35  O   UNL     1       6.100  -5.515  -5.543  1.00  0.00    -0.376 OA
BRANCH  35  36
ATOM     36  C   UNL     1       6.496  -5.680  -6.893  1.00  0.00     0.202 C 
BRANCH  36  37
ATOM     37  C   UNL     1       7.979  -5.369  -7.091  1.00  0.00     0.261 C 
BRANCH  37  38
ATOM     38  O   UNL     1       8.422  -4.212  -6.384  1.00  0.00    -0.460 OA
BRANCH  38  39
ATOM     39  C   UNL     1       7.945  -3.067  -6.899  1.00  0.00     0.338 C 
ATOM     40  O   UNL     1       7.180  -2.938  -7.840  1.00  0.00    -0.246 OA
BRANCH  39  41
ATOM     41  C   UNL     1       8.552  -1.935  -6.186  1.00  0.00     0.060 A 
ATOM     42  C   UNL     1       7.736  -0.807  -6.103  1.00  0.00     0.016 A 
ATOM     43  C   UNL     1       9.921  -1.852  -6.411  1.00  0.00     0.016 A 
ATOM     44  C   UNL     1       8.180   0.335  -6.722  1.00  0.00     0.010 A 
ATOM     45  C   UNL     1      10.373  -0.706  -7.008  1.00  0.00     0.010 A 
ATOM     46  C   UNL     1       9.451   0.309  -7.295  1.00  0.00    -0.014 A 
BRANCH  46  47
ATOM     47  C   UNL     1       9.848   1.411  -8.155  1.00  0.00     0.031 A 
ATOM     48  C   UNL     1       9.965   2.711  -7.449  1.00  0.00     0.074 A 
ATOM     49  C   UNL     1      10.261   1.154  -9.414  1.00  0.00     0.049 A 
ATOM     50  N   UNL     1       9.642   3.890  -7.868  1.00  0.00    -0.248 NA
ATOM     51  C   UNL     1      10.412   2.671  -6.041  1.00  0.00     0.031 C 
ATOM     52  C   UNL     1      10.334  -0.159 -10.071  1.00  0.00     0.029 A 
ATOM     53  N   UNL     1      10.909   1.971 -10.293  1.00  0.00    -0.354 N 
ATOM     54  C   UNL     1      10.012   4.755  -6.843  1.00  0.00     0.074 A 
ATOM     55  C   UNL     1      10.325   3.949  -5.695  1.00  0.00     0.031 C 
ATOM     56  C   UNL     1      11.251  -0.102 -11.059  1.00  0.00     0.029 A 
ATOM     57  C   UNL     1      11.747   1.260 -11.152  1.00  0.00     0.049 A 
ATOM     58  H   UNL     1      10.799   2.949 -10.318  1.00  0.00     0.167 HD
ATOM     59  C   UNL     1      10.311   6.059  -7.072  1.00  0.00     0.031 A 
ATOM     60  C   UNL     1      12.856   1.722 -11.781  1.00  0.00     0.031 A 
ATOM     61  C   UNL     1       9.710   6.560  -8.273  1.00  0.00     0.049 A 
ATOM     62  C   UNL     1      12.835   3.200 -11.719  1.00  0.00     0.074 A 
ATOM     63  C   UNL     1       8.410   6.672  -8.723  1.00  0.00     0.029 A 
ATOM     64  N   UNL     1      10.511   6.725  -9.376  1.00  0.00    -0.354 N 
ATOM     65  N   UNL     1      12.005   3.942 -12.391  1.00  0.00    -0.248 NA
ATOM     66  C   UNL     1      13.466   3.850 -10.578  1.00  0.00     0.031 C 
ATOM     67  C   UNL     1       8.480   6.436 -10.124  1.00  0.00     0.029 A 
ATOM     68  C   UNL     1       9.821   6.234 -10.454  1.00  0.00     0.049 A 
ATOM     69  H   UNL     1      11.412   7.122  -9.390  1.00  0.00     0.167 HD
ATOM     70  C   UNL     1      11.670   4.969 -11.521  1.00  0.00     0.074 A 
ATOM     71  C   UNL     1      12.687   4.930 -10.474  1.00  0.00     0.031 C 
ATOM     72  C   UNL     1      10.439   5.557 -11.570  1.00  0.00     0.031 A 
BRANCH  59  73
ATOM     73  C   UNL     1      11.485   6.718  -6.400  1.00  0.00    -0.014 A 
ATOM     74  C   UNL     1      11.681   8.096  -6.559  1.00  0.00     0.009 A 
ATOM     75  C   UNL     1      12.553   5.980  -5.844  1.00  0.00     0.009 A 
ATOM     76  C   UNL     1      12.902   8.694  -6.223  1.00  0.00     0.001 A 
ATOM     77  C   UNL     1      13.754   6.580  -5.464  1.00  0.00     0.001 A 
ATOM     78  C   UNL     1      13.937   7.936  -5.679  1.00  0.00     0.000 A 
ENDBRANCH  59  73
BRANCH  60  79
ATOM     79  C   UNL     1      14.066   0.968 -12.186  1.00  0.00    -0.014 A 
ATOM     80  C   UNL     1      14.981   1.521 -13.096  1.00  0.00     0.009 A 
ATOM     81  C   UNL     1      14.450  -0.209 -11.515  1.00  0.00     0.009 A 
ATOM     82  C   UNL     1      16.235   0.932 -13.307  1.00  0.00     0.001 A 
ATOM     83  C   UNL     1      15.695  -0.806 -11.736  1.00  0.00     0.001 A 
ATOM     84  C   UNL     1      16.594  -0.227 -12.623  1.00  0.00     0.000 A 
ENDBRANCH  60  79
BRANCH  72  85
ATOM     85  C   UNL     1       9.540   5.225 -12.736  1.00  0.00    -0.014 A 
ATOM     86  C   UNL     1       9.131   3.912 -13.031  1.00  0.00     0.009 A 
ATOM     87  C   UNL     1       8.964   6.277 -13.461  1.00  0.00     0.009 A 
ATOM     88  C   UNL     1       8.203   3.658 -14.045  1.00  0.00     0.001 A 
ATOM     89  C   UNL     1       8.018   6.026 -14.458  1.00  0.00     0.001 A 
ATOM     90  C   UNL     1       7.644   4.717 -14.755  1.00  0.00     0.000 A 
ENDBRANCH  72  85
ENDBRANCH  46  47
ENDBRANCH  39  41
ENDBRANCH  38  39
ENDBRANCH  37  38
ENDBRANCH  36  37
ENDBRANCH  35  36
ENDBRANCH  34  35
ENDBRANCH   1  34
TORSDOF 21
