REMARK SMILES CC[C@](C)([NH2+]CC(=O)NCC(F)(F)F)C(=O)OCCOCCOCCOC(=O)c1ccc(-c2c3nc(c(-c4ccccc4)c4ccc([nH]4)c(-c4ccccc4)c4nc(c(-c5ccccc5)c5ccc2[nH]5)C=C4)C=C3)cc1
REMARK SMILES IDX 20 1 19 2 18 3 17 4 15 5 16 6 3 7 4 8 2 9 1 10 5 11 6 14
REMARK SMILES IDX 7 15 8 16 9 17 10 19 11 20 12 21 13 22 14 23 21 24 22 25
REMARK SMILES IDX 23 26 24 27 25 28 26 29 27 30 28 31 29 32 30 33 76 34 31 35
REMARK SMILES IDX 75 36 32 37 33 38 34 39 69 40 35 41 74 42 68 43 70 44 36 45
REMARK SMILES IDX 73 46 67 47 66 48 37 50 59 51 44 52 58 53 45 54 48 55 57 56
REMARK SMILES IDX 71 57 46 58 47 59 56 61 72 62 49 63 38 64 39 65 43 66 40 67
REMARK SMILES IDX 42 68 41 69 60 70 61 71 65 72 62 73 64 74 63 75 50 76 51 77
REMARK SMILES IDX 55 78 52 79 54 80 53 81
REMARK H PARENT 5 12 5 13 9 18 70 49 48 60
REMARK Flexibility Score: inf
ROOT
ATOM      1  O   UNL     1       5.425  -2.444  -2.682  1.00  0.00    -0.376 OA
ENDROOT
BRANCH   1   2
ATOM      2  C   UNL     1       5.721  -2.176  -1.325  1.00  0.00     0.202 C 
BRANCH   2   3
ATOM      3  C   UNL     1       4.869  -2.948  -0.318  1.00  0.00     0.261 C 
BRANCH   3   4
ATOM      4  O   UNL     1       3.445  -2.862  -0.481  1.00  0.00    -0.459 OA
BRANCH   4   5
ATOM      5  C   UNL     1       2.836  -1.665  -0.312  1.00  0.00     0.367 C 
ATOM      6  O   UNL     1       3.458  -0.621  -0.143  1.00  0.00    -0.245 OA
BRANCH   5   7
ATOM      7  C   UNL     1       1.275  -1.745  -0.313  1.00  0.00     0.191 C 
ATOM      8  C   UNL     1       0.801  -0.717  -1.373  1.00  0.00     0.092 C 
BRANCH   7   9
ATOM      9  C   UNL     1       0.691  -1.319   1.058  1.00  0.00     0.077 C 
ATOM     10  C   UNL     1       1.714  -1.007   2.149  1.00  0.00     0.011 C 
ENDBRANCH   7   9
BRANCH   7  11
ATOM     11  N   UNL     1       0.673  -3.021  -0.790  1.00  0.00    -0.325 N 
ATOM     12  H   UNL     1       0.790  -3.034  -1.803  1.00  0.00     0.347 HD
ATOM     13  H   UNL     1      -0.272  -2.974  -0.407  1.00  0.00     0.347 HD
BRANCH  11  14
ATOM     14  C   UNL     1       1.145  -4.319  -0.302  1.00  0.00     0.362 C 
BRANCH  14  15
ATOM     15  C   UNL     1       0.016  -5.183   0.270  1.00  0.00     0.275 C 
ATOM     16  O   UNL     1      -0.784  -5.777  -0.454  1.00  0.00    -0.269 OA
ATOM     17  N   UNL     1      -0.110  -5.330   1.621  1.00  0.00    -0.342 N 
ATOM     18  H   UNL     1      -0.649  -6.100   1.917  1.00  0.00     0.164 HD
BRANCH  17  19
ATOM     19  C   UNL     1       0.447  -4.499   2.692  1.00  0.00     0.231 C 
BRANCH  19  20
ATOM     20  C   UNL     1      -0.617  -3.717   3.478  1.00  0.00     0.405 C 
ATOM     21  F   UNL     1      -1.070  -4.439   4.525  1.00  0.00    -0.169 F 
ATOM     22  F   UNL     1      -0.115  -2.563   3.965  1.00  0.00    -0.169 F 
ATOM     23  F   UNL     1      -1.680  -3.401   2.704  1.00  0.00    -0.169 F 
ENDBRANCH  19  20
ENDBRANCH  17  19
ENDBRANCH  14  15
ENDBRANCH  11  14
ENDBRANCH   7  11
ENDBRANCH   5   7
ENDBRANCH   4   5
ENDBRANCH   3   4
ENDBRANCH   2   3
ENDBRANCH   1   2
BRANCH   1  24
ATOM     24  C   UNL     1       4.201  -1.922  -3.172  1.00  0.00     0.188 C 
BRANCH  24  25
ATOM     25  C   UNL     1       3.172  -3.021  -3.510  1.00  0.00     0.188 C 
BRANCH  25  26
ATOM     26  O   UNL     1       3.616  -4.340  -3.793  1.00  0.00    -0.376 OA
BRANCH  26  27
ATOM     27  C   UNL     1       4.817  -4.509  -4.529  1.00  0.00     0.202 C 
BRANCH  27  28
ATOM     28  C   UNL     1       4.908  -3.880  -5.929  1.00  0.00     0.261 C 
BRANCH  28  29
ATOM     29  O   UNL     1       4.565  -2.479  -6.003  1.00  0.00    -0.460 OA
BRANCH  29  30
ATOM     30  C   UNL     1       3.406  -2.173  -6.645  1.00  0.00     0.338 C 
ATOM     31  O   UNL     1       2.683  -2.940  -7.252  1.00  0.00    -0.246 OA
BRANCH  30  32
ATOM     32  C   UNL     1       3.004  -0.770  -6.350  1.00  0.00     0.060 A 
ATOM     33  C   UNL     1       1.758  -0.549  -5.741  1.00  0.00     0.016 A 
ATOM     34  C   UNL     1       3.799   0.319  -6.709  1.00  0.00     0.016 A 
ATOM     35  C   UNL     1       1.294   0.750  -5.508  1.00  0.00     0.010 A 
ATOM     36  C   UNL     1       3.315   1.624  -6.510  1.00  0.00     0.010 A 
ATOM     37  C   UNL     1       2.049   1.849  -5.935  1.00  0.00    -0.014 A 
BRANCH  37  38
ATOM     38  C   UNL     1       1.435   3.205  -5.979  1.00  0.00     0.031 A 
ATOM     39  C   UNL     1       0.814   3.669  -7.273  1.00  0.00     0.074 A 
ATOM     40  C   UNL     1       1.409   4.022  -4.909  1.00  0.00     0.049 A 
ATOM     41  N   UNL     1       0.312   4.837  -7.586  1.00  0.00    -0.248 NA
ATOM     42  C   UNL     1       0.751   2.676  -8.359  1.00  0.00     0.031 C 
ATOM     43  C   UNL     1       1.900   3.693  -3.574  1.00  0.00     0.029 A 
ATOM     44  N   UNL     1       0.955   5.316  -4.791  1.00  0.00    -0.354 N 
ATOM     45  C   UNL     1      -0.109   4.726  -8.906  1.00  0.00     0.074 A 
ATOM     46  C   UNL     1       0.209   3.382  -9.340  1.00  0.00     0.031 C 
ATOM     47  C   UNL     1       1.744   4.766  -2.776  1.00  0.00     0.029 A 
ATOM     48  C   UNL     1       1.178   5.870  -3.553  1.00  0.00     0.049 A 
ATOM     49  H   UNL     1       0.512   5.800  -5.525  1.00  0.00     0.167 HD
ATOM     50  C   UNL     1      -0.704   5.654  -9.693  1.00  0.00     0.031 A 
ATOM     51  C   UNL     1       0.983   7.128  -3.107  1.00  0.00     0.031 A 
ATOM     52  C   UNL     1      -1.013   6.997  -9.281  1.00  0.00     0.049 A 
ATOM     53  C   UNL     1       0.416   8.176  -4.036  1.00  0.00     0.074 A 
ATOM     54  C   UNL     1      -1.623   8.002 -10.013  1.00  0.00     0.029 A 
ATOM     55  N   UNL     1      -0.730   7.526  -8.034  1.00  0.00    -0.354 N 
ATOM     56  N   UNL     1       0.010   8.054  -5.276  1.00  0.00    -0.248 NA
ATOM     57  C   UNL     1       0.279   9.539  -3.495  1.00  0.00     0.031 C 
ATOM     58  C   UNL     1      -1.652   9.159  -9.228  1.00  0.00     0.029 A 
ATOM     59  C   UNL     1      -1.123   8.854  -7.986  1.00  0.00     0.049 A 
ATOM     60  H   UNL     1      -0.311   7.033  -7.292  1.00  0.00     0.167 HD
ATOM     61  C   UNL     1      -0.458   9.310  -5.649  1.00  0.00     0.074 A 
ATOM     62  C   UNL     1      -0.302  10.176  -4.502  1.00  0.00     0.031 C 
ATOM     63  C   UNL     1      -0.973   9.709  -6.838  1.00  0.00     0.031 A 
BRANCH  50  64
ATOM     64  C   UNL     1      -1.022   5.263 -11.108  1.00  0.00    -0.014 A 
ATOM     65  C   UNL     1      -2.071   4.378 -11.405  1.00  0.00     0.009 A 
ATOM     66  C   UNL     1      -0.293   5.831 -12.165  1.00  0.00     0.009 A 
ATOM     67  C   UNL     1      -2.364   4.050 -12.730  1.00  0.00     0.001 A 
ATOM     68  C   UNL     1      -0.606   5.524 -13.489  1.00  0.00     0.001 A 
ATOM     69  C   UNL     1      -1.636   4.628 -13.771  1.00  0.00     0.000 A 
ENDBRANCH  50  64
BRANCH  51  70
ATOM     70  C   UNL     1       1.369   7.507  -1.720  1.00  0.00    -0.014 A 
ATOM     71  C   UNL     1       0.397   7.882  -0.779  1.00  0.00     0.009 A 
ATOM     72  C   UNL     1       2.722   7.561  -1.349  1.00  0.00     0.009 A 
ATOM     73  C   UNL     1       0.773   8.335   0.489  1.00  0.00     0.001 A 
ATOM     74  C   UNL     1       3.094   7.982  -0.070  1.00  0.00     0.001 A 
ATOM     75  C   UNL     1       2.120   8.382   0.843  1.00  0.00     0.000 A 
ENDBRANCH  51  70
BRANCH  63  76
ATOM     76  C   UNL     1      -1.455  11.131  -6.951  1.00  0.00    -0.014 A 
ATOM     77  C   UNL     1      -0.559  12.210  -6.989  1.00  0.00     0.009 A 
ATOM     78  C   UNL     1      -2.831  11.389  -7.071  1.00  0.00     0.009 A 
ATOM     79  C   UNL     1      -1.033  13.519  -7.110  1.00  0.00     0.001 A 
ATOM     80  C   UNL     1      -3.300  12.695  -7.223  1.00  0.00     0.001 A 
ATOM     81  C   UNL     1      -2.401  13.760  -7.232  1.00  0.00     0.000 A 
ENDBRANCH  63  76
ENDBRANCH  37  38
ENDBRANCH  30  32
ENDBRANCH  29  30
ENDBRANCH  28  29
ENDBRANCH  27  28
ENDBRANCH  26  27
ENDBRANCH  25  26
ENDBRANCH  24  25
ENDBRANCH   1  24
TORSDOF 23
