REMARK SMILES Cc1ccc(-c2nc(NC(=O)[C@H]3[C@@H](C(=O)OCCOCCOCCOC(=O)c4ccc(-c5c6nc(c(-c7ccccc7)c7ccc([nH]7)c(-c7ccccc7)c7nc(c(-c8ccccc8)c8ccc5[nH]8)C=C7)C=C6)cc4)[C@@H]4CC[C@H]3O4)sc2C)cc1
REMARK SMILES IDX 20 1 19 2 18 3 17 4 16 5 14 6 15 7 13 8 12 9 79 10 76 11
REMARK SMILES IDX 78 12 80 13 77 14 10 15 9 16 11 18 8 19 6 20 7 21 82 22
REMARK SMILES IDX 81 23 83 24 5 25 1 26 2 27 3 28 85 29 4 30 84 31 21 32 22 33
REMARK SMILES IDX 23 34 24 35 25 36 26 37 27 38 28 39 29 40 75 41 30 42 74 43
REMARK SMILES IDX 31 44 32 45 33 46 68 47 34 48 73 49 67 50 69 51 35 52 72 53
REMARK SMILES IDX 66 54 65 55 36 57 58 58 43 59 57 60 44 61 47 62 56 63 70 64
REMARK SMILES IDX 45 65 46 66 55 68 71 69 48 70 37 71 38 72 42 73 39 74 41 75
REMARK SMILES IDX 40 76 59 77 60 78 64 79 61 80 63 81 62 82 49 83 50 84 54 85
REMARK SMILES IDX 51 86 53 87 52 88
REMARK H PARENT 9 17 69 56 47 67
REMARK Flexibility Score: inf
ROOT
ATOM      1  C   UNL     1      -7.423   4.110  -3.598  1.00  0.00     0.188 C 
ENDROOT
BRANCH   1   2
ATOM      2  O   UNL     1      -6.485   4.052  -2.518  1.00  0.00    -0.376 OA
BRANCH   2   3
ATOM      3  C   UNL     1      -5.870   2.812  -2.160  1.00  0.00     0.202 C 
BRANCH   3   4
ATOM      4  C   UNL     1      -6.425   2.085  -0.920  1.00  0.00     0.261 C 
BRANCH   4   5
ATOM      5  O   UNL     1      -6.851   0.661  -1.006  1.00  0.00    -0.463 OA
BRANCH   5   6
ATOM      6  C   UNL     1      -7.900   0.084  -0.360  1.00  0.00     0.312 C 
ATOM      7  O   UNL     1      -9.072   0.414  -0.228  1.00  0.00    -0.252 OA
BRANCH   6   8
ATOM      8  C   UNL     1      -7.630  -1.116   0.395  1.00  0.00     0.143 C 
ATOM      9  C   UNL     1      -6.183  -1.442   0.712  1.00  0.00     0.124 C 
ATOM     10  C   UNL     1      -6.260  -2.808  -0.108  1.00  0.00     0.132 C 
ATOM     11  C   UNL     1      -8.244  -2.109  -0.596  1.00  0.00     0.133 C 
ATOM     12  C   UNL     1      -7.267  -3.868   0.501  1.00  0.00     0.035 C 
ATOM     13  O   UNL     1      -7.051  -2.491  -1.290  1.00  0.00    -0.373 OA
ATOM     14  C   UNL     1      -8.662  -3.349   0.140  1.00  0.00     0.036 C 
BRANCH   9  15
ATOM     15  C   UNL     1      -4.963  -0.319   0.366  1.00  0.00     0.232 C 
ATOM     16  N   UNL     1      -4.366   0.634   1.272  1.00  0.00    -0.302 N 
ATOM     17  H   UNL     1      -3.706   0.242   1.889  1.00  0.00     0.172 HD
ATOM     18  O   UNL     1      -4.351  -0.470  -0.703  1.00  0.00    -0.274 OA
BRANCH  16  19
ATOM     19  C   UNL     1      -4.561   2.089   1.445  1.00  0.00     0.190 A 
ATOM     20  C   UNL     1      -4.700   4.442   1.427  1.00  0.00     0.086 A 
ATOM     21  N   UNL     1      -4.077   3.225   0.855  1.00  0.00    -0.220 NA
ATOM     22  C   UNL     1      -5.723   4.026   2.243  1.00  0.00     0.031 A 
ATOM     23  S   UNL     1      -5.334   2.498   2.892  1.00  0.00    -0.101 S 
ATOM     24  C   UNL     1      -6.964   4.731   2.569  1.00  0.00     0.059 C 
BRANCH  20  25
ATOM     25  C   UNL     1      -4.673   5.977   1.207  1.00  0.00     0.001 A 
ATOM     26  C   UNL     1      -6.549   9.994   0.901  1.00  0.00     0.044 C 
ATOM     27  C   UNL     1      -5.768   8.701   1.015  1.00  0.00    -0.051 A 
ATOM     28  C   UNL     1      -5.294   7.992  -0.105  1.00  0.00     0.004 A 
ATOM     29  C   UNL     1      -5.571   8.100   2.250  1.00  0.00     0.004 A 
ATOM     30  C   UNL     1      -4.784   6.643  -0.019  1.00  0.00     0.010 A 
ATOM     31  C   UNL     1      -4.972   6.813   2.341  1.00  0.00     0.010 A 
ENDBRANCH  20  25
ENDBRANCH  16  19
ENDBRANCH   9  15
ENDBRANCH   6   8
ENDBRANCH   5   6
ENDBRANCH   4   5
ENDBRANCH   3   4
ENDBRANCH   2   3
ENDBRANCH   1   2
BRANCH   1  32
ATOM     32  C   UNL     1      -6.997   3.439  -4.906  1.00  0.00     0.188 C 
BRANCH  32  33
ATOM     33  O   UNL     1      -6.879   2.047  -4.663  1.00  0.00    -0.376 OA
BRANCH  33  34
ATOM     34  C   UNL     1      -6.382   1.250  -5.722  1.00  0.00     0.202 C 
BRANCH  34  35
ATOM     35  C   UNL     1      -7.526   0.829  -6.655  1.00  0.00     0.261 C 
BRANCH  35  36
ATOM     36  O   UNL     1      -8.632   0.305  -5.864  1.00  0.00    -0.460 OA
BRANCH  36  37
ATOM     37  C   UNL     1      -9.749   1.096  -5.701  1.00  0.00     0.338 C 
ATOM     38  O   UNL     1     -10.236   1.793  -6.570  1.00  0.00    -0.246 OA
BRANCH  37  39
ATOM     39  C   UNL     1     -10.147   1.187  -4.237  1.00  0.00     0.060 A 
ATOM     40  C   UNL     1     -11.197   1.953  -3.677  1.00  0.00     0.016 A 
ATOM     41  C   UNL     1      -9.183   0.838  -3.357  1.00  0.00     0.016 A 
ATOM     42  C   UNL     1     -11.204   2.395  -2.261  1.00  0.00     0.010 A 
ATOM     43  C   UNL     1      -9.114   1.645  -2.219  1.00  0.00     0.010 A 
ATOM     44  C   UNL     1     -10.087   2.276  -1.434  1.00  0.00    -0.014 A 
BRANCH  44  45
ATOM     45  C   UNL     1      -9.625   3.075  -0.046  1.00  0.00     0.031 A 
ATOM     46  C   UNL     1      -9.192   2.544   1.589  1.00  0.00     0.074 A 
ATOM     47  C   UNL     1      -9.140   4.261  -0.499  1.00  0.00     0.049 A 
ATOM     48  N   UNL     1      -9.456   2.988   2.841  1.00  0.00    -0.248 NA
ATOM     49  C   UNL     1      -8.251   1.456   1.822  1.00  0.00     0.031 C 
ATOM     50  C   UNL     1      -8.113   5.135  -0.004  1.00  0.00     0.029 A 
ATOM     51  N   UNL     1      -9.896   5.154  -1.240  1.00  0.00    -0.354 N 
ATOM     52  C   UNL     1      -8.655   2.198   3.829  1.00  0.00     0.074 A 
ATOM     53  C   UNL     1      -8.285   1.047   3.084  1.00  0.00     0.031 C 
ATOM     54  C   UNL     1      -8.590   6.378   0.097  1.00  0.00     0.029 A 
ATOM     55  C   UNL     1      -9.895   6.337  -0.482  1.00  0.00     0.049 A 
ATOM     56  H   UNL     1     -10.336   4.996  -2.107  1.00  0.00     0.167 HD
ATOM     57  C   UNL     1      -7.972   2.572   5.016  1.00  0.00     0.031 A 
ATOM     58  C   UNL     1     -11.016   6.951  -0.055  1.00  0.00     0.031 A 
ATOM     59  C   UNL     1      -8.148   3.984   5.374  1.00  0.00     0.049 A 
ATOM     60  C   UNL     1     -11.123   7.152   1.453  1.00  0.00     0.074 A 
ATOM     61  C   UNL     1      -7.286   5.047   5.687  1.00  0.00     0.029 A 
ATOM     62  N   UNL     1      -9.354   4.568   5.076  1.00  0.00    -0.354 N 
ATOM     63  N   UNL     1     -10.298   6.762   2.404  1.00  0.00    -0.248 NA
ATOM     64  C   UNL     1     -12.305   7.827   1.985  1.00  0.00     0.031 C 
ATOM     65  C   UNL     1      -7.941   6.266   5.354  1.00  0.00     0.029 A 
ATOM     66  C   UNL     1      -9.225   5.932   4.982  1.00  0.00     0.049 A 
ATOM     67  H   UNL     1     -10.196   4.076   4.947  1.00  0.00     0.167 HD
ATOM     68  C   UNL     1     -10.886   7.053   3.640  1.00  0.00     0.074 A 
ATOM     69  C   UNL     1     -12.088   7.782   3.304  1.00  0.00     0.031 C 
ATOM     70  C   UNL     1     -10.454   6.659   4.881  1.00  0.00     0.031 A 
BRANCH  57  71
ATOM     71  C   UNL     1      -6.725   1.769   5.723  1.00  0.00    -0.014 A 
ATOM     72  C   UNL     1      -5.794   2.454   6.554  1.00  0.00     0.009 A 
ATOM     73  C   UNL     1      -6.336   0.429   5.509  1.00  0.00     0.009 A 
ATOM     74  C   UNL     1      -4.511   1.966   6.906  1.00  0.00     0.001 A 
ATOM     75  C   UNL     1      -5.048  -0.079   5.849  1.00  0.00     0.001 A 
ATOM     76  C   UNL     1      -4.114   0.706   6.507  1.00  0.00     0.000 A 
ENDBRANCH  57  71
BRANCH  58  77
ATOM     77  C   UNL     1     -12.085   6.809  -1.099  1.00  0.00    -0.014 A 
ATOM     78  C   UNL     1     -11.749   7.366  -2.364  1.00  0.00     0.009 A 
ATOM     79  C   UNL     1     -12.990   5.737  -1.072  1.00  0.00     0.009 A 
ATOM     80  C   UNL     1     -12.121   6.734  -3.555  1.00  0.00     0.001 A 
ATOM     81  C   UNL     1     -13.411   5.149  -2.279  1.00  0.00     0.001 A 
ATOM     82  C   UNL     1     -12.926   5.603  -3.509  1.00  0.00     0.000 A 
ENDBRANCH  58  77
BRANCH  70  83
ATOM     83  C   UNL     1     -11.186   6.717   6.230  1.00  0.00    -0.014 A 
ATOM     84  C   UNL     1     -12.572   6.734   6.368  1.00  0.00     0.009 A 
ATOM     85  C   UNL     1     -10.449   6.452   7.425  1.00  0.00     0.009 A 
ATOM     86  C   UNL     1     -13.181   6.508   7.614  1.00  0.00     0.001 A 
ATOM     87  C   UNL     1     -11.050   6.156   8.649  1.00  0.00     0.001 A 
ATOM     88  C   UNL     1     -12.426   6.194   8.744  1.00  0.00     0.000 A 
ENDBRANCH  70  83
ENDBRANCH  44  45
ENDBRANCH  37  39
ENDBRANCH  36  37
ENDBRANCH  35  36
ENDBRANCH  34  35
ENDBRANCH  33  34
ENDBRANCH  32  33
ENDBRANCH   1  32
TORSDOF 20
