REMARK SMILES CCC[NH2+][C@H]1C[C@@H](C(=O)OCCOCCOCCOC(=O)c2ccc(-c3c4nc(c(-c5ccccc5)c5ccc([nH]5)c(-c5ccccc5)c5nc(c(-c6ccccc6)c6ccc3[nH]6)C=C5)C=C4)cc2)C1
REMARK SMILES IDX 14 1 13 2 12 3 11 4 10 5 8 6 9 7 7 8 5 9 70 10 6 11 4 12
REMARK SMILES IDX 3 15 2 16 1 17 15 18 16 19 17 20 18 21 19 22 20 23 21 24
REMARK SMILES IDX 22 25 23 26 69 27 24 28 68 29 25 30 26 31 27 32 62 33 28 34
REMARK SMILES IDX 67 35 61 36 63 37 29 38 66 39 60 40 59 41 30 43 52 44 37 45
REMARK SMILES IDX 51 46 38 47 41 48 50 49 64 50 39 51 40 52 49 54 65 55 42 56
REMARK SMILES IDX 31 57 32 58 36 59 33 60 35 61 34 62 53 63 54 64 58 65 55 66
REMARK SMILES IDX 57 67 56 68 43 69 44 70 48 71 45 72 47 73 46 74
REMARK H PARENT 4 13 4 14 63 42 41 53
REMARK Flexibility Score: inf
ROOT
ATOM      1  C   UNL     1       3.730  -5.099  -6.234  1.00  0.00     0.188 C 
ENDROOT
BRANCH   1   2
ATOM      2  O   UNL     1       5.115  -5.432  -6.191  1.00  0.00    -0.376 OA
BRANCH   2   3
ATOM      3  C   UNL     1       5.867  -5.156  -5.014  1.00  0.00     0.202 C 
BRANCH   3   4
ATOM      4  C   UNL     1       5.871  -3.720  -4.468  1.00  0.00     0.261 C 
BRANCH   4   5
ATOM      5  O   UNL     1       4.563  -3.135  -4.313  1.00  0.00    -0.463 OA
BRANCH   5   6
ATOM      6  C   UNL     1       4.330  -1.976  -4.999  1.00  0.00     0.309 C 
ATOM      7  O   UNL     1       5.206  -1.384  -5.632  1.00  0.00    -0.252 OA
BRANCH   6   8
ATOM      8  C   UNL     1       2.865  -1.487  -4.960  1.00  0.00     0.111 C 
ATOM      9  C   UNL     1       1.195  -0.672  -3.903  1.00  0.00     0.184 C 
ATOM     10  C   UNL     1       2.636  -0.186  -4.145  1.00  0.00     0.080 C 
ATOM     11  C   UNL     1       1.749  -2.107  -4.073  1.00  0.00     0.080 C 
BRANCH   9  12
ATOM     12  N   UNL     1       0.774  -0.505  -2.514  1.00  0.00    -0.344 N 
ATOM     13  H   UNL     1      -0.181  -0.849  -2.413  1.00  0.00     0.346 HD
ATOM     14  H   UNL     1       1.413  -1.031  -1.919  1.00  0.00     0.346 HD
BRANCH  12  15
ATOM     15  C   UNL     1       0.818   0.900  -2.110  1.00  0.00     0.260 C 
BRANCH  15  16
ATOM     16  C   UNL     1       0.235   1.112  -0.711  1.00  0.00     0.058 C 
ATOM     17  C   UNL     1       0.881   0.246   0.364  1.00  0.00     0.010 C 
ENDBRANCH  15  16
ENDBRANCH  12  15
ENDBRANCH   9  12
ENDBRANCH   6   8
ENDBRANCH   5   6
ENDBRANCH   4   5
ENDBRANCH   3   4
ENDBRANCH   2   3
ENDBRANCH   1   2
BRANCH   1  18
ATOM     18  C   UNL     1       2.851  -5.332  -4.989  1.00  0.00     0.188 C 
BRANCH  18  19
ATOM     19  O   UNL     1       3.511  -5.999  -3.939  1.00  0.00    -0.376 OA
BRANCH  19  20
ATOM     20  C   UNL     1       3.092  -7.305  -3.604  1.00  0.00     0.202 C 
BRANCH  20  21
ATOM     21  C   UNL     1       2.998  -8.379  -4.701  1.00  0.00     0.261 C 
BRANCH  21  22
ATOM     22  O   UNL     1       2.517  -7.962  -5.988  1.00  0.00    -0.460 OA
BRANCH  22  23
ATOM     23  C   UNL     1       1.176  -7.868  -6.152  1.00  0.00     0.338 C 
ATOM     24  O   UNL     1       0.317  -8.069  -5.319  1.00  0.00    -0.246 OA
BRANCH  23  25
ATOM     25  C   UNL     1       0.933  -7.283  -7.492  1.00  0.00     0.060 A 
ATOM     26  C   UNL     1       0.308  -6.032  -7.591  1.00  0.00     0.016 A 
ATOM     27  C   UNL     1       1.332  -7.965  -8.644  1.00  0.00     0.016 A 
ATOM     28  C   UNL     1       0.065  -5.467  -8.846  1.00  0.00     0.010 A 
ATOM     29  C   UNL     1       1.067  -7.408  -9.899  1.00  0.00     0.010 A 
ATOM     30  C   UNL     1       0.413  -6.168 -10.008  1.00  0.00    -0.014 A 
BRANCH  30  31
ATOM     31  C   UNL     1      -0.046  -5.702 -11.340  1.00  0.00     0.031 A 
ATOM     32  C   UNL     1      -1.284  -6.321 -11.930  1.00  0.00     0.074 A 
ATOM     33  C   UNL     1       0.629  -4.765 -12.031  1.00  0.00     0.049 A 
ATOM     34  N   UNL     1      -1.811  -6.157 -13.116  1.00  0.00    -0.248 NA
ATOM     35  C   UNL     1      -2.022  -7.253 -11.063  1.00  0.00     0.031 C 
ATOM     36  C   UNL     1       1.811  -4.048 -11.557  1.00  0.00     0.029 A 
ATOM     37  N   UNL     1       0.418  -4.272 -13.295  1.00  0.00    -0.354 N 
ATOM     38  C   UNL     1      -2.933  -6.976 -13.143  1.00  0.00     0.074 A 
ATOM     39  C   UNL     1      -2.998  -7.651 -11.865  1.00  0.00     0.031 C 
ATOM     40  C   UNL     1       2.232  -3.217 -12.528  1.00  0.00     0.029 A 
ATOM     41  C   UNL     1       1.376  -3.376 -13.703  1.00  0.00     0.049 A 
ATOM     42  H   UNL     1      -0.348  -4.535 -13.856  1.00  0.00     0.167 HD
ATOM     43  C   UNL     1      -3.829  -7.154 -14.143  1.00  0.00     0.031 A 
ATOM     44  C   UNL     1       1.560  -2.780 -14.898  1.00  0.00     0.031 A 
ATOM     45  C   UNL     1      -3.756  -6.502 -15.423  1.00  0.00     0.049 A 
ATOM     46  C   UNL     1       0.607  -3.069 -16.029  1.00  0.00     0.074 A 
ATOM     47  C   UNL     1      -4.625  -6.608 -16.495  1.00  0.00     0.029 A 
ATOM     48  N   UNL     1      -2.748  -5.632 -15.807  1.00  0.00    -0.354 N 
ATOM     49  N   UNL     1      -0.463  -3.827 -16.038  1.00  0.00    -0.248 NA
ATOM     50  C   UNL     1       0.888  -2.417 -17.317  1.00  0.00     0.031 C 
ATOM     51  C   UNL     1      -4.109  -5.850 -17.551  1.00  0.00     0.029 A 
ATOM     52  C   UNL     1      -2.956  -5.219 -17.113  1.00  0.00     0.049 A 
ATOM     53  H   UNL     1      -1.997  -5.349 -15.238  1.00  0.00     0.167 HD
ATOM     54  C   UNL     1      -0.997  -3.718 -17.317  1.00  0.00     0.074 A 
ATOM     55  C   UNL     1      -0.141  -2.812 -18.053  1.00  0.00     0.031 C 
ATOM     56  C   UNL     1      -2.099  -4.314 -17.834  1.00  0.00     0.031 A 
BRANCH  43  57
ATOM     57  C   UNL     1      -4.946  -8.130 -13.903  1.00  0.00    -0.014 A 
ATOM     58  C   UNL     1      -5.991  -7.842 -13.011  1.00  0.00     0.009 A 
ATOM     59  C   UNL     1      -4.968  -9.346 -14.605  1.00  0.00     0.009 A 
ATOM     60  C   UNL     1      -7.016  -8.767 -12.801  1.00  0.00     0.001 A 
ATOM     61  C   UNL     1      -6.009 -10.255 -14.415  1.00  0.00     0.001 A 
ATOM     62  C   UNL     1      -7.027  -9.970 -13.507  1.00  0.00     0.000 A 
ENDBRANCH  43  57
BRANCH  44  63
ATOM     63  C   UNL     1       2.718  -1.870 -15.109  1.00  0.00    -0.014 A 
ATOM     64  C   UNL     1       2.521  -0.495 -15.314  1.00  0.00     0.009 A 
ATOM     65  C   UNL     1       4.027  -2.377 -15.140  1.00  0.00     0.009 A 
ATOM     66  C   UNL     1       3.607   0.346 -15.571  1.00  0.00     0.001 A 
ATOM     67  C   UNL     1       5.113  -1.529 -15.366  1.00  0.00     0.001 A 
ATOM     68  C   UNL     1       4.902  -0.170 -15.591  1.00  0.00     0.000 A 
ENDBRANCH  44  63
BRANCH  56  69
ATOM     69  C   UNL     1      -2.473  -3.976 -19.252  1.00  0.00    -0.014 A 
ATOM     70  C   UNL     1      -1.730  -4.456 -20.341  1.00  0.00     0.009 A 
ATOM     71  C   UNL     1      -3.624  -3.211 -19.500  1.00  0.00     0.009 A 
ATOM     72  C   UNL     1      -2.115  -4.151 -21.648  1.00  0.00     0.001 A 
ATOM     73  C   UNL     1      -4.024  -2.934 -20.808  1.00  0.00     0.001 A 
ATOM     74  C   UNL     1      -3.265  -3.397 -21.881  1.00  0.00     0.000 A 
ENDBRANCH  56  69
ENDBRANCH  30  31
ENDBRANCH  23  25
ENDBRANCH  22  23
ENDBRANCH  21  22
ENDBRANCH  20  21
ENDBRANCH  19  20
ENDBRANCH  18  19
ENDBRANCH   1  18
TORSDOF 20
