REMARK SMILES CC(C)Cc1cc2c(cc1Cl)C=C(C(=O)OCCOCCOCCOC(=O)c1ccc(-c3c4nc(c(-c5ccccc5)c5ccc([nH]5)c(-c5ccccc5)c5nc(c(-c6ccccc6)c6ccc3[nH]6)C=C5)C=C4)cc1)[C@H](C(F)(F)F)O2
REMARK SMILES IDX 20 1 19 2 18 3 17 4 16 5 14 6 15 7 13 8 5 9 6 10 10 11 7 12
REMARK SMILES IDX 9 13 11 14 8 15 81 16 12 17 76 18 4 19 2 20 1 21 3 22 77 23
REMARK SMILES IDX 78 24 79 25 80 26 21 27 22 28 23 29 24 30 25 31 26 32 27 33
REMARK SMILES IDX 28 34 29 35 75 36 30 37 74 38 31 39 32 40 33 41 68 42 34 43
REMARK SMILES IDX 73 44 67 45 69 46 35 47 72 48 66 49 65 50 36 52 58 53 43 54
REMARK SMILES IDX 57 55 44 56 47 57 56 58 70 59 45 60 46 61 55 63 71 64 48 65
REMARK SMILES IDX 37 66 38 67 42 68 39 69 41 70 40 71 59 72 60 73 64 74 61 75
REMARK SMILES IDX 63 76 62 77 49 78 50 79 54 80 51 81 53 82 52 83
REMARK H PARENT 69 51 47 62
REMARK Flexibility Score: inf
ROOT
ATOM      1  C   UNL     1      -1.940  -2.437   8.177  1.00  0.00     0.188 C 
ENDROOT
BRANCH   1   2
ATOM      2  O   UNL     1      -2.308  -3.377   9.155  1.00  0.00    -0.376 OA
BRANCH   2   3
ATOM      3  C   UNL     1      -3.094  -4.511   8.831  1.00  0.00     0.202 C 
BRANCH   3   4
ATOM      4  C   UNL     1      -3.614  -4.888   7.430  1.00  0.00     0.261 C 
BRANCH   4   5
ATOM      5  O   UNL     1      -3.020  -4.243   6.302  1.00  0.00    -0.460 OA
BRANCH   5   6
ATOM      6  C   UNL     1      -3.832  -3.420   5.604  1.00  0.00     0.338 C 
ATOM      7  O   UNL     1      -5.002  -3.171   5.851  1.00  0.00    -0.246 OA
BRANCH   6   8
ATOM      8  C   UNL     1      -3.071  -2.720   4.557  1.00  0.00     0.087 C 
ATOM      9  C   UNL     1      -1.567   0.701   1.202  1.00  0.00    -0.025 A 
ATOM     10  C   UNL     1      -1.682  -0.701   1.211  1.00  0.00     0.052 A 
ATOM     11  C   UNL     1      -1.954   1.409   2.351  1.00  0.00     0.045 A 
ATOM     12  C   UNL     1      -2.158  -1.376   2.332  1.00  0.00     0.128 A 
ATOM     13  C   UNL     1      -2.456   0.732   3.470  1.00  0.00     0.032 A 
ATOM     14  Cl  UNL     1      -1.864   3.132   2.440  1.00  0.00    -0.084 Cl
ATOM     15  C   UNL     1      -2.558  -0.662   3.461  1.00  0.00     0.019 A 
ATOM     16  O   UNL     1      -2.276  -2.736   2.222  1.00  0.00    -0.475 OA
ATOM     17  C   UNL     1      -3.160  -1.382   4.571  1.00  0.00     0.027 C 
ATOM     18  C   UNL     1      -2.380  -3.493   3.464  1.00  0.00     0.316 C 
BRANCH   9  19
ATOM     19  C   UNL     1      -1.035   1.367  -0.048  1.00  0.00     0.040 C 
BRANCH  19  20
ATOM     20  C   UNL     1       0.500   1.515  -0.088  1.00  0.00    -0.013 C 
ATOM     21  C   UNL     1       1.226   0.166  -0.075  1.00  0.00     0.008 C 
ATOM     22  C   UNL     1       0.903   2.291  -1.345  1.00  0.00     0.008 C 
ENDBRANCH  19  20
ENDBRANCH   9  19
BRANCH  18  23
ATOM     23  C   UNL     1      -0.992  -4.068   3.810  1.00  0.00     0.430 C 
ATOM     24  F   UNL     1      -0.120  -3.109   4.195  1.00  0.00    -0.167 F 
ATOM     25  F   UNL     1      -1.058  -5.000   4.784  1.00  0.00    -0.167 F 
ATOM     26  F   UNL     1      -0.450  -4.688   2.731  1.00  0.00    -0.167 F 
ENDBRANCH  18  23
ENDBRANCH   6   8
ENDBRANCH   5   6
ENDBRANCH   4   5
ENDBRANCH   3   4
ENDBRANCH   2   3
ENDBRANCH   1   2
BRANCH   1  27
ATOM     27  C   UNL     1      -0.708  -2.765   7.313  1.00  0.00     0.188 C 
BRANCH  27  28
ATOM     28  O   UNL     1      -0.055  -4.016   7.419  1.00  0.00    -0.376 OA
BRANCH  28  29
ATOM     29  C   UNL     1       0.380  -4.475   8.690  1.00  0.00     0.202 C 
BRANCH  29  30
ATOM     30  C   UNL     1       1.218  -3.573   9.608  1.00  0.00     0.261 C 
BRANCH  30  31
ATOM     31  O   UNL     1       0.696  -2.251   9.794  1.00  0.00    -0.460 OA
BRANCH  31  32
ATOM     32  C   UNL     1       1.427  -1.251   9.233  1.00  0.00     0.338 C 
ATOM     33  O   UNL     1       2.469  -1.343   8.621  1.00  0.00    -0.246 OA
BRANCH  32  34
ATOM     34  C   UNL     1       0.633  -0.008   9.311  1.00  0.00     0.060 A 
ATOM     35  C   UNL     1       0.228   0.494  10.547  1.00  0.00     0.016 A 
ATOM     36  C   UNL     1       0.293   0.654   8.122  1.00  0.00     0.016 A 
ATOM     37  C   UNL     1      -0.504   1.681  10.591  1.00  0.00     0.010 A 
ATOM     38  C   UNL     1      -0.456   1.830   8.167  1.00  0.00     0.010 A 
ATOM     39  C   UNL     1      -0.836   2.364   9.405  1.00  0.00    -0.014 A 
BRANCH  39  40
ATOM     40  C   UNL     1      -1.389   3.735   9.491  1.00  0.00     0.031 A 
ATOM     41  C   UNL     1      -2.842   4.027   9.292  1.00  0.00     0.074 A 
ATOM     42  C   UNL     1      -0.528   4.729   9.778  1.00  0.00     0.049 A 
ATOM     43  N   UNL     1      -3.479   5.153   9.491  1.00  0.00    -0.248 NA
ATOM     44  C   UNL     1      -3.689   2.929   8.805  1.00  0.00     0.031 C 
ATOM     45  C   UNL     1       0.915   4.555   9.956  1.00  0.00     0.029 A 
ATOM     46  N   UNL     1      -0.735   6.067   9.993  1.00  0.00    -0.354 N 
ATOM     47  C   UNL     1      -4.807   4.898   9.180  1.00  0.00     0.074 A 
ATOM     48  C   UNL     1      -4.876   3.522   8.730  1.00  0.00     0.031 C 
ATOM     49  C   UNL     1       1.456   5.731  10.301  1.00  0.00     0.029 A 
ATOM     50  C   UNL     1       0.408   6.747  10.338  1.00  0.00     0.049 A 
ATOM     51  H   UNL     1      -1.617   6.498   9.910  1.00  0.00     0.167 HD
ATOM     52  C   UNL     1      -5.866   5.736   9.284  1.00  0.00     0.031 A 
ATOM     53  C   UNL     1       0.596   8.039  10.665  1.00  0.00     0.031 A 
ATOM     54  C   UNL     1      -5.772   7.112   9.710  1.00  0.00     0.049 A 
ATOM     55  C   UNL     1      -0.592   8.955  10.735  1.00  0.00     0.074 A 
ATOM     56  C   UNL     1      -6.800   8.021   9.896  1.00  0.00     0.029 A 
ATOM     57  N   UNL     1      -4.592   7.781   9.998  1.00  0.00    -0.354 N 
ATOM     58  N   UNL     1      -1.858   8.675  10.542  1.00  0.00    -0.248 NA
ATOM     59  C   UNL     1      -0.332  10.357  11.085  1.00  0.00     0.031 C 
ATOM     60  C   UNL     1      -6.238   9.259  10.213  1.00  0.00     0.029 A 
ATOM     61  C   UNL     1      -4.865   9.103  10.315  1.00  0.00     0.049 A 
ATOM     62  H   UNL     1      -3.695   7.378   9.980  1.00  0.00     0.167 HD
ATOM     63  C   UNL     1      -2.548   9.859  10.764  1.00  0.00     0.074 A 
ATOM     64  C   UNL     1      -1.561  10.854  11.131  1.00  0.00     0.031 C 
ATOM     65  C   UNL     1      -3.879  10.095  10.668  1.00  0.00     0.031 A 
BRANCH  52  66
ATOM     66  C   UNL     1      -7.235   5.208   8.948  1.00  0.00    -0.014 A 
ATOM     67  C   UNL     1      -7.951   5.750   7.867  1.00  0.00     0.009 A 
ATOM     68  C   UNL     1      -7.875   4.280   9.784  1.00  0.00     0.009 A 
ATOM     69  C   UNL     1      -9.284   5.395   7.647  1.00  0.00     0.001 A 
ATOM     70  C   UNL     1      -9.199   3.903   9.543  1.00  0.00     0.001 A 
ATOM     71  C   UNL     1      -9.906   4.470   8.484  1.00  0.00     0.000 A 
ENDBRANCH  52  66
BRANCH  53  72
ATOM     72  C   UNL     1       1.966   8.507  10.998  1.00  0.00    -0.014 A 
ATOM     73  C   UNL     1       2.971   8.527  10.014  1.00  0.00     0.009 A 
ATOM     74  C   UNL     1       2.300   8.863  12.312  1.00  0.00     0.009 A 
ATOM     75  C   UNL     1       4.285   8.860  10.347  1.00  0.00     0.001 A 
ATOM     76  C   UNL     1       3.609   9.231  12.635  1.00  0.00     0.001 A 
ATOM     77  C   UNL     1       4.602   9.216  11.656  1.00  0.00     0.000 A 
ENDBRANCH  53  72
BRANCH  65  78
ATOM     78  C   UNL     1      -4.371  11.489  10.956  1.00  0.00    -0.014 A 
ATOM     79  C   UNL     1      -5.206  11.723  12.062  1.00  0.00     0.009 A 
ATOM     80  C   UNL     1      -4.103  12.549  10.075  1.00  0.00     0.009 A 
ATOM     81  C   UNL     1      -5.781  12.978  12.266  1.00  0.00     0.001 A 
ATOM     82  C   UNL     1      -4.650  13.814  10.303  1.00  0.00     0.001 A 
ATOM     83  C   UNL     1      -5.499  14.024  11.389  1.00  0.00     0.000 A 
ENDBRANCH  65  78
ENDBRANCH  39  40
ENDBRANCH  32  34
ENDBRANCH  31  32
ENDBRANCH  30  31
ENDBRANCH  29  30
ENDBRANCH  28  29
ENDBRANCH  27  28
ENDBRANCH   1  27
TORSDOF 20
