REMARK SMILES C=CCn1nc(C(=O)OCCOCCOCCOC(=O)c2ccc(-c3c4nc(c(-c5ccccc5)c5ccc([nH]5)c(-c5ccccc5)c5nc(c(-c6ccccc6)c6ccc3[nH]6)C=C5)C=C4)cc2)c2c1CC[C@@H]([NH+]1CCC(C(C)(C)O)CC1)C2
REMARK SMILES IDX 13 1 12 2 11 3 10 4 9 5 7 6 8 7 6 8 4 9 5 10 70 11 69 12
REMARK SMILES IDX 71 13 84 14 72 15 73 16 3 17 2 18 1 19 74 20 75 21 83 22
REMARK SMILES IDX 76 24 82 25 77 26 78 27 79 28 80 29 81 30 14 32 15 33 16 34
REMARK SMILES IDX 17 35 18 36 19 37 20 38 21 39 22 40 68 41 23 42 67 43 24 44
REMARK SMILES IDX 25 45 26 46 61 47 27 48 66 49 60 50 62 51 28 52 65 53 59 54
REMARK SMILES IDX 58 55 29 57 51 58 36 59 50 60 37 61 40 62 49 63 63 64 38 65
REMARK SMILES IDX 39 66 48 68 64 69 41 70 30 71 31 72 35 73 32 74 34 75 33 76
REMARK SMILES IDX 52 77 53 78 57 79 54 80 56 81 55 82 42 83 43 84 47 85 44 86
REMARK SMILES IDX 46 87 45 88
REMARK H PARENT 74 23 81 31 62 56 40 67
REMARK Flexibility Score: inf
ROOT
ATOM      1  C   UNL     1      -1.650  -3.598  -6.367  1.00  0.00     0.188 C 
ENDROOT
BRANCH   1   2
ATOM      2  O   UNL     1      -2.429  -4.316  -7.314  1.00  0.00    -0.376 OA
BRANCH   2   3
ATOM      3  C   UNL     1      -3.477  -3.659  -8.015  1.00  0.00     0.202 C 
BRANCH   3   4
ATOM      4  C   UNL     1      -4.589  -2.948  -7.227  1.00  0.00     0.261 C 
BRANCH   4   5
ATOM      5  O   UNL     1      -4.128  -2.003  -6.251  1.00  0.00    -0.458 OA
BRANCH   5   6
ATOM      6  C   UNL     1      -4.218  -2.412  -4.948  1.00  0.00     0.359 C 
ATOM      7  O   UNL     1      -4.745  -3.466  -4.605  1.00  0.00    -0.244 OA
BRANCH   6   8
ATOM      8  C   UNL     1      -3.559  -1.490  -4.002  1.00  0.00     0.174 A 
ATOM      9  N   UNL     1      -2.742  -0.826  -2.138  1.00  0.00    -0.265 N 
ATOM     10  N   UNL     1      -3.227  -1.917  -2.761  1.00  0.00    -0.165 NA
ATOM     11  C   UNL     1      -2.948   0.302  -2.874  1.00  0.00     0.043 A 
ATOM     12  C   UNL     1      -3.151  -0.133  -4.165  1.00  0.00     0.014 A 
ATOM     13  C   UNL     1      -2.897   1.705  -2.417  1.00  0.00     0.062 C 
ATOM     14  C   UNL     1      -3.067   0.793  -5.335  1.00  0.00     0.105 C 
ATOM     15  C   UNL     1      -3.034   2.656  -3.617  1.00  0.00     0.072 C 
ATOM     16  C   UNL     1      -2.412   2.177  -4.955  1.00  0.00     0.189 C 
BRANCH   9  17
ATOM     17  C   UNL     1      -2.034  -0.970  -0.868  1.00  0.00     0.171 C 
BRANCH  17  18
ATOM     18  C   UNL     1      -0.544  -1.133  -1.061  1.00  0.00    -0.011 C 
ATOM     19  C   UNL     1       0.398  -0.559  -0.298  1.00  0.00     0.006 C 
ENDBRANCH  17  18
ENDBRANCH   9  17
BRANCH  16  20
ATOM     20  N   UNL     1      -0.945   2.253  -5.165  1.00  0.00    -0.332 N 
ATOM     21  C   UNL     1      -0.024   1.462  -4.369  1.00  0.00     0.262 C 
ATOM     22  C   UNL     1      -0.385   3.587  -5.373  1.00  0.00     0.262 C 
ATOM     23  H   UNL     1      -0.992   1.745  -6.048  1.00  0.00     0.348 HD
ATOM     24  C   UNL     1       0.422   2.075  -3.040  1.00  0.00     0.068 C 
ATOM     25  C   UNL     1      -0.147   4.383  -4.096  1.00  0.00     0.068 C 
ATOM     26  C   UNL     1       0.544   3.616  -2.943  1.00  0.00     0.031 C 
BRANCH  26  27
ATOM     27  C   UNL     1       0.124   4.196  -1.536  1.00  0.00     0.062 C 
ATOM     28  C   UNL     1       0.621   3.366  -0.346  1.00  0.00     0.042 C 
ATOM     29  C   UNL     1       0.606   5.644  -1.370  1.00  0.00     0.042 C 
BRANCH  27  30
ATOM     30  O   UNL     1      -1.305   4.223  -1.436  1.00  0.00    -0.390 OA
ATOM     31  H   UNL     1      -1.653   3.324  -1.536  1.00  0.00     0.211 HD
ENDBRANCH  27  30
ENDBRANCH  26  27
ENDBRANCH  16  20
ENDBRANCH   6   8
ENDBRANCH   5   6
ENDBRANCH   4   5
ENDBRANCH   3   4
ENDBRANCH   2   3
ENDBRANCH   1   2
BRANCH   1  32
ATOM     32  C   UNL     1      -1.195  -2.148  -6.640  1.00  0.00     0.188 C 
BRANCH  32  33
ATOM     33  O   UNL     1      -1.729  -1.544  -7.812  1.00  0.00    -0.376 OA
BRANCH  33  34
ATOM     34  C   UNL     1      -0.771  -1.018  -8.727  1.00  0.00     0.202 C 
BRANCH  34  35
ATOM     35  C   UNL     1      -0.186  -2.086  -9.651  1.00  0.00     0.261 C 
BRANCH  35  36
ATOM     36  O   UNL     1       0.302  -3.222  -8.947  1.00  0.00    -0.460 OA
BRANCH  36  37
ATOM     37  C   UNL     1       1.361  -3.005  -8.143  1.00  0.00     0.338 C 
ATOM     38  O   UNL     1       1.944  -1.952  -7.961  1.00  0.00    -0.246 OA
BRANCH  37  39
ATOM     39  C   UNL     1       1.751  -4.285  -7.533  1.00  0.00     0.060 A 
ATOM     40  C   UNL     1       2.836  -4.251  -6.656  1.00  0.00     0.016 A 
ATOM     41  C   UNL     1       1.256  -5.487  -8.060  1.00  0.00     0.016 A 
ATOM     42  C   UNL     1       3.625  -5.373  -6.570  1.00  0.00     0.010 A 
ATOM     43  C   UNL     1       2.053  -6.603  -7.990  1.00  0.00     0.010 A 
ATOM     44  C   UNL     1       3.288  -6.475  -7.360  1.00  0.00    -0.014 A 
BRANCH  44  45
ATOM     45  C   UNL     1       4.367  -7.369  -7.718  1.00  0.00     0.031 A 
ATOM     46  C   UNL     1       4.678  -8.451  -6.776  1.00  0.00     0.074 A 
ATOM     47  C   UNL     1       5.004  -7.230  -8.897  1.00  0.00     0.049 A 
ATOM     48  N   UNL     1       5.803  -8.676  -6.186  1.00  0.00    -0.248 NA
ATOM     49  C   UNL     1       3.588  -9.359  -6.404  1.00  0.00     0.031 C 
ATOM     50  C   UNL     1       4.616  -6.394 -10.039  1.00  0.00     0.029 A 
ATOM     51  N   UNL     1       6.078  -7.922  -9.364  1.00  0.00    -0.354 N 
ATOM     52  C   UNL     1       5.614  -9.840  -5.457  1.00  0.00     0.074 A 
ATOM     53  C   UNL     1       4.209 -10.162  -5.542  1.00  0.00     0.031 C 
ATOM     54  C   UNL     1       5.291  -6.809 -11.132  1.00  0.00     0.029 A 
ATOM     55  C   UNL     1       6.228  -7.849 -10.739  1.00  0.00     0.049 A 
ATOM     56  H   UNL     1       6.690  -8.427  -8.781  1.00  0.00     0.167 HD
ATOM     57  C   UNL     1       6.652 -10.567  -4.969  1.00  0.00     0.031 A 
ATOM     58  C   UNL     1       6.993  -8.661 -11.505  1.00  0.00     0.031 A 
ATOM     59  C   UNL     1       7.887  -9.835  -4.952  1.00  0.00     0.049 A 
ATOM     60  C   UNL     1       7.994  -9.311 -10.625  1.00  0.00     0.074 A 
ATOM     61  C   UNL     1       8.322  -8.688  -4.319  1.00  0.00     0.029 A 
ATOM     62  N   UNL     1       8.802 -10.089  -5.945  1.00  0.00    -0.354 N 
ATOM     63  N   UNL     1       8.989  -8.680 -10.069  1.00  0.00    -0.248 NA
ATOM     64  C   UNL     1       7.674 -10.601 -10.032  1.00  0.00     0.031 C 
ATOM     65  C   UNL     1       9.220  -8.069  -5.235  1.00  0.00     0.029 A 
ATOM     66  C   UNL     1       9.286  -8.878  -6.372  1.00  0.00     0.049 A 
ATOM     67  H   UNL     1       9.062 -10.975  -6.286  1.00  0.00     0.167 HD
ATOM     68  C   UNL     1       9.138  -9.272  -8.822  1.00  0.00     0.074 A 
ATOM     69  C   UNL     1       8.399 -10.527  -8.912  1.00  0.00     0.031 C 
ATOM     70  C   UNL     1       9.598  -8.561  -7.750  1.00  0.00     0.031 A 
BRANCH  57  71
ATOM     71  C   UNL     1       6.582 -12.051  -4.780  1.00  0.00    -0.014 A 
ATOM     72  C   UNL     1       7.577 -12.699  -4.034  1.00  0.00     0.009 A 
ATOM     73  C   UNL     1       5.692 -12.864  -5.509  1.00  0.00     0.009 A 
ATOM     74  C   UNL     1       7.682 -14.094  -4.031  1.00  0.00     0.001 A 
ATOM     75  C   UNL     1       5.765 -14.257  -5.472  1.00  0.00     0.001 A 
ATOM     76  C   UNL     1       6.774 -14.871  -4.746  1.00  0.00     0.000 A 
ENDBRANCH  57  71
BRANCH  58  77
ATOM     77  C   UNL     1       6.734  -9.091 -12.895  1.00  0.00    -0.014 A 
ATOM     78  C   UNL     1       7.733  -9.716 -13.654  1.00  0.00     0.009 A 
ATOM     79  C   UNL     1       5.426  -9.089 -13.418  1.00  0.00     0.009 A 
ATOM     80  C   UNL     1       7.429 -10.331 -14.877  1.00  0.00     0.001 A 
ATOM     81  C   UNL     1       5.124  -9.686 -14.644  1.00  0.00     0.001 A 
ATOM     82  C   UNL     1       6.125 -10.320 -15.368  1.00  0.00     0.000 A 
ENDBRANCH  58  77
BRANCH  70  83
ATOM     83  C   UNL     1      10.175  -7.188  -8.009  1.00  0.00    -0.014 A 
ATOM     84  C   UNL     1       9.423  -6.158  -8.603  1.00  0.00     0.009 A 
ATOM     85  C   UNL     1      11.444  -6.872  -7.503  1.00  0.00     0.009 A 
ATOM     86  C   UNL     1       9.939  -4.865  -8.724  1.00  0.00     0.001 A 
ATOM     87  C   UNL     1      11.952  -5.573  -7.602  1.00  0.00     0.001 A 
ATOM     88  C   UNL     1      11.203  -4.572  -8.219  1.00  0.00     0.000 A 
ENDBRANCH  70  83
ENDBRANCH  44  45
ENDBRANCH  37  39
ENDBRANCH  36  37
ENDBRANCH  35  36
ENDBRANCH  34  35
ENDBRANCH  33  34
ENDBRANCH  32  33
ENDBRANCH   1  32
TORSDOF 22
