REMARK SMILES O=C(OCCOCCOCCOC(=O)c1ccc(-c2c3nc(c(-c4ccccc4)c4ccc([nH]4)c(-c4ccccc4)c4nc(c(-c5ccccc5)c5ccc2[nH]5)C=C4)C=C3)cc1)C1=Cc2cc(C(F)(F)F)ccc2O[C@@H]1C(F)(F)F
REMARK SMILES IDX 8 1 7 2 6 3 5 4 4 5 3 6 2 7 1 8 63 9 64 10 76 11 65 12 75 13
REMARK SMILES IDX 66 14 74 15 67 16 73 17 72 18 77 19 78 20 79 21 80 22 68 23
REMARK SMILES IDX 69 24 70 25 71 26 9 27 10 28 11 29 12 30 13 31 14 32 15 33
REMARK SMILES IDX 16 34 62 35 17 36 61 37 18 38 19 39 20 40 55 41 21 42 60 43
REMARK SMILES IDX 54 44 56 45 22 46 59 47 53 48 52 49 23 51 45 52 30 53 44 54
REMARK SMILES IDX 31 55 34 56 43 57 57 58 32 59 33 60 42 62 58 63 35 64 24 65
REMARK SMILES IDX 25 66 29 67 26 68 28 69 27 70 46 71 47 72 51 73 48 74 50 75
REMARK SMILES IDX 49 76 36 77 37 78 41 79 38 80 40 81 39 82
REMARK H PARENT 56 50 34 61
REMARK Flexibility Score: inf
ROOT
ATOM      1  C   UNL     1       2.364   2.573   2.190  1.00  0.00     0.188 C 
ENDROOT
BRANCH   1   2
ATOM      2  C   UNL     1       2.558   1.046   2.208  1.00  0.00     0.188 C 
BRANCH   2   3
ATOM      3  O   UNL     1       3.827   0.341   2.062  1.00  0.00    -0.376 OA
BRANCH   3   4
ATOM      4  C   UNL     1       4.457  -0.496   0.777  1.00  0.00     0.202 C 
BRANCH   4   5
ATOM      5  C   UNL     1       3.686  -0.616  -1.259  1.00  0.00     0.261 C 
BRANCH   5   6
ATOM      6  O   UNL     1       2.795  -1.739  -1.824  1.00  0.00    -0.460 OA
BRANCH   6   7
ATOM      7  C   UNL     1       3.020  -2.924  -1.243  1.00  0.00     0.338 C 
ATOM      8  O   UNL     1       2.439  -3.971  -1.372  1.00  0.00    -0.246 OA
BRANCH   7   9
ATOM      9  C   UNL     1       3.854  -2.409  -0.184  1.00  0.00     0.087 C 
ATOM     10  C   UNL     1       5.231  -2.135  -0.638  1.00  0.00     0.027 C 
ATOM     11  C   UNL     1       2.598  -1.071   0.415  1.00  0.00     0.316 C 
ATOM     12  C   UNL     1       5.881  -0.472  -0.906  1.00  0.00     0.018 A 
ATOM     13  O   UNL     1       3.238   0.720   0.024  1.00  0.00    -0.475 OA
ATOM     14  C   UNL     1       7.140  -0.321  -1.412  1.00  0.00     0.025 A 
ATOM     15  C   UNL     1       4.919   0.947  -0.652  1.00  0.00     0.128 A 
ATOM     16  C   UNL     1       7.552   1.014  -1.647  1.00  0.00     0.056 A 
ATOM     17  C   UNL     1       5.382   2.211  -0.871  1.00  0.00     0.048 A 
ATOM     18  C   UNL     1       6.716   2.203  -1.368  1.00  0.00     0.017 A 
BRANCH  11  19
ATOM     19  C   UNL     1       2.223  -1.796   1.822  1.00  0.00     0.430 C 
ATOM     20  F   UNL     1       1.508  -1.114   2.726  1.00  0.00    -0.167 F 
ATOM     21  F   UNL     1       1.431  -2.867   1.508  1.00  0.00    -0.167 F 
ATOM     22  F   UNL     1       3.286  -2.342   2.465  1.00  0.00    -0.167 F 
ENDBRANCH  11  19
BRANCH  16  23
ATOM     23  C   UNL     1       8.952   1.170  -2.236  1.00  0.00     0.416 C 
ATOM     24  F   UNL     1       9.914   0.666  -1.413  1.00  0.00    -0.166 F 
ATOM     25  F   UNL     1       9.085   0.491  -3.412  1.00  0.00    -0.166 F 
ATOM     26  F   UNL     1       9.309   2.453  -2.499  1.00  0.00    -0.166 F 
ENDBRANCH  16  23
ENDBRANCH   7   9
ENDBRANCH   6   7
ENDBRANCH   5   6
ENDBRANCH   4   5
ENDBRANCH   3   4
ENDBRANCH   2   3
ENDBRANCH   1   2
BRANCH   1  27
ATOM     27  O   UNL     1       3.418   3.416   1.799  1.00  0.00    -0.376 OA
BRANCH  27  28
ATOM     28  C   UNL     1       4.654   3.233   2.475  1.00  0.00     0.202 C 
BRANCH  28  29
ATOM     29  C   UNL     1       4.640   3.248   4.010  1.00  0.00     0.261 C 
BRANCH  29  30
ATOM     30  O   UNL     1       4.158   2.010   4.580  1.00  0.00    -0.460 OA
BRANCH  30  31
ATOM     31  C   UNL     1       3.081   2.092   5.399  1.00  0.00     0.338 C 
ATOM     32  O   UNL     1       2.470   3.098   5.715  1.00  0.00    -0.246 OA
BRANCH  31  33
ATOM     33  C   UNL     1       2.608   0.733   5.748  1.00  0.00     0.060 A 
ATOM     34  C   UNL     1       1.264   0.414   5.501  1.00  0.00     0.016 A 
ATOM     35  C   UNL     1       3.457  -0.201   6.345  1.00  0.00     0.016 A 
ATOM     36  C   UNL     1       0.756  -0.829   5.875  1.00  0.00     0.010 A 
ATOM     37  C   UNL     1       2.935  -1.430   6.766  1.00  0.00     0.010 A 
ATOM     38  C   UNL     1       1.573  -1.726   6.573  1.00  0.00    -0.014 A 
BRANCH  38  39
ATOM     39  C   UNL     1       0.913  -2.776   7.386  1.00  0.00     0.031 A 
ATOM     40  C   UNL     1       0.489  -2.389   8.780  1.00  0.00     0.074 A 
ATOM     41  C   UNL     1       0.634  -3.998   6.904  1.00  0.00     0.049 A 
ATOM     42  N   UNL     1      -0.170  -3.078   9.675  1.00  0.00    -0.248 NA
ATOM     43  C   UNL     1       0.859  -1.031   9.219  1.00  0.00     0.031 C 
ATOM     44  C   UNL     1       0.942  -4.475   5.558  1.00  0.00     0.029 A 
ATOM     45  N   UNL     1       0.009  -5.062   7.506  1.00  0.00    -0.354 N 
ATOM     46  C   UNL     1      -0.295  -2.236  10.774  1.00  0.00     0.074 A 
ATOM     47  C   UNL     1       0.387  -1.004  10.453  1.00  0.00     0.031 C 
ATOM     48  C   UNL     1       0.501  -5.741   5.435  1.00  0.00     0.029 A 
ATOM     49  C   UNL     1      -0.100  -6.168   6.698  1.00  0.00     0.049 A 
ATOM     50  H   UNL     1      -0.330  -5.035   8.430  1.00  0.00     0.167 HD
ATOM     51  C   UNL     1      -0.927  -2.461  11.949  1.00  0.00     0.031 A 
ATOM     52  C   UNL     1      -0.625  -7.382   6.959  1.00  0.00     0.031 A 
ATOM     53  C   UNL     1      -1.569  -3.701  12.285  1.00  0.00     0.049 A 
ATOM     54  C   UNL     1      -1.242  -7.642   8.312  1.00  0.00     0.074 A 
ATOM     55  C   UNL     1      -2.239  -4.038  13.447  1.00  0.00     0.029 A 
ATOM     56  N   UNL     1      -1.602  -4.816  11.461  1.00  0.00    -0.354 N 
ATOM     57  N   UNL     1      -1.393  -6.827   9.329  1.00  0.00    -0.248 NA
ATOM     58  C   UNL     1      -1.783  -8.990   8.541  1.00  0.00     0.031 C 
ATOM     59  C   UNL     1      -2.612  -5.383  13.356  1.00  0.00     0.029 A 
ATOM     60  C   UNL     1      -2.255  -5.854  12.102  1.00  0.00     0.049 A 
ATOM     61  H   UNL     1      -1.218  -4.862  10.556  1.00  0.00     0.167 HD
ATOM     62  C   UNL     1      -2.088  -7.546  10.296  1.00  0.00     0.074 A 
ATOM     63  C   UNL     1      -2.336  -8.859   9.738  1.00  0.00     0.031 C 
ATOM     64  C   UNL     1      -2.495  -7.155  11.530  1.00  0.00     0.031 A 
BRANCH  51  65
ATOM     65  C   UNL     1      -0.894  -1.358  12.970  1.00  0.00    -0.014 A 
ATOM     66  C   UNL     1      -1.581  -0.148  12.771  1.00  0.00     0.009 A 
ATOM     67  C   UNL     1      -0.157  -1.532  14.152  1.00  0.00     0.009 A 
ATOM     68  C   UNL     1      -1.493   0.878  13.715  1.00  0.00     0.001 A 
ATOM     69  C   UNL     1      -0.101  -0.518  15.109  1.00  0.00     0.001 A 
ATOM     70  C   UNL     1      -0.759   0.690  14.885  1.00  0.00     0.000 A 
ENDBRANCH  51  65
BRANCH  52  71
ATOM     71  C   UNL     1      -0.601  -8.454   5.925  1.00  0.00    -0.014 A 
ATOM     72  C   UNL     1      -1.794  -8.940   5.364  1.00  0.00     0.009 A 
ATOM     73  C   UNL     1       0.614  -9.033   5.527  1.00  0.00     0.009 A 
ATOM     74  C   UNL     1      -1.772 -10.004   4.458  1.00  0.00     0.001 A 
ATOM     75  C   UNL     1       0.636 -10.074   4.595  1.00  0.00     0.001 A 
ATOM     76  C   UNL     1      -0.557 -10.567   4.071  1.00  0.00     0.000 A 
ENDBRANCH  52  71
BRANCH  64  77
ATOM     77  C   UNL     1      -3.315  -8.131  12.333  1.00  0.00    -0.014 A 
ATOM     78  C   UNL     1      -2.769  -9.318  12.845  1.00  0.00     0.009 A 
ATOM     79  C   UNL     1      -4.660  -7.831  12.608  1.00  0.00     0.009 A 
ATOM     80  C   UNL     1      -3.567 -10.209  13.566  1.00  0.00     0.001 A 
ATOM     81  C   UNL     1      -5.444  -8.702  13.364  1.00  0.00     0.001 A 
ATOM     82  C   UNL     1      -4.902  -9.898  13.829  1.00  0.00     0.000 A 
ENDBRANCH  64  77
ENDBRANCH  38  39
ENDBRANCH  31  33
ENDBRANCH  30  31
ENDBRANCH  29  30
ENDBRANCH  28  29
ENDBRANCH  27  28
ENDBRANCH   1  27
TORSDOF 19
