REMARK SMILES CCC[NH2+][C@]1(C(=O)OCCOCCOCCOC(=O)c2ccc(-c3c4nc(c(-c5ccccc5)c5ccc([nH]5)c(-c5ccccc5)c5nc(c(-c6ccccc6)c6ccc3[nH]6)C=C5)C=C4)cc2)CCC[C@@H]([N@@H+](C)[C@@H](C)C2CC2)C1
REMARK SMILES IDX 12 1 11 2 10 3 9 4 8 5 6 6 7 7 5 8 68 9 79 10 69 11 71 12
REMARK SMILES IDX 70 13 4 14 3 17 2 18 1 19 72 20 73 21 74 23 75 24 76 25
REMARK SMILES IDX 77 26 78 27 13 28 14 29 15 30 16 31 17 32 18 33 19 34 20 35
REMARK SMILES IDX 21 36 67 37 22 38 66 39 23 40 24 41 25 42 60 43 26 44 65 45
REMARK SMILES IDX 59 46 61 47 27 48 64 49 58 50 57 51 28 53 50 54 35 55 49 56
REMARK SMILES IDX 36 57 39 58 48 59 62 60 37 61 38 62 47 64 63 65 40 66 29 67
REMARK SMILES IDX 30 68 34 69 31 70 33 71 32 72 51 73 52 74 56 75 53 76 55 77
REMARK SMILES IDX 54 78 41 79 42 80 46 81 43 82 45 83 44 84
REMARK H PARENT 4 15 4 16 72 22 61 52 39 63
REMARK Flexibility Score: inf
ROOT
ATOM      1  C   UNL     1       1.881   0.880   1.035  1.00  0.00     0.188 C 
ENDROOT
BRANCH   1   2
ATOM      2  O   UNL     1       0.766   1.244   0.237  1.00  0.00    -0.376 OA
BRANCH   2   3
ATOM      3  C   UNL     1      -0.186   0.216   0.016  1.00  0.00     0.202 C 
BRANCH   3   4
ATOM      4  C   UNL     1      -1.062  -0.162   1.220  1.00  0.00     0.261 C 
BRANCH   4   5
ATOM      5  O   UNL     1      -0.391  -0.408   2.469  1.00  0.00    -0.459 OA
BRANCH   5   6
ATOM      6  C   UNL     1       0.420  -1.494   2.547  1.00  0.00     0.368 C 
ATOM      7  O   UNL     1       0.626  -2.244   1.596  1.00  0.00    -0.245 OA
BRANCH   6   8
ATOM      8  C   UNL     1       1.032  -1.699   3.986  1.00  0.00     0.200 C 
ATOM      9  C   UNL     1       0.416  -0.765   5.063  1.00  0.00     0.081 C 
ATOM     10  C   UNL     1       0.599  -3.111   4.329  1.00  0.00     0.146 C 
ATOM     11  C   UNL     1       0.780  -1.178   6.492  1.00  0.00     0.013 C 
ATOM     12  C   UNL     1       0.697  -3.625   5.739  1.00  0.00     0.190 C 
ATOM     13  C   UNL     1       0.287  -2.591   6.804  1.00  0.00     0.065 C 
BRANCH   8  14
ATOM     14  N   UNL     1       2.512  -1.543   4.012  1.00  0.00    -0.332 N 
ATOM     15  H   UNL     1       2.722  -0.553   3.886  1.00  0.00     0.347 HD
ATOM     16  H   UNL     1       2.810  -1.925   4.910  1.00  0.00     0.347 HD
BRANCH  14  17
ATOM     17  C   UNL     1       3.262  -2.291   3.001  1.00  0.00     0.261 C 
BRANCH  17  18
ATOM     18  C   UNL     1       4.718  -2.427   3.442  1.00  0.00     0.058 C 
ATOM     19  C   UNL     1       4.978  -3.613   4.353  1.00  0.00     0.010 C 
ENDBRANCH  17  18
ENDBRANCH  14  17
ENDBRANCH   8  14
BRANCH  12  20
ATOM     20  N   UNL     1       0.043  -4.961   5.741  1.00  0.00    -0.332 N 
ATOM     21  C   UNL     1       0.486  -5.715   6.923  1.00  0.00     0.333 C 
ATOM     22  H   UNL     1       0.374  -5.332   4.851  1.00  0.00     0.348 HD
BRANCH  20  23
ATOM     23  C   UNL     1      -1.419  -5.140   5.494  1.00  0.00     0.184 C 
ATOM     24  C   UNL     1      -2.369  -4.393   6.439  1.00  0.00     0.075 C 
BRANCH  23  25
ATOM     25  C   UNL     1      -2.060  -5.205   4.097  1.00  0.00     0.047 C 
ATOM     26  C   UNL     1      -2.540  -3.978   3.332  1.00  0.00     0.010 C 
ATOM     27  C   UNL     1      -1.500  -4.884   2.727  1.00  0.00     0.010 C 
ENDBRANCH  23  25
ENDBRANCH  20  23
ENDBRANCH  12  20
ENDBRANCH   6   8
ENDBRANCH   5   6
ENDBRANCH   4   5
ENDBRANCH   3   4
ENDBRANCH   2   3
ENDBRANCH   1   2
BRANCH   1  28
ATOM     28  C   UNL     1       1.852   1.488   2.449  1.00  0.00     0.188 C 
BRANCH  28  29
ATOM     29  O   UNL     1       0.999   2.582   2.746  1.00  0.00    -0.376 OA
BRANCH  29  30
ATOM     30  C   UNL     1       0.885   3.613   1.783  1.00  0.00     0.202 C 
BRANCH  30  31
ATOM     31  C   UNL     1       2.170   4.320   1.317  1.00  0.00     0.261 C 
BRANCH  31  32
ATOM     32  O   UNL     1       3.297   3.468   1.012  1.00  0.00    -0.460 OA
BRANCH  32  33
ATOM     33  C   UNL     1       4.308   3.458   1.920  1.00  0.00     0.338 C 
ATOM     34  O   UNL     1       4.386   4.145   2.931  1.00  0.00    -0.246 OA
BRANCH  33  35
ATOM     35  C   UNL     1       5.247   2.336   1.652  1.00  0.00     0.060 A 
ATOM     36  C   UNL     1       5.506   1.427   2.687  1.00  0.00     0.016 A 
ATOM     37  C   UNL     1       5.905   2.183   0.429  1.00  0.00     0.016 A 
ATOM     38  C   UNL     1       6.410   0.376   2.500  1.00  0.00     0.010 A 
ATOM     39  C   UNL     1       6.822   1.128   0.251  1.00  0.00     0.010 A 
ATOM     40  C   UNL     1       7.080   0.210   1.283  1.00  0.00    -0.014 A 
BRANCH  40  41
ATOM     41  C   UNL     1       8.137  -0.835   1.161  1.00  0.00     0.031 A 
ATOM     42  C   UNL     1       9.505  -0.555   1.724  1.00  0.00     0.074 A 
ATOM     43  C   UNL     1       7.897  -2.042   0.608  1.00  0.00     0.049 A 
ATOM     44  N   UNL     1      10.600  -1.269   1.638  1.00  0.00    -0.248 NA
ATOM     45  C   UNL     1       9.657   0.691   2.492  1.00  0.00     0.031 C 
ATOM     46  C   UNL     1       6.600  -2.516   0.132  1.00  0.00     0.029 A 
ATOM     47  N   UNL     1       8.745  -3.102   0.369  1.00  0.00    -0.354 N 
ATOM     48  C   UNL     1      11.577  -0.541   2.304  1.00  0.00     0.074 A 
ATOM     49  C   UNL     1      10.940   0.651   2.820  1.00  0.00     0.031 C 
ATOM     50  C   UNL     1       6.734  -3.774  -0.328  1.00  0.00     0.029 A 
ATOM     51  C   UNL     1       8.141  -4.167  -0.262  1.00  0.00     0.049 A 
ATOM     52  H   UNL     1       9.695  -3.099   0.626  1.00  0.00     0.167 HD
ATOM     53  C   UNL     1      12.895  -0.816   2.442  1.00  0.00     0.031 A 
ATOM     54  C   UNL     1       8.668  -5.300  -0.776  1.00  0.00     0.031 A 
ATOM     55  C   UNL     1      13.548  -1.982   1.913  1.00  0.00     0.049 A 
ATOM     56  C   UNL     1      10.164  -5.517  -0.721  1.00  0.00     0.074 A 
ATOM     57  C   UNL     1      14.888  -2.323   1.987  1.00  0.00     0.029 A 
ATOM     58  N   UNL     1      12.918  -2.986   1.198  1.00  0.00    -0.354 N 
ATOM     59  N   UNL     1      11.085  -4.810  -0.112  1.00  0.00    -0.248 NA
ATOM     60  C   UNL     1      10.698  -6.677  -1.458  1.00  0.00     0.031 C 
ATOM     61  C   UNL     1      15.082  -3.493   1.250  1.00  0.00     0.029 A 
ATOM     62  C   UNL     1      13.851  -3.922   0.783  1.00  0.00     0.049 A 
ATOM     63  H   UNL     1      11.952  -3.029   1.012  1.00  0.00     0.167 HD
ATOM     64  C   UNL     1      12.293  -5.447  -0.377  1.00  0.00     0.074 A 
ATOM     65  C   UNL     1      11.992  -6.613  -1.176  1.00  0.00     0.031 C 
ATOM     66  C   UNL     1      13.545  -5.088  -0.001  1.00  0.00     0.031 A 
BRANCH  53  67
ATOM     67  C   UNL     1      13.751   0.222   3.107  1.00  0.00    -0.014 A 
ATOM     68  C   UNL     1      13.729   0.425   4.494  1.00  0.00     0.009 A 
ATOM     69  C   UNL     1      14.634   0.978   2.319  1.00  0.00     0.009 A 
ATOM     70  C   UNL     1      14.561   1.385   5.075  1.00  0.00     0.001 A 
ATOM     71  C   UNL     1      15.483   1.915   2.905  1.00  0.00     0.001 A 
ATOM     72  C   UNL     1      15.441   2.123   4.282  1.00  0.00     0.000 A 
ENDBRANCH  53  67
BRANCH  54  73
ATOM     73  C   UNL     1       7.816  -6.287  -1.505  1.00  0.00    -0.014 A 
ATOM     74  C   UNL     1       7.725  -7.623  -1.078  1.00  0.00     0.009 A 
ATOM     75  C   UNL     1       7.174  -5.923  -2.700  1.00  0.00     0.009 A 
ATOM     76  C   UNL     1       7.051  -8.574  -1.852  1.00  0.00     0.001 A 
ATOM     77  C   UNL     1       6.466  -6.865  -3.450  1.00  0.00     0.001 A 
ATOM     78  C   UNL     1       6.420  -8.194  -3.035  1.00  0.00     0.000 A 
ENDBRANCH  54  73
BRANCH  66  79
ATOM     79  C   UNL     1      14.689  -5.976  -0.412  1.00  0.00    -0.014 A 
ATOM     80  C   UNL     1      15.129  -6.033  -1.744  1.00  0.00     0.009 A 
ATOM     81  C   UNL     1      15.389  -6.705   0.564  1.00  0.00     0.009 A 
ATOM     82  C   UNL     1      16.230  -6.820  -2.092  1.00  0.00     0.001 A 
ATOM     83  C   UNL     1      16.508  -7.465   0.219  1.00  0.00     0.001 A 
ATOM     84  C   UNL     1      16.923  -7.527  -1.110  1.00  0.00     0.000 A 
ENDBRANCH  66  79
ENDBRANCH  40  41
ENDBRANCH  33  35
ENDBRANCH  32  33
ENDBRANCH  31  32
ENDBRANCH  30  31
ENDBRANCH  29  30
ENDBRANCH  28  29
ENDBRANCH   1  28
TORSDOF 23
