REMARK SMILES CC[C@@H](NC(=O)N[C@H]1CCCCC[C@@H]1C(=O)OCCOCCOCCOC(=O)c1ccc(-c2c3nc(c(-c4ccccc4)c4ccc([nH]4)c(-c4ccccc4)c4nc(c(-c5ccccc5)c5ccc2[nH]5)C=C4)C=C3)cc1)C(C)C
REMARK SMILES IDX 21 1 20 2 19 3 18 4 17 5 15 6 16 7 14 8 8 9 7 10 4 11 5 12
REMARK SMILES IDX 6 14 3 16 2 17 1 18 77 19 78 20 79 21 9 22 10 23 11 24 13 26
REMARK SMILES IDX 12 27 22 29 23 30 24 31 25 32 26 33 27 34 28 35 29 36 30 37
REMARK SMILES IDX 76 38 31 39 75 40 32 41 33 42 34 43 69 44 35 45 74 46 68 47
REMARK SMILES IDX 70 48 36 49 73 50 67 51 66 52 37 54 59 55 44 56 58 57 45 58
REMARK SMILES IDX 48 59 57 60 71 61 46 62 47 63 56 65 72 66 49 67 38 68 39 69
REMARK SMILES IDX 43 70 40 71 42 72 41 73 60 74 61 75 65 76 62 77 64 78 63 79
REMARK SMILES IDX 50 80 51 81 55 82 52 83 54 84 53 85
REMARK H PARENT 4 13 7 15 70 53 48 64
REMARK Flexibility Score: 90.00
ROOT
ATOM      1  C   UNL     1       2.968   2.207   3.249  1.00  0.00     0.188 C 
ENDROOT
BRANCH   1   2
ATOM      2  O   UNL     1       3.210   3.116   4.315  1.00  0.00    -0.376 OA
BRANCH   2   3
ATOM      3  C   UNL     1       3.865   2.582   5.469  1.00  0.00     0.202 C 
BRANCH   3   4
ATOM      4  C   UNL     1       3.033   1.706   6.464  1.00  0.00     0.261 C 
BRANCH   4   5
ATOM      5  O   UNL     1       2.738   0.299   6.141  1.00  0.00    -0.463 OA
BRANCH   5   6
ATOM      6  C   UNL     1       1.525  -0.252   6.562  1.00  0.00     0.311 C 
ATOM      7  O   UNL     1       0.719   0.403   7.214  1.00  0.00    -0.252 OA
BRANCH   6   8
ATOM      8  C   UNL     1       1.361  -1.846   6.282  1.00  0.00     0.121 C 
BRANCH   8   9
ATOM      9  C   UNL     1      -0.030  -2.538   5.527  1.00  0.00     0.098 C 
BRANCH   9  10
ATOM     10  N   UNL     1      -0.179  -3.057   4.016  1.00  0.00    -0.335 N 
ATOM     11  N   UNL     1       0.409  -1.751   2.120  1.00  0.00    -0.335 N 
ATOM     12  C   UNL     1      -0.093  -2.855   2.686  1.00  0.00     0.315 C 
ATOM     13  H   UNL     1       0.488  -1.735   1.139  1.00  0.00     0.165 HD
ATOM     14  O   UNL     1      -0.508  -3.741   1.936  1.00  0.00    -0.249 OA
ATOM     15  H   UNL     1      -0.489  -3.987   4.105  1.00  0.00     0.165 HD
BRANCH  11  16
ATOM     16  C   UNL     1       0.839  -0.590   2.843  1.00  0.00     0.086 C 
BRANCH  16  17
ATOM     17  C   UNL     1       2.038  -1.114   3.624  1.00  0.00     0.022 C 
ATOM     18  C   UNL     1       3.227  -1.889   3.075  1.00  0.00     0.006 C 
ENDBRANCH  16  17
BRANCH  16  19
ATOM     19  C   UNL     1      -0.542   0.039   3.403  1.00  0.00     0.005 C 
ATOM     20  C   UNL     1      -0.974   0.501   4.799  1.00  0.00     0.009 C 
ATOM     21  C   UNL     1      -0.944   1.209   2.501  1.00  0.00     0.009 C 
ENDBRANCH  16  19
ENDBRANCH  11  16
ENDBRANCH   9  10
BRANCH   9  22
ATOM     22  C   UNL     1      -0.467  -3.823   6.274  1.00  0.00     0.026 C 
BRANCH  22  23
ATOM     23  C   UNL     1       0.548  -4.947   6.070  1.00  0.00     0.002 C 
BRANCH  23  24
ATOM     24  C   UNL     1       1.508  -5.058   7.236  1.00  0.00     0.000 CG0
ATOM     25  G   UNL     1       2.393  -3.840   7.478  1.00  0.00     0.000 G0
ENDBRANCH  23  24
ENDBRANCH  22  23
ENDBRANCH   9  22
ENDBRANCH   8   9
BRANCH   8  26
ATOM     26  C   UNL     1       1.673  -2.495   7.648  1.00  0.00     0.017 C 
BRANCH  26  27
ATOM     27  C   UNL     1       2.393  -3.840   7.478  1.00  0.00     0.001 CG0
ATOM     28  G   UNL     1       1.508  -5.058   7.236  1.00  0.00     0.000 G0
ENDBRANCH  26  27
ENDBRANCH   8  26
ENDBRANCH   6   8
ENDBRANCH   5   6
ENDBRANCH   4   5
ENDBRANCH   3   4
ENDBRANCH   2   3
ENDBRANCH   1   2
BRANCH   1  29
ATOM     29  C   UNL     1       4.218   1.511   2.685  1.00  0.00     0.188 C 
BRANCH  29  30
ATOM     30  O   UNL     1       4.667   0.522   3.603  1.00  0.00    -0.376 OA
BRANCH  30  31
ATOM     31  C   UNL     1       6.054   0.225   3.688  1.00  0.00     0.202 C 
BRANCH  31  32
ATOM     32  C   UNL     1       6.890   0.161   2.406  1.00  0.00     0.261 C 
BRANCH  32  33
ATOM     33  O   UNL     1       6.134  -0.120   1.224  1.00  0.00    -0.460 OA
BRANCH  33  34
ATOM     34  C   UNL     1       5.895  -1.417   0.939  1.00  0.00     0.338 C 
ATOM     35  O   UNL     1       6.334  -2.394   1.535  1.00  0.00    -0.246 OA
BRANCH  34  36
ATOM     36  C   UNL     1       4.840  -1.459  -0.101  1.00  0.00     0.060 A 
ATOM     37  C   UNL     1       3.798  -2.383   0.047  1.00  0.00     0.016 A 
ATOM     38  C   UNL     1       4.825  -0.561  -1.170  1.00  0.00     0.016 A 
ATOM     39  C   UNL     1       2.696  -2.360  -0.799  1.00  0.00     0.010 A 
ATOM     40  C   UNL     1       3.775  -0.608  -2.090  1.00  0.00     0.010 A 
ATOM     41  C   UNL     1       2.714  -1.514  -1.908  1.00  0.00    -0.014 A 
BRANCH  41  42
ATOM     42  C   UNL     1       1.807  -1.813  -3.033  1.00  0.00     0.031 A 
ATOM     43  C   UNL     1       2.262  -2.860  -4.010  1.00  0.00     0.074 A 
ATOM     44  C   UNL     1       0.622  -1.201  -3.181  1.00  0.00     0.049 A 
ATOM     45  N   UNL     1       1.730  -3.223  -5.147  1.00  0.00    -0.248 NA
ATOM     46  C   UNL     1       3.486  -3.600  -3.651  1.00  0.00     0.031 C 
ATOM     47  C   UNL     1       0.023  -0.258  -2.239  1.00  0.00     0.029 A 
ATOM     48  N   UNL     1      -0.287  -1.286  -4.204  1.00  0.00    -0.354 N 
ATOM     49  C   UNL     1       2.559  -4.222  -5.639  1.00  0.00     0.074 A 
ATOM     50  C   UNL     1       3.632  -4.404  -4.690  1.00  0.00     0.031 C 
ATOM     51  C   UNL     1      -1.148   0.172  -2.745  1.00  0.00     0.029 A 
ATOM     52  C   UNL     1      -1.348  -0.427  -4.064  1.00  0.00     0.049 A 
ATOM     53  H   UNL     1      -0.188  -1.903  -4.965  1.00  0.00     0.167 HD
ATOM     54  C   UNL     1       2.445  -4.920  -6.791  1.00  0.00     0.031 A 
ATOM     55  C   UNL     1      -2.339  -0.134  -4.929  1.00  0.00     0.031 A 
ATOM     56  C   UNL     1       1.401  -4.704  -7.752  1.00  0.00     0.049 A 
ATOM     57  C   UNL     1      -2.369  -0.823  -6.272  1.00  0.00     0.074 A 
ATOM     58  C   UNL     1       1.209  -5.328  -8.970  1.00  0.00     0.029 A 
ATOM     59  N   UNL     1       0.378  -3.780  -7.603  1.00  0.00    -0.354 N 
ATOM     60  N   UNL     1      -1.569  -1.748  -6.749  1.00  0.00    -0.248 NA
ATOM     61  C   UNL     1      -3.440  -0.424  -7.197  1.00  0.00     0.031 C 
ATOM     62  C   UNL     1       0.107  -4.734  -9.590  1.00  0.00     0.029 A 
ATOM     63  C   UNL     1      -0.433  -3.796  -8.722  1.00  0.00     0.049 A 
ATOM     64  H   UNL     1       0.249  -3.200  -6.818  1.00  0.00     0.167 HD
ATOM     65  C   UNL     1      -2.067  -2.072  -8.007  1.00  0.00     0.074 A 
ATOM     66  C   UNL     1      -3.238  -1.247  -8.217  1.00  0.00     0.031 C 
ATOM     67  C   UNL     1      -1.603  -2.975  -8.905  1.00  0.00     0.031 A 
BRANCH  54  68
ATOM     68  C   UNL     1       3.524  -5.917  -7.098  1.00  0.00    -0.014 A 
ATOM     69  C   UNL     1       3.652  -7.111  -6.370  1.00  0.00     0.009 A 
ATOM     70  C   UNL     1       4.431  -5.652  -8.136  1.00  0.00     0.009 A 
ATOM     71  C   UNL     1       4.688  -8.003  -6.655  1.00  0.00     0.001 A 
ATOM     72  C   UNL     1       5.445  -6.560  -8.440  1.00  0.00     0.001 A 
ATOM     73  C   UNL     1       5.579  -7.729  -7.693  1.00  0.00     0.000 A 
ENDBRANCH  54  68
BRANCH  55  74
ATOM     74  C   UNL     1      -3.357   0.895  -4.588  1.00  0.00    -0.014 A 
ATOM     75  C   UNL     1      -4.706   0.545  -4.423  1.00  0.00     0.009 A 
ATOM     76  C   UNL     1      -2.991   2.246  -4.470  1.00  0.00     0.009 A 
ATOM     77  C   UNL     1      -5.670   1.527  -4.182  1.00  0.00     0.001 A 
ATOM     78  C   UNL     1      -3.952   3.222  -4.196  1.00  0.00     0.001 A 
ATOM     79  C   UNL     1      -5.292   2.864  -4.065  1.00  0.00     0.000 A 
ENDBRANCH  55  74
BRANCH  67  80
ATOM     80  C   UNL     1      -2.394  -3.175 -10.169  1.00  0.00    -0.014 A 
ATOM     81  C   UNL     1      -2.423  -2.206 -11.183  1.00  0.00     0.009 A 
ATOM     82  C   UNL     1      -3.064  -4.393 -10.373  1.00  0.00     0.009 A 
ATOM     83  C   UNL     1      -3.134  -2.442 -12.362  1.00  0.00     0.001 A 
ATOM     84  C   UNL     1      -3.744  -4.639 -11.565  1.00  0.00     0.001 A 
ATOM     85  C   UNL     1      -3.787  -3.660 -12.555  1.00  0.00     0.000 A 
ENDBRANCH  67  80
ENDBRANCH  41  42
ENDBRANCH  34  36
ENDBRANCH  33  34
ENDBRANCH  32  33
ENDBRANCH  31  32
ENDBRANCH  30  31
ENDBRANCH  29  30
ENDBRANCH   1  29
TORSDOF 21
