REMARK SMILES CCCC1(C(=O)OCCOCCOCCOC(=O)c2ccc(-c3c4nc(c(-c5ccccc5)c5ccc([nH]5)c(-c5ccccc5)c5nc(c(-c6ccccc6)c6ccc3[nH]6)C=C5)C=C4)cc2)CC[NH+]([C@H](C)[C@H](C)O)CC1
REMARK SMILES IDX 11 1 10 2 9 3 8 4 7 5 5 6 6 7 4 8 67 9 76 10 68 11 75 12
REMARK SMILES IDX 69 13 3 15 2 16 1 17 70 18 71 19 72 20 73 21 74 22 12 24
REMARK SMILES IDX 13 25 14 26 15 27 16 28 17 29 18 30 19 31 20 32 66 33 21 34
REMARK SMILES IDX 65 35 22 36 23 37 24 38 59 39 25 40 64 41 58 42 60 43 26 44
REMARK SMILES IDX 63 45 57 46 56 47 27 49 49 50 34 51 48 52 35 53 38 54 47 55
REMARK SMILES IDX 61 56 36 57 37 58 46 60 62 61 39 62 28 63 29 64 33 65 30 66
REMARK SMILES IDX 32 67 31 68 50 69 51 70 55 71 52 72 54 73 53 74 40 75 41 76
REMARK SMILES IDX 45 77 42 78 44 79 43 80
REMARK H PARENT 69 14 74 23 60 48 38 59
REMARK Flexibility Score: inf
ROOT
ATOM      1  C   UNL     1      -5.046   4.257   3.140  1.00  0.00     0.188 C 
ENDROOT
BRANCH   1   2
ATOM      2  O   UNL     1      -6.377   3.842   3.391  1.00  0.00    -0.376 OA
BRANCH   2   3
ATOM      3  C   UNL     1      -7.296   3.980   2.319  1.00  0.00     0.202 C 
BRANCH   3   4
ATOM      4  C   UNL     1      -6.976   3.613   0.847  1.00  0.00     0.261 C 
BRANCH   4   5
ATOM      5  O   UNL     1      -5.620   3.619   0.358  1.00  0.00    -0.463 OA
BRANCH   5   6
ATOM      6  C   UNL     1      -5.151   4.777  -0.174  1.00  0.00     0.312 C 
ATOM      7  O   UNL     1      -5.756   5.837  -0.046  1.00  0.00    -0.252 OA
BRANCH   6   8
ATOM      8  C   UNL     1      -3.859   4.590  -1.059  1.00  0.00     0.079 C 
ATOM      9  C   UNL     1      -2.724   3.785  -0.416  1.00  0.00     0.080 C 
ATOM     10  C   UNL     1      -4.373   3.730  -2.251  1.00  0.00     0.080 C 
ATOM     11  C   UNL     1      -1.649   3.353  -1.414  1.00  0.00     0.263 C 
ATOM     12  C   UNL     1      -3.350   2.966  -3.110  1.00  0.00     0.263 C 
ATOM     13  N   UNL     1      -2.132   2.482  -2.462  1.00  0.00    -0.331 N 
ATOM     14  H   UNL     1      -1.430   2.579  -3.195  1.00  0.00     0.348 HD
BRANCH   8  15
ATOM     15  C   UNL     1      -3.403   6.074  -1.367  1.00  0.00     0.019 C 
BRANCH  15  16
ATOM     16  C   UNL     1      -1.929   6.503  -1.483  1.00  0.00    -0.002 C 
ATOM     17  C   UNL     1      -1.446   6.612  -2.919  1.00  0.00     0.004 C 
ENDBRANCH  15  16
ENDBRANCH   8  15
BRANCH  13  18
ATOM     18  C   UNL     1      -1.958   1.025  -2.290  1.00  0.00     0.209 C 
ATOM     19  C   UNL     1      -2.524   0.434  -0.998  1.00  0.00     0.078 C 
BRANCH  18  20
ATOM     20  C   UNL     1      -0.469   0.580  -2.524  1.00  0.00     0.169 C 
ATOM     21  C   UNL     1       0.601   1.090  -1.558  1.00  0.00     0.045 C 
BRANCH  20  22
ATOM     22  O   UNL     1      -0.080   1.003  -3.840  1.00  0.00    -0.387 OA
ATOM     23  H   UNL     1      -0.086   1.972  -3.883  1.00  0.00     0.211 HD
ENDBRANCH  20  22
ENDBRANCH  18  20
ENDBRANCH  13  18
ENDBRANCH   6   8
ENDBRANCH   5   6
ENDBRANCH   4   5
ENDBRANCH   3   4
ENDBRANCH   2   3
ENDBRANCH   1   2
BRANCH   1  24
ATOM     24  C   UNL     1      -4.205   3.062   2.690  1.00  0.00     0.188 C 
BRANCH  24  25
ATOM     25  O   UNL     1      -4.956   1.873   2.563  1.00  0.00    -0.376 OA
BRANCH  25  26
ATOM     26  C   UNL     1      -5.002   1.005   3.685  1.00  0.00     0.202 C 
BRANCH  26  27
ATOM     27  C   UNL     1      -4.930   1.495   5.152  1.00  0.00     0.261 C 
BRANCH  27  28
ATOM     28  O   UNL     1      -4.178   2.682   5.460  1.00  0.00    -0.460 OA
BRANCH  28  29
ATOM     29  C   UNL     1      -2.828   2.622   5.482  1.00  0.00     0.338 C 
ATOM     30  O   UNL     1      -2.134   1.639   5.286  1.00  0.00    -0.246 OA
BRANCH  29  31
ATOM     31  C   UNL     1      -2.328   4.024   5.523  1.00  0.00     0.060 A 
ATOM     32  C   UNL     1      -1.501   4.491   4.488  1.00  0.00     0.016 A 
ATOM     33  C   UNL     1      -2.725   4.896   6.540  1.00  0.00     0.016 A 
ATOM     34  C   UNL     1      -1.049   5.816   4.484  1.00  0.00     0.010 A 
ATOM     35  C   UNL     1      -2.250   6.213   6.550  1.00  0.00     0.010 A 
ATOM     36  C   UNL     1      -1.385   6.673   5.540  1.00  0.00    -0.014 A 
BRANCH  36  37
ATOM     37  C   UNL     1      -0.672   7.966   5.713  1.00  0.00     0.031 A 
ATOM     38  C   UNL     1       0.493   8.011   6.666  1.00  0.00     0.074 A 
ATOM     39  C   UNL     1      -1.034   9.082   5.053  1.00  0.00     0.049 A 
ATOM     40  N   UNL     1       1.228   9.028   7.038  1.00  0.00    -0.248 NA
ATOM     41  C   UNL     1       0.876   6.732   7.286  1.00  0.00     0.031 C 
ATOM     42  C   UNL     1      -2.107   9.179   4.067  1.00  0.00     0.029 A 
ATOM     43  N   UNL     1      -0.531  10.360   5.131  1.00  0.00    -0.354 N 
ATOM     44  C   UNL     1       2.149   8.514   7.943  1.00  0.00     0.074 A 
ATOM     45  C   UNL     1       1.863   7.104   8.086  1.00  0.00     0.031 C 
ATOM     46  C   UNL     1      -2.191  10.453   3.640  1.00  0.00     0.029 A 
ATOM     47  C   UNL     1      -1.204  11.267   4.349  1.00  0.00     0.049 A 
ATOM     48  H   UNL     1       0.239  10.602   5.695  1.00  0.00     0.167 HD
ATOM     49  C   UNL     1       3.147   9.154   8.598  1.00  0.00     0.031 A 
ATOM     50  C   UNL     1      -1.057  12.603   4.236  1.00  0.00     0.031 A 
ATOM     51  C   UNL     1       3.427  10.559   8.478  1.00  0.00     0.049 A 
ATOM     52  C   UNL     1       0.004  13.311   5.043  1.00  0.00     0.074 A 
ATOM     53  C   UNL     1       4.429  11.292   9.091  1.00  0.00     0.029 A 
ATOM     54  N   UNL     1       2.698  11.446   7.704  1.00  0.00    -0.354 N 
ATOM     55  N   UNL     1       0.887  12.809   5.872  1.00  0.00    -0.248 NA
ATOM     56  C   UNL     1       0.089  14.772   4.891  1.00  0.00     0.031 C 
ATOM     57  C   UNL     1       4.265  12.635   8.738  1.00  0.00     0.029 A 
ATOM     58  C   UNL     1       3.207  12.726   7.848  1.00  0.00     0.049 A 
ATOM     59  H   UNL     1       1.932  11.203   7.136  1.00  0.00     0.167 HD
ATOM     60  C   UNL     1       1.652  13.886   6.311  1.00  0.00     0.074 A 
ATOM     61  C   UNL     1       1.138  15.065   5.648  1.00  0.00     0.031 C 
ATOM     62  C   UNL     1       2.692  13.894   7.182  1.00  0.00     0.031 A 
BRANCH  49  63
ATOM     63  C   UNL     1       3.986   8.338   9.541  1.00  0.00    -0.014 A 
ATOM     64  C   UNL     1       4.891   7.372   9.069  1.00  0.00     0.009 A 
ATOM     65  C   UNL     1       3.889   8.558  10.924  1.00  0.00     0.009 A 
ATOM     66  C   UNL     1       5.652   6.620   9.965  1.00  0.00     0.001 A 
ATOM     67  C   UNL     1       4.675   7.827  11.816  1.00  0.00     0.001 A 
ATOM     68  C   UNL     1       5.548   6.852  11.336  1.00  0.00     0.000 A 
ENDBRANCH  49  63
BRANCH  50  69
ATOM     69  C   UNL     1      -1.954  13.383   3.339  1.00  0.00    -0.014 A 
ATOM     70  C   UNL     1      -1.452  14.005   2.186  1.00  0.00     0.009 A 
ATOM     71  C   UNL     1      -3.313  13.540   3.654  1.00  0.00     0.009 A 
ATOM     72  C   UNL     1      -2.284  14.789   1.383  1.00  0.00     0.001 A 
ATOM     73  C   UNL     1      -4.150  14.299   2.833  1.00  0.00     0.001 A 
ATOM     74  C   UNL     1      -3.633  14.931   1.704  1.00  0.00     0.000 A 
ENDBRANCH  50  69
BRANCH  62  75
ATOM     75  C   UNL     1       3.380  15.208   7.437  1.00  0.00    -0.014 A 
ATOM     76  C   UNL     1       2.764  16.232   8.174  1.00  0.00     0.009 A 
ATOM     77  C   UNL     1       4.692  15.403   6.975  1.00  0.00     0.009 A 
ATOM     78  C   UNL     1       3.435  17.434   8.412  1.00  0.00     0.001 A 
ATOM     79  C   UNL     1       5.372  16.592   7.242  1.00  0.00     0.001 A 
ATOM     80  C   UNL     1       4.740  17.610   7.952  1.00  0.00     0.000 A 
ENDBRANCH  62  75
ENDBRANCH  36  37
ENDBRANCH  29  31
ENDBRANCH  28  29
ENDBRANCH  27  28
ENDBRANCH  26  27
ENDBRANCH  25  26
ENDBRANCH  24  25
ENDBRANCH   1  24
TORSDOF 22
