REMARK SMILES CC[NH2+][C@@]1(C(=O)OCCOCCOCCOC(=O)c2ccc(-c3c4nc(c(-c5ccccc5)c5ccc([nH]5)c(-c5ccccc5)c5nc(c(-c6ccccc6)c6ccc3[nH]6)C=C5)C=C4)cc2)CCC[C@@H]([N@@H+](C)C2CCCC2)C1
REMARK SMILES IDX 11 1 10 2 9 3 8 4 7 5 5 6 6 7 4 8 67 9 78 10 68 11 70 12
REMARK SMILES IDX 69 13 3 14 2 17 1 18 71 19 72 20 73 22 74 23 77 24 75 25
REMARK SMILES IDX 76 26 12 27 13 28 14 29 15 30 16 31 17 32 18 33 19 34 20 35
REMARK SMILES IDX 66 36 21 37 65 38 22 39 23 40 24 41 59 42 25 43 64 44 58 45
REMARK SMILES IDX 60 46 26 47 63 48 57 49 56 50 27 52 49 53 34 54 48 55 35 56
REMARK SMILES IDX 38 57 47 58 61 59 36 60 37 61 46 63 62 64 39 65 28 66 29 67
REMARK SMILES IDX 33 68 30 69 32 70 31 71 50 72 51 73 55 74 52 75 54 76 53 77
REMARK SMILES IDX 40 78 41 79 45 80 42 81 44 82 43 83
REMARK H PARENT 3 15 3 16 71 21 60 51 38 62
REMARK Flexibility Score: inf
ROOT
ATOM      1  C   UNL     1      -2.731  -1.507   2.075  1.00  0.00     0.188 C 
ENDROOT
BRANCH   1   2
ATOM      2  O   UNL     1      -3.909  -1.795   1.332  1.00  0.00    -0.376 OA
BRANCH   2   3
ATOM      3  C   UNL     1      -4.311  -3.154   1.205  1.00  0.00     0.202 C 
BRANCH   3   4
ATOM      4  C   UNL     1      -3.284  -4.178   0.695  1.00  0.00     0.261 C 
BRANCH   4   5
ATOM      5  O   UNL     1      -1.966  -4.098   1.286  1.00  0.00    -0.459 OA
BRANCH   5   6
ATOM      6  C   UNL     1      -0.958  -3.794   0.431  1.00  0.00     0.368 C 
ATOM      7  O   UNL     1      -1.134  -3.654  -0.780  1.00  0.00    -0.245 OA
BRANCH   6   8
ATOM      8  C   UNL     1       0.476  -3.698   1.068  1.00  0.00     0.200 C 
ATOM      9  C   UNL     1       1.292  -4.782   0.332  1.00  0.00     0.081 C 
ATOM     10  C   UNL     1       0.740  -3.985   2.563  1.00  0.00     0.146 C 
ATOM     11  C   UNL     1       0.718  -6.175   0.648  1.00  0.00     0.013 C 
ATOM     12  C   UNL     1       0.260  -5.336   3.091  1.00  0.00     0.190 C 
ATOM     13  C   UNL     1       0.581  -6.513   2.142  1.00  0.00     0.065 C 
BRANCH   8  14
ATOM     14  N   UNL     1       1.031  -2.312   0.937  1.00  0.00    -0.332 N 
ATOM     15  H   UNL     1       0.712  -1.784   1.750  1.00  0.00     0.347 HD
ATOM     16  H   UNL     1       2.037  -2.457   0.854  1.00  0.00     0.347 HD
BRANCH  14  17
ATOM     17  C   UNL     1       0.694  -1.524  -0.242  1.00  0.00     0.257 C 
ATOM     18  C   UNL     1       1.253  -0.116  -0.068  1.00  0.00     0.071 C 
ENDBRANCH  14  17
ENDBRANCH   8  14
BRANCH  12  19
ATOM     19  N   UNL     1       0.619  -5.527   4.525  1.00  0.00    -0.332 N 
ATOM     20  C   UNL     1      -0.094  -6.664   5.113  1.00  0.00     0.333 C 
ATOM     21  H   UNL     1       0.296  -4.633   4.897  1.00  0.00     0.348 HD
BRANCH  19  22
ATOM     22  C   UNL     1       2.026  -5.494   4.968  1.00  0.00     0.184 C 
ATOM     23  C   UNL     1       3.113  -6.167   4.124  1.00  0.00     0.065 C 
ATOM     24  C   UNL     1       2.596  -4.092   5.289  1.00  0.00     0.065 C 
ATOM     25  C   UNL     1       4.402  -5.615   4.712  1.00  0.00     0.006 C 
ATOM     26  C   UNL     1       4.079  -4.141   4.902  1.00  0.00     0.006 C 
ENDBRANCH  19  22
ENDBRANCH  12  19
ENDBRANCH   6   8
ENDBRANCH   5   6
ENDBRANCH   4   5
ENDBRANCH   3   4
ENDBRANCH   2   3
ENDBRANCH   1   2
BRANCH   1  27
ATOM     27  C   UNL     1      -2.450  -2.279   3.373  1.00  0.00     0.188 C 
BRANCH  27  28
ATOM     28  O   UNL     1      -3.453  -3.204   3.739  1.00  0.00    -0.376 OA
BRANCH  28  29
ATOM     29  C   UNL     1      -3.728  -3.320   5.125  1.00  0.00     0.202 C 
BRANCH  29  30
ATOM     30  C   UNL     1      -4.577  -2.154   5.658  1.00  0.00     0.261 C 
BRANCH  30  31
ATOM     31  O   UNL     1      -4.020  -0.840   5.449  1.00  0.00    -0.460 OA
BRANCH  31  32
ATOM     32  C   UNL     1      -2.883  -0.537   6.121  1.00  0.00     0.338 C 
ATOM     33  O   UNL     1      -2.334  -1.222   6.969  1.00  0.00    -0.246 OA
BRANCH  32  34
ATOM     34  C   UNL     1      -2.267   0.647   5.468  1.00  0.00     0.060 A 
ATOM     35  C   UNL     1      -0.928   0.572   5.046  1.00  0.00     0.016 A 
ATOM     36  C   UNL     1      -3.007   1.806   5.229  1.00  0.00     0.016 A 
ATOM     37  C   UNL     1      -0.318   1.668   4.425  1.00  0.00     0.010 A 
ATOM     38  C   UNL     1      -2.390   2.909   4.629  1.00  0.00     0.010 A 
ATOM     39  C   UNL     1      -1.032   2.861   4.259  1.00  0.00    -0.014 A 
BRANCH  39  40
ATOM     40  C   UNL     1      -0.323   4.127   3.929  1.00  0.00     0.031 A 
ATOM     41  C   UNL     1       0.031   5.049   5.067  1.00  0.00     0.074 A 
ATOM     42  C   UNL     1      -0.005   4.475   2.670  1.00  0.00     0.049 A 
ATOM     43  N   UNL     1       0.545   6.253   5.038  1.00  0.00    -0.248 NA
ATOM     44  C   UNL     1      -0.242   4.542   6.422  1.00  0.00     0.031 C 
ATOM     45  C   UNL     1      -0.231   3.663   1.477  1.00  0.00     0.029 A 
ATOM     46  N   UNL     1       0.572   5.628   2.189  1.00  0.00    -0.354 N 
ATOM     47  C   UNL     1       0.638   6.652   6.367  1.00  0.00     0.074 A 
ATOM     48  C   UNL     1       0.104   5.576   7.173  1.00  0.00     0.031 C 
ATOM     49  C   UNL     1       0.189   4.351   0.398  1.00  0.00     0.029 A 
ATOM     50  C   UNL     1       0.673   5.665   0.820  1.00  0.00     0.049 A 
ATOM     51  H   UNL     1       0.882   6.358   2.773  1.00  0.00     0.167 HD
ATOM     52  C   UNL     1       1.126   7.807   6.877  1.00  0.00     0.031 A 
ATOM     53  C   UNL     1       1.081   6.657   0.001  1.00  0.00     0.031 A 
ATOM     54  C   UNL     1       1.643   8.889   6.084  1.00  0.00     0.049 A 
ATOM     55  C   UNL     1       1.532   7.974   0.585  1.00  0.00     0.074 A 
ATOM     56  C   UNL     1       2.166  10.097   6.513  1.00  0.00     0.029 A 
ATOM     57  N   UNL     1       1.694   8.899   4.700  1.00  0.00    -0.354 N 
ATOM     58  N   UNL     1       1.631   8.335   1.842  1.00  0.00    -0.248 NA
ATOM     59  C   UNL     1       1.931   9.021  -0.370  1.00  0.00     0.031 C 
ATOM     60  C   UNL     1       2.476  10.863   5.385  1.00  0.00     0.029 A 
ATOM     61  C   UNL     1       2.213  10.103   4.256  1.00  0.00     0.049 A 
ATOM     62  H   UNL     1       1.404   8.159   4.118  1.00  0.00     0.167 HD
ATOM     63  C   UNL     1       2.135   9.632   1.828  1.00  0.00     0.074 A 
ATOM     64  C   UNL     1       2.333   9.991   0.440  1.00  0.00     0.031 C 
ATOM     65  C   UNL     1       2.413  10.451   2.873  1.00  0.00     0.031 A 
BRANCH  52  66
ATOM     66  C   UNL     1       1.079   7.974   8.370  1.00  0.00    -0.014 A 
ATOM     67  C   UNL     1       1.908   7.221   9.217  1.00  0.00     0.009 A 
ATOM     68  C   UNL     1       0.204   8.914   8.936  1.00  0.00     0.009 A 
ATOM     69  C   UNL     1       1.833   7.380  10.603  1.00  0.00     0.001 A 
ATOM     70  C   UNL     1       0.154   9.094  10.319  1.00  0.00     0.001 A 
ATOM     71  C   UNL     1       0.961   8.319  11.152  1.00  0.00     0.000 A 
ENDBRANCH  52  66
BRANCH  53  72
ATOM     72  C   UNL     1       1.059   6.468  -1.476  1.00  0.00    -0.014 A 
ATOM     73  C   UNL     1       2.254   6.425  -2.212  1.00  0.00     0.009 A 
ATOM     74  C   UNL     1      -0.161   6.374  -2.164  1.00  0.00     0.009 A 
ATOM     75  C   UNL     1       2.226   6.320  -3.605  1.00  0.00     0.001 A 
ATOM     76  C   UNL     1      -0.185   6.237  -3.554  1.00  0.00     0.001 A 
ATOM     77  C   UNL     1       1.008   6.221  -4.274  1.00  0.00     0.000 A 
ENDBRANCH  53  72
BRANCH  65  78
ATOM     78  C   UNL     1       3.012  11.798   2.567  1.00  0.00    -0.014 A 
ATOM     79  C   UNL     1       2.257  12.822   1.975  1.00  0.00     0.009 A 
ATOM     80  C   UNL     1       4.343  12.060   2.930  1.00  0.00     0.009 A 
ATOM     81  C   UNL     1       2.835  14.069   1.721  1.00  0.00     0.001 A 
ATOM     82  C   UNL     1       4.908  13.317   2.705  1.00  0.00     0.001 A 
ATOM     83  C   UNL     1       4.157  14.317   2.091  1.00  0.00     0.000 A 
ENDBRANCH  65  78
ENDBRANCH  39  40
ENDBRANCH  32  34
ENDBRANCH  31  32
ENDBRANCH  30  31
ENDBRANCH  29  30
ENDBRANCH  28  29
ENDBRANCH  27  28
ENDBRANCH   1  27
TORSDOF 21
