REMARK SMILES CC(C)COC(=O)N[C@H](Cc1c[nH]c2ccccc12)C(=O)OCCOCCOCCOC(=O)c1ccc(-c2c3nc(c(-c4ccccc4)c4ccc([nH]4)c(-c4ccccc4)c4nc(c(-c5ccccc5)c5ccc2[nH]5)C=C4)C=C3)cc1
REMARK SMILES IDX 26 1 25 2 24 3 23 4 22 5 20 6 21 7 9 8 8 9 6 10 7 11 5 13
REMARK SMILES IDX 4 14 2 15 1 16 3 17 10 18 11 19 12 20 19 21 13 22 14 23
REMARK SMILES IDX 18 24 15 26 17 27 16 28 27 29 28 30 29 31 30 32 31 33 32 34
REMARK SMILES IDX 33 35 34 36 35 37 81 38 36 39 80 40 37 41 38 42 39 43 74 44
REMARK SMILES IDX 40 45 79 46 73 47 75 48 41 49 78 50 72 51 71 52 42 54 64 55
REMARK SMILES IDX 49 56 63 57 50 58 53 59 62 60 76 61 51 62 52 63 61 65 77 66
REMARK SMILES IDX 54 67 43 68 44 69 48 70 45 71 47 72 46 73 65 74 66 75 70 76
REMARK SMILES IDX 67 77 69 78 68 79 55 80 56 81 60 82 57 83 59 84 58 85
REMARK H PARENT 8 12 13 25 75 53 53 64
REMARK Flexibility Score: inf
ROOT
ATOM      1  C   UNL     1      -0.422   0.491  -5.799  1.00  0.00     0.188 C 
ENDROOT
BRANCH   1   2
ATOM      2  O   UNL     1      -0.264   0.312  -7.186  1.00  0.00    -0.376 OA
BRANCH   2   3
ATOM      3  C   UNL     1      -0.731   1.468  -7.887  1.00  0.00     0.202 C 
BRANCH   3   4
ATOM      4  C   UNL     1      -2.014   2.212  -7.338  1.00  0.00     0.261 C 
BRANCH   4   5
ATOM      5  O   UNL     1      -2.187   2.326  -5.866  1.00  0.00    -0.462 OA
BRANCH   5   6
ATOM      6  C   UNL     1      -3.165   1.583  -5.260  1.00  0.00     0.329 C 
ATOM      7  O   UNL     1      -4.187   1.258  -5.871  1.00  0.00    -0.250 OA
BRANCH   6   8
ATOM      8  C   UNL     1      -2.824   0.879  -3.828  1.00  0.00     0.200 C 
BRANCH   8   9
ATOM      9  N   UNL     1      -4.201   0.901  -3.238  1.00  0.00    -0.308 N 
ATOM     10  C   UNL     1      -4.804   1.608  -2.246  1.00  0.00     0.407 C 
ATOM     11  O   UNL     1      -6.019   1.555  -2.102  1.00  0.00    -0.225 OA
ATOM     12  H   UNL     1      -4.808   0.256  -3.668  1.00  0.00     0.168 HD
BRANCH  10  13
ATOM     13  O   UNL     1      -3.965   2.314  -1.456  1.00  0.00    -0.449 OA
BRANCH  13  14
ATOM     14  C   UNL     1      -4.540   2.908  -0.277  1.00  0.00     0.238 C 
BRANCH  14  15
ATOM     15  C   UNL     1      -4.741   4.413  -0.480  1.00  0.00     0.021 C 
ATOM     16  C   UNL     1      -5.694   4.707  -1.639  1.00  0.00     0.011 C 
ATOM     17  C   UNL     1      -5.252   5.062   0.804  1.00  0.00     0.011 C 
ENDBRANCH  14  15
ENDBRANCH  13  14
ENDBRANCH  10  13
ENDBRANCH   8   9
BRANCH   8  18
ATOM     18  C   UNL     1      -1.669   1.241  -2.842  1.00  0.00     0.075 C 
BRANCH  18  19
ATOM     19  C   UNL     1      -0.361   0.403  -2.383  1.00  0.00    -0.020 A 
ATOM     20  C   UNL     1      -0.180   0.358  -0.976  1.00  0.00     0.087 A 
ATOM     21  C   UNL     1       0.898  -0.245  -2.965  1.00  0.00     0.003 A 
ATOM     22  N   UNL     1       1.036  -0.056  -0.484  1.00  0.00    -0.361 N 
ATOM     23  C   UNL     1       1.902  -0.375  -1.483  1.00  0.00     0.046 A 
ATOM     24  C   UNL     1       1.667  -0.910  -4.516  1.00  0.00     0.010 A 
ATOM     25  H   UNL     1       1.252  -0.114   0.475  1.00  0.00     0.166 HD
ATOM     26  C   UNL     1       3.635  -0.909  -1.543  1.00  0.00     0.026 A 
ATOM     27  C   UNL     1       3.454  -1.313  -4.614  1.00  0.00     0.001 A 
ATOM     28  C   UNL     1       4.436  -1.239  -3.114  1.00  0.00     0.002 A 
ENDBRANCH  18  19
ENDBRANCH   8  18
ENDBRANCH   6   8
ENDBRANCH   5   6
ENDBRANCH   4   5
ENDBRANCH   3   4
ENDBRANCH   2   3
ENDBRANCH   1   2
BRANCH   1  29
ATOM     29  C   UNL     1       0.290   1.739  -5.164  1.00  0.00     0.188 C 
BRANCH  29  30
ATOM     30  O   UNL     1       1.072   2.434  -6.105  1.00  0.00    -0.376 OA
BRANCH  30  31
ATOM     31  C   UNL     1       2.288   3.003  -5.664  1.00  0.00     0.202 C 
BRANCH  31  32
ATOM     32  C   UNL     1       3.308   2.168  -4.853  1.00  0.00     0.261 C 
BRANCH  32  33
ATOM     33  O   UNL     1       2.942   0.791  -4.629  1.00  0.00    -0.460 OA
BRANCH  33  34
ATOM     34  C   UNL     1       2.904   0.104  -3.243  1.00  0.00     0.338 C 
ATOM     35  O   UNL     1       3.265   1.063  -2.498  1.00  0.00    -0.246 OA
BRANCH  34  36
ATOM     36  C   UNL     1       2.350  -1.944  -2.901  1.00  0.00     0.060 A 
ATOM     37  C   UNL     1       1.059  -2.523  -2.330  1.00  0.00     0.016 A 
ATOM     38  C   UNL     1       3.067  -3.249  -3.268  1.00  0.00     0.016 A 
ATOM     39  C   UNL     1       0.701  -3.816  -1.996  1.00  0.00     0.010 A 
ATOM     40  C   UNL     1       2.673  -4.581  -3.066  1.00  0.00     0.010 A 
ATOM     41  C   UNL     1       1.538  -4.833  -2.340  1.00  0.00    -0.014 A 
BRANCH  41  42
ATOM     42  C   UNL     1       1.272  -6.130  -1.762  1.00  0.00     0.031 A 
ATOM     43  C   UNL     1       2.187  -6.577  -0.676  1.00  0.00     0.074 A 
ATOM     44  C   UNL     1       0.157  -6.757  -2.156  1.00  0.00     0.049 A 
ATOM     45  N   UNL     1       2.171  -7.692  -0.009  1.00  0.00    -0.248 NA
ATOM     46  C   UNL     1       3.282  -5.659  -0.296  1.00  0.00     0.031 C 
ATOM     47  C   UNL     1      -0.791  -6.254  -3.161  1.00  0.00     0.029 A 
ATOM     48  N   UNL     1      -0.386  -7.925  -1.734  1.00  0.00    -0.354 N 
ATOM     49  C   UNL     1       3.274  -7.629   0.827  1.00  0.00     0.074 A 
ATOM     50  C   UNL     1       3.965  -6.392   0.565  1.00  0.00     0.031 C 
ATOM     51  C   UNL     1      -1.821  -7.106  -3.252  1.00  0.00     0.029 A 
ATOM     52  C   UNL     1      -1.553  -8.236  -2.377  1.00  0.00     0.049 A 
ATOM     53  H   UNL     1       0.018  -8.492  -1.037  1.00  0.00     0.167 HD
ATOM     54  C   UNL     1       3.656  -8.550   1.736  1.00  0.00     0.031 A 
ATOM     55  C   UNL     1      -2.289  -9.350  -2.274  1.00  0.00     0.031 A 
ATOM     56  C   UNL     1       2.918  -9.766   1.929  1.00  0.00     0.049 A 
ATOM     57  C   UNL     1      -1.796 -10.383  -1.306  1.00  0.00     0.074 A 
ATOM     58  C   UNL     1       3.175 -10.807   2.795  1.00  0.00     0.029 A 
ATOM     59  N   UNL     1       1.763 -10.094   1.224  1.00  0.00    -0.354 N 
ATOM     60  N   UNL     1      -0.742 -10.343  -0.520  1.00  0.00    -0.248 NA
ATOM     61  C   UNL     1      -2.591 -11.604  -1.202  1.00  0.00     0.031 C 
ATOM     62  C   UNL     1       2.218 -11.799   2.557  1.00  0.00     0.029 A 
ATOM     63  C   UNL     1       1.310 -11.339   1.611  1.00  0.00     0.049 A 
ATOM     64  H   UNL     1       1.333  -9.522   0.548  1.00  0.00     0.167 HD
ATOM     65  C   UNL     1      -0.757 -11.527   0.197  1.00  0.00     0.074 A 
ATOM     66  C   UNL     1      -1.950 -12.240  -0.233  1.00  0.00     0.031 C 
ATOM     67  C   UNL     1       0.121 -11.996   1.121  1.00  0.00     0.031 A 
BRANCH  54  68
ATOM     68  C   UNL     1       4.929  -8.291   2.488  1.00  0.00    -0.014 A 
ATOM     69  C   UNL     1       5.056  -7.222   3.391  1.00  0.00     0.009 A 
ATOM     70  C   UNL     1       6.040  -9.116   2.260  1.00  0.00     0.009 A 
ATOM     71  C   UNL     1       6.278  -6.965   4.020  1.00  0.00     0.001 A 
ATOM     72  C   UNL     1       7.249  -8.880   2.917  1.00  0.00     0.001 A 
ATOM     73  C   UNL     1       7.370  -7.799   3.788  1.00  0.00     0.000 A 
ENDBRANCH  54  68
BRANCH  55  74
ATOM     74  C   UNL     1      -3.500  -9.524  -3.109  1.00  0.00    -0.014 A 
ATOM     75  C   UNL     1      -4.770  -9.597  -2.522  1.00  0.00     0.009 A 
ATOM     76  C   UNL     1      -3.396  -9.583  -4.509  1.00  0.00     0.009 A 
ATOM     77  C   UNL     1      -5.906  -9.767  -3.317  1.00  0.00     0.001 A 
ATOM     78  C   UNL     1      -4.535  -9.714  -5.304  1.00  0.00     0.001 A 
ATOM     79  C   UNL     1      -5.788  -9.822  -4.706  1.00  0.00     0.000 A 
ENDBRANCH  55  74
BRANCH  67  80
ATOM     80  C   UNL     1      -0.226 -13.320   1.733  1.00  0.00    -0.014 A 
ATOM     81  C   UNL     1      -0.204 -14.504   0.979  1.00  0.00     0.009 A 
ATOM     82  C   UNL     1      -0.579 -13.374   3.089  1.00  0.00     0.009 A 
ATOM     83  C   UNL     1      -0.601 -15.707   1.558  1.00  0.00     0.001 A 
ATOM     84  C   UNL     1      -0.922 -14.587   3.679  1.00  0.00     0.001 A 
ATOM     85  C   UNL     1      -0.953 -15.748   2.907  1.00  0.00     0.000 A 
ENDBRANCH  67  80
ENDBRANCH  41  42
ENDBRANCH  34  36
ENDBRANCH  33  34
ENDBRANCH  32  33
ENDBRANCH  31  32
ENDBRANCH  30  31
ENDBRANCH  29  30
ENDBRANCH   1  29
TORSDOF 23
