REMARK SMILES COc1cnc(F)c(C(=O)OCCOCCOCCOC(=O)c2ccc(-c3c4nc(c(-c5ccccc5)c5ccc([nH]5)c(-c5ccccc5)c5nc(c(-c6ccccc6)c6ccc3[nH]6)C=C5)C=C4)cc2)c1
REMARK SMILES IDX 16 1 15 2 14 3 13 4 12 5 11 6 9 7 10 8 8 9 3 10 4 11 71 12
REMARK SMILES IDX 5 13 6 14 7 15 2 16 1 17 17 18 18 19 19 20 20 21 21 22 22 23
REMARK SMILES IDX 23 24 24 25 70 26 25 27 69 28 26 29 27 30 28 31 63 32 29 33
REMARK SMILES IDX 68 34 62 35 64 36 30 37 67 38 61 39 60 40 31 42 53 43 38 44
REMARK SMILES IDX 52 45 39 46 42 47 51 48 65 49 40 50 41 51 50 53 66 54 43 55
REMARK SMILES IDX 32 56 33 57 37 58 34 59 36 60 35 61 54 62 55 63 59 64 56 65
REMARK SMILES IDX 58 66 57 67 44 68 45 69 49 70 46 71 48 72 47 73
REMARK H PARENT 64 41 42 52
REMARK Flexibility Score: inf
ROOT
ATOM      1  C   UNL     1       3.892  -4.295  -2.641  1.00  0.00     0.188 C 
ENDROOT
BRANCH   1   2
ATOM      2  C   UNL     1       4.976  -3.431  -1.962  1.00  0.00     0.188 C 
BRANCH   2   3
ATOM      3  O   UNL     1       6.295  -3.946  -1.804  1.00  0.00    -0.376 OA
BRANCH   3   4
ATOM      4  C   UNL     1       6.481  -5.276  -1.327  1.00  0.00     0.202 C 
BRANCH   4   5
ATOM      5  C   UNL     1       5.856  -5.659   0.021  1.00  0.00     0.261 C 
BRANCH   5   6
ATOM      6  O   UNL     1       4.440  -5.420   0.088  1.00  0.00    -0.460 OA
BRANCH   6   7
ATOM      7  C   UNL     1       4.021  -4.606   1.086  1.00  0.00     0.343 C 
ATOM      8  O   UNL     1       4.711  -4.091   1.953  1.00  0.00    -0.246 OA
BRANCH   7   9
ATOM      9  C   UNL     1       2.624  -4.214   0.875  1.00  0.00     0.118 A 
ATOM     10  C   UNL     1       0.958  -2.482   0.783  1.00  0.00     0.138 A 
ATOM     11  C   UNL     1       0.032  -3.473   0.483  1.00  0.00     0.160 A 
ATOM     12  C   UNL     1       2.275  -2.864   1.006  1.00  0.00     0.068 A 
ATOM     13  N   UNL     1       0.344  -4.784   0.342  1.00  0.00    -0.224 NA
ATOM     14  C   UNL     1       1.639  -5.128   0.544  1.00  0.00     0.227 A 
ATOM     15  F   UNL     1       1.940  -6.430   0.427  1.00  0.00    -0.184 F 
BRANCH  10  16
ATOM     16  O   UNL     1       0.517  -1.202   0.947  1.00  0.00    -0.495 OA
ATOM     17  C   UNL     1       1.169  -0.271   0.083  1.00  0.00     0.278 C 
ENDBRANCH  10  16
ENDBRANCH   7   9
ENDBRANCH   6   7
ENDBRANCH   5   6
ENDBRANCH   4   5
ENDBRANCH   3   4
ENDBRANCH   2   3
ENDBRANCH   1   2
BRANCH   1  18
ATOM     18  O   UNL     1       4.378  -5.534  -3.101  1.00  0.00    -0.376 OA
BRANCH  18  19
ATOM     19  C   UNL     1       4.545  -5.737  -4.491  1.00  0.00     0.202 C 
BRANCH  19  20
ATOM     20  C   UNL     1       5.268  -4.704  -5.376  1.00  0.00     0.261 C 
BRANCH  20  21
ATOM     21  O   UNL     1       5.153  -3.324  -5.009  1.00  0.00    -0.460 OA
BRANCH  21  22
ATOM     22  C   UNL     1       4.098  -2.640  -5.505  1.00  0.00     0.338 C 
ATOM     23  O   UNL     1       3.186  -3.076  -6.181  1.00  0.00    -0.246 OA
BRANCH  22  24
ATOM     24  C   UNL     1       4.141  -1.274  -4.944  1.00  0.00     0.060 A 
ATOM     25  C   UNL     1       3.098  -0.854  -4.109  1.00  0.00     0.016 A 
ATOM     26  C   UNL     1       5.195  -0.409  -5.250  1.00  0.00     0.016 A 
ATOM     27  C   UNL     1       3.094   0.445  -3.600  1.00  0.00     0.010 A 
ATOM     28  C   UNL     1       5.181   0.897  -4.752  1.00  0.00     0.010 A 
ATOM     29  C   UNL     1       4.117   1.339  -3.946  1.00  0.00    -0.014 A 
BRANCH  29  30
ATOM     30  C   UNL     1       3.988   2.776  -3.603  1.00  0.00     0.031 A 
ATOM     31  C   UNL     1       3.426   3.716  -4.635  1.00  0.00     0.074 A 
ATOM     32  C   UNL     1       4.344   3.241  -2.392  1.00  0.00     0.049 A 
ATOM     33  N   UNL     1       3.239   5.010  -4.564  1.00  0.00    -0.248 NA
ATOM     34  C   UNL     1       3.018   3.115  -5.915  1.00  0.00     0.031 C 
ATOM     35  C   UNL     1       4.865   2.433  -1.292  1.00  0.00     0.029 A 
ATOM     36  N   UNL     1       4.322   4.519  -1.892  1.00  0.00    -0.354 N 
ATOM     37  C   UNL     1       2.695   5.377  -5.788  1.00  0.00     0.074 A 
ATOM     38  C   UNL     1       2.606   4.177  -6.592  1.00  0.00     0.031 C 
ATOM     39  C   UNL     1       5.123   3.238  -0.246  1.00  0.00     0.029 A 
ATOM     40  C   UNL     1       4.815   4.619  -0.614  1.00  0.00     0.049 A 
ATOM     41  H   UNL     1       3.985   5.292  -2.401  1.00  0.00     0.167 HD
ATOM     42  C   UNL     1       2.299   6.602  -6.208  1.00  0.00     0.031 A 
ATOM     43  C   UNL     1       5.014   5.704   0.160  1.00  0.00     0.031 A 
ATOM     44  C   UNL     1       2.408   7.803  -5.426  1.00  0.00     0.049 A 
ATOM     45  C   UNL     1       4.648   7.069  -0.363  1.00  0.00     0.074 A 
ATOM     46  C   UNL     1       2.027   9.090  -5.764  1.00  0.00     0.029 A 
ATOM     47  N   UNL     1       2.949   7.866  -4.152  1.00  0.00    -0.354 N 
ATOM     48  N   UNL     1       4.104   7.398  -1.510  1.00  0.00    -0.248 NA
ATOM     49  C   UNL     1       4.919   8.212   0.522  1.00  0.00     0.031 C 
ATOM     50  C   UNL     1       2.387   9.941  -4.714  1.00  0.00     0.029 A 
ATOM     51  C   UNL     1       2.937   9.175  -3.699  1.00  0.00     0.049 A 
ATOM     52  H   UNL     1       3.292   7.096  -3.644  1.00  0.00     0.167 HD
ATOM     53  C   UNL     1       3.938   8.778  -1.470  1.00  0.00     0.074 A 
ATOM     54  C   UNL     1       4.428   9.222  -0.182  1.00  0.00     0.031 C 
ATOM     55  C   UNL     1       3.423   9.603  -2.414  1.00  0.00     0.031 A 
BRANCH  42  56
ATOM     56  C   UNL     1       1.741   6.705  -7.599  1.00  0.00    -0.014 A 
ATOM     57  C   UNL     1       0.469   6.200  -7.912  1.00  0.00     0.009 A 
ATOM     58  C   UNL     1       2.486   7.343  -8.603  1.00  0.00     0.009 A 
ATOM     59  C   UNL     1      -0.032   6.305  -9.211  1.00  0.00     0.001 A 
ATOM     60  C   UNL     1       1.971   7.469  -9.894  1.00  0.00     0.001 A 
ATOM     61  C   UNL     1       0.717   6.943 -10.199  1.00  0.00     0.000 A 
ENDBRANCH  42  56
BRANCH  43  62
ATOM     62  C   UNL     1       5.612   5.558   1.514  1.00  0.00    -0.014 A 
ATOM     63  C   UNL     1       4.849   5.807   2.665  1.00  0.00     0.009 A 
ATOM     64  C   UNL     1       6.963   5.207   1.659  1.00  0.00     0.009 A 
ATOM     65  C   UNL     1       5.434   5.734   3.932  1.00  0.00     0.001 A 
ATOM     66  C   UNL     1       7.538   5.107   2.928  1.00  0.00     0.001 A 
ATOM     67  C   UNL     1       6.776   5.380   4.062  1.00  0.00     0.000 A 
ENDBRANCH  43  62
BRANCH  55  68
ATOM     68  C   UNL     1       3.317  11.064  -2.074  1.00  0.00    -0.014 A 
ATOM     69  C   UNL     1       4.453  11.885  -2.010  1.00  0.00     0.009 A 
ATOM     70  C   UNL     1       2.053  11.635  -1.860  1.00  0.00     0.009 A 
ATOM     71  C   UNL     1       4.326  13.242  -1.705  1.00  0.00     0.001 A 
ATOM     72  C   UNL     1       1.926  12.998  -1.584  1.00  0.00     0.001 A 
ATOM     73  C   UNL     1       3.064  13.798  -1.498  1.00  0.00     0.000 A 
ENDBRANCH  55  68
ENDBRANCH  29  30
ENDBRANCH  22  24
ENDBRANCH  21  22
ENDBRANCH  20  21
ENDBRANCH  19  20
ENDBRANCH  18  19
ENDBRANCH   1  18
TORSDOF 18
