REMARK SMILES CC[C@@H](C(=O)OCCOCCOCCOC(=O)c1ccc(-c2c3nc(c(-c4ccccc4)c4ccc([nH]4)c(-c4ccccc4)c4nc(c(-c5ccccc5)c5ccc2[nH]5)C=C4)C=C3)cc1)N(C)C(=O)N(C)C[C@@H]1CCC[N@H+]1C
REMARK SMILES IDX 9 1 8 2 7 3 6 4 4 5 5 6 3 7 2 8 1 9 66 10 67 11 68 12 69 13
REMARK SMILES IDX 70 14 71 15 72 16 73 17 74 18 77 19 75 20 76 21 78 22 10 24
REMARK SMILES IDX 11 25 12 26 13 27 14 28 15 29 16 30 17 31 18 32 19 33 65 34
REMARK SMILES IDX 20 35 64 36 21 37 22 38 23 39 58 40 24 41 63 42 57 43 59 44
REMARK SMILES IDX 25 45 62 46 56 47 55 48 26 50 48 51 33 52 47 53 34 54 37 55
REMARK SMILES IDX 46 56 60 57 35 58 36 59 45 61 61 62 38 63 27 64 28 65 32 66
REMARK SMILES IDX 29 67 31 68 30 69 49 70 50 71 54 72 51 73 53 74 52 75 39 76
REMARK SMILES IDX 40 77 44 78 41 79 43 80 42 81
REMARK H PARENT 77 23 59 49 37 60
REMARK Flexibility Score: inf
ROOT
ATOM      1  O   UNL     1       0.565  -0.354  -0.636  1.00  0.00    -0.376 OA
ENDROOT
BRANCH   1   2
ATOM      2  C   UNL     1       1.163   0.525  -1.609  1.00  0.00     0.202 C 
BRANCH   2   3
ATOM      3  C   UNL     1       0.908   2.046  -1.468  1.00  0.00     0.261 C 
BRANCH   3   4
ATOM      4  O   UNL     1      -0.478   2.440  -1.325  1.00  0.00    -0.462 OA
BRANCH   4   5
ATOM      5  C   UNL     1      -1.286   2.313  -2.406  1.00  0.00     0.328 C 
ATOM      6  O   UNL     1      -0.851   2.112  -3.537  1.00  0.00    -0.250 OA
BRANCH   5   7
ATOM      7  C   UNL     1      -2.798   2.519  -2.064  1.00  0.00     0.196 C 
BRANCH   7   8
ATOM      8  C   UNL     1      -3.380   2.212  -0.656  1.00  0.00     0.034 C 
ATOM      9  C   UNL     1      -2.739   2.869   0.556  1.00  0.00     0.007 C 
ENDBRANCH   7   8
BRANCH   7  10
ATOM     10  N   UNL     1      -3.555   1.818  -3.164  1.00  0.00    -0.314 N 
ATOM     11  C   UNL     1      -4.025   2.692  -4.223  1.00  0.00     0.149 C 
BRANCH  10  12
ATOM     12  C   UNL     1      -3.529   0.433  -3.151  1.00  0.00     0.320 C 
ATOM     13  O   UNL     1      -3.339  -0.141  -2.077  1.00  0.00    -0.248 OA
BRANCH  12  14
ATOM     14  N   UNL     1      -3.616  -0.347  -4.292  1.00  0.00    -0.322 N 
ATOM     15  C   UNL     1      -4.527  -0.051  -5.387  1.00  0.00     0.149 C 
BRANCH  14  16
ATOM     16  C   UNL     1      -3.235  -1.798  -4.104  1.00  0.00     0.185 C 
BRANCH  16  17
ATOM     17  C   UNL     1      -1.980  -2.470  -4.795  1.00  0.00     0.203 C 
ATOM     18  C   UNL     1      -2.259  -3.590  -5.820  1.00  0.00     0.073 C 
ATOM     19  N   UNL     1      -1.233  -3.265  -3.788  1.00  0.00    -0.333 N 
ATOM     20  C   UNL     1      -1.273  -4.734  -5.588  1.00  0.00     0.068 C 
ATOM     21  C   UNL     1      -0.411  -4.267  -4.449  1.00  0.00     0.262 C 
ATOM     22  C   UNL     1      -0.435  -2.429  -2.921  1.00  0.00     0.333 C 
ATOM     23  H   UNL     1      -1.917  -3.737  -3.197  1.00  0.00     0.348 HD
ENDBRANCH  16  17
ENDBRANCH  14  16
ENDBRANCH  12  14
ENDBRANCH  10  12
ENDBRANCH   7  10
ENDBRANCH   5   7
ENDBRANCH   4   5
ENDBRANCH   3   4
ENDBRANCH   2   3
ENDBRANCH   1   2
BRANCH   1  24
ATOM     24  C   UNL     1      -0.816  -0.074  -0.414  1.00  0.00     0.188 C 
BRANCH  24  25
ATOM     25  C   UNL     1      -1.698  -1.177   0.150  1.00  0.00     0.188 C 
BRANCH  25  26
ATOM     26  O   UNL     1      -1.350  -1.561   1.470  1.00  0.00    -0.376 OA
BRANCH  26  27
ATOM     27  C   UNL     1      -0.308  -2.521   1.485  1.00  0.00     0.202 C 
BRANCH  27  28
ATOM     28  C   UNL     1      -0.768  -3.968   1.221  1.00  0.00     0.261 C 
BRANCH  28  29
ATOM     29  O   UNL     1      -1.587  -4.191   0.042  1.00  0.00    -0.460 OA
BRANCH  29  30
ATOM     30  C   UNL     1      -2.949  -4.118   0.199  1.00  0.00     0.338 C 
ATOM     31  O   UNL     1      -3.535  -3.893   1.232  1.00  0.00    -0.246 OA
BRANCH  30  32
ATOM     32  C   UNL     1      -3.659  -4.303  -1.120  1.00  0.00     0.060 A 
ATOM     33  C   UNL     1      -4.819  -3.565  -1.423  1.00  0.00     0.016 A 
ATOM     34  C   UNL     1      -3.230  -5.243  -2.051  1.00  0.00     0.016 A 
ATOM     35  C   UNL     1      -5.514  -3.733  -2.660  1.00  0.00     0.010 A 
ATOM     36  C   UNL     1      -3.916  -5.400  -3.278  1.00  0.00     0.010 A 
ATOM     37  C   UNL     1      -5.057  -4.635  -3.635  1.00  0.00    -0.014 A 
BRANCH  37  38
ATOM     38  C   UNL     1      -5.799  -5.014  -4.918  1.00  0.00     0.031 A 
ATOM     39  C   UNL     1      -6.536  -6.315  -4.863  1.00  0.00     0.074 A 
ATOM     40  C   UNL     1      -5.777  -4.414  -6.143  1.00  0.00     0.049 A 
ATOM     41  N   UNL     1      -7.134  -6.957  -5.830  1.00  0.00    -0.248 NA
ATOM     42  C   UNL     1      -6.625  -6.961  -3.544  1.00  0.00     0.031 C 
ATOM     43  C   UNL     1      -5.271  -3.100  -6.450  1.00  0.00     0.029 A 
ATOM     44  N   UNL     1      -6.110  -4.866  -7.414  1.00  0.00    -0.354 N 
ATOM     45  C   UNL     1      -7.723  -8.047  -5.224  1.00  0.00     0.074 A 
ATOM     46  C   UNL     1      -7.296  -8.059  -3.842  1.00  0.00     0.031 C 
ATOM     47  C   UNL     1      -5.079  -2.918  -7.761  1.00  0.00     0.029 A 
ATOM     48  C   UNL     1      -5.611  -4.074  -8.442  1.00  0.00     0.049 A 
ATOM     49  H   UNL     1      -6.650  -5.673  -7.572  1.00  0.00     0.167 HD
ATOM     50  C   UNL     1      -8.611  -8.917  -5.750  1.00  0.00     0.031 A 
ATOM     51  C   UNL     1      -5.596  -4.192  -9.785  1.00  0.00     0.031 A 
ATOM     52  C   UNL     1      -9.015  -8.944  -7.125  1.00  0.00     0.049 A 
ATOM     53  C   UNL     1      -6.426  -5.271 -10.391  1.00  0.00     0.074 A 
ATOM     54  C   UNL     1      -9.949  -9.766  -7.726  1.00  0.00     0.029 A 
ATOM     55  N   UNL     1      -8.488  -8.137  -8.123  1.00  0.00    -0.354 N 
ATOM     56  N   UNL     1      -7.087  -6.216  -9.776  1.00  0.00    -0.248 NA
ATOM     57  C   UNL     1      -6.607  -5.244 -11.848  1.00  0.00     0.031 C 
ATOM     58  C   UNL     1      -9.942  -9.502  -9.100  1.00  0.00     0.029 A 
ATOM     59  C   UNL     1      -9.047  -8.474  -9.345  1.00  0.00     0.049 A 
ATOM     60  H   UNL     1      -7.816  -7.431  -7.984  1.00  0.00     0.167 HD
ATOM     61  C   UNL     1      -7.832  -6.845 -10.755  1.00  0.00     0.074 A 
ATOM     62  C   UNL     1      -7.520  -6.191 -12.011  1.00  0.00     0.031 C 
ATOM     63  C   UNL     1      -8.726  -7.847 -10.601  1.00  0.00     0.031 A 
BRANCH  50  64
ATOM     64  C   UNL     1      -9.200  -9.891  -4.780  1.00  0.00    -0.014 A 
ATOM     65  C   UNL     1     -10.060  -9.448  -3.758  1.00  0.00     0.009 A 
ATOM     66  C   UNL     1      -8.840 -11.241  -4.840  1.00  0.00     0.009 A 
ATOM     67  C   UNL     1     -10.501 -10.334  -2.777  1.00  0.00     0.001 A 
ATOM     68  C   UNL     1      -9.312 -12.131  -3.876  1.00  0.00     0.001 A 
ATOM     69  C   UNL     1     -10.127 -11.675  -2.839  1.00  0.00     0.000 A 
ENDBRANCH  50  64
BRANCH  51  70
ATOM     70  C   UNL     1      -4.886  -3.201 -10.652  1.00  0.00    -0.014 A 
ATOM     71  C   UNL     1      -5.592  -2.201 -11.341  1.00  0.00     0.009 A 
ATOM     72  C   UNL     1      -3.491  -3.263 -10.810  1.00  0.00     0.009 A 
ATOM     73  C   UNL     1      -4.926  -1.310 -12.190  1.00  0.00     0.001 A 
ATOM     74  C   UNL     1      -2.825  -2.358 -11.647  1.00  0.00     0.001 A 
ATOM     75  C   UNL     1      -3.543  -1.388 -12.342  1.00  0.00     0.000 A 
ENDBRANCH  51  70
BRANCH  63  76
ATOM     76  C   UNL     1      -9.466  -8.284 -11.827  1.00  0.00    -0.014 A 
ATOM     77  C   UNL     1      -8.824  -8.987 -12.856  1.00  0.00     0.009 A 
ATOM     78  C   UNL     1     -10.838  -8.006 -11.937  1.00  0.00     0.009 A 
ATOM     79  C   UNL     1      -9.537  -9.380 -13.988  1.00  0.00     0.001 A 
ATOM     80  C   UNL     1     -11.555  -8.431 -13.053  1.00  0.00     0.001 A 
ATOM     81  C   UNL     1     -10.903  -9.110 -14.081  1.00  0.00     0.000 A 
ENDBRANCH  63  76
ENDBRANCH  37  38
ENDBRANCH  30  32
ENDBRANCH  29  30
ENDBRANCH  28  29
ENDBRANCH  27  28
ENDBRANCH  26  27
ENDBRANCH  25  26
ENDBRANCH  24  25
ENDBRANCH   1  24
TORSDOF 23
