REMARK SMILES CC(C)C[C@H](NC(=O)[C@@H](NC(=O)[C@H](C)NC(=O)CNC(=O)OCc1ccccc1)C(C)C)C(=O)OCCOCCOCCOC(=O)c1ccc(-c2c3nc(c(-c4ccccc4)c4ccc([nH]4)c(-c4ccccc4)c4nc(c(-c5ccccc5)c5ccc2[nH]5)C=C4)C=C3)cc1
REMARK SMILES IDX 36 1 35 2 33 3 34 4 5 5 4 6 2 7 1 8 3 9 6 10 7 11 8 13 9 14
REMARK SMILES IDX 10 15 11 16 12 18 13 19 14 20 15 21 16 22 17 24 18 25 19 26
REMARK SMILES IDX 20 27 21 29 22 30 23 31 24 32 25 33 29 34 26 35 28 36 27 37
REMARK SMILES IDX 30 38 31 39 32 40 37 41 38 42 39 43 40 44 41 45 42 46 43 47
REMARK SMILES IDX 44 48 45 49 46 50 47 51 48 52 94 53 49 54 93 55 50 56 51 57
REMARK SMILES IDX 52 58 87 59 53 60 92 61 86 62 88 63 54 64 91 65 85 66 84 67
REMARK SMILES IDX 55 69 77 70 62 71 76 72 63 73 66 74 75 75 89 76 64 77 65 78
REMARK SMILES IDX 74 80 90 81 67 82 56 83 57 84 61 85 58 86 60 87 59 88 78 89
REMARK SMILES IDX 79 90 83 91 80 92 82 93 81 94 68 95 69 96 73 97 70 98 72 99
REMARK SMILES IDX 71 100
REMARK H PARENT 6 12 10 17 15 23 19 28 88 68 66 79
REMARK Flexibility Score: inf
ROOT
ATOM      1  C   UNL     1      -4.741  -0.413   0.605  1.00  0.00     0.261 C 
ENDROOT
BRANCH   1   2
ATOM      2  O   UNL     1      -4.683  -1.175  -0.642  1.00  0.00    -0.462 OA
BRANCH   2   3
ATOM      3  C   UNL     1      -5.391  -2.351  -0.812  1.00  0.00     0.328 C 
ATOM      4  O   UNL     1      -6.211  -2.773  -0.007  1.00  0.00    -0.250 OA
BRANCH   3   5
ATOM      5  C   UNL     1      -5.142  -2.994  -2.252  1.00  0.00     0.192 C 
BRANCH   5   6
ATOM      6  C   UNL     1      -5.151  -4.533  -2.462  1.00  0.00     0.040 C 
BRANCH   6   7
ATOM      7  C   UNL     1      -3.944  -5.200  -1.825  1.00  0.00    -0.015 C 
ATOM      8  C   UNL     1      -4.263  -5.397  -0.364  1.00  0.00     0.007 C 
ATOM      9  C   UNL     1      -3.429  -6.494  -2.446  1.00  0.00     0.007 C 
ENDBRANCH   6   7
ENDBRANCH   5   6
BRANCH   5  10
ATOM     10  N   UNL     1      -4.161  -2.392  -3.188  1.00  0.00    -0.341 N 
ATOM     11  C   UNL     1      -2.818  -2.247  -3.295  1.00  0.00     0.243 C 
ATOM     12  H   UNL     1      -4.619  -1.977  -3.954  1.00  0.00     0.164 HD
ATOM     13  O   UNL     1      -2.434  -2.031  -4.455  1.00  0.00    -0.273 OA
BRANCH  11  14
ATOM     14  C   UNL     1      -1.765  -2.268  -2.122  1.00  0.00     0.174 C 
BRANCH  14  15
ATOM     15  N   UNL     1      -2.357  -2.267  -0.778  1.00  0.00    -0.342 N 
ATOM     16  C   UNL     1      -2.236  -2.735   0.477  1.00  0.00     0.242 C 
ATOM     17  H   UNL     1      -3.160  -1.698  -0.807  1.00  0.00     0.164 HD
ATOM     18  O   UNL     1      -3.232  -2.548   1.198  1.00  0.00    -0.273 OA
BRANCH  16  19
ATOM     19  C   UNL     1      -1.136  -3.544   1.154  1.00  0.00     0.168 C 
ATOM     20  C   UNL     1       0.215  -2.881   1.291  1.00  0.00     0.041 C 
BRANCH  19  21
ATOM     21  N   UNL     1      -1.114  -4.973   0.883  1.00  0.00    -0.343 N 
ATOM     22  C   UNL     1      -1.878  -5.963   1.452  1.00  0.00     0.240 C 
ATOM     23  H   UNL     1      -0.467  -5.270   0.203  1.00  0.00     0.164 HD
ATOM     24  O   UNL     1      -1.642  -7.129   1.126  1.00  0.00    -0.273 OA
BRANCH  22  25
ATOM     25  C   UNL     1      -2.985  -5.644   2.486  1.00  0.00     0.219 C 
BRANCH  25  26
ATOM     26  N   UNL     1      -2.329  -5.339   3.728  1.00  0.00    -0.312 N 
ATOM     27  C   UNL     1      -2.360  -4.098   4.271  1.00  0.00     0.407 C 
ATOM     28  H   UNL     1      -1.843  -6.054   4.199  1.00  0.00     0.167 HD
ATOM     29  O   UNL     1      -1.363  -3.631   4.830  1.00  0.00    -0.225 OA
BRANCH  27  30
ATOM     30  O   UNL     1      -3.572  -3.503   4.176  1.00  0.00    -0.445 OA
BRANCH  30  31
ATOM     31  C   UNL     1      -3.741  -2.327   4.984  1.00  0.00     0.270 C 
BRANCH  31  32
ATOM     32  C   UNL     1      -3.613  -2.611   6.470  1.00  0.00    -0.011 A 
ATOM     33  C   UNL     1      -3.421  -1.552   7.364  1.00  0.00     0.007 A 
ATOM     34  C   UNL     1      -3.567  -3.926   6.966  1.00  0.00     0.007 A 
ATOM     35  C   UNL     1      -3.074  -1.811   8.691  1.00  0.00     0.000 A 
ATOM     36  C   UNL     1      -3.164  -4.183   8.271  1.00  0.00     0.000 A 
ATOM     37  C   UNL     1      -2.905  -3.124   9.131  1.00  0.00     0.000 A 
ENDBRANCH  31  32
ENDBRANCH  30  31
ENDBRANCH  27  30
ENDBRANCH  25  26
ENDBRANCH  22  25
ENDBRANCH  19  21
ENDBRANCH  16  19
ENDBRANCH  14  15
BRANCH  14  38
ATOM     38  C   UNL     1      -0.577  -3.228  -2.293  1.00  0.00     0.015 C 
ATOM     39  C   UNL     1      -0.379  -3.836  -3.683  1.00  0.00     0.010 C 
ATOM     40  C   UNL     1       0.707  -2.481  -1.913  1.00  0.00     0.010 C 
ENDBRANCH  14  38
ENDBRANCH  11  14
ENDBRANCH   5  10
ENDBRANCH   3   5
ENDBRANCH   2   3
ENDBRANCH   1   2
BRANCH   1  41
ATOM     41  C   UNL     1      -4.892   1.117   0.500  1.00  0.00     0.202 C 
BRANCH  41  42
ATOM     42  O   UNL     1      -5.782   1.718  -0.420  1.00  0.00    -0.376 OA
BRANCH  42  43
ATOM     43  C   UNL     1      -6.437   0.845  -1.305  1.00  0.00     0.188 C 
BRANCH  43  44
ATOM     44  C   UNL     1      -5.623   0.411  -2.538  1.00  0.00     0.188 C 
BRANCH  44  45
ATOM     45  O   UNL     1      -4.239   0.679  -2.609  1.00  0.00    -0.376 OA
BRANCH  45  46
ATOM     46  C   UNL     1      -3.851   2.044  -2.715  1.00  0.00     0.202 C 
BRANCH  46  47
ATOM     47  C   UNL     1      -4.696   3.086  -3.495  1.00  0.00     0.261 C 
BRANCH  47  48
ATOM     48  O   UNL     1      -6.130   2.993  -3.356  1.00  0.00    -0.460 OA
BRANCH  48  49
ATOM     49  C   UNL     1      -6.825   2.534  -4.440  1.00  0.00     0.338 C 
ATOM     50  O   UNL     1      -6.383   2.325  -5.556  1.00  0.00    -0.246 OA
BRANCH  49  51
ATOM     51  C   UNL     1      -8.120   1.965  -3.960  1.00  0.00     0.060 A 
ATOM     52  C   UNL     1      -8.398   0.604  -4.218  1.00  0.00     0.016 A 
ATOM     53  C   UNL     1      -8.962   2.696  -3.122  1.00  0.00     0.016 A 
ATOM     54  C   UNL     1      -9.512  -0.020  -3.651  1.00  0.00     0.010 A 
ATOM     55  C   UNL     1     -10.103   2.085  -2.590  1.00  0.00     0.010 A 
ATOM     56  C   UNL     1     -10.405   0.739  -2.887  1.00  0.00    -0.014 A 
BRANCH  56  57
ATOM     57  C   UNL     1     -11.811   0.281  -2.746  1.00  0.00     0.031 A 
ATOM     58  C   UNL     1     -12.764   0.752  -3.815  1.00  0.00     0.074 A 
ATOM     59  C   UNL     1     -12.251  -0.498  -1.742  1.00  0.00     0.049 A 
ATOM     60  N   UNL     1     -14.062   0.633  -3.892  1.00  0.00    -0.248 NA
ATOM     61  C   UNL     1     -12.157   1.475  -4.949  1.00  0.00     0.031 C 
ATOM     62  C   UNL     1     -11.431  -1.087  -0.687  1.00  0.00     0.029 A 
ATOM     63  N   UNL     1     -13.528  -0.913  -1.448  1.00  0.00    -0.354 N 
ATOM     64  C   UNL     1     -14.424   1.287  -5.064  1.00  0.00     0.074 A 
ATOM     65  C   UNL     1     -13.220   1.824  -5.651  1.00  0.00     0.031 C 
ATOM     66  C   UNL     1     -12.231  -1.774   0.152  1.00  0.00     0.029 A 
ATOM     67  C   UNL     1     -13.621  -1.636  -0.283  1.00  0.00     0.049 A 
ATOM     68  H   UNL     1     -14.305  -0.711  -2.019  1.00  0.00     0.167 HD
ATOM     69  C   UNL     1     -15.651   1.432  -5.611  1.00  0.00     0.031 A 
ATOM     70  C   UNL     1     -14.708  -2.101   0.367  1.00  0.00     0.031 A 
ATOM     71  C   UNL     1     -16.853   0.918  -5.021  1.00  0.00     0.049 A 
ATOM     72  C   UNL     1     -16.082  -1.843  -0.209  1.00  0.00     0.074 A 
ATOM     73  C   UNL     1     -18.149   1.008  -5.493  1.00  0.00     0.029 A 
ATOM     74  N   UNL     1     -16.903   0.226  -3.822  1.00  0.00    -0.354 N 
ATOM     75  N   UNL     1     -16.415  -1.232  -1.322  1.00  0.00    -0.248 NA
ATOM     76  C   UNL     1     -17.230  -2.344   0.563  1.00  0.00     0.031 C 
ATOM     77  C   UNL     1     -18.994   0.425  -4.545  1.00  0.00     0.029 A 
ATOM     78  C   UNL     1     -18.215  -0.094  -3.522  1.00  0.00     0.049 A 
ATOM     79  H   UNL     1     -16.123  -0.004  -3.267  1.00  0.00     0.167 HD
ATOM     80  C   UNL     1     -17.802  -1.308  -1.400  1.00  0.00     0.074 A 
ATOM     81  C   UNL     1     -18.247  -2.035  -0.229  1.00  0.00     0.031 C 
ATOM     82  C   UNL     1     -18.636  -0.824  -2.354  1.00  0.00     0.031 A 
BRANCH  69  83
ATOM     83  C   UNL     1     -15.745   2.224  -6.884  1.00  0.00    -0.014 A 
ATOM     84  C   UNL     1     -15.219   1.739  -8.093  1.00  0.00     0.009 A 
ATOM     85  C   UNL     1     -16.372   3.480  -6.872  1.00  0.00     0.009 A 
ATOM     86  C   UNL     1     -15.287   2.512  -9.254  1.00  0.00     0.001 A 
ATOM     87  C   UNL     1     -16.470   4.234  -8.041  1.00  0.00     0.001 A 
ATOM     88  C   UNL     1     -15.919   3.755  -9.228  1.00  0.00     0.000 A 
ENDBRANCH  69  83
BRANCH  70  89
ATOM     89  C   UNL     1     -14.565  -2.833   1.657  1.00  0.00    -0.014 A 
ATOM     90  C   UNL     1     -14.911  -4.190   1.756  1.00  0.00     0.009 A 
ATOM     91  C   UNL     1     -14.122  -2.167   2.811  1.00  0.00     0.009 A 
ATOM     92  C   UNL     1     -14.843  -4.855   2.984  1.00  0.00     0.001 A 
ATOM     93  C   UNL     1     -14.023  -2.842   4.031  1.00  0.00     0.001 A 
ATOM     94  C   UNL     1     -14.393  -4.183   4.119  1.00  0.00     0.000 A 
ENDBRANCH  70  89
BRANCH  82  95
ATOM     95  C   UNL     1     -20.106  -1.108  -2.208  1.00  0.00    -0.014 A 
ATOM     96  C   UNL     1     -20.882  -0.484  -1.219  1.00  0.00     0.009 A 
ATOM     97  C   UNL     1     -20.735  -1.971  -3.121  1.00  0.00     0.009 A 
ATOM     98  C   UNL     1     -22.250  -0.749  -1.125  1.00  0.00     0.001 A 
ATOM     99  C   UNL     1     -22.108  -2.206  -3.046  1.00  0.00     0.001 A 
ATOM    100  C   UNL     1     -22.863  -1.603  -2.042  1.00  0.00     0.000 A 
ENDBRANCH  82  95
ENDBRANCH  56  57
ENDBRANCH  49  51
ENDBRANCH  48  49
ENDBRANCH  47  48
ENDBRANCH  46  47
ENDBRANCH  45  46
ENDBRANCH  44  45
ENDBRANCH  43  44
ENDBRANCH  42  43
ENDBRANCH  41  42
ENDBRANCH   1  41
TORSDOF 30
