REMARK SMILES Cc1c(NC(=O)c2ccc(Br)cc2N)cccc1C(=O)OCCOCCOCCOC(=O)c1ccc(-c2c3nc(c(-c4ccccc4)c4ccc([nH]4)c(-c4ccccc4)c4nc(c(-c5ccccc5)c5ccc2[nH]5)C=C4)C=C3)cc1
REMARK SMILES IDX 25 1 24 2 23 3 22 4 21 5 19 6 20 7 18 8 1 9 2 10 3 11 15 12
REMARK SMILES IDX 17 13 16 14 4 15 5 16 6 18 7 19 8 20 13 21 9 22 12 23 10 24
REMARK SMILES IDX 11 25 14 26 26 29 27 30 28 31 29 32 30 33 31 34 32 35 33 36
REMARK SMILES IDX 34 37 80 38 35 39 79 40 36 41 37 42 38 43 73 44 39 45 78 46
REMARK SMILES IDX 72 47 74 48 40 49 77 50 71 51 70 52 41 54 63 55 48 56 62 57
REMARK SMILES IDX 49 58 52 59 61 60 75 61 50 62 51 63 60 65 76 66 53 67 42 68
REMARK SMILES IDX 43 69 47 70 44 71 46 72 45 73 64 74 65 75 69 76 66 77 68 78
REMARK SMILES IDX 67 79 54 80 55 81 59 82 56 83 58 84 57 85
REMARK H PARENT 4 17 14 27 14 28 74 53 52 64
REMARK Flexibility Score: inf
ROOT
ATOM      1  C   UNL     1       2.882   5.514  -2.128  1.00  0.00     0.188 C 
ENDROOT
BRANCH   1   2
ATOM      2  O   UNL     1       3.722   4.750  -1.228  1.00  0.00    -0.376 OA
BRANCH   2   3
ATOM      3  C   UNL     1       4.559   3.642  -1.617  1.00  0.00     0.202 C 
BRANCH   3   4
ATOM      4  C   UNL     1       4.396   2.100  -0.976  1.00  0.00     0.261 C 
BRANCH   4   5
ATOM      5  O   UNL     1       3.201   0.942  -1.200  1.00  0.00    -0.460 OA
BRANCH   5   6
ATOM      6  C   UNL     1       2.018   0.556  -0.511  1.00  0.00     0.338 C 
ATOM      7  O   UNL     1       1.565   1.012   0.537  1.00  0.00    -0.246 OA
BRANCH   6   8
ATOM      8  C   UNL     1       1.050  -0.508  -0.806  1.00  0.00     0.065 A 
ATOM      9  C   UNL     1       2.924  -2.164  -0.858  1.00  0.00     0.047 C 
ATOM     10  C   UNL     1       1.476  -1.823  -0.689  1.00  0.00    -0.013 A 
ATOM     11  C   UNL     1       0.509  -2.788  -0.336  1.00  0.00     0.045 A 
ATOM     12  C   UNL     1      -0.809  -2.447   0.022  1.00  0.00     0.026 A 
ATOM     13  C   UNL     1      -0.324  -0.188  -0.517  1.00  0.00     0.016 A 
ATOM     14  C   UNL     1      -1.236  -1.140  -0.075  1.00  0.00     0.003 A 
BRANCH  11  15
ATOM     15  N   UNL     1       0.876  -4.131  -0.422  1.00  0.00    -0.322 N 
ATOM     16  C   UNL     1       0.167  -5.163  -0.995  1.00  0.00     0.257 C 
ATOM     17  H   UNL     1       1.745  -4.370  -0.025  1.00  0.00     0.170 HD
ATOM     18  O   UNL     1       0.610  -6.308  -0.904  1.00  0.00    -0.269 OA
BRANCH  16  19
ATOM     19  C   UNL     1      -1.105  -4.930  -1.741  1.00  0.00     0.063 A 
ATOM     20  C   UNL     1      -2.142  -5.820  -1.413  1.00  0.00     0.017 A 
ATOM     21  C   UNL     1      -1.324  -3.908  -2.696  1.00  0.00     0.045 A 
ATOM     22  C   UNL     1      -3.394  -5.703  -2.012  1.00  0.00     0.016 A 
ATOM     23  C   UNL     1      -2.596  -3.804  -3.280  1.00  0.00     0.042 A 
ATOM     24  C   UNL     1      -3.616  -4.691  -2.938  1.00  0.00     0.020 A 
ATOM     25  Br  UNL     1      -5.306  -4.537  -3.771  1.00  0.00    -0.051 Br
BRANCH  21  26
ATOM     26  N   UNL     1      -0.325  -3.079  -3.211  1.00  0.00    -0.398 N 
ATOM     27  H   UNL     1       0.585  -3.113  -2.836  1.00  0.00     0.156 HD
ATOM     28  H   UNL     1      -0.530  -2.460  -3.948  1.00  0.00     0.156 HD
ENDBRANCH  21  26
ENDBRANCH  16  19
ENDBRANCH  11  15
ENDBRANCH   6   8
ENDBRANCH   5   6
ENDBRANCH   4   5
ENDBRANCH   3   4
ENDBRANCH   2   3
ENDBRANCH   1   2
BRANCH   1  29
ATOM     29  C   UNL     1       3.027   5.498  -3.656  1.00  0.00     0.188 C 
BRANCH  29  30
ATOM     30  O   UNL     1       3.179   4.173  -4.133  1.00  0.00    -0.376 OA
BRANCH  30  31
ATOM     31  C   UNL     1       3.223   4.022  -5.545  1.00  0.00     0.202 C 
BRANCH  31  32
ATOM     32  C   UNL     1       1.821   3.944  -6.190  1.00  0.00     0.261 C 
BRANCH  32  33
ATOM     33  O   UNL     1       1.010   2.924  -5.554  1.00  0.00    -0.460 OA
BRANCH  33  34
ATOM     34  C   UNL     1      -0.108   3.333  -4.868  1.00  0.00     0.338 C 
ATOM     35  O   UNL     1      -0.965   4.081  -5.316  1.00  0.00    -0.246 OA
BRANCH  34  36
ATOM     36  C   UNL     1      -0.001   2.933  -3.422  1.00  0.00     0.060 A 
ATOM     37  C   UNL     1      -0.777   3.405  -2.352  1.00  0.00     0.016 A 
ATOM     38  C   UNL     1       1.175   2.374  -3.071  1.00  0.00     0.016 A 
ATOM     39  C   UNL     1      -0.260   3.461  -0.982  1.00  0.00     0.010 A 
ATOM     40  C   UNL     1       1.680   2.770  -1.837  1.00  0.00     0.010 A 
ATOM     41  C   UNL     1       1.075   3.206  -0.662  1.00  0.00    -0.014 A 
BRANCH  41  42
ATOM     42  C   UNL     1       1.898   3.541   0.704  1.00  0.00     0.031 A 
ATOM     43  C   UNL     1       2.730   2.610   1.835  1.00  0.00     0.074 A 
ATOM     44  C   UNL     1       1.782   4.831   1.091  1.00  0.00     0.049 A 
ATOM     45  N   UNL     1       2.690   2.817   3.143  1.00  0.00    -0.248 NA
ATOM     46  C   UNL     1       3.539   1.343   1.657  1.00  0.00     0.031 C 
ATOM     47  C   UNL     1       2.405   5.502   2.224  1.00  0.00     0.029 A 
ATOM     48  N   UNL     1       0.838   5.754   0.626  1.00  0.00    -0.354 N 
ATOM     49  C   UNL     1       3.481   1.840   3.768  1.00  0.00     0.074 A 
ATOM     50  C   UNL     1       3.628   0.799   2.852  1.00  0.00     0.031 C 
ATOM     51  C   UNL     1       1.617   6.529   2.582  1.00  0.00     0.029 A 
ATOM     52  C   UNL     1       0.426   6.479   1.749  1.00  0.00     0.049 A 
ATOM     53  H   UNL     1       0.527   5.868  -0.301  1.00  0.00     0.167 HD
ATOM     54  C   UNL     1       4.153   1.967   4.942  1.00  0.00     0.031 A 
ATOM     55  C   UNL     1      -0.867   6.420   2.174  1.00  0.00     0.031 A 
ATOM     56  C   UNL     1       3.590   3.065   5.673  1.00  0.00     0.049 A 
ATOM     57  C   UNL     1      -0.993   5.936   3.603  1.00  0.00     0.074 A 
ATOM     58  C   UNL     1       3.927   4.396   5.798  1.00  0.00     0.029 A 
ATOM     59  N   UNL     1       2.257   2.944   6.028  1.00  0.00    -0.354 N 
ATOM     60  N   UNL     1      -0.025   5.395   4.294  1.00  0.00    -0.248 NA
ATOM     61  C   UNL     1      -2.242   6.001   4.358  1.00  0.00     0.031 C 
ATOM     62  C   UNL     1       2.712   5.104   6.049  1.00  0.00     0.029 A 
ATOM     63  C   UNL     1       1.678   4.188   6.159  1.00  0.00     0.049 A 
ATOM     64  H   UNL     1       1.788   2.089   6.166  1.00  0.00     0.167 HD
ATOM     65  C   UNL     1      -0.504   4.978   5.506  1.00  0.00     0.074 A 
ATOM     66  C   UNL     1      -1.886   5.420   5.516  1.00  0.00     0.031 C 
ATOM     67  C   UNL     1       0.243   4.261   6.396  1.00  0.00     0.031 A 
BRANCH  54  68
ATOM     68  C   UNL     1       5.407   1.150   5.312  1.00  0.00    -0.014 A 
ATOM     69  C   UNL     1       6.120   1.459   6.480  1.00  0.00     0.009 A 
ATOM     70  C   UNL     1       6.017   0.146   4.513  1.00  0.00     0.009 A 
ATOM     71  C   UNL     1       7.335   0.817   6.814  1.00  0.00     0.001 A 
ATOM     72  C   UNL     1       7.202  -0.527   4.853  1.00  0.00     0.001 A 
ATOM     73  C   UNL     1       7.872  -0.181   6.006  1.00  0.00     0.000 A 
ENDBRANCH  54  68
BRANCH  55  74
ATOM     74  C   UNL     1      -1.890   6.272   1.084  1.00  0.00    -0.014 A 
ATOM     75  C   UNL     1      -1.844   7.188   0.005  1.00  0.00     0.009 A 
ATOM     76  C   UNL     1      -2.716   5.148   0.937  1.00  0.00     0.009 A 
ATOM     77  C   UNL     1      -2.494   6.938  -1.208  1.00  0.00     0.001 A 
ATOM     78  C   UNL     1      -3.390   4.908  -0.277  1.00  0.00     0.001 A 
ATOM     79  C   UNL     1      -3.259   5.788  -1.354  1.00  0.00     0.000 A 
ENDBRANCH  55  74
BRANCH  67  80
ATOM     80  C   UNL     1      -0.327   3.504   7.574  1.00  0.00    -0.014 A 
ATOM     81  C   UNL     1      -1.639   3.014   7.622  1.00  0.00     0.009 A 
ATOM     82  C   UNL     1       0.539   3.103   8.615  1.00  0.00     0.009 A 
ATOM     83  C   UNL     1      -2.079   2.209   8.680  1.00  0.00     0.001 A 
ATOM     84  C   UNL     1       0.123   2.248   9.638  1.00  0.00     0.001 A 
ATOM     85  C   UNL     1      -1.194   1.815   9.680  1.00  0.00     0.000 A 
ENDBRANCH  67  80
ENDBRANCH  41  42
ENDBRANCH  34  36
ENDBRANCH  33  34
ENDBRANCH  32  33
ENDBRANCH  31  32
ENDBRANCH  30  31
ENDBRANCH  29  30
ENDBRANCH   1  29
TORSDOF 20
