REMARK SMILES O=C(CC1(CC(=O)OCCOCCOCCOC(=O)c2ccc(-c3c4nc(c(-c5ccccc5)c5ccc([nH]5)c(-c5ccccc5)c5nc(c(-c6ccccc6)c6ccc3[nH]6)C=C5)C=C4)cc2)CCCCC1)Nc1ccc2ccccc2n1
REMARK SMILES IDX 12 1 11 2 10 3 9 4 8 5 6 6 7 7 5 8 4 9 68 10 72 11 69 12
REMARK SMILES IDX 71 13 70 14 3 15 2 16 1 17 73 18 74 20 75 21 83 22 76 23
REMARK SMILES IDX 82 24 77 25 81 26 78 27 80 28 79 29 13 30 14 31 15 32 16 33
REMARK SMILES IDX 17 34 18 35 19 36 20 37 21 38 67 39 22 40 66 41 23 42 24 43
REMARK SMILES IDX 25 44 60 45 26 46 65 47 59 48 61 49 27 50 64 51 58 52 57 53
REMARK SMILES IDX 28 55 50 56 35 57 49 58 36 59 39 60 48 61 62 62 37 63 38 64
REMARK SMILES IDX 47 66 63 67 40 68 29 69 30 70 34 71 31 72 33 73 32 74 51 75
REMARK SMILES IDX 52 76 56 77 53 78 55 79 54 80 41 81 42 82 46 83 43 84 45 85
REMARK SMILES IDX 44 86
REMARK H PARENT 73 19 61 54 39 65
REMARK Flexibility Score: inf
ROOT
ATOM      1  C   UNL     1       3.926  -2.724  -4.201  1.00  0.00     0.188 C 
ENDROOT
BRANCH   1   2
ATOM      2  O   UNL     1       5.067  -3.244  -4.868  1.00  0.00    -0.376 OA
BRANCH   2   3
ATOM      3  C   UNL     1       6.357  -2.836  -4.426  1.00  0.00     0.202 C 
BRANCH   3   4
ATOM      4  C   UNL     1       6.644  -1.329  -4.450  1.00  0.00     0.261 C 
BRANCH   4   5
ATOM      5  O   UNL     1       5.808  -0.541  -3.559  1.00  0.00    -0.463 OA
BRANCH   5   6
ATOM      6  C   UNL     1       5.251   0.565  -4.107  1.00  0.00     0.306 C 
ATOM      7  O   UNL     1       5.459   0.917  -5.267  1.00  0.00    -0.252 OA
BRANCH   6   8
ATOM      8  C   UNL     1       4.210   1.312  -3.269  1.00  0.00     0.130 C 
BRANCH   8   9
ATOM      9  C   UNL     1       4.141   1.479  -1.704  1.00  0.00    -0.010 C 
ATOM     10  C   UNL     1       3.663   2.942  -1.409  1.00  0.00     0.008 C 
ATOM     11  C   UNL     1       5.484   1.251  -0.977  1.00  0.00     0.008 C 
ATOM     12  C   UNL     1       4.710   4.020  -1.668  1.00  0.00     0.001 C 
ATOM     13  C   UNL     1       6.525   2.325  -1.267  1.00  0.00     0.001 C 
ATOM     14  C   UNL     1       5.998   3.713  -0.920  1.00  0.00     0.000 C 
BRANCH   9  15
ATOM     15  C   UNL     1       3.104   0.476  -1.105  1.00  0.00     0.108 C 
BRANCH  15  16
ATOM     16  C   UNL     1       1.939   1.067  -0.317  1.00  0.00     0.226 C 
ATOM     17  O   UNL     1       0.921   1.389  -0.925  1.00  0.00    -0.275 OA
ATOM     18  N   UNL     1       2.127   1.058   1.063  1.00  0.00    -0.311 N 
ATOM     19  H   UNL     1       3.022   1.162   1.458  1.00  0.00     0.171 HD
BRANCH  18  20
ATOM     20  C   UNL     1       0.983   0.892   1.874  1.00  0.00     0.133 A 
ATOM     21  C   UNL     1       0.901  -0.382   2.405  1.00  0.00     0.048 A 
ATOM     22  N   UNL     1      -0.099   1.661   1.652  1.00  0.00    -0.231 NA
ATOM     23  C   UNL     1      -0.298  -1.046   2.201  1.00  0.00     0.014 A 
ATOM     24  C   UNL     1      -1.289   1.046   1.561  1.00  0.00     0.073 A 
ATOM     25  C   UNL     1      -1.395  -0.351   1.679  1.00  0.00     0.000 A 
ATOM     26  C   UNL     1      -2.441   1.764   1.264  1.00  0.00     0.029 A 
ATOM     27  C   UNL     1      -2.560  -1.008   1.257  1.00  0.00     0.010 A 
ATOM     28  C   UNL     1      -3.633   1.117   0.926  1.00  0.00     0.002 A 
ATOM     29  C   UNL     1      -3.671  -0.271   0.856  1.00  0.00     0.001 A 
ENDBRANCH  18  20
ENDBRANCH  15  16
ENDBRANCH   9  15
ENDBRANCH   8   9
ENDBRANCH   6   8
ENDBRANCH   5   6
ENDBRANCH   4   5
ENDBRANCH   3   4
ENDBRANCH   2   3
ENDBRANCH   1   2
BRANCH   1  30
ATOM     30  C   UNL     1       3.978  -2.558  -2.680  1.00  0.00     0.188 C 
BRANCH  30  31
ATOM     31  O   UNL     1       4.926  -3.405  -2.056  1.00  0.00    -0.376 OA
BRANCH  31  32
ATOM     32  C   UNL     1       4.701  -3.636  -0.673  1.00  0.00     0.202 C 
BRANCH  32  33
ATOM     33  C   UNL     1       3.879  -4.919  -0.531  1.00  0.00     0.261 C 
BRANCH  33  34
ATOM     34  O   UNL     1       2.554  -4.812  -1.091  1.00  0.00    -0.460 OA
BRANCH  34  35
ATOM     35  C   UNL     1       1.734  -3.894  -0.528  1.00  0.00     0.338 C 
ATOM     36  O   UNL     1       1.955  -3.237   0.478  1.00  0.00    -0.246 OA
BRANCH  35  37
ATOM     37  C   UNL     1       0.622  -3.626  -1.469  1.00  0.00     0.060 A 
ATOM     38  C   UNL     1       0.258  -2.293  -1.703  1.00  0.00     0.016 A 
ATOM     39  C   UNL     1      -0.032  -4.658  -2.146  1.00  0.00     0.016 A 
ATOM     40  C   UNL     1      -0.778  -1.987  -2.586  1.00  0.00     0.010 A 
ATOM     41  C   UNL     1      -1.083  -4.355  -3.016  1.00  0.00     0.010 A 
ATOM     42  C   UNL     1      -1.481  -3.020  -3.217  1.00  0.00    -0.014 A 
BRANCH  42  43
ATOM     43  C   UNL     1      -2.756  -2.728  -3.916  1.00  0.00     0.031 A 
ATOM     44  C   UNL     1      -4.043  -2.960  -3.172  1.00  0.00     0.074 A 
ATOM     45  C   UNL     1      -2.786  -2.257  -5.174  1.00  0.00     0.049 A 
ATOM     46  N   UNL     1      -5.278  -2.836  -3.584  1.00  0.00    -0.248 NA
ATOM     47  C   UNL     1      -3.914  -3.395  -1.772  1.00  0.00     0.031 C 
ATOM     48  C   UNL     1      -1.617  -1.930  -5.988  1.00  0.00     0.029 A 
ATOM     49  N   UNL     1      -3.856  -1.978  -5.990  1.00  0.00    -0.354 N 
ATOM     50  C   UNL     1      -6.071  -3.186  -2.500  1.00  0.00     0.074 A 
ATOM     51  C   UNL     1      -5.180  -3.557  -1.422  1.00  0.00     0.031 C 
ATOM     52  C   UNL     1      -2.034  -1.502  -7.193  1.00  0.00     0.029 A 
ATOM     53  C   UNL     1      -3.495  -1.563  -7.248  1.00  0.00     0.049 A 
ATOM     54  H   UNL     1      -4.792  -2.067  -5.699  1.00  0.00     0.167 HD
ATOM     55  C   UNL     1      -7.421  -3.200  -2.405  1.00  0.00     0.031 A 
ATOM     56  C   UNL     1      -4.255  -1.290  -8.327  1.00  0.00     0.031 A 
ATOM     57  C   UNL     1      -8.312  -2.861  -3.482  1.00  0.00     0.049 A 
ATOM     58  C   UNL     1      -5.754  -1.410  -8.231  1.00  0.00     0.074 A 
ATOM     59  C   UNL     1      -9.695  -2.841  -3.482  1.00  0.00     0.029 A 
ATOM     60  N   UNL     1      -7.905  -2.496  -4.756  1.00  0.00    -0.354 N 
ATOM     61  N   UNL     1      -6.497  -1.726  -7.197  1.00  0.00    -0.248 NA
ATOM     62  C   UNL     1      -6.521  -1.132  -9.455  1.00  0.00     0.031 C 
ATOM     63  C   UNL     1     -10.127  -2.531  -4.776  1.00  0.00     0.029 A 
ATOM     64  C   UNL     1      -9.012  -2.287  -5.562  1.00  0.00     0.049 A 
ATOM     65  H   UNL     1      -6.969  -2.401  -5.045  1.00  0.00     0.167 HD
ATOM     66  C   UNL     1      -7.814  -1.655  -7.637  1.00  0.00     0.074 A 
ATOM     67  C   UNL     1      -7.770  -1.256  -9.028  1.00  0.00     0.031 C 
ATOM     68  C   UNL     1      -8.957  -1.896  -6.948  1.00  0.00     0.031 A 
BRANCH  55  69
ATOM     69  C   UNL     1      -8.010  -3.655  -1.100  1.00  0.00    -0.014 A 
ATOM     70  C   UNL     1      -7.913  -2.872   0.062  1.00  0.00     0.009 A 
ATOM     71  C   UNL     1      -8.675  -4.889  -1.034  1.00  0.00     0.009 A 
ATOM     72  C   UNL     1      -8.433  -3.337   1.272  1.00  0.00     0.001 A 
ATOM     73  C   UNL     1      -9.221  -5.337   0.169  1.00  0.00     0.001 A 
ATOM     74  C   UNL     1      -9.089  -4.567   1.323  1.00  0.00     0.000 A 
ENDBRANCH  55  69
BRANCH  56  75
ATOM     75  C   UNL     1      -3.611  -0.906  -9.612  1.00  0.00    -0.014 A 
ATOM     76  C   UNL     1      -3.750   0.392 -10.126  1.00  0.00     0.009 A 
ATOM     77  C   UNL     1      -2.865  -1.846 -10.341  1.00  0.00     0.009 A 
ATOM     78  C   UNL     1      -3.172   0.734 -11.352  1.00  0.00     0.001 A 
ATOM     79  C   UNL     1      -2.264  -1.493 -11.551  1.00  0.00     0.001 A 
ATOM     80  C   UNL     1      -2.425  -0.206 -12.059  1.00  0.00     0.000 A 
ENDBRANCH  56  75
BRANCH  68  81
ATOM     81  C   UNL     1     -10.261  -1.699  -7.673  1.00  0.00    -0.014 A 
ATOM     82  C   UNL     1     -10.685  -2.587  -8.674  1.00  0.00     0.009 A 
ATOM     83  C   UNL     1     -11.102  -0.635  -7.310  1.00  0.00     0.009 A 
ATOM     84  C   UNL     1     -11.910  -2.392  -9.319  1.00  0.00     0.001 A 
ATOM     85  C   UNL     1     -12.339  -0.462  -7.933  1.00  0.00     0.001 A 
ATOM     86  C   UNL     1     -12.738  -1.334  -8.944  1.00  0.00     0.000 A 
ENDBRANCH  68  81
ENDBRANCH  42  43
ENDBRANCH  35  37
ENDBRANCH  34  35
ENDBRANCH  33  34
ENDBRANCH  32  33
ENDBRANCH  31  32
ENDBRANCH  30  31
ENDBRANCH   1  30
TORSDOF 21
