REMARK SMILES CC(C)(C)OC(=O)N1CCC[C@H]1C(=O)N[C@@H](Cc1ccccc1)C(=O)OCCOCCOCCOC(=O)c1ccc(-c2c3nc(c(-c4ccccc4)c4ccc([nH]4)c(-c4ccccc4)c4nc(c(-c5ccccc5)c5ccc2[nH]5)C=C4)C=C3)cc1
REMARK SMILES IDX 29 1 28 2 27 3 26 4 24 5 25 6 16 7 15 8 13 9 14 10 12 12
REMARK SMILES IDX 8 13 9 14 10 15 11 16 6 17 7 18 5 19 2 20 1 21 3 22 4 23
REMARK SMILES IDX 17 24 18 25 19 26 23 27 20 28 22 29 21 30 30 31 31 32 32 33
REMARK SMILES IDX 33 34 34 35 35 36 36 37 37 38 38 39 39 40 85 41 40 42 84 43
REMARK SMILES IDX 41 44 42 45 43 46 78 47 44 48 83 49 77 50 79 51 45 52 82 53
REMARK SMILES IDX 76 54 75 55 46 57 68 58 53 59 67 60 54 61 57 62 66 63 80 64
REMARK SMILES IDX 55 65 56 66 65 68 81 69 58 70 47 71 48 72 52 73 49 74 51 75
REMARK SMILES IDX 50 76 69 77 70 78 74 79 71 80 73 81 72 82 59 83 60 84 64 85
REMARK SMILES IDX 61 86 63 87 62 88
REMARK H PARENT 15 11 79 56 57 67
REMARK Flexibility Score: inf
ROOT
ATOM      1  O   UNL     1       1.263  -2.053   5.425  1.00  0.00    -0.376 OA
ENDROOT
BRANCH   1   2
ATOM      2  C   UNL     1       0.028  -1.420   5.680  1.00  0.00     0.202 C 
BRANCH   2   3
ATOM      3  C   UNL     1      -1.201  -2.320   5.795  1.00  0.00     0.261 C 
BRANCH   3   4
ATOM      4  O   UNL     1      -1.302  -3.367   4.808  1.00  0.00    -0.462 OA
BRANCH   4   5
ATOM      5  C   UNL     1      -2.186  -3.198   3.786  1.00  0.00     0.329 C 
ATOM      6  O   UNL     1      -2.772  -2.144   3.568  1.00  0.00    -0.250 OA
BRANCH   5   7
ATOM      7  C   UNL     1      -2.529  -4.540   3.096  1.00  0.00     0.196 C 
BRANCH   7   8
ATOM      8  N   UNL     1      -1.552  -5.616   3.321  1.00  0.00    -0.341 N 
ATOM      9  C   UNL     1      -0.660  -6.216   2.482  1.00  0.00     0.243 C 
ATOM     10  O   UNL     1       0.171  -6.966   3.005  1.00  0.00    -0.273 OA
ATOM     11  H   UNL     1      -1.540  -5.965   4.241  1.00  0.00     0.164 HD
BRANCH   9  12
ATOM     12  C   UNL     1      -0.624  -5.916   0.962  1.00  0.00     0.178 C 
ATOM     13  N   UNL     1       0.262  -4.771   0.662  1.00  0.00    -0.296 N 
ATOM     14  C   UNL     1       1.540  -5.277   0.202  1.00  0.00     0.124 C 
ATOM     15  C   UNL     1       1.231  -6.593  -0.488  1.00  0.00     0.024 C 
ATOM     16  C   UNL     1       0.001  -7.125   0.225  1.00  0.00     0.037 C 
BRANCH  13  17
ATOM     17  C   UNL     1      -0.270  -3.481   0.558  1.00  0.00     0.410 C 
ATOM     18  O   UNL     1      -1.484  -3.354   0.471  1.00  0.00    -0.224 OA
BRANCH  17  19
ATOM     19  O   UNL     1       0.587  -2.397   0.626  1.00  0.00    -0.444 OA
BRANCH  19  20
ATOM     20  C   UNL     1       0.090  -0.989   0.837  1.00  0.00     0.106 C 
ATOM     21  C   UNL     1       0.759   0.025  -0.099  1.00  0.00     0.056 C 
ATOM     22  C   UNL     1       0.514  -0.516   2.226  1.00  0.00     0.056 C 
ATOM     23  C   UNL     1      -1.417  -0.770   0.659  1.00  0.00     0.056 C 
ENDBRANCH  19  20
ENDBRANCH  17  19
ENDBRANCH  13  17
ENDBRANCH   9  12
ENDBRANCH   7   8
BRANCH   7  24
ATOM     24  C   UNL     1      -3.951  -4.958   3.526  1.00  0.00     0.072 C 
BRANCH  24  25
ATOM     25  C   UNL     1      -4.080  -5.348   4.983  1.00  0.00    -0.045 A 
ATOM     26  C   UNL     1      -3.980  -4.388   6.002  1.00  0.00     0.004 A 
ATOM     27  C   UNL     1      -4.268  -6.686   5.342  1.00  0.00     0.004 A 
ATOM     28  C   UNL     1      -3.951  -4.767   7.342  1.00  0.00     0.000 A 
ATOM     29  C   UNL     1      -4.295  -7.060   6.687  1.00  0.00     0.000 A 
ATOM     30  C   UNL     1      -4.107  -6.105   7.684  1.00  0.00     0.000 A 
ENDBRANCH  24  25
ENDBRANCH   7  24
ENDBRANCH   5   7
ENDBRANCH   4   5
ENDBRANCH   3   4
ENDBRANCH   2   3
ENDBRANCH   1   2
BRANCH   1  31
ATOM     31  C   UNL     1       1.365  -2.874   4.278  1.00  0.00     0.188 C 
BRANCH  31  32
ATOM     32  C   UNL     1       1.608  -4.357   4.592  1.00  0.00     0.188 C 
BRANCH  32  33
ATOM     33  O   UNL     1       1.817  -4.729   5.944  1.00  0.00    -0.376 OA
BRANCH  33  34
ATOM     34  C   UNL     1       2.806  -4.004   6.663  1.00  0.00     0.202 C 
BRANCH  34  35
ATOM     35  C   UNL     1       4.195  -3.870   6.012  1.00  0.00     0.261 C 
BRANCH  35  36
ATOM     36  O   UNL     1       4.199  -3.258   4.698  1.00  0.00    -0.460 OA
BRANCH  36  37
ATOM     37  C   UNL     1       5.177  -3.683   3.853  1.00  0.00     0.338 C 
ATOM     38  O   UNL     1       6.070  -4.469   4.125  1.00  0.00    -0.246 OA
BRANCH  37  39
ATOM     39  C   UNL     1       5.041  -3.109   2.483  1.00  0.00     0.060 A 
ATOM     40  C   UNL     1       3.863  -3.252   1.772  1.00  0.00     0.016 A 
ATOM     41  C   UNL     1       6.147  -2.594   1.800  1.00  0.00     0.016 A 
ATOM     42  C   UNL     1       3.803  -2.929   0.412  1.00  0.00     0.010 A 
ATOM     43  C   UNL     1       6.070  -2.278   0.416  1.00  0.00     0.010 A 
ATOM     44  C   UNL     1       4.897  -2.501  -0.328  1.00  0.00    -0.014 A 
BRANCH  44  45
ATOM     45  C   UNL     1       4.849  -2.507  -1.846  1.00  0.00     0.031 A 
ATOM     46  C   UNL     1       5.843  -3.348  -2.598  1.00  0.00     0.074 A 
ATOM     47  C   UNL     1       3.863  -1.997  -2.625  1.00  0.00     0.049 A 
ATOM     48  N   UNL     1       6.144  -3.335  -3.871  1.00  0.00    -0.248 NA
ATOM     49  C   UNL     1       6.539  -4.384  -1.821  1.00  0.00     0.031 C 
ATOM     50  C   UNL     1       2.600  -1.490  -2.140  1.00  0.00     0.029 A 
ATOM     51  N   UNL     1       3.736  -1.844  -3.995  1.00  0.00    -0.354 N 
ATOM     52  C   UNL     1       7.108  -4.316  -4.037  1.00  0.00     0.074 A 
ATOM     53  C   UNL     1       7.335  -4.912  -2.737  1.00  0.00     0.031 C 
ATOM     54  C   UNL     1       1.846  -1.040  -3.149  1.00  0.00     0.029 A 
ATOM     55  C   UNL     1       2.608  -1.139  -4.369  1.00  0.00     0.049 A 
ATOM     56  H   UNL     1       4.386  -2.203  -4.641  1.00  0.00     0.167 HD
ATOM     57  C   UNL     1       7.751  -4.678  -5.171  1.00  0.00     0.031 A 
ATOM     58  C   UNL     1       2.216  -0.567  -5.524  1.00  0.00     0.031 A 
ATOM     59  C   UNL     1       7.487  -4.126  -6.475  1.00  0.00     0.049 A 
ATOM     60  C   UNL     1       3.075  -0.763  -6.725  1.00  0.00     0.074 A 
ATOM     61  C   UNL     1       8.154  -4.371  -7.663  1.00  0.00     0.029 A 
ATOM     62  N   UNL     1       6.463  -3.240  -6.770  1.00  0.00    -0.354 N 
ATOM     63  N   UNL     1       4.135  -1.520  -6.840  1.00  0.00    -0.248 NA
ATOM     64  C   UNL     1       2.696  -0.048  -7.950  1.00  0.00     0.031 C 
ATOM     65  C   UNL     1       7.574  -3.583  -8.663  1.00  0.00     0.029 A 
ATOM     66  C   UNL     1       6.503  -2.900  -8.114  1.00  0.00     0.049 A 
ATOM     67  H   UNL     1       5.804  -2.901  -6.122  1.00  0.00     0.167 HD
ATOM     68  C   UNL     1       4.534  -1.403  -8.158  1.00  0.00     0.074 A 
ATOM     69  C   UNL     1       3.595  -0.510  -8.807  1.00  0.00     0.031 C 
ATOM     70  C   UNL     1       5.585  -2.001  -8.765  1.00  0.00     0.031 A 
BRANCH  57  71
ATOM     71  C   UNL     1       8.896  -5.634  -5.013  1.00  0.00    -0.014 A 
ATOM     72  C   UNL     1       8.711  -6.998  -4.750  1.00  0.00     0.009 A 
ATOM     73  C   UNL     1      10.202  -5.128  -5.116  1.00  0.00     0.009 A 
ATOM     74  C   UNL     1       9.817  -7.830  -4.556  1.00  0.00     0.001 A 
ATOM     75  C   UNL     1      11.303  -5.966  -4.955  1.00  0.00     0.001 A 
ATOM     76  C   UNL     1      11.110  -7.315  -4.663  1.00  0.00     0.000 A 
ENDBRANCH  57  71
BRANCH  58  77
ATOM     77  C   UNL     1       1.021   0.333  -5.573  1.00  0.00    -0.014 A 
ATOM     78  C   UNL     1      -0.108   0.022  -6.345  1.00  0.00     0.009 A 
ATOM     79  C   UNL     1       1.031   1.548  -4.864  1.00  0.00     0.009 A 
ATOM     80  C   UNL     1      -1.184   0.916  -6.424  1.00  0.00     0.001 A 
ATOM     81  C   UNL     1      -0.056   2.425  -4.920  1.00  0.00     0.001 A 
ATOM     82  C   UNL     1      -1.159   2.113  -5.709  1.00  0.00     0.000 A 
ENDBRANCH  58  77
BRANCH  70  83
ATOM     83  C   UNL     1       5.751  -1.734 -10.230  1.00  0.00    -0.014 A 
ATOM     84  C   UNL     1       6.166  -0.480 -10.702  1.00  0.00     0.009 A 
ATOM     85  C   UNL     1       5.488  -2.760 -11.151  1.00  0.00     0.009 A 
ATOM     86  C   UNL     1       6.278  -0.247 -12.073  1.00  0.00     0.001 A 
ATOM     87  C   UNL     1       5.633  -2.533 -12.519  1.00  0.00     0.001 A 
ATOM     88  C   UNL     1       6.017  -1.274 -12.979  1.00  0.00     0.000 A 
ENDBRANCH  70  83
ENDBRANCH  44  45
ENDBRANCH  37  39
ENDBRANCH  36  37
ENDBRANCH  35  36
ENDBRANCH  34  35
ENDBRANCH  33  34
ENDBRANCH  32  33
ENDBRANCH  31  32
ENDBRANCH   1  31
TORSDOF 24
