REMARK SMILES CCN(CC(C)(C)O)C(=O)[C@H]1CC=CC[C@H]1C(=O)OCCOCCOCCOC(=O)c1ccc(-c2c3nc(c(-c4ccccc4)c4ccc([nH]4)c(-c4ccccc4)c4nc(c(-c5ccccc5)c5ccc2[nH]5)C=C4)C=C3)cc1
REMARK SMILES IDX 22 1 21 2 20 3 19 4 17 5 18 6 16 7 11 8 12 9 13 10 15 11
REMARK SMILES IDX 14 12 9 13 10 14 3 15 2 16 1 17 4 18 5 19 6 20 7 21 8 22
REMARK SMILES IDX 23 24 24 25 25 26 26 27 27 28 28 29 29 30 30 31 31 32 32 33
REMARK SMILES IDX 78 34 33 35 77 36 34 37 35 38 36 39 71 40 37 41 76 42 70 43
REMARK SMILES IDX 72 44 38 45 75 46 69 47 68 48 39 50 61 51 46 52 60 53 47 54
REMARK SMILES IDX 50 55 59 56 73 57 48 58 49 59 58 61 74 62 51 63 40 64 41 65
REMARK SMILES IDX 45 66 42 67 44 68 43 69 62 70 63 71 67 72 64 73 66 74 65 75
REMARK SMILES IDX 52 76 53 77 57 78 54 79 56 80 55 81
REMARK H PARENT 8 23 72 49 50 60
REMARK Flexibility Score: inf
ROOT
ATOM      1  O   UNL     1      -0.623   6.154  -3.205  1.00  0.00    -0.376 OA
ENDROOT
BRANCH   1   2
ATOM      2  C   UNL     1      -1.241   4.909  -3.567  1.00  0.00     0.202 C 
BRANCH   2   3
ATOM      3  C   UNL     1      -0.529   3.806  -4.383  1.00  0.00     0.261 C 
BRANCH   3   4
ATOM      4  O   UNL     1       0.546   3.137  -3.708  1.00  0.00    -0.463 OA
BRANCH   4   5
ATOM      5  C   UNL     1       1.771   3.622  -3.976  1.00  0.00     0.310 C 
ATOM      6  O   UNL     1       1.988   4.566  -4.727  1.00  0.00    -0.252 OA
BRANCH   5   7
ATOM      7  C   UNL     1       2.868   2.905  -3.240  1.00  0.00     0.115 C 
ATOM      8  C   UNL     1       2.873   2.928  -1.698  1.00  0.00     0.097 C 
ATOM      9  C   UNL     1       4.420   2.882  -1.366  1.00  0.00     0.041 C 
ATOM     10  C   UNL     1       5.163   1.810  -2.153  1.00  0.00    -0.030 C 
ATOM     11  C   UNL     1       3.291   1.554  -3.801  1.00  0.00     0.043 C 
ATOM     12  C   UNL     1       4.634   1.180  -3.219  1.00  0.00    -0.030 C 
BRANCH   8  13
ATOM     13  C   UNL     1       2.220   1.764  -0.858  1.00  0.00     0.226 C 
ATOM     14  O   UNL     1       2.994   0.918  -0.380  1.00  0.00    -0.275 OA
BRANCH  13  15
ATOM     15  N   UNL     1       0.874   1.644  -0.501  1.00  0.00    -0.340 N 
BRANCH  15  16
ATOM     16  C   UNL     1       0.574   0.632   0.524  1.00  0.00     0.116 C 
ATOM     17  C   UNL     1       0.673  -0.791   0.015  1.00  0.00     0.027 C 
ENDBRANCH  15  16
BRANCH  15  18
ATOM     18  C   UNL     1      -0.288   2.497  -0.800  1.00  0.00     0.154 C 
BRANCH  18  19
ATOM     19  C   UNL     1      -0.682   3.483   0.339  1.00  0.00     0.077 C 
ATOM     20  C   UNL     1       0.621   4.149   0.784  1.00  0.00     0.043 C 
ATOM     21  C   UNL     1      -1.869   4.337  -0.136  1.00  0.00     0.043 C 
BRANCH  19  22
ATOM     22  O   UNL     1      -1.207   2.836   1.505  1.00  0.00    -0.389 OA
ATOM     23  H   UNL     1      -0.527   2.263   1.891  1.00  0.00     0.211 HD
ENDBRANCH  19  22
ENDBRANCH  18  19
ENDBRANCH  15  18
ENDBRANCH  13  15
ENDBRANCH   8  13
ENDBRANCH   5   7
ENDBRANCH   4   5
ENDBRANCH   3   4
ENDBRANCH   2   3
ENDBRANCH   1   2
BRANCH   1  24
ATOM     24  C   UNL     1       0.418   6.176  -2.226  1.00  0.00     0.188 C 
BRANCH  24  25
ATOM     25  C   UNL     1       0.229   7.116  -0.967  1.00  0.00     0.188 C 
BRANCH  25  26
ATOM     26  O   UNL     1      -0.735   6.716   0.017  1.00  0.00    -0.376 OA
BRANCH  26  27
ATOM     27  C   UNL     1      -0.463   6.974   1.411  1.00  0.00     0.202 C 
BRANCH  27  28
ATOM     28  C   UNL     1      -1.114   8.236   1.964  1.00  0.00     0.261 C 
BRANCH  28  29
ATOM     29  O   UNL     1      -0.509   9.391   1.401  1.00  0.00    -0.460 OA
BRANCH  29  30
ATOM     30  C   UNL     1       0.827   9.462   1.596  1.00  0.00     0.338 C 
ATOM     31  O   UNL     1       1.484   8.951   2.493  1.00  0.00    -0.246 OA
BRANCH  30  32
ATOM     32  C   UNL     1       1.379   9.968   0.337  1.00  0.00     0.060 A 
ATOM     33  C   UNL     1       2.525   9.355  -0.194  1.00  0.00     0.016 A 
ATOM     34  C   UNL     1       0.706  10.980  -0.351  1.00  0.00     0.016 A 
ATOM     35  C   UNL     1       3.050   9.813  -1.395  1.00  0.00     0.010 A 
ATOM     36  C   UNL     1       1.250  11.467  -1.524  1.00  0.00     0.010 A 
ATOM     37  C   UNL     1       2.465  10.936  -1.990  1.00  0.00    -0.014 A 
BRANCH  37  38
ATOM     38  C   UNL     1       3.317  11.859  -2.754  1.00  0.00     0.031 A 
ATOM     39  C   UNL     1       4.044  12.898  -1.946  1.00  0.00     0.074 A 
ATOM     40  C   UNL     1       3.364  11.837  -4.090  1.00  0.00     0.049 A 
ATOM     41  N   UNL     1       4.641  13.989  -2.336  1.00  0.00    -0.248 NA
ATOM     42  C   UNL     1       4.072  12.686  -0.485  1.00  0.00     0.031 C 
ATOM     43  C   UNL     1       2.756  10.827  -4.950  1.00  0.00     0.029 A 
ATOM     44  N   UNL     1       3.935  12.732  -4.951  1.00  0.00    -0.354 N 
ATOM     45  C   UNL     1       5.080  14.603  -1.169  1.00  0.00     0.074 A 
ATOM     46  C   UNL     1       4.672  13.780  -0.059  1.00  0.00     0.031 C 
ATOM     47  C   UNL     1       2.964  11.178  -6.232  1.00  0.00     0.029 A 
ATOM     48  C   UNL     1       3.657  12.465  -6.266  1.00  0.00     0.049 A 
ATOM     49  H   UNL     1       4.490  13.491  -4.657  1.00  0.00     0.167 HD
ATOM     50  C   UNL     1       5.752  15.766  -1.035  1.00  0.00     0.031 A 
ATOM     51  C   UNL     1       3.893  13.215  -7.357  1.00  0.00     0.031 A 
ATOM     52  C   UNL     1       6.109  16.591  -2.151  1.00  0.00     0.049 A 
ATOM     53  C   UNL     1       4.560  14.556  -7.187  1.00  0.00     0.074 A 
ATOM     54  C   UNL     1       6.781  17.796  -2.153  1.00  0.00     0.029 A 
ATOM     55  N   UNL     1       5.802  16.289  -3.470  1.00  0.00    -0.354 N 
ATOM     56  N   UNL     1       4.968  15.146  -6.087  1.00  0.00    -0.248 NA
ATOM     57  C   UNL     1       4.798  15.336  -8.409  1.00  0.00     0.031 C 
ATOM     58  C   UNL     1       6.822  18.258  -3.472  1.00  0.00     0.029 A 
ATOM     59  C   UNL     1       6.251  17.300  -4.297  1.00  0.00     0.049 A 
ATOM     60  H   UNL     1       5.335  15.477  -3.772  1.00  0.00     0.167 HD
ATOM     61  C   UNL     1       5.546  16.346  -6.486  1.00  0.00     0.074 A 
ATOM     62  C   UNL     1       5.431  16.399  -7.930  1.00  0.00     0.031 C 
ATOM     63  C   UNL     1       6.129  17.312  -5.733  1.00  0.00     0.031 A 
BRANCH  50  64
ATOM     64  C   UNL     1       6.048  16.226   0.364  1.00  0.00    -0.014 A 
ATOM     65  C   UNL     1       6.937  15.529   1.200  1.00  0.00     0.009 A 
ATOM     66  C   UNL     1       5.386  17.355   0.870  1.00  0.00     0.009 A 
ATOM     67  C   UNL     1       7.114  15.923   2.528  1.00  0.00     0.001 A 
ATOM     68  C   UNL     1       5.595  17.769   2.186  1.00  0.00     0.001 A 
ATOM     69  C   UNL     1       6.446  17.045   3.018  1.00  0.00     0.000 A 
ENDBRANCH  50  64
BRANCH  51  70
ATOM     70  C   UNL     1       3.460  12.728  -8.691  1.00  0.00    -0.014 A 
ATOM     71  C   UNL     1       4.406  12.337  -9.650  1.00  0.00     0.009 A 
ATOM     72  C   UNL     1       2.095  12.627  -9.006  1.00  0.00     0.009 A 
ATOM     73  C   UNL     1       3.994  11.870 -10.900  1.00  0.00     0.001 A 
ATOM     74  C   UNL     1       1.686  12.132 -10.245  1.00  0.00     0.001 A 
ATOM     75  C   UNL     1       2.636  11.761 -11.194  1.00  0.00     0.000 A 
ENDBRANCH  51  70
BRANCH  63  76
ATOM     76  C   UNL     1       6.754  18.475  -6.452  1.00  0.00    -0.014 A 
ATOM     77  C   UNL     1       5.978  19.478  -7.049  1.00  0.00     0.009 A 
ATOM     78  C   UNL     1       8.153  18.610  -6.438  1.00  0.00     0.009 A 
ATOM     79  C   UNL     1       6.594  20.584  -7.638  1.00  0.00     0.001 A 
ATOM     80  C   UNL     1       8.763  19.732  -6.996  1.00  0.00     0.001 A 
ATOM     81  C   UNL     1       7.983  20.714  -7.602  1.00  0.00     0.000 A 
ENDBRANCH  63  76
ENDBRANCH  37  38
ENDBRANCH  30  32
ENDBRANCH  29  30
ENDBRANCH  28  29
ENDBRANCH  27  28
ENDBRANCH  26  27
ENDBRANCH  25  26
ENDBRANCH  24  25
ENDBRANCH   1  24
TORSDOF 23
