REMARK SMILES CC(=O)Oc1ccc([C@H]2Nc3c(C(=O)OCCOCCOCCOC(=O)c4ccc(-c5c6nc(c(-c7ccccc7)c7ccc([nH]7)c(-c7ccccc7)c7nc(c(-c8ccccc8)c8ccc5[nH]8)C=C7)C=C6)cc4)ccc([N+](=O)[O-])c3[C@H]3C=CC[C@@H]32)cc1
REMARK SMILES IDX 19 1 18 2 17 3 16 4 15 5 13 6 14 7 12 8 9 9 10 10 86 11
REMARK SMILES IDX 11 12 82 14 85 15 81 16 83 17 84 18 75 19 77 20 76 21 8 22
REMARK SMILES IDX 5 23 6 24 88 25 7 26 87 27 4 28 2 29 1 30 3 31 78 32 79 33
REMARK SMILES IDX 80 34 20 35 21 36 22 37 23 38 24 39 25 40 26 41 27 42 28 43
REMARK SMILES IDX 74 44 29 45 73 46 30 47 31 48 32 49 67 50 33 51 72 52 66 53
REMARK SMILES IDX 68 54 34 55 71 56 65 57 64 58 35 60 57 61 42 62 56 63 43 64
REMARK SMILES IDX 46 65 55 66 69 67 44 68 45 69 54 71 70 72 47 73 36 74 37 75
REMARK SMILES IDX 41 76 38 77 40 78 39 79 58 80 59 81 63 82 60 83 62 84 61 85
REMARK SMILES IDX 48 86 49 87 53 88 50 89 52 90 51 91
REMARK H PARENT 10 13 68 59 46 70
REMARK Flexibility Score: inf
ROOT
ATOM      1  C   UNL     1       1.779 -11.892  -2.994  1.00  0.00     0.188 C 
ENDROOT
BRANCH   1   2
ATOM      2  O   UNL     1       2.188 -12.993  -2.207  1.00  0.00    -0.376 OA
BRANCH   2   3
ATOM      3  C   UNL     1       1.458 -14.203  -2.259  1.00  0.00     0.202 C 
BRANCH   3   4
ATOM      4  C   UNL     1      -0.058 -14.166  -2.070  1.00  0.00     0.261 C 
BRANCH   4   5
ATOM      5  O   UNL     1      -0.754 -13.317  -2.992  1.00  0.00    -0.460 OA
BRANCH   5   6
ATOM      6  C   UNL     1      -1.383 -12.203  -2.522  1.00  0.00     0.340 C 
ATOM      7  O   UNL     1      -1.292 -11.707  -1.412  1.00  0.00    -0.246 OA
BRANCH   6   8
ATOM      8  C   UNL     1      -2.249 -11.714  -3.620  1.00  0.00     0.084 A 
ATOM      9  C   UNL     1      -1.685  -7.961  -4.164  1.00  0.00     0.114 C 
ATOM     10  N   UNL     1      -1.563  -9.296  -3.540  1.00  0.00    -0.377 N 
ATOM     11  C   UNL     1      -3.127  -7.839  -4.657  1.00  0.00     0.031 C 
ATOM     12  C   UNL     1      -2.303 -10.380  -4.108  1.00  0.00     0.060 A 
ATOM     13  H   UNL     1      -0.987  -9.436  -2.754  1.00  0.00     0.161 HD
ATOM     14  C   UNL     1      -3.134  -8.756  -5.873  1.00  0.00     0.056 C 
ATOM     15  C   UNL     1      -3.772  -6.516  -5.065  1.00  0.00     0.034 C 
ATOM     16  C   UNL     1      -3.152 -10.143  -5.265  1.00  0.00     0.061 A 
ATOM     17  C   UNL     1      -4.213  -8.141  -6.697  1.00  0.00    -0.022 C 
ATOM     18  C   UNL     1      -4.544  -6.917  -6.272  1.00  0.00    -0.030 C 
ATOM     19  C   UNL     1      -3.063 -12.729  -4.174  1.00  0.00     0.025 A 
ATOM     20  C   UNL     1      -3.940 -11.193  -5.771  1.00  0.00     0.275 A 
ATOM     21  C   UNL     1      -3.914 -12.473  -5.234  1.00  0.00     0.087 A 
BRANCH   9  22
ATOM     22  C   UNL     1      -1.308  -6.684  -3.432  1.00  0.00    -0.025 A 
ATOM     23  C   UNL     1      -1.372  -3.937  -2.987  1.00  0.00     0.130 A 
ATOM     24  C   UNL     1      -0.450  -4.435  -3.895  1.00  0.00     0.047 A 
ATOM     25  C   UNL     1      -2.155  -4.787  -2.202  1.00  0.00     0.047 A 
ATOM     26  C   UNL     1      -0.429  -5.804  -4.122  1.00  0.00     0.010 A 
ATOM     27  C   UNL     1      -2.096  -6.169  -2.395  1.00  0.00     0.010 A 
BRANCH  23  28
ATOM     28  O   UNL     1      -1.659  -2.577  -3.040  1.00  0.00    -0.427 OA
BRANCH  28  29
ATOM     29  C   UNL     1      -1.274  -2.014  -1.851  1.00  0.00     0.308 C 
ATOM     30  C   UNL     1       0.129  -1.529  -1.947  1.00  0.00     0.139 C 
ATOM     31  O   UNL     1      -2.028  -1.839  -0.903  1.00  0.00    -0.252 OA
ENDBRANCH  28  29
ENDBRANCH  23  28
ENDBRANCH   9  22
BRANCH  20  32
ATOM     32  N   UNL     1      -4.882 -10.989  -6.845  1.00  0.00     0.063 N 
ATOM     33  O   UNL     1      -6.053 -10.752  -6.521  1.00  0.00    -0.258 OA
ATOM     34  O   UNL     1      -4.449 -11.102  -7.998  1.00  0.00    -0.258 OA
ENDBRANCH  20  32
ENDBRANCH   6   8
ENDBRANCH   5   6
ENDBRANCH   4   5
ENDBRANCH   3   4
ENDBRANCH   2   3
ENDBRANCH   1   2
BRANCH   1  35
ATOM     35  C   UNL     1       1.500 -12.041  -4.508  1.00  0.00     0.188 C 
BRANCH  35  36
ATOM     36  O   UNL     1       2.002 -13.150  -5.228  1.00  0.00    -0.376 OA
BRANCH  36  37
ATOM     37  C   UNL     1       3.379 -13.472  -5.110  1.00  0.00     0.202 C 
BRANCH  37  38
ATOM     38  C   UNL     1       4.436 -12.375  -5.310  1.00  0.00     0.261 C 
BRANCH  38  39
ATOM     39  O   UNL     1       4.312 -11.255  -4.411  1.00  0.00    -0.460 OA
BRANCH  39  40
ATOM     40  C   UNL     1       4.166 -10.035  -4.988  1.00  0.00     0.338 C 
ATOM     41  O   UNL     1       4.169  -9.777  -6.179  1.00  0.00    -0.246 OA
BRANCH  40  42
ATOM     42  C   UNL     1       3.815  -9.022  -3.966  1.00  0.00     0.060 A 
ATOM     43  C   UNL     1       2.487  -8.605  -3.875  1.00  0.00     0.016 A 
ATOM     44  C   UNL     1       4.780  -8.420  -3.157  1.00  0.00     0.016 A 
ATOM     45  C   UNL     1       2.135  -7.595  -2.981  1.00  0.00     0.010 A 
ATOM     46  C   UNL     1       4.418  -7.356  -2.304  1.00  0.00     0.010 A 
ATOM     47  C   UNL     1       3.090  -6.899  -2.236  1.00  0.00    -0.014 A 
BRANCH  47  48
ATOM     48  C   UNL     1       2.709  -5.603  -1.579  1.00  0.00     0.031 A 
ATOM     49  C   UNL     1       3.222  -4.302  -2.164  1.00  0.00     0.074 A 
ATOM     50  C   UNL     1       1.776  -5.516  -0.607  1.00  0.00     0.049 A 
ATOM     51  N   UNL     1       3.107  -3.071  -1.721  1.00  0.00    -0.248 NA
ATOM     52  C   UNL     1       3.932  -4.409  -3.448  1.00  0.00     0.031 C 
ATOM     53  C   UNL     1       1.004  -6.632  -0.064  1.00  0.00     0.029 A 
ATOM     54  N   UNL     1       1.291  -4.417   0.071  1.00  0.00    -0.354 N 
ATOM     55  C   UNL     1       3.712  -2.260  -2.677  1.00  0.00     0.074 A 
ATOM     56  C   UNL     1       4.263  -3.148  -3.682  1.00  0.00     0.031 C 
ATOM     57  C   UNL     1       0.128  -6.159   0.839  1.00  0.00     0.029 A 
ATOM     58  C   UNL     1       0.312  -4.715   0.990  1.00  0.00     0.049 A 
ATOM     59  H   UNL     1       1.617  -3.501  -0.088  1.00  0.00     0.167 HD
ATOM     60  C   UNL     1       3.744  -0.906  -2.773  1.00  0.00     0.031 A 
ATOM     61  C   UNL     1      -0.359  -3.936   1.865  1.00  0.00     0.031 A 
ATOM     62  C   UNL     1       3.118   0.019  -1.858  1.00  0.00     0.049 A 
ATOM     63  C   UNL     1      -0.146  -2.438   1.885  1.00  0.00     0.074 A 
ATOM     64  C   UNL     1       2.892   1.373  -2.048  1.00  0.00     0.029 A 
ATOM     65  N   UNL     1       2.588  -0.295  -0.611  1.00  0.00    -0.354 N 
ATOM     66  N   UNL     1       0.740  -1.714   1.242  1.00  0.00    -0.248 NA
ATOM     67  C   UNL     1      -1.057  -1.649   2.728  1.00  0.00     0.031 C 
ATOM     68  C   UNL     1       2.168   1.861  -0.954  1.00  0.00     0.029 A 
ATOM     69  C   UNL     1       1.868   0.792  -0.123  1.00  0.00     0.049 A 
ATOM     70  H   UNL     1       2.704  -1.154  -0.145  1.00  0.00     0.167 HD
ATOM     71  C   UNL     1       0.433  -0.386   1.527  1.00  0.00     0.074 A 
ATOM     72  C   UNL     1      -0.668  -0.409   2.468  1.00  0.00     0.031 C 
ATOM     73  C   UNL     1       0.937   0.754   0.984  1.00  0.00     0.031 A 
BRANCH  60  74
ATOM     74  C   UNL     1       4.414  -0.325  -3.995  1.00  0.00    -0.014 A 
ATOM     75  C   UNL     1       3.851  -0.461  -5.277  1.00  0.00     0.009 A 
ATOM     76  C   UNL     1       5.604   0.403  -3.855  1.00  0.00     0.009 A 
ATOM     77  C   UNL     1       4.500   0.065  -6.398  1.00  0.00     0.001 A 
ATOM     78  C   UNL     1       6.234   0.954  -4.973  1.00  0.00     0.001 A 
ATOM     79  C   UNL     1       5.691   0.771  -6.244  1.00  0.00     0.000 A 
ENDBRANCH  60  74
BRANCH  61  80
ATOM     80  C   UNL     1      -1.320  -4.575   2.813  1.00  0.00    -0.014 A 
ATOM     81  C   UNL     1      -2.706  -4.383   2.701  1.00  0.00     0.009 A 
ATOM     82  C   UNL     1      -0.838  -5.404   3.841  1.00  0.00     0.009 A 
ATOM     83  C   UNL     1      -3.582  -4.974   3.619  1.00  0.00     0.001 A 
ATOM     84  C   UNL     1      -1.718  -6.027   4.730  1.00  0.00     0.001 A 
ATOM     85  C   UNL     1      -3.088  -5.800   4.627  1.00  0.00     0.000 A 
ENDBRANCH  61  80
BRANCH  73  86
ATOM     86  C   UNL     1       0.309   2.048   1.445  1.00  0.00    -0.014 A 
ATOM     87  C   UNL     1       0.574   2.573   2.719  1.00  0.00     0.009 A 
ATOM     88  C   UNL     1      -0.585   2.737   0.606  1.00  0.00     0.009 A 
ATOM     89  C   UNL     1      -0.055   3.748   3.147  1.00  0.00     0.001 A 
ATOM     90  C   UNL     1      -1.185   3.928   1.022  1.00  0.00     0.001 A 
ATOM     91  C   UNL     1      -0.926   4.428   2.296  1.00  0.00     0.000 A 
ENDBRANCH  73  86
ENDBRANCH  47  48
ENDBRANCH  40  42
ENDBRANCH  39  40
ENDBRANCH  38  39
ENDBRANCH  37  38
ENDBRANCH  36  37
ENDBRANCH  35  36
ENDBRANCH   1  35
TORSDOF 21
