REMARK SMILES CC[N@@H+](C)CCn1c(SCC(=O)OCCOCCOCCOC(=O)c2ccc(-c3c4nc(c(-c5ccccc5)c5ccc([nH]5)c(-c5ccccc5)c5nc(c(-c6ccccc6)c6ccc3[nH]6)C=C5)C=C4)cc2)nc2cnccc21
REMARK SMILES IDX 15 1 14 2 13 3 11 4 12 5 10 6 9 7 8 8 7 9 79 10 73 11 74 12
REMARK SMILES IDX 78 13 75 14 77 15 76 16 6 17 5 18 3 19 4 20 2 22 1 23 16 24
REMARK SMILES IDX 17 25 18 26 19 27 20 28 21 29 22 30 23 31 24 32 25 33 26 34
REMARK SMILES IDX 72 35 27 36 71 37 28 38 29 39 30 40 65 41 31 42 70 43 64 44
REMARK SMILES IDX 66 45 32 46 69 47 63 48 62 49 33 51 55 52 40 53 54 54 41 55
REMARK SMILES IDX 44 56 53 57 67 58 42 59 43 60 52 62 68 63 45 64 34 65 35 66
REMARK SMILES IDX 39 67 36 68 38 69 37 70 56 71 57 72 61 73 58 74 60 75 59 76
REMARK SMILES IDX 46 77 47 78 51 79 48 80 50 81 49 82
REMARK H PARENT 3 21 66 50 44 61
REMARK Flexibility Score: inf
ROOT
ATOM      1  C   UNL     1       7.089  -5.581  -0.343  1.00  0.00     0.202 C 
ENDROOT
BRANCH   1   2
ATOM      2  C   UNL     1       6.084  -6.704  -0.631  1.00  0.00     0.261 C 
BRANCH   2   3
ATOM      3  O   UNL     1       5.011  -6.252  -1.500  1.00  0.00    -0.463 OA
BRANCH   3   4
ATOM      4  C   UNL     1       3.780  -6.767  -1.251  1.00  0.00     0.316 C 
ATOM      5  O   UNL     1       3.584  -7.659  -0.428  1.00  0.00    -0.251 OA
BRANCH   4   6
ATOM      6  C   UNL     1       2.604  -6.047  -1.904  1.00  0.00     0.200 C 
BRANCH   6   7
ATOM      7  S   UNL     1       2.920  -5.063  -3.368  1.00  0.00    -0.076 SA
BRANCH   7   8
ATOM      8  C   UNL     1       2.098  -3.513  -3.307  1.00  0.00     0.169 A 
ATOM      9  N   UNL     1       2.081  -2.595  -2.280  1.00  0.00    -0.313 N 
ATOM     10  C   UNL     1       2.090  -1.331  -2.841  1.00  0.00     0.072 A 
ATOM     11  N   UNL     1       1.732  -2.915  -4.427  1.00  0.00    -0.221 NA
ATOM     12  C   UNL     1       1.744  -1.559  -4.164  1.00  0.00     0.108 A 
ATOM     13  C   UNL     1       2.304  -0.048  -2.327  1.00  0.00     0.049 A 
ATOM     14  C   UNL     1       1.516  -0.451  -4.985  1.00  0.00     0.141 A 
ATOM     15  C   UNL     1       2.077   0.984  -3.221  1.00  0.00     0.113 A 
ATOM     16  N   UNL     1       1.674   0.815  -4.500  1.00  0.00    -0.262 NA
BRANCH   9  17
ATOM     17  C   UNL     1       1.996  -2.784  -0.861  1.00  0.00     0.186 C 
BRANCH  17  18
ATOM     18  C   UNL     1       0.685  -3.361  -0.331  1.00  0.00     0.284 C 
BRANCH  18  19
ATOM     19  N   UNL     1      -0.643  -2.759  -0.274  1.00  0.00    -0.336 N 
ATOM     20  C   UNL     1      -1.656  -3.808  -0.425  1.00  0.00     0.332 C 
ATOM     21  H   UNL     1      -0.657  -2.337   0.654  1.00  0.00     0.347 HD
BRANCH  19  22
ATOM     22  C   UNL     1      -0.947  -1.562  -1.037  1.00  0.00     0.258 C 
ATOM     23  C   UNL     1      -0.505  -0.306  -0.295  1.00  0.00     0.071 C 
ENDBRANCH  19  22
ENDBRANCH  18  19
ENDBRANCH  17  18
ENDBRANCH   9  17
ENDBRANCH   7   8
ENDBRANCH   6   7
ENDBRANCH   4   6
ENDBRANCH   3   4
ENDBRANCH   2   3
ENDBRANCH   1   2
BRANCH   1  24
ATOM     24  O   UNL     1       6.591  -4.540   0.491  1.00  0.00    -0.376 OA
BRANCH  24  25
ATOM     25  C   UNL     1       5.407  -3.913   0.043  1.00  0.00     0.188 C 
BRANCH  25  26
ATOM     26  C   UNL     1       5.384  -3.265  -1.343  1.00  0.00     0.188 C 
BRANCH  26  27
ATOM     27  O   UNL     1       6.626  -2.994  -1.939  1.00  0.00    -0.376 OA
BRANCH  27  28
ATOM     28  C   UNL     1       7.276  -1.765  -1.658  1.00  0.00     0.202 C 
BRANCH  28  29
ATOM     29  C   UNL     1       6.546  -0.644  -0.899  1.00  0.00     0.261 C 
BRANCH  29  30
ATOM     30  O   UNL     1       6.111  -1.043   0.420  1.00  0.00    -0.460 OA
BRANCH  30  31
ATOM     31  C   UNL     1       5.202  -0.179   0.979  1.00  0.00     0.338 C 
ATOM     32  O   UNL     1       4.952   0.918   0.569  1.00  0.00    -0.246 OA
BRANCH  31  33
ATOM     33  C   UNL     1       4.297  -0.917   1.932  1.00  0.00     0.060 A 
ATOM     34  C   UNL     1       4.640  -2.046   2.687  1.00  0.00     0.016 A 
ATOM     35  C   UNL     1       2.959  -0.551   1.871  1.00  0.00     0.016 A 
ATOM     36  C   UNL     1       3.639  -2.941   3.145  1.00  0.00     0.010 A 
ATOM     37  C   UNL     1       1.979  -1.418   2.358  1.00  0.00     0.010 A 
ATOM     38  C   UNL     1       2.288  -2.683   2.898  1.00  0.00    -0.014 A 
BRANCH  38  39
ATOM     39  C   UNL     1       1.162  -3.625   3.197  1.00  0.00     0.031 A 
ATOM     40  C   UNL     1      -0.012  -3.000   3.860  1.00  0.00     0.074 A 
ATOM     41  C   UNL     1       0.928  -4.899   2.767  1.00  0.00     0.049 A 
ATOM     42  N   UNL     1      -0.163  -2.874   5.134  1.00  0.00    -0.248 NA
ATOM     43  C   UNL     1      -1.074  -2.352   3.075  1.00  0.00     0.031 C 
ATOM     44  C   UNL     1       1.703  -5.719   1.830  1.00  0.00     0.029 A 
ATOM     45  N   UNL     1      -0.181  -5.695   2.989  1.00  0.00    -0.354 N 
ATOM     46  C   UNL     1      -1.441  -2.369   5.301  1.00  0.00     0.074 A 
ATOM     47  C   UNL     1      -1.819  -1.802   4.035  1.00  0.00     0.031 C 
ATOM     48  C   UNL     1       0.960  -6.781   1.415  1.00  0.00     0.029 A 
ATOM     49  C   UNL     1      -0.273  -6.833   2.182  1.00  0.00     0.049 A 
ATOM     50  H   UNL     1      -0.859  -5.475   3.669  1.00  0.00     0.167 HD
ATOM     51  C   UNL     1      -2.224  -2.747   6.346  1.00  0.00     0.031 A 
ATOM     52  C   UNL     1      -1.236  -7.796   2.205  1.00  0.00     0.031 A 
ATOM     53  C   UNL     1      -1.516  -3.640   7.236  1.00  0.00     0.049 A 
ATOM     54  C   UNL     1      -1.735  -7.837   3.594  1.00  0.00     0.074 A 
ATOM     55  C   UNL     1      -0.318  -3.585   7.919  1.00  0.00     0.029 A 
ATOM     56  N   UNL     1      -1.850  -4.971   7.138  1.00  0.00    -0.354 N 
ATOM     57  N   UNL     1      -1.012  -8.268   4.586  1.00  0.00    -0.248 NA
ATOM     58  C   UNL     1      -2.995  -7.215   3.966  1.00  0.00     0.031 C 
ATOM     59  C   UNL     1       0.221  -4.902   7.846  1.00  0.00     0.029 A 
ATOM     60  C   UNL     1      -0.705  -5.730   7.210  1.00  0.00     0.049 A 
ATOM     61  H   UNL     1      -2.763  -5.325   7.033  1.00  0.00     0.167 HD
ATOM     62  C   UNL     1      -1.442  -7.510   5.650  1.00  0.00     0.074 A 
ATOM     63  C   UNL     1      -2.786  -7.088   5.280  1.00  0.00     0.031 C 
ATOM     64  C   UNL     1      -0.535  -7.006   6.537  1.00  0.00     0.031 A 
BRANCH  51  65
ATOM     65  C   UNL     1      -3.723  -2.633   6.373  1.00  0.00    -0.014 A 
ATOM     66  C   UNL     1      -4.538  -2.608   5.226  1.00  0.00     0.009 A 
ATOM     67  C   UNL     1      -4.375  -2.732   7.613  1.00  0.00     0.009 A 
ATOM     68  C   UNL     1      -5.933  -2.615   5.310  1.00  0.00     0.001 A 
ATOM     69  C   UNL     1      -5.770  -2.788   7.699  1.00  0.00     0.001 A 
ATOM     70  C   UNL     1      -6.549  -2.716   6.549  1.00  0.00     0.000 A 
ENDBRANCH  51  65
BRANCH  52  71
ATOM     71  C   UNL     1      -1.750  -8.825   1.264  1.00  0.00    -0.014 A 
ATOM     72  C   UNL     1      -2.031  -8.491  -0.069  1.00  0.00     0.009 A 
ATOM     73  C   UNL     1      -2.302 -10.027   1.760  1.00  0.00     0.009 A 
ATOM     74  C   UNL     1      -2.894  -9.284  -0.845  1.00  0.00     0.001 A 
ATOM     75  C   UNL     1      -3.167 -10.815   0.988  1.00  0.00     0.001 A 
ATOM     76  C   UNL     1      -3.481 -10.430  -0.309  1.00  0.00     0.000 A 
ENDBRANCH  52  71
BRANCH  64  77
ATOM     77  C   UNL     1       0.839  -7.657   6.607  1.00  0.00    -0.014 A 
ATOM     78  C   UNL     1       1.365  -7.961   7.873  1.00  0.00     0.009 A 
ATOM     79  C   UNL     1       1.673  -7.873   5.494  1.00  0.00     0.009 A 
ATOM     80  C   UNL     1       2.671  -8.440   8.022  1.00  0.00     0.001 A 
ATOM     81  C   UNL     1       2.966  -8.390   5.635  1.00  0.00     0.001 A 
ATOM     82  C   UNL     1       3.470  -8.660   6.903  1.00  0.00     0.000 A 
ENDBRANCH  64  77
ENDBRANCH  38  39
ENDBRANCH  31  33
ENDBRANCH  30  31
ENDBRANCH  29  30
ENDBRANCH  28  29
ENDBRANCH  27  28
ENDBRANCH  26  27
ENDBRANCH  25  26
ENDBRANCH  24  25
ENDBRANCH   1  24
TORSDOF 23
