REMARK SMILES O=C(OCCOCCOCCOC(=O)[C@H]1O[C@@H](Oc2c(-c3cc(O)c(O)c(O)c3)oc3cc(O)cc(O)c3c2=O)[C@H](O)[C@@H](O)[C@@H]1O)c1ccc(-c2c3nc(c(-c4ccccc4)c4ccc([nH]4)c(-c4ccccc4)c4nc(c(-c5ccccc5)c5ccc2[nH]5)C=C4)C=C3)cc1
REMARK SMILES IDX 8 1 7 2 6 3 5 4 4 5 3 6 2 7 1 8 47 9 48 10 94 11 49 12 93 13
REMARK SMILES IDX 50 14 51 15 52 16 87 17 53 18 92 19 86 20 88 21 54 22 91 23
REMARK SMILES IDX 85 24 84 25 55 27 77 28 62 29 76 30 63 31 66 32 75 33 89 34
REMARK SMILES IDX 64 35 65 36 74 38 90 39 67 40 56 41 57 42 61 43 58 44 60 45
REMARK SMILES IDX 59 46 78 47 79 48 83 49 80 50 82 51 81 52 68 53 69 54 73 55
REMARK SMILES IDX 70 56 72 57 71 58 9 59 10 60 11 61 12 62 13 63 14 64 15 65
REMARK SMILES IDX 16 66 45 67 17 68 43 69 41 70 46 71 18 73 19 74 20 75 39 76
REMARK SMILES IDX 30 77 38 78 40 79 31 80 36 81 32 82 35 83 33 84 21 85 22 86
REMARK SMILES IDX 29 87 23 88 27 89 25 90 24 91 28 93 26 95 37 97 34 99 44 101
REMARK SMILES IDX 42 103
REMARK H PARENT 88 26 66 37 46 72 24 92 28 94 26 96 37 98 34 100 44 102 42 104
REMARK Flexibility Score: inf
ROOT
ATOM      1  C   UNL     1       2.128   5.612   5.830  1.00  0.00     0.188 C 
ENDROOT
BRANCH   1   2
ATOM      2  C   UNL     1       0.633   5.919   5.742  1.00  0.00     0.188 C 
BRANCH   2   3
ATOM      3  O   UNL     1       0.230   6.506   4.495  1.00  0.00    -0.376 OA
BRANCH   3   4
ATOM      4  C   UNL     1      -0.627   7.645   4.676  1.00  0.00     0.202 C 
BRANCH   4   5
ATOM      5  C   UNL     1      -2.061   7.365   5.165  1.00  0.00     0.261 C 
BRANCH   5   6
ATOM      6  O   UNL     1      -2.224   6.134   5.884  1.00  0.00    -0.460 OA
BRANCH   6   7
ATOM      7  C   UNL     1      -2.411   4.877   5.418  1.00  0.00     0.338 C 
ATOM      8  O   UNL     1      -2.584   3.982   6.246  1.00  0.00    -0.246 OA
BRANCH   7   9
ATOM      9  C   UNL     1      -2.355   4.481   3.971  1.00  0.00     0.060 A 
ATOM     10  C   UNL     1      -2.133   5.338   2.892  1.00  0.00     0.016 A 
ATOM     11  C   UNL     1      -2.529   3.113   3.685  1.00  0.00     0.016 A 
ATOM     12  C   UNL     1      -2.089   4.877   1.581  1.00  0.00     0.010 A 
ATOM     13  C   UNL     1      -2.500   2.641   2.368  1.00  0.00     0.010 A 
ATOM     14  C   UNL     1      -2.284   3.530   1.309  1.00  0.00    -0.014 A 
BRANCH  14  15
ATOM     15  C   UNL     1      -2.473   3.127  -0.098  1.00  0.00     0.031 A 
ATOM     16  C   UNL     1      -3.878   3.013  -0.581  1.00  0.00     0.074 A 
ATOM     17  C   UNL     1      -1.443   3.020  -0.955  1.00  0.00     0.049 A 
ATOM     18  N   UNL     1      -4.309   2.751  -1.782  1.00  0.00    -0.248 NA
ATOM     19  C   UNL     1      -4.939   3.299   0.402  1.00  0.00     0.031 C 
ATOM     20  C   UNL     1      -0.064   3.339  -0.631  1.00  0.00     0.029 A 
ATOM     21  N   UNL     1      -1.375   2.625  -2.264  1.00  0.00    -0.354 N 
ATOM     22  C   UNL     1      -5.683   2.894  -1.713  1.00  0.00     0.074 A 
ATOM     23  C   UNL     1      -6.026   3.198  -0.344  1.00  0.00     0.031 C 
ATOM     24  C   UNL     1       0.741   3.023  -1.653  1.00  0.00     0.029 A 
ATOM     25  C   UNL     1      -0.084   2.516  -2.733  1.00  0.00     0.049 A 
ATOM     26  H   UNL     1      -2.168   2.437  -2.815  1.00  0.00     0.167 HD
ATOM     27  C   UNL     1      -6.573   2.805  -2.724  1.00  0.00     0.031 A 
ATOM     28  C   UNL     1       0.378   2.056  -3.908  1.00  0.00     0.031 A 
ATOM     29  C   UNL     1      -6.203   2.441  -4.062  1.00  0.00     0.049 A 
ATOM     30  C   UNL     1      -0.643   1.734  -4.953  1.00  0.00     0.074 A 
ATOM     31  C   UNL     1      -7.019   2.229  -5.155  1.00  0.00     0.029 A 
ATOM     32  N   UNL     1      -4.896   2.212  -4.478  1.00  0.00    -0.354 N 
ATOM     33  N   UNL     1      -1.948   1.843  -4.877  1.00  0.00    -0.248 NA
ATOM     34  C   UNL     1      -0.143   1.280  -6.253  1.00  0.00     0.031 C 
ATOM     35  C   UNL     1      -6.211   1.803  -6.215  1.00  0.00     0.029 A 
ATOM     36  C   UNL     1      -4.885   1.819  -5.804  1.00  0.00     0.049 A 
ATOM     37  H   UNL     1      -4.097   2.314  -3.912  1.00  0.00     0.167 HD
ATOM     38  C   UNL     1      -2.428   1.522  -6.133  1.00  0.00     0.074 A 
ATOM     39  C   UNL     1      -1.268   1.214  -6.951  1.00  0.00     0.031 C 
ATOM     40  C   UNL     1      -3.709   1.501  -6.576  1.00  0.00     0.031 A 
BRANCH  27  41
ATOM     41  C   UNL     1      -8.009   3.032  -2.364  1.00  0.00    -0.014 A 
ATOM     42  C   UNL     1      -8.485   4.309  -2.019  1.00  0.00     0.009 A 
ATOM     43  C   UNL     1      -8.883   1.938  -2.296  1.00  0.00     0.009 A 
ATOM     44  C   UNL     1      -9.798   4.476  -1.575  1.00  0.00     0.001 A 
ATOM     45  C   UNL     1     -10.202   2.113  -1.878  1.00  0.00     0.001 A 
ATOM     46  C   UNL     1     -10.655   3.378  -1.506  1.00  0.00     0.000 A 
ENDBRANCH  27  41
BRANCH  28  47
ATOM     47  C   UNL     1       1.838   1.889  -4.143  1.00  0.00    -0.014 A 
ATOM     48  C   UNL     1       2.529   2.697  -5.058  1.00  0.00     0.009 A 
ATOM     49  C   UNL     1       2.552   0.895  -3.450  1.00  0.00     0.009 A 
ATOM     50  C   UNL     1       3.891   2.490  -5.301  1.00  0.00     0.001 A 
ATOM     51  C   UNL     1       3.919   0.707  -3.676  1.00  0.00     0.001 A 
ATOM     52  C   UNL     1       4.585   1.497  -4.610  1.00  0.00     0.000 A 
ENDBRANCH  28  47
BRANCH  40  53
ATOM     53  C   UNL     1      -3.904   1.155  -8.020  1.00  0.00    -0.014 A 
ATOM     54  C   UNL     1      -3.696  -0.150  -8.489  1.00  0.00     0.009 A 
ATOM     55  C   UNL     1      -4.336   2.147  -8.912  1.00  0.00     0.009 A 
ATOM     56  C   UNL     1      -3.881  -0.446  -9.839  1.00  0.00     0.001 A 
ATOM     57  C   UNL     1      -4.556   1.840 -10.253  1.00  0.00     0.001 A 
ATOM     58  C   UNL     1      -4.318   0.547 -10.717  1.00  0.00     0.000 A 
ENDBRANCH  40  53
ENDBRANCH  14  15
ENDBRANCH   7   9
ENDBRANCH   6   7
ENDBRANCH   5   6
ENDBRANCH   4   5
ENDBRANCH   3   4
ENDBRANCH   2   3
ENDBRANCH   1   2
BRANCH   1  59
ATOM     59  O   UNL     1       3.027   6.716   5.846  1.00  0.00    -0.376 OA
BRANCH  59  60
ATOM     60  C   UNL     1       2.957   7.667   4.793  1.00  0.00     0.202 C 
BRANCH  60  61
ATOM     61  C   UNL     1       3.402   7.235   3.390  1.00  0.00     0.261 C 
BRANCH  61  62
ATOM     62  O   UNL     1       3.013   5.905   3.033  1.00  0.00    -0.461 OA
BRANCH  62  63
ATOM     63  C   UNL     1       3.970   4.938   3.164  1.00  0.00     0.338 C 
ATOM     64  O   UNL     1       5.125   5.161   3.516  1.00  0.00    -0.249 OA
BRANCH  63  65
ATOM     65  C   UNL     1       3.455   3.553   2.737  1.00  0.00     0.263 C 
ATOM     66  O   UNL     1       3.990   2.492   3.545  1.00  0.00    -0.322 OA
ATOM     67  C   UNL     1       1.933   3.354   2.738  1.00  0.00     0.186 C 
ATOM     68  C   UNL     1       3.915   1.220   2.894  1.00  0.00     0.340 C 
ATOM     69  C   UNL     1       1.689   2.091   1.897  1.00  0.00     0.181 C 
ATOM     70  C   UNL     1       2.506   0.904   2.370  1.00  0.00     0.214 C 
BRANCH  67  71
ATOM     71  O   UNL     1       1.195   4.425   2.160  1.00  0.00    -0.387 OA
ATOM     72  H   UNL     1       1.456   4.533   1.232  1.00  0.00     0.211 HD
ENDBRANCH  67  71
BRANCH  68  73
ATOM     73  O   UNL     1       4.353   0.086   3.687  1.00  0.00    -0.454 OA
BRANCH  73  74
ATOM     74  C   UNL     1       3.983   0.050   5.021  1.00  0.00     0.214 A 
ATOM     75  C   UNL     1       2.935  -0.656   5.513  1.00  0.00     0.181 A 
ATOM     76  C   UNL     1       4.926   0.672   6.002  1.00  0.00     0.239 A 
ATOM     77  O   UNL     1       2.598  -0.723   6.850  1.00  0.00    -0.452 OA
ATOM     78  C   UNL     1       4.659   0.423   7.439  1.00  0.00     0.111 A 
ATOM     79  O   UNL     1       5.885   1.327   5.610  1.00  0.00    -0.285 OA
ATOM     80  C   UNL     1       3.491  -0.259   7.775  1.00  0.00     0.146 A 
ATOM     81  C   UNL     1       5.527   0.818   8.468  1.00  0.00     0.134 A 
ATOM     82  C   UNL     1       3.174  -0.529   9.107  1.00  0.00     0.094 A 
ATOM     83  C   UNL     1       5.224   0.535   9.806  1.00  0.00     0.093 A 
ATOM     84  C   UNL     1       4.046  -0.137  10.111  1.00  0.00     0.123 A 
BRANCH  75  85
ATOM     85  C   UNL     1       1.937  -1.357   4.674  1.00  0.00     0.029 A 
ATOM     86  C   UNL     1       0.594  -0.923   4.718  1.00  0.00     0.062 A 
ATOM     87  C   UNL     1       2.308  -2.323   3.733  1.00  0.00     0.062 A 
ATOM     88  C   UNL     1      -0.315  -1.322   3.735  1.00  0.00     0.162 A 
ATOM     89  C   UNL     1       1.374  -2.755   2.796  1.00  0.00     0.162 A 
ATOM     90  C   UNL     1       0.077  -2.237   2.763  1.00  0.00     0.200 A 
BRANCH  88  91
ATOM     91  O   UNL     1      -1.534  -0.707   3.769  1.00  0.00    -0.504 OA
ATOM     92  H   UNL     1      -1.734  -0.100   4.454  1.00  0.00     0.293 HD
ENDBRANCH  88  91
BRANCH  89  93
ATOM     93  O   UNL     1       1.769  -3.647   1.836  1.00  0.00    -0.504 OA
ATOM     94  H   UNL     1       1.154  -3.950   1.196  1.00  0.00     0.293 HD
ENDBRANCH  89  93
BRANCH  90  95
ATOM     95  O   UNL     1      -0.714  -2.666   1.731  1.00  0.00    -0.502 OA
ATOM     96  H   UNL     1      -1.594  -2.354   1.653  1.00  0.00     0.293 HD
ENDBRANCH  90  95
ENDBRANCH  75  85
BRANCH  81  97
ATOM     97  O   UNL     1       6.695   1.466   8.187  1.00  0.00    -0.507 OA
ATOM     98  H   UNL     1       7.267   1.724   8.883  1.00  0.00     0.293 HD
ENDBRANCH  81  97
BRANCH  84  99
ATOM     99  O   UNL     1       3.710  -0.447  11.395  1.00  0.00    -0.508 OA
ATOM    100  H   UNL     1       2.910  -0.901  11.573  1.00  0.00     0.293 HD
ENDBRANCH  84  99
ENDBRANCH  73  74
ENDBRANCH  68  73
BRANCH  69 101
ATOM    101  O   UNL     1       0.309   1.693   1.909  1.00  0.00    -0.387 OA
ATOM    102  H   UNL     1       0.051   1.450   2.812  1.00  0.00     0.211 HD
ENDBRANCH  69 101
BRANCH  70 103
ATOM    103  O   UNL     1       2.557  -0.127   1.373  1.00  0.00    -0.384 OA
ATOM    104  H   UNL     1       3.042   0.196   0.598  1.00  0.00     0.211 HD
ENDBRANCH  70 103
ENDBRANCH  63  65
ENDBRANCH  62  63
ENDBRANCH  61  62
ENDBRANCH  60  61
ENDBRANCH  59  60
ENDBRANCH   1  59
TORSDOF 28
