REMARK SMILES Cc1ccccc1NC(=O)C[NH+]1CCC(CC(=O)OCCOCCOCCOC(=O)c2ccc(-c3c4nc(c(-c5ccccc5)c5ccc([nH]5)c(-c5ccccc5)c5nc(c(-c6ccccc6)c6ccc3[nH]6)C=C5)C=C4)cc2)CC1
REMARK SMILES IDX 23 1 22 2 21 3 20 4 19 5 17 6 18 7 16 8 15 9 12 10 13 11
REMARK SMILES IDX 80 12 14 14 79 15 11 16 9 17 8 18 10 20 7 21 1 22 2 23 3 24
REMARK SMILES IDX 4 25 6 26 5 27 24 28 25 29 26 30 27 31 28 32 29 33 30 34
REMARK SMILES IDX 31 35 32 36 78 37 33 38 77 39 34 40 35 41 36 42 71 43 37 44
REMARK SMILES IDX 76 45 70 46 72 47 38 48 75 49 69 50 68 51 39 53 61 54 46 55
REMARK SMILES IDX 60 56 47 57 50 58 59 59 73 60 48 61 49 62 58 64 74 65 51 66
REMARK SMILES IDX 40 67 41 68 45 69 42 70 44 71 43 72 62 73 63 74 67 75 64 76
REMARK SMILES IDX 66 77 65 78 52 79 53 80 57 81 54 82 56 83 55 84
REMARK H PARENT 12 13 8 19 72 52 50 63
REMARK Flexibility Score: inf
ROOT
ATOM      1  C   UNL     1       3.826   1.073  -7.752  1.00  0.00     0.188 C 
ENDROOT
BRANCH   1   2
ATOM      2  O   UNL     1       3.314   1.532  -8.983  1.00  0.00    -0.376 OA
BRANCH   2   3
ATOM      3  C   UNL     1       2.072   2.163  -8.842  1.00  0.00     0.202 C 
BRANCH   3   4
ATOM      4  C   UNL     1       1.023   1.685  -7.788  1.00  0.00     0.261 C 
BRANCH   4   5
ATOM      5  O   UNL     1       1.052   0.566  -6.626  1.00  0.00    -0.463 OA
BRANCH   5   6
ATOM      6  C   UNL     1       0.489  -0.080  -5.486  1.00  0.00     0.306 C 
ATOM      7  O   UNL     1       1.285  -0.714  -4.779  1.00  0.00    -0.252 OA
BRANCH   6   8
ATOM      8  C   UNL     1      -1.157  -0.113  -4.929  1.00  0.00     0.126 C 
BRANCH   8   9
ATOM      9  C   UNL     1      -1.540   0.575  -3.489  1.00  0.00     0.011 C 
ATOM     10  N   UNL     1      -2.358   2.107  -1.062  1.00  0.00    -0.327 N 
ATOM     11  C   UNL     1      -1.955   2.761  -2.297  1.00  0.00     0.262 C 
ATOM     12  C   UNL     1      -2.182   0.643  -1.065  1.00  0.00     0.262 C 
ATOM     13  H   UNL     1      -3.372   2.191  -0.995  1.00  0.00     0.348 HD
ATOM     14  C   UNL     1      -2.365   1.905  -3.498  1.00  0.00     0.066 C 
ATOM     15  C   UNL     1      -2.359  -0.160  -2.406  1.00  0.00     0.066 C 
BRANCH  10  16
ATOM     16  C   UNL     1      -1.826   2.828   0.136  1.00  0.00     0.363 C 
BRANCH  16  17
ATOM     17  C   UNL     1      -0.292   3.048   0.212  1.00  0.00     0.279 C 
ATOM     18  N   UNL     1       0.605   2.102   0.638  1.00  0.00    -0.321 N 
ATOM     19  H   UNL     1       1.541   2.404   0.684  1.00  0.00     0.170 HD
ATOM     20  O   UNL     1       0.188   4.127  -0.168  1.00  0.00    -0.268 OA
BRANCH  18  21
ATOM     21  C   UNL     1       0.390   0.767   1.019  1.00  0.00     0.044 A 
ATOM     22  C   UNL     1       2.560  -0.011  -0.146  1.00  0.00     0.046 C 
ATOM     23  C   UNL     1       1.219  -0.244   0.495  1.00  0.00    -0.027 A 
ATOM     24  C   UNL     1       0.746  -1.570   0.522  1.00  0.00     0.005 A 
ATOM     25  C   UNL     1      -0.468  -1.892   1.128  1.00  0.00     0.000 A 
ATOM     26  C   UNL     1      -0.731   0.410   1.776  1.00  0.00     0.026 A 
ATOM     27  C   UNL     1      -1.177  -0.910   1.807  1.00  0.00     0.002 A 
ENDBRANCH  18  21
ENDBRANCH  16  17
ENDBRANCH  10  16
ENDBRANCH   8   9
ENDBRANCH   6   8
ENDBRANCH   5   6
ENDBRANCH   4   5
ENDBRANCH   3   4
ENDBRANCH   2   3
ENDBRANCH   1   2
BRANCH   1  28
ATOM     28  C   UNL     1       4.092   2.154  -6.689  1.00  0.00     0.188 C 
BRANCH  28  29
ATOM     29  O   UNL     1       3.138   3.220  -6.646  1.00  0.00    -0.376 OA
BRANCH  29  30
ATOM     30  C   UNL     1       3.692   4.525  -6.866  1.00  0.00     0.202 C 
BRANCH  30  31
ATOM     31  C   UNL     1       4.414   5.050  -5.620  1.00  0.00     0.261 C 
BRANCH  31  32
ATOM     32  O   UNL     1       3.442   5.592  -4.703  1.00  0.00    -0.460 OA
BRANCH  32  33
ATOM     33  C   UNL     1       2.879   4.646  -3.919  1.00  0.00     0.338 C 
ATOM     34  O   UNL     1       3.497   3.904  -3.159  1.00  0.00    -0.246 OA
BRANCH  33  35
ATOM     35  C   UNL     1       1.489   4.417  -4.391  1.00  0.00     0.060 A 
ATOM     36  C   UNL     1       1.048   3.135  -4.260  1.00  0.00     0.016 A 
ATOM     37  C   UNL     1       0.725   5.290  -5.191  1.00  0.00     0.016 A 
ATOM     38  C   UNL     1      -0.035   2.760  -5.046  1.00  0.00     0.010 A 
ATOM     39  C   UNL     1      -0.391   4.830  -5.968  1.00  0.00     0.010 A 
ATOM     40  C   UNL     1      -0.777   3.492  -5.962  1.00  0.00    -0.014 A 
BRANCH  40  41
ATOM     41  C   UNL     1      -1.832   2.850  -6.894  1.00  0.00     0.031 A 
ATOM     42  C   UNL     1      -3.276   3.101  -6.562  1.00  0.00     0.074 A 
ATOM     43  C   UNL     1      -1.882   1.761  -7.745  1.00  0.00     0.049 A 
ATOM     44  N   UNL     1      -4.241   2.259  -6.809  1.00  0.00    -0.248 NA
ATOM     45  C   UNL     1      -3.710   4.260  -5.789  1.00  0.00     0.031 C 
ATOM     46  C   UNL     1      -2.647   1.810  -9.012  1.00  0.00     0.029 A 
ATOM     47  N   UNL     1      -1.268   0.523  -7.882  1.00  0.00    -0.354 N 
ATOM     48  C   UNL     1      -5.399   2.946  -6.610  1.00  0.00     0.074 A 
ATOM     49  C   UNL     1      -5.028   4.052  -5.752  1.00  0.00     0.031 C 
ATOM     50  C   UNL     1      -2.444   0.693  -9.735  1.00  0.00     0.029 A 
ATOM     51  C   UNL     1      -1.593  -0.220  -8.991  1.00  0.00     0.049 A 
ATOM     52  H   UNL     1      -0.626   0.193  -7.212  1.00  0.00     0.167 HD
ATOM     53  C   UNL     1      -6.484   2.739  -7.409  1.00  0.00     0.031 A 
ATOM     54  C   UNL     1      -1.335  -1.540  -9.222  1.00  0.00     0.031 A 
ATOM     55  C   UNL     1      -6.276   1.762  -8.482  1.00  0.00     0.049 A 
ATOM     56  C   UNL     1      -2.632  -2.212  -9.536  1.00  0.00     0.074 A 
ATOM     57  C   UNL     1      -5.992   1.932  -9.832  1.00  0.00     0.029 A 
ATOM     58  N   UNL     1      -6.149   0.399  -8.239  1.00  0.00    -0.354 N 
ATOM     59  N   UNL     1      -3.735  -1.546  -9.408  1.00  0.00    -0.248 NA
ATOM     60  C   UNL     1      -2.874  -3.609  -9.874  1.00  0.00     0.031 C 
ATOM     61  C   UNL     1      -5.834   0.662 -10.427  1.00  0.00     0.029 A 
ATOM     62  C   UNL     1      -6.000  -0.288  -9.438  1.00  0.00     0.049 A 
ATOM     63  H   UNL     1      -6.162  -0.018  -7.347  1.00  0.00     0.167 HD
ATOM     64  C   UNL     1      -4.807  -2.337  -9.626  1.00  0.00     0.074 A 
ATOM     65  C   UNL     1      -4.224  -3.641  -9.894  1.00  0.00     0.031 C 
ATOM     66  C   UNL     1      -6.032  -1.755  -9.508  1.00  0.00     0.031 A 
BRANCH  53  67
ATOM     67  C   UNL     1      -7.551   3.808  -7.474  1.00  0.00    -0.014 A 
ATOM     68  C   UNL     1      -8.118   4.166  -8.709  1.00  0.00     0.009 A 
ATOM     69  C   UNL     1      -7.958   4.559  -6.359  1.00  0.00     0.009 A 
ATOM     70  C   UNL     1      -8.916   5.304  -8.851  1.00  0.00     0.001 A 
ATOM     71  C   UNL     1      -8.708   5.731  -6.501  1.00  0.00     0.001 A 
ATOM     72  C   UNL     1      -9.173   6.114  -7.753  1.00  0.00     0.000 A 
ENDBRANCH  53  67
BRANCH  54  73
ATOM     73  C   UNL     1      -0.181  -2.209  -8.566  1.00  0.00    -0.014 A 
ATOM     74  C   UNL     1       1.115  -1.985  -9.077  1.00  0.00     0.009 A 
ATOM     75  C   UNL     1      -0.295  -2.913  -7.360  1.00  0.00     0.009 A 
ATOM     76  C   UNL     1       2.258  -2.381  -8.369  1.00  0.00     0.001 A 
ATOM     77  C   UNL     1       0.852  -3.300  -6.648  1.00  0.00     0.001 A 
ATOM     78  C   UNL     1       2.125  -3.012  -7.138  1.00  0.00     0.000 A 
ENDBRANCH  54  73
BRANCH  66  79
ATOM     79  C   UNL     1      -7.370  -2.425  -9.526  1.00  0.00    -0.014 A 
ATOM     80  C   UNL     1      -7.596  -3.779  -9.778  1.00  0.00     0.009 A 
ATOM     81  C   UNL     1      -8.505  -1.633  -9.237  1.00  0.00     0.009 A 
ATOM     82  C   UNL     1      -8.886  -4.321  -9.697  1.00  0.00     0.001 A 
ATOM     83  C   UNL     1      -9.787  -2.167  -9.145  1.00  0.00     0.001 A 
ATOM     84  C   UNL     1      -9.975  -3.519  -9.367  1.00  0.00     0.000 A 
ENDBRANCH  66  79
ENDBRANCH  40  41
ENDBRANCH  33  35
ENDBRANCH  32  33
ENDBRANCH  31  32
ENDBRANCH  30  31
ENDBRANCH  29  30
ENDBRANCH  28  29
ENDBRANCH   1  28
TORSDOF 21
