REMARK SMILES O=C(OCCOCCOCCOC(=O)[C@]1(NC(=O)C2CCN(C(=O)C3CC3)CC2)CCCc2ccccc21)c1ccc(-c2c3nc(c(-c4ccccc4)c4ccc([nH]4)c(-c4ccccc4)c4nc(c(-c5ccccc5)c5ccc2[nH]5)C=C4)C=C3)cc1
REMARK SMILES IDX 8 1 7 2 6 3 5 4 4 5 3 6 2 7 1 8 39 9 40 10 86 11 41 12 85 13
REMARK SMILES IDX 42 14 43 15 44 16 79 17 45 18 84 19 78 20 80 21 46 22 83 23
REMARK SMILES IDX 77 24 76 25 47 27 69 28 54 29 68 30 55 31 58 32 67 33 81 34
REMARK SMILES IDX 56 35 57 36 66 38 82 39 59 40 48 41 49 42 53 43 50 44 52 45
REMARK SMILES IDX 51 46 70 47 71 48 75 49 72 50 74 51 73 52 60 53 61 54 65 55
REMARK SMILES IDX 62 56 64 57 63 58 9 59 10 60 11 61 12 62 13 63 14 64 15 65
REMARK SMILES IDX 30 66 38 67 31 68 33 69 37 70 32 71 34 72 36 73 35 74 16 75
REMARK SMILES IDX 17 76 18 78 19 79 20 80 29 81 21 82 28 83 22 84 23 85 24 86
REMARK SMILES IDX 25 87 26 88 27 89
REMARK H PARENT 80 26 58 37 16 77
REMARK Flexibility Score: inf
ROOT
ATOM      1  C   UNL     1       1.834  -2.554   0.244  1.00  0.00     0.188 C 
ENDROOT
BRANCH   1   2
ATOM      2  C   UNL     1       2.578  -1.317   0.746  1.00  0.00     0.188 C 
BRANCH   2   3
ATOM      3  O   UNL     1       3.850  -1.117   0.111  1.00  0.00    -0.376 OA
BRANCH   3   4
ATOM      4  C   UNL     1       4.914  -0.922   1.048  1.00  0.00     0.202 C 
BRANCH   4   5
ATOM      5  C   UNL     1       4.976   0.462   1.706  1.00  0.00     0.261 C 
BRANCH   5   6
ATOM      6  O   UNL     1       3.746   1.195   1.670  1.00  0.00    -0.460 OA
BRANCH   6   7
ATOM      7  C   UNL     1       3.155   1.848   0.644  1.00  0.00     0.338 C 
ATOM      8  O   UNL     1       2.043   2.335   0.850  1.00  0.00    -0.246 OA
BRANCH   7   9
ATOM      9  C   UNL     1       3.742   2.024  -0.728  1.00  0.00     0.060 A 
ATOM     10  C   UNL     1       4.966   1.527  -1.194  1.00  0.00     0.016 A 
ATOM     11  C   UNL     1       2.969   2.784  -1.628  1.00  0.00     0.016 A 
ATOM     12  C   UNL     1       5.434   1.807  -2.482  1.00  0.00     0.010 A 
ATOM     13  C   UNL     1       3.420   3.061  -2.920  1.00  0.00     0.010 A 
ATOM     14  C   UNL     1       4.674   2.596  -3.338  1.00  0.00    -0.014 A 
BRANCH  14  15
ATOM     15  C   UNL     1       5.268   3.143  -4.569  1.00  0.00     0.031 A 
ATOM     16  C   UNL     1       5.788   4.542  -4.485  1.00  0.00     0.074 A 
ATOM     17  C   UNL     1       5.323   2.443  -5.715  1.00  0.00     0.049 A 
ATOM     18  N   UNL     1       6.290   5.293  -5.424  1.00  0.00    -0.248 NA
ATOM     19  C   UNL     1       5.769   5.164  -3.148  1.00  0.00     0.031 C 
ATOM     20  C   UNL     1       4.986   1.033  -5.871  1.00  0.00     0.029 A 
ATOM     21  N   UNL     1       5.640   2.845  -6.985  1.00  0.00    -0.354 N 
ATOM     22  C   UNL     1       6.680   6.459  -4.784  1.00  0.00     0.074 A 
ATOM     23  C   UNL     1       6.290   6.351  -3.398  1.00  0.00     0.031 C 
ATOM     24  C   UNL     1       4.967   0.719  -7.177  1.00  0.00     0.029 A 
ATOM     25  C   UNL     1       5.338   1.902  -7.940  1.00  0.00     0.049 A 
ATOM     26  H   UNL     1       6.042   3.719  -7.193  1.00  0.00     0.167 HD
ATOM     27  C   UNL     1       7.335   7.517  -5.308  1.00  0.00     0.031 A 
ATOM     28  C   UNL     1       5.351   1.998  -9.281  1.00  0.00     0.031 A 
ATOM     29  C   UNL     1       7.639   7.629  -6.703  1.00  0.00     0.049 A 
ATOM     30  C   UNL     1       5.904   3.257  -9.883  1.00  0.00     0.074 A 
ATOM     31  C   UNL     1       8.268   8.656  -7.376  1.00  0.00     0.029 A 
ATOM     32  N   UNL     1       7.293   6.670  -7.650  1.00  0.00    -0.354 N 
ATOM     33  N   UNL     1       6.329   4.338  -9.269  1.00  0.00    -0.248 NA
ATOM     34  C   UNL     1       6.043   3.295 -11.342  1.00  0.00     0.031 C 
ATOM     35  C   UNL     1       8.246   8.346  -8.741  1.00  0.00     0.029 A 
ATOM     36  C   UNL     1       7.659   7.099  -8.910  1.00  0.00     0.049 A 
ATOM     37  H   UNL     1       6.853   5.813  -7.450  1.00  0.00     0.167 HD
ATOM     38  C   UNL     1       6.847   5.159 -10.258  1.00  0.00     0.074 A 
ATOM     39  C   UNL     1       6.657   4.459 -11.516  1.00  0.00     0.031 C 
ATOM     40  C   UNL     1       7.452   6.366 -10.136  1.00  0.00     0.031 A 
BRANCH  27  41
ATOM     41  C   UNL     1       7.677   8.616  -4.347  1.00  0.00    -0.014 A 
ATOM     42  C   UNL     1       8.635   8.422  -3.335  1.00  0.00     0.009 A 
ATOM     43  C   UNL     1       6.943   9.810  -4.369  1.00  0.00     0.009 A 
ATOM     44  C   UNL     1       8.799   9.372  -2.325  1.00  0.00     0.001 A 
ATOM     45  C   UNL     1       7.131  10.771  -3.374  1.00  0.00     0.001 A 
ATOM     46  C   UNL     1       8.043  10.543  -2.343  1.00  0.00     0.000 A 
ENDBRANCH  27  41
BRANCH  28  47
ATOM     47  C   UNL     1       4.855   0.870 -10.112  1.00  0.00    -0.014 A 
ATOM     48  C   UNL     1       5.741   0.029 -10.799  1.00  0.00     0.009 A 
ATOM     49  C   UNL     1       3.477   0.602 -10.184  1.00  0.00     0.009 A 
ATOM     50  C   UNL     1       5.258  -1.046 -11.553  1.00  0.00     0.001 A 
ATOM     51  C   UNL     1       2.998  -0.483 -10.925  1.00  0.00     0.001 A 
ATOM     52  C   UNL     1       3.889  -1.303 -11.613  1.00  0.00     0.000 A 
ENDBRANCH  28  47
BRANCH  40  53
ATOM     53  C   UNL     1       7.995   6.986 -11.386  1.00  0.00    -0.014 A 
ATOM     54  C   UNL     1       7.150   7.592 -12.325  1.00  0.00     0.009 A 
ATOM     55  C   UNL     1       9.386   7.052 -11.567  1.00  0.00     0.009 A 
ATOM     56  C   UNL     1       7.691   8.248 -13.431  1.00  0.00     0.001 A 
ATOM     57  C   UNL     1       9.924   7.732 -12.657  1.00  0.00     0.001 A 
ATOM     58  C   UNL     1       9.075   8.327 -13.589  1.00  0.00     0.000 A 
ENDBRANCH  40  53
ENDBRANCH  14  15
ENDBRANCH   7   9
ENDBRANCH   6   7
ENDBRANCH   5   6
ENDBRANCH   4   5
ENDBRANCH   3   4
ENDBRANCH   2   3
ENDBRANCH   1   2
BRANCH   1  59
ATOM     59  O   UNL     1       2.424  -3.820   0.521  1.00  0.00    -0.376 OA
BRANCH  59  60
ATOM     60  C   UNL     1       3.745  -4.056   0.065  1.00  0.00     0.202 C 
BRANCH  60  61
ATOM     61  C   UNL     1       3.993  -4.149  -1.440  1.00  0.00     0.261 C 
BRANCH  61  62
ATOM     62  O   UNL     1       3.373  -3.153  -2.270  1.00  0.00    -0.461 OA
BRANCH  62  63
ATOM     63  C   UNL     1       2.205  -3.549  -2.870  1.00  0.00     0.336 C 
ATOM     64  O   UNL     1       1.581  -4.553  -2.531  1.00  0.00    -0.249 OA
BRANCH  63  65
ATOM     65  C   UNL     1       1.876  -2.715  -4.161  1.00  0.00     0.164 C 
ATOM     66  C   UNL     1       2.858  -1.553  -4.420  1.00  0.00     0.046 C 
ATOM     67  C   UNL     1       0.432  -2.178  -3.982  1.00  0.00    -0.008 A 
ATOM     68  C   UNL     1       2.590  -0.360  -3.518  1.00  0.00     0.008 C 
ATOM     69  C   UNL     1       0.157  -0.817  -3.724  1.00  0.00    -0.042 A 
ATOM     70  C   UNL     1      -0.644  -3.085  -3.945  1.00  0.00     0.007 A 
ATOM     71  C   UNL     1       1.225   0.234  -3.796  1.00  0.00     0.036 C 
ATOM     72  C   UNL     1      -1.149  -0.403  -3.417  1.00  0.00     0.004 A 
ATOM     73  C   UNL     1      -1.935  -2.665  -3.621  1.00  0.00     0.000 A 
ATOM     74  C   UNL     1      -2.186  -1.326  -3.348  1.00  0.00     0.000 A 
BRANCH  65  75
ATOM     75  N   UNL     1       1.922  -3.579  -5.387  1.00  0.00    -0.336 N 
ATOM     76  C   UNL     1       2.943  -4.357  -5.869  1.00  0.00     0.224 C 
ATOM     77  H   UNL     1       1.097  -3.590  -5.924  1.00  0.00     0.164 HD
ATOM     78  O   UNL     1       3.094  -4.450  -7.088  1.00  0.00    -0.275 OA
BRANCH  76  79
ATOM     79  C   UNL     1       3.765  -5.211  -4.915  1.00  0.00     0.082 C 
ATOM     80  C   UNL     1       5.279  -4.969  -4.997  1.00  0.00     0.035 C 
ATOM     81  C   UNL     1       3.316  -6.680  -5.009  1.00  0.00     0.035 C 
ATOM     82  C   UNL     1       6.004  -5.923  -5.942  1.00  0.00     0.120 C 
ATOM     83  C   UNL     1       4.146  -7.462  -6.014  1.00  0.00     0.120 C 
ATOM     84  N   UNL     1       5.546  -7.285  -5.679  1.00  0.00    -0.342 N 
ATOM     85  C   UNL     1       6.375  -8.120  -4.921  1.00  0.00     0.225 C 
ATOM     86  O   UNL     1       7.535  -7.812  -4.704  1.00  0.00    -0.275 OA
BRANCH  85  87
ATOM     87  C   UNL     1       5.922  -9.398  -4.282  1.00  0.00     0.079 C 
ATOM     88  C   UNL     1       4.547  -9.928  -3.997  1.00  0.00     0.014 C 
ATOM     89  C   UNL     1       5.373 -10.544  -5.093  1.00  0.00     0.014 C 
ENDBRANCH  85  87
ENDBRANCH  76  79
ENDBRANCH  65  75
ENDBRANCH  63  65
ENDBRANCH  62  63
ENDBRANCH  61  62
ENDBRANCH  60  61
ENDBRANCH  59  60
ENDBRANCH   1  59
TORSDOF 20
