REMARK SMILES Cc1ccc(S(=O)(=O)n2cc(C(=O)C(=O)N[C@@H](Cc3cnc[nH]3)C(=O)OCCOCCOCCOC(=O)c3ccc(-c4c5nc(c(-c6ccccc6)c6ccc([nH]6)c(-c6ccccc6)c6nc(c(-c7ccccc7)c7ccc4[nH]7)C=C6)C=C5)cc3)c3ccccc32)cc1
REMARK SMILES IDX 29 1 28 2 27 3 26 4 24 5 25 6 17 7 16 8 14 9 15 10 12 12
REMARK SMILES IDX 13 13 11 14 9 15 10 16 91 17 86 18 90 19 87 20 89 21 88 22
REMARK SMILES IDX 6 23 7 24 8 25 5 26 1 27 2 28 3 29 93 30 4 31 92 32 18 33
REMARK SMILES IDX 19 34 20 35 23 36 21 37 22 38 30 40 31 41 32 42 33 43 34 44
REMARK SMILES IDX 35 45 36 46 37 47 38 48 39 49 85 50 40 51 84 52 41 53 42 54
REMARK SMILES IDX 43 55 78 56 44 57 83 58 77 59 79 60 45 61 82 62 76 63 75 64
REMARK SMILES IDX 46 66 68 67 53 68 67 69 54 70 57 71 66 72 80 73 55 74 56 75
REMARK SMILES IDX 65 77 81 78 58 79 47 80 48 81 52 82 49 83 51 84 50 85 69 86
REMARK SMILES IDX 70 87 74 88 71 89 73 90 72 91 59 92 60 93 64 94 61 95 63 96
REMARK SMILES IDX 62 97
REMARK H PARENT 16 11 23 39 79 65 57 76
REMARK Flexibility Score: inf
ROOT
ATOM      1  O   UNL     1      -3.277   8.259   6.963  1.00  0.00    -0.376 OA
ENDROOT
BRANCH   1   2
ATOM      2  C   UNL     1      -4.687   8.413   6.876  1.00  0.00     0.202 C 
BRANCH   2   3
ATOM      3  C   UNL     1      -5.455   7.216   6.280  1.00  0.00     0.261 C 
BRANCH   3   4
ATOM      4  O   UNL     1      -5.487   7.044   4.668  1.00  0.00    -0.462 OA
BRANCH   4   5
ATOM      5  C   UNL     1      -6.151   7.000   3.417  1.00  0.00     0.329 C 
ATOM      6  O   UNL     1      -5.413   6.573   2.518  1.00  0.00    -0.250 OA
BRANCH   5   7
ATOM      7  C   UNL     1      -7.850   7.465   2.934  1.00  0.00     0.198 C 
BRANCH   7   8
ATOM      8  N   UNL     1      -8.396   6.231   2.149  1.00  0.00    -0.335 N 
ATOM      9  C   UNL     1      -7.871   5.255   1.252  1.00  0.00     0.293 C 
ATOM     10  O   UNL     1      -8.587   4.282   1.000  1.00  0.00    -0.265 OA
ATOM     11  H   UNL     1      -9.355   6.089   2.318  1.00  0.00     0.164 HD
BRANCH   9  12
ATOM     12  C   UNL     1      -6.502   5.316   0.517  1.00  0.00     0.252 C 
ATOM     13  O   UNL     1      -6.262   6.435   0.048  1.00  0.00    -0.283 OA
BRANCH  12  14
ATOM     14  C   UNL     1      -5.595   4.129   0.149  1.00  0.00     0.054 A 
ATOM     15  N   UNL     1      -4.415   2.173  -0.054  1.00  0.00    -0.240 N 
ATOM     16  C   UNL     1      -5.417   2.838   0.675  1.00  0.00     0.117 A 
ATOM     17  C   UNL     1      -4.048   2.920  -1.150  1.00  0.00     0.065 A 
ATOM     18  C   UNL     1      -4.671   4.167  -0.986  1.00  0.00     0.012 A 
ATOM     19  C   UNL     1      -3.217   2.632  -2.254  1.00  0.00     0.028 A 
ATOM     20  C   UNL     1      -4.361   5.171  -1.931  1.00  0.00     0.011 A 
ATOM     21  C   UNL     1      -2.948   3.649  -3.168  1.00  0.00     0.002 A 
ATOM     22  C   UNL     1      -3.498   4.910  -2.999  1.00  0.00     0.001 A 
BRANCH  15  23
ATOM     23  S   UNL     1      -3.874   0.533   0.163  1.00  0.00     0.268 S 
ATOM     24  O   UNL     1      -4.342  -0.168  -0.999  1.00  0.00    -0.201 OA
ATOM     25  O   UNL     1      -4.312   0.166   1.515  1.00  0.00    -0.201 OA
BRANCH  23  26
ATOM     26  C   UNL     1      -2.073   0.423   0.155  1.00  0.00     0.088 A 
ATOM     27  C   UNL     1       2.247  -0.032   0.009  1.00  0.00     0.044 C 
ATOM     28  C   UNL     1       0.749   0.123   0.050  1.00  0.00    -0.051 A 
ATOM     29  C   UNL     1      -0.084  -0.998  -0.022  1.00  0.00     0.005 A 
ATOM     30  C   UNL     1       0.155   1.387   0.180  1.00  0.00     0.005 A 
ATOM     31  C   UNL     1      -1.484  -0.852   0.021  1.00  0.00     0.022 A 
ATOM     32  C   UNL     1      -1.243   1.539   0.244  1.00  0.00     0.022 A 
ENDBRANCH  23  26
ENDBRANCH  15  23
ENDBRANCH  12  14
ENDBRANCH   9  12
ENDBRANCH   7   8
BRANCH   7  33
ATOM     33  C   UNL     1      -9.221   8.536   3.721  1.00  0.00     0.092 C 
BRANCH  33  34
ATOM     34  C   UNL     1     -10.035   8.603   5.422  1.00  0.00     0.037 A 
ATOM     35  C   UNL     1     -10.390   7.715   6.524  1.00  0.00     0.134 A 
ATOM     36  N   UNL     1     -10.311   9.800   6.098  1.00  0.00    -0.348 N 
ATOM     37  N   UNL     1     -10.805   8.307   7.676  1.00  0.00    -0.245 NA
ATOM     38  C   UNL     1     -10.770   9.569   7.380  1.00  0.00     0.196 A 
ATOM     39  H   UNL     1     -10.191  10.696   5.707  1.00  0.00     0.167 HD
ENDBRANCH  33  34
ENDBRANCH   7  33
ENDBRANCH   5   7
ENDBRANCH   4   5
ENDBRANCH   3   4
ENDBRANCH   2   3
ENDBRANCH   1   2
BRANCH   1  40
ATOM     40  C   UNL     1      -2.731   7.833   5.725  1.00  0.00     0.188 C 
BRANCH  40  41
ATOM     41  C   UNL     1      -2.512   6.321   5.668  1.00  0.00     0.188 C 
BRANCH  41  42
ATOM     42  O   UNL     1      -3.433   5.554   6.407  1.00  0.00    -0.376 OA
BRANCH  42  43
ATOM     43  C   UNL     1      -3.272   5.409   7.816  1.00  0.00     0.202 C 
BRANCH  43  44
ATOM     44  C   UNL     1      -2.767   3.992   8.024  1.00  0.00     0.261 C 
BRANCH  44  45
ATOM     45  O   UNL     1      -3.810   3.058   7.635  1.00  0.00    -0.460 OA
BRANCH  45  46
ATOM     46  C   UNL     1      -4.047   2.968   6.294  1.00  0.00     0.338 C 
ATOM     47  O   UNL     1      -3.191   2.799   5.437  1.00  0.00    -0.246 OA
BRANCH  46  48
ATOM     48  C   UNL     1      -5.463   3.391   6.011  1.00  0.00     0.060 A 
ATOM     49  C   UNL     1      -5.815   3.685   4.704  1.00  0.00     0.016 A 
ATOM     50  C   UNL     1      -6.346   3.782   7.032  1.00  0.00     0.016 A 
ATOM     51  C   UNL     1      -6.914   4.521   4.469  1.00  0.00     0.010 A 
ATOM     52  C   UNL     1      -7.372   4.716   6.783  1.00  0.00     0.010 A 
ATOM     53  C   UNL     1      -7.551   5.231   5.504  1.00  0.00    -0.014 A 
BRANCH  53  54
ATOM     54  C   UNL     1      -8.309   6.561   5.282  1.00  0.00     0.031 A 
ATOM     55  C   UNL     1      -9.903   6.093   4.566  1.00  0.00     0.074 A 
ATOM     56  C   UNL     1      -7.680   7.954   5.525  1.00  0.00     0.049 A 
ATOM     57  N   UNL     1     -10.772   6.819   3.861  1.00  0.00    -0.248 NA
ATOM     58  C   UNL     1     -10.580   4.822   4.902  1.00  0.00     0.031 C 
ATOM     59  C   UNL     1      -7.804   9.024   6.630  1.00  0.00     0.029 A 
ATOM     60  N   UNL     1      -6.877   8.866   4.657  1.00  0.00    -0.354 N 
ATOM     61  C   UNL     1     -12.049   6.545   4.346  1.00  0.00     0.074 A 
ATOM     62  C   UNL     1     -11.877   5.133   4.677  1.00  0.00     0.031 C 
ATOM     63  C   UNL     1      -7.521  10.290   6.179  1.00  0.00     0.029 A 
ATOM     64  C   UNL     1      -6.927  10.229   4.874  1.00  0.00     0.049 A 
ATOM     65  H   UNL     1      -6.317   8.498   3.936  1.00  0.00     0.167 HD
ATOM     66  C   UNL     1     -12.974   7.506   4.798  1.00  0.00     0.031 A 
ATOM     67  C   UNL     1      -6.546  11.187   3.980  1.00  0.00     0.031 A 
ATOM     68  C   UNL     1     -12.766   9.022   4.569  1.00  0.00     0.049 A 
ATOM     69  C   UNL     1      -7.772  11.857   3.364  1.00  0.00     0.074 A 
ATOM     70  C   UNL     1     -13.008  10.114   5.427  1.00  0.00     0.029 A 
ATOM     71  N   UNL     1     -12.141   9.636   3.466  1.00  0.00    -0.354 N 
ATOM     72  N   UNL     1      -9.007  11.639   3.751  1.00  0.00    -0.248 NA
ATOM     73  C   UNL     1      -7.697  12.736   2.191  1.00  0.00     0.031 C 
ATOM     74  C   UNL     1     -12.419  11.302   4.932  1.00  0.00     0.029 A 
ATOM     75  C   UNL     1     -11.815  10.989   3.736  1.00  0.00     0.049 A 
ATOM     76  H   UNL     1     -11.954   9.181   2.613  1.00  0.00     0.167 HD
ATOM     77  C   UNL     1      -9.866  12.153   2.797  1.00  0.00     0.074 A 
ATOM     78  C   UNL     1      -8.997  12.893   1.889  1.00  0.00     0.031 C 
ATOM     79  C   UNL     1     -11.217  11.917   2.772  1.00  0.00     0.031 A 
BRANCH  66  80
ATOM     80  C   UNL     1     -14.032   7.138   5.927  1.00  0.00    -0.014 A 
ATOM     81  C   UNL     1     -14.977   8.096   6.374  1.00  0.00     0.009 A 
ATOM     82  C   UNL     1     -14.020   5.965   6.705  1.00  0.00     0.009 A 
ATOM     83  C   UNL     1     -15.705   7.974   7.575  1.00  0.00     0.001 A 
ATOM     84  C   UNL     1     -14.831   5.782   7.845  1.00  0.00     0.001 A 
ATOM     85  C   UNL     1     -15.639   6.805   8.309  1.00  0.00     0.000 A 
ENDBRANCH  66  80
BRANCH  67  86
ATOM     86  C   UNL     1      -5.285  10.860   3.204  1.00  0.00    -0.014 A 
ATOM     87  C   UNL     1      -4.059  11.045   3.886  1.00  0.00     0.009 A 
ATOM     88  C   UNL     1      -5.236  10.143   1.998  1.00  0.00     0.009 A 
ATOM     89  C   UNL     1      -2.867  10.441   3.454  1.00  0.00     0.001 A 
ATOM     90  C   UNL     1      -4.042   9.516   1.578  1.00  0.00     0.001 A 
ATOM     91  C   UNL     1      -2.870   9.634   2.323  1.00  0.00     0.000 A 
ENDBRANCH  67  86
BRANCH  79  92
ATOM     92  C   UNL     1     -12.216  12.715   1.959  1.00  0.00    -0.014 A 
ATOM     93  C   UNL     1     -12.002  14.004   1.456  1.00  0.00     0.009 A 
ATOM     94  C   UNL     1     -13.541  12.223   1.878  1.00  0.00     0.009 A 
ATOM     95  C   UNL     1     -13.030  14.711   0.814  1.00  0.00     0.001 A 
ATOM     96  C   UNL     1     -14.578  12.943   1.292  1.00  0.00     0.001 A 
ATOM     97  C   UNL     1     -14.313  14.178   0.729  1.00  0.00     0.000 A 
ENDBRANCH  79  92
ENDBRANCH  53  54
ENDBRANCH  46  48
ENDBRANCH  45  46
ENDBRANCH  44  45
ENDBRANCH  43  44
ENDBRANCH  42  43
ENDBRANCH  41  42
ENDBRANCH  40  41
ENDBRANCH   1  40
TORSDOF 24
