REMARK SMILES O=C1[NH+]=C(S)N(c2cccc(Br)c2)C(=O)/C1=C/c1ccc(-c2ccc(C(=O)OCCOCCOCCOC(=O)c3ccc(-c4c5nc(c(-c6ccccc6)c6ccc([nH]6)c(-c6ccccc6)c6nc(c(-c7ccccc7)c7ccc4[nH]7)C=C6)C=C5)cc3)cc2)o1
REMARK SMILES IDX 32 1 31 2 30 3 29 4 28 5 26 6 27 7 25 8 22 9 23 10 89 11
REMARK SMILES IDX 24 12 88 13 21 14 18 15 19 16 90 17 20 18 17 19 1 20 2 21
REMARK SMILES IDX 3 22 16 23 4 24 14 26 6 27 15 28 5 29 7 31 8 32 13 33 9 34
REMARK SMILES IDX 11 35 10 36 12 37 33 38 34 39 35 40 36 41 37 42 38 43 39 44
REMARK SMILES IDX 40 45 41 46 87 47 42 48 86 49 43 50 44 51 45 52 80 53 46 54
REMARK SMILES IDX 85 55 79 56 81 57 47 58 84 59 78 60 77 61 48 63 70 64 55 65
REMARK SMILES IDX 69 66 56 67 59 68 68 69 82 70 57 71 58 72 67 74 83 75 60 76
REMARK SMILES IDX 49 77 50 78 54 79 51 80 53 81 52 82 71 83 72 84 76 85 73 86
REMARK SMILES IDX 75 87 74 88 61 89 62 90 66 91 63 92 65 93 64 94
REMARK H PARENT 3 25 5 30 81 62 59 73
REMARK Flexibility Score: inf
ROOT
ATOM      1  C   UNL     1      -5.578  -5.716   5.399  1.00  0.00     0.188 C 
ENDROOT
BRANCH   1   2
ATOM      2  O   UNL     1      -6.887  -5.912   5.904  1.00  0.00    -0.376 OA
BRANCH   2   3
ATOM      3  C   UNL     1      -7.995  -5.997   5.020  1.00  0.00     0.202 C 
BRANCH   3   4
ATOM      4  C   UNL     1      -8.144  -5.089   3.786  1.00  0.00     0.261 C 
BRANCH   4   5
ATOM      5  O   UNL     1      -6.955  -4.877   3.014  1.00  0.00    -0.460 OA
BRANCH   5   6
ATOM      6  C   UNL     1      -6.437  -3.626   3.080  1.00  0.00     0.338 C 
ATOM      7  O   UNL     1      -6.900  -2.674   3.686  1.00  0.00    -0.246 OA
BRANCH   6   8
ATOM      8  C   UNL     1      -5.098  -3.591   2.444  1.00  0.00     0.060 A 
ATOM      9  C   UNL     1      -2.603  -3.258   1.206  1.00  0.00     0.017 A 
ATOM     10  C   UNL     1      -2.836  -2.705   2.470  1.00  0.00     0.013 A 
ATOM     11  C   UNL     1      -3.595  -4.065   0.620  1.00  0.00     0.013 A 
ATOM     12  C   UNL     1      -4.085  -2.857   3.079  1.00  0.00     0.016 A 
ATOM     13  C   UNL     1      -4.838  -4.240   1.237  1.00  0.00     0.016 A 
BRANCH   9  14
ATOM     14  C   UNL     1      -1.470  -2.823   0.404  1.00  0.00     0.134 A 
ATOM     15  C   UNL     1       0.663  -2.348   0.010  1.00  0.00     0.128 A 
ATOM     16  C   UNL     1      -0.079  -1.952  -1.097  1.00  0.00     0.051 A 
ATOM     17  O   UNL     1      -0.213  -2.903   0.928  1.00  0.00    -0.457 OA
ATOM     18  C   UNL     1      -1.429  -2.252  -0.847  1.00  0.00     0.051 A 
BRANCH  15  19
ATOM     19  C   UNL     1       2.075  -2.278   0.177  1.00  0.00     0.071 C 
ATOM     20  O   UNL     1       1.005   0.422   0.375  1.00  0.00    -0.241 OA
ATOM     21  C   UNL     1       2.203   0.225   0.224  1.00  0.00     0.347 C 
ATOM     22  N   UNL     1       3.064   1.272   0.109  1.00  0.00    -0.200 N 
ATOM     23  C   UNL     1       2.794  -1.134   0.173  1.00  0.00     0.158 C 
ATOM     24  C   UNL     1       4.337   1.115   0.074  1.00  0.00     0.323 C 
ATOM     25  H   UNL     1       2.697   2.183   0.051  1.00  0.00     0.316 HD
ATOM     26  C   UNL     1       4.276  -1.283   0.123  1.00  0.00     0.354 C 
ATOM     27  N   UNL     1       5.001  -0.097   0.114  1.00  0.00    -0.151 N 
ATOM     28  O   UNL     1       4.784  -2.404   0.083  1.00  0.00    -0.240 OA
BRANCH  24  29
ATOM     29  S   UNL     1       5.228   2.613  -0.132  1.00  0.00    -0.055 SA
ATOM     30  H   UNL     1       4.360   3.660  -0.140  1.00  0.00     0.116 HD
ENDBRANCH  24  29
BRANCH  27  31
ATOM     31  C   UNL     1       6.432  -0.189   0.105  1.00  0.00     0.138 A 
ATOM     32  C   UNL     1       7.091  -0.877  -0.925  1.00  0.00     0.052 A 
ATOM     33  C   UNL     1       7.191   0.404   1.124  1.00  0.00     0.068 A 
ATOM     34  C   UNL     1       8.488  -0.935  -0.958  1.00  0.00     0.006 A 
ATOM     35  C   UNL     1       8.584   0.330   1.089  1.00  0.00     0.022 A 
ATOM     36  C   UNL     1       9.236  -0.328   0.050  1.00  0.00     0.016 A 
ATOM     37  Br  UNL     1       9.596   1.133   2.470  1.00  0.00    -0.051 Br
ENDBRANCH  27  31
ENDBRANCH  15  19
ENDBRANCH   9  14
ENDBRANCH   6   8
ENDBRANCH   5   6
ENDBRANCH   4   5
ENDBRANCH   3   4
ENDBRANCH   2   3
ENDBRANCH   1   2
BRANCH   1  38
ATOM     38  C   UNL     1      -5.008  -6.665   4.324  1.00  0.00     0.188 C 
BRANCH  38  39
ATOM     39  O   UNL     1      -5.910  -7.582   3.756  1.00  0.00    -0.376 OA
BRANCH  39  40
ATOM     40  C   UNL     1      -6.150  -8.834   4.375  1.00  0.00     0.202 C 
BRANCH  40  41
ATOM     41  C   UNL     1      -5.621  -9.293   5.751  1.00  0.00     0.261 C 
BRANCH  41  42
ATOM     42  O   UNL     1      -4.889  -8.364   6.552  1.00  0.00    -0.460 OA
BRANCH  42  43
ATOM     43  C   UNL     1      -3.544  -8.523   6.549  1.00  0.00     0.338 C 
ATOM     44  O   UNL     1      -2.894  -9.335   5.914  1.00  0.00    -0.246 OA
BRANCH  43  45
ATOM     45  C   UNL     1      -2.931  -7.427   7.321  1.00  0.00     0.060 A 
ATOM     46  C   UNL     1      -2.135  -6.494   6.644  1.00  0.00     0.016 A 
ATOM     47  C   UNL     1      -3.086  -7.360   8.706  1.00  0.00     0.016 A 
ATOM     48  C   UNL     1      -1.450  -5.514   7.359  1.00  0.00     0.010 A 
ATOM     49  C   UNL     1      -2.382  -6.388   9.424  1.00  0.00     0.010 A 
ATOM     50  C   UNL     1      -1.528  -5.491   8.757  1.00  0.00    -0.014 A 
BRANCH  50  51
ATOM     51  C   UNL     1      -0.552  -4.681   9.527  1.00  0.00     0.031 A 
ATOM     52  C   UNL     1       0.664  -5.369  10.087  1.00  0.00     0.074 A 
ATOM     53  C   UNL     1      -0.715  -3.357   9.696  1.00  0.00     0.049 A 
ATOM     54  N   UNL     1       1.639  -4.879  10.808  1.00  0.00    -0.248 NA
ATOM     55  C   UNL     1       0.794  -6.807   9.795  1.00  0.00     0.031 C 
ATOM     56  C   UNL     1      -1.818  -2.562   9.162  1.00  0.00     0.029 A 
ATOM     57  N   UNL     1       0.059  -2.450  10.376  1.00  0.00    -0.354 N 
ATOM     58  C   UNL     1       2.490  -5.948  11.064  1.00  0.00     0.074 A 
ATOM     59  C   UNL     1       1.900  -7.118  10.452  1.00  0.00     0.031 C 
ATOM     60  C   UNL     1      -1.652  -1.281   9.539  1.00  0.00     0.029 A 
ATOM     61  C   UNL     1      -0.452  -1.175  10.367  1.00  0.00     0.049 A 
ATOM     62  H   UNL     1       0.901  -2.690  10.826  1.00  0.00     0.167 HD
ATOM     63  C   UNL     1       3.662  -5.957  11.742  1.00  0.00     0.031 A 
ATOM     64  C   UNL     1      -0.010  -0.057  10.975  1.00  0.00     0.031 A 
ATOM     65  C   UNL     1       4.243  -4.798  12.365  1.00  0.00     0.049 A 
ATOM     66  C   UNL     1       1.255  -0.109  11.794  1.00  0.00     0.074 A 
ATOM     67  C   UNL     1       5.432  -4.703  13.068  1.00  0.00     0.029 A 
ATOM     68  N   UNL     1       3.673  -3.535  12.368  1.00  0.00    -0.354 N 
ATOM     69  N   UNL     1       2.063  -1.119  12.010  1.00  0.00    -0.248 NA
ATOM     70  C   UNL     1       1.674   1.143  12.442  1.00  0.00     0.031 C 
ATOM     71  C   UNL     1       5.550  -3.395  13.549  1.00  0.00     0.029 A 
ATOM     72  C   UNL     1       4.473  -2.659  13.082  1.00  0.00     0.049 A 
ATOM     73  H   UNL     1       2.825  -3.296  11.928  1.00  0.00     0.167 HD
ATOM     74  C   UNL     1       3.104  -0.616  12.783  1.00  0.00     0.074 A 
ATOM     75  C   UNL     1       2.829   0.791  12.987  1.00  0.00     0.031 C 
ATOM     76  C   UNL     1       4.192  -1.259  13.274  1.00  0.00     0.031 A 
BRANCH  63  77
ATOM     77  C   UNL     1       4.372  -7.276  11.878  1.00  0.00    -0.014 A 
ATOM     78  C   UNL     1       4.973  -7.903  10.775  1.00  0.00     0.009 A 
ATOM     79  C   UNL     1       4.459  -7.890  13.137  1.00  0.00     0.009 A 
ATOM     80  C   UNL     1       5.614  -9.136  10.924  1.00  0.00     0.001 A 
ATOM     81  C   UNL     1       5.129  -9.105  13.290  1.00  0.00     0.001 A 
ATOM     82  C   UNL     1       5.696  -9.732  12.182  1.00  0.00     0.000 A 
ENDBRANCH  63  77
BRANCH  64  83
ATOM     83  C   UNL     1      -0.772   1.214  10.850  1.00  0.00    -0.014 A 
ATOM     84  C   UNL     1      -0.235   2.308  10.152  1.00  0.00     0.009 A 
ATOM     85  C   UNL     1      -2.030   1.352  11.457  1.00  0.00     0.009 A 
ATOM     86  C   UNL     1      -0.928   3.520  10.093  1.00  0.00     0.001 A 
ATOM     87  C   UNL     1      -2.735   2.554  11.369  1.00  0.00     0.001 A 
ATOM     88  C   UNL     1      -2.178   3.640  10.697  1.00  0.00     0.000 A 
ENDBRANCH  64  83
BRANCH  76  89
ATOM     89  C   UNL     1       5.202  -0.437  14.029  1.00  0.00    -0.014 A 
ATOM     90  C   UNL     1       4.925   0.091  15.299  1.00  0.00     0.009 A 
ATOM     91  C   UNL     1       6.472  -0.221  13.468  1.00  0.00     0.009 A 
ATOM     92  C   UNL     1       5.883   0.854  15.972  1.00  0.00     0.001 A 
ATOM     93  C   UNL     1       7.440   0.511  14.158  1.00  0.00     0.001 A 
ATOM     94  C   UNL     1       7.140   1.058  15.403  1.00  0.00     0.000 A 
ENDBRANCH  76  89
ENDBRANCH  50  51
ENDBRANCH  43  45
ENDBRANCH  42  43
ENDBRANCH  41  42
ENDBRANCH  40  41
ENDBRANCH  39  40
ENDBRANCH  38  39
ENDBRANCH   1  38
TORSDOF 21
