REMARK SMILES CC1(C)[C@@]2(C(=O)OCCOCCOCCOC(=O)c3ccc(-c4c5nc(c(-c6ccccc6)c6ccc([nH]6)c(-c6ccccc6)c6nc(c(-c7ccccc7)c7ccc4[nH]7)C=C6)C=C5)cc3)CC[C@]1(C)/C(=N/NC(=O)c1ccc(Cl)cc1)C2
REMARK SMILES IDX 11 1 10 2 9 3 8 4 7 5 5 6 6 7 4 8 1 9 2 10 3 11 69 12 67 13
REMARK SMILES IDX 83 14 68 15 70 16 71 17 72 18 73 19 74 20 75 22 76 23 77 24
REMARK SMILES IDX 82 25 78 26 81 27 79 28 80 29 12 30 13 31 14 32 15 33 16 34
REMARK SMILES IDX 17 35 18 36 19 37 20 38 66 39 21 40 65 41 22 42 23 43 24 44
REMARK SMILES IDX 59 45 25 46 64 47 58 48 60 49 26 50 63 51 57 52 56 53 27 55
REMARK SMILES IDX 49 56 34 57 48 58 35 59 38 60 47 61 61 62 36 63 37 64 46 66
REMARK SMILES IDX 62 67 39 68 28 69 29 70 33 71 30 72 32 73 31 74 50 75 51 76
REMARK SMILES IDX 55 77 52 78 54 79 53 80 40 81 41 82 45 83 42 84 44 85 43 86
REMARK H PARENT 73 21 60 54 38 65
REMARK Flexibility Score: inf
ROOT
ATOM      1  C   UNL     1       2.596   4.151   0.179  1.00  0.00     0.188 C 
ENDROOT
BRANCH   1   2
ATOM      2  O   UNL     1       3.971   4.377   0.411  1.00  0.00    -0.376 OA
BRANCH   2   3
ATOM      3  C   UNL     1       4.859   3.899  -0.601  1.00  0.00     0.202 C 
BRANCH   3   4
ATOM      4  C   UNL     1       4.934   2.374  -0.740  1.00  0.00     0.261 C 
BRANCH   4   5
ATOM      5  O   UNL     1       3.766   1.831  -1.394  1.00  0.00    -0.463 OA
BRANCH   5   6
ATOM      6  C   UNL     1       2.975   1.000  -0.656  1.00  0.00     0.313 C 
ATOM      7  O   UNL     1       3.198   0.662   0.497  1.00  0.00    -0.252 OA
BRANCH   6   8
ATOM      8  C   UNL     1       1.787   0.517  -1.465  1.00  0.00     0.079 C 
ATOM      9  C   UNL     1       0.733  -0.973   0.392  1.00  0.00     0.013 C 
ATOM     10  C   UNL     1       0.495   0.083  -0.708  1.00  0.00    -0.008 C 
ATOM     11  C   UNL     1      -0.327   1.223  -0.062  1.00  0.00     0.013 C 
ATOM     12  C   UNL     1      -0.154  -0.466  -2.023  1.00  0.00     0.014 C 
ATOM     13  C   UNL     1       2.211  -0.779  -2.228  1.00  0.00     0.021 C 
ATOM     14  C   UNL     1       1.231   1.529  -2.498  1.00  0.00     0.073 C 
ATOM     15  C   UNL     1       0.878  -1.479  -2.541  1.00  0.00     0.014 C 
ATOM     16  C   UNL     1      -1.571  -0.989  -1.922  1.00  0.00     0.018 C 
ATOM     17  C   UNL     1       0.031   0.751  -2.966  1.00  0.00     0.046 C 
ATOM     18  N   UNL     1      -0.810   0.944  -3.930  1.00  0.00    -0.181 NA
BRANCH  18  19
ATOM     19  N   UNL     1      -0.857   1.986  -4.797  1.00  0.00    -0.243 N 
ATOM     20  C   UNL     1       0.057   2.744  -5.493  1.00  0.00     0.271 C 
ATOM     21  H   UNL     1      -1.782   2.274  -4.974  1.00  0.00     0.194 HD
ATOM     22  O   UNL     1      -0.335   3.676  -6.197  1.00  0.00    -0.267 OA
BRANCH  20  23
ATOM     23  C   UNL     1       1.498   2.483  -5.464  1.00  0.00     0.041 A 
ATOM     24  C   UNL     1       2.341   3.547  -5.107  1.00  0.00     0.015 A 
ATOM     25  C   UNL     1       2.024   1.216  -5.739  1.00  0.00     0.015 A 
ATOM     26  C   UNL     1       3.704   3.317  -4.918  1.00  0.00     0.021 A 
ATOM     27  C   UNL     1       3.394   0.995  -5.561  1.00  0.00     0.021 A 
ATOM     28  C   UNL     1       4.220   2.037  -5.124  1.00  0.00     0.041 A 
ATOM     29  Cl  UNL     1       5.876   1.725  -4.779  1.00  0.00    -0.084 Cl
ENDBRANCH  20  23
ENDBRANCH  18  19
ENDBRANCH   6   8
ENDBRANCH   5   6
ENDBRANCH   4   5
ENDBRANCH   3   4
ENDBRANCH   2   3
ENDBRANCH   1   2
BRANCH   1  30
ATOM     30  C   UNL     1       1.909   5.058  -0.828  1.00  0.00     0.188 C 
BRANCH  30  31
ATOM     31  O   UNL     1       2.662   5.569  -1.919  1.00  0.00    -0.376 OA
BRANCH  31  32
ATOM     32  C   UNL     1       3.037   6.941  -1.730  1.00  0.00     0.202 C 
BRANCH  32  33
ATOM     33  C   UNL     1       1.892   7.959  -1.946  1.00  0.00     0.261 C 
BRANCH  33  34
ATOM     34  O   UNL     1       0.809   7.782  -1.002  1.00  0.00    -0.460 OA
BRANCH  34  35
ATOM     35  C   UNL     1      -0.283   7.124  -1.476  1.00  0.00     0.338 C 
ATOM     36  O   UNL     1      -0.542   6.904  -2.649  1.00  0.00    -0.246 OA
BRANCH  35  37
ATOM     37  C   UNL     1      -1.018   6.460  -0.359  1.00  0.00     0.060 A 
ATOM     38  C   UNL     1      -1.578   5.195  -0.611  1.00  0.00     0.016 A 
ATOM     39  C   UNL     1      -1.115   7.008   0.923  1.00  0.00     0.016 A 
ATOM     40  C   UNL     1      -2.277   4.508   0.386  1.00  0.00     0.010 A 
ATOM     41  C   UNL     1      -1.832   6.327   1.920  1.00  0.00     0.010 A 
ATOM     42  C   UNL     1      -2.452   5.092   1.645  1.00  0.00    -0.014 A 
BRANCH  42  43
ATOM     43  C   UNL     1      -3.495   4.564   2.566  1.00  0.00     0.031 A 
ATOM     44  C   UNL     1      -4.859   5.207   2.513  1.00  0.00     0.074 A 
ATOM     45  C   UNL     1      -3.282   3.531   3.403  1.00  0.00     0.049 A 
ATOM     46  N   UNL     1      -5.913   4.995   3.259  1.00  0.00    -0.248 NA
ATOM     47  C   UNL     1      -5.054   6.230   1.471  1.00  0.00     0.031 C 
ATOM     48  C   UNL     1      -2.050   2.754   3.507  1.00  0.00     0.029 A 
ATOM     49  N   UNL     1      -4.118   2.963   4.337  1.00  0.00    -0.354 N 
ATOM     50  C   UNL     1      -6.890   5.861   2.780  1.00  0.00     0.074 A 
ATOM     51  C   UNL     1      -6.296   6.621   1.703  1.00  0.00     0.031 C 
ATOM     52  C   UNL     1      -2.206   1.816   4.461  1.00  0.00     0.029 A 
ATOM     53  C   UNL     1      -3.533   1.952   5.062  1.00  0.00     0.049 A 
ATOM     54  H   UNL     1      -5.048   3.253   4.473  1.00  0.00     0.167 HD
ATOM     55  C   UNL     1      -8.172   6.012   3.189  1.00  0.00     0.031 A 
ATOM     56  C   UNL     1      -4.006   1.242   6.107  1.00  0.00     0.031 A 
ATOM     57  C   UNL     1      -8.768   5.282   4.273  1.00  0.00     0.049 A 
ATOM     58  C   UNL     1      -5.395   1.520   6.633  1.00  0.00     0.074 A 
ATOM     59  C   UNL     1     -10.051   5.386   4.780  1.00  0.00     0.029 A 
ATOM     60  N   UNL     1      -8.118   4.313   5.021  1.00  0.00    -0.354 N 
ATOM     61  N   UNL     1      -6.306   2.347   6.179  1.00  0.00    -0.248 NA
ATOM     62  C   UNL     1      -5.820   0.758   7.819  1.00  0.00     0.031 C 
ATOM     63  C   UNL     1     -10.161   4.518   5.871  1.00  0.00     0.029 A 
ATOM     64  C   UNL     1      -8.968   3.825   5.998  1.00  0.00     0.049 A 
ATOM     65  H   UNL     1      -7.190   4.016   4.878  1.00  0.00     0.167 HD
ATOM     66  C   UNL     1      -7.420   2.173   6.995  1.00  0.00     0.074 A 
ATOM     67  C   UNL     1      -7.076   1.155   7.964  1.00  0.00     0.031 C 
ATOM     68  C   UNL     1      -8.621   2.799   6.946  1.00  0.00     0.031 A 
BRANCH  55  69
ATOM     69  C   UNL     1      -9.002   7.042   2.477  1.00  0.00    -0.014 A 
ATOM     70  C   UNL     1      -9.439   6.840   1.158  1.00  0.00     0.009 A 
ATOM     71  C   UNL     1      -9.369   8.222   3.142  1.00  0.00     0.009 A 
ATOM     72  C   UNL     1     -10.196   7.816   0.508  1.00  0.00     0.001 A 
ATOM     73  C   UNL     1     -10.152   9.182   2.500  1.00  0.00     0.001 A 
ATOM     74  C   UNL     1     -10.557   8.983   1.181  1.00  0.00     0.000 A 
ENDBRANCH  55  69
BRANCH  56  75
ATOM     75  C   UNL     1      -3.160   0.211   6.775  1.00  0.00    -0.014 A 
ATOM     76  C   UNL     1      -3.524  -1.145   6.745  1.00  0.00     0.009 A 
ATOM     77  C   UNL     1      -2.028   0.588   7.516  1.00  0.00     0.009 A 
ATOM     78  C   UNL     1      -2.796  -2.093   7.470  1.00  0.00     0.001 A 
ATOM     79  C   UNL     1      -1.283  -0.367   8.212  1.00  0.00     0.001 A 
ATOM     80  C   UNL     1      -1.675  -1.704   8.200  1.00  0.00     0.000 A 
ENDBRANCH  56  75
BRANCH  68  81
ATOM     81  C   UNL     1      -9.680   2.360   7.922  1.00  0.00    -0.014 A 
ATOM     82  C   UNL     1      -9.590   2.655   9.291  1.00  0.00     0.009 A 
ATOM     83  C   UNL     1     -10.813   1.678   7.449  1.00  0.00     0.009 A 
ATOM     84  C   UNL     1     -10.595   2.244  10.170  1.00  0.00     0.001 A 
ATOM     85  C   UNL     1     -11.832   1.297   8.324  1.00  0.00     0.001 A 
ATOM     86  C   UNL     1     -11.717   1.571   9.685  1.00  0.00     0.000 A 
ENDBRANCH  68  81
ENDBRANCH  42  43
ENDBRANCH  35  37
ENDBRANCH  34  35
ENDBRANCH  33  34
ENDBRANCH  32  33
ENDBRANCH  31  32
ENDBRANCH  30  31
ENDBRANCH   1  30
TORSDOF 19
