REMARK SMILES CC(C)n1c2c(c3ccccc31)[C@@H](c1ccccc1)N(CC(=O)OCCOCCOCCOC(=O)c1ccc(-c3c4nc(c(-c5ccccc5)c5ccc([nH]5)c(-c5ccccc5)c5nc(c(-c6ccccc6)c6ccc3[nH]6)C=C5)C=C4)cc1)C2=O
REMARK SMILES IDX 28 1 27 2 26 3 25 4 24 5 22 6 23 7 21 8 20 9 4 10 5 11 12 12
REMARK SMILES IDX 6 13 84 14 7 15 11 16 13 17 85 18 8 19 10 20 9 21 2 22 1 23
REMARK SMILES IDX 3 24 14 25 15 26 19 27 16 28 18 29 17 30 29 31 30 32 31 33
REMARK SMILES IDX 32 34 33 35 34 36 35 37 36 38 37 39 83 40 38 41 82 42 39 43
REMARK SMILES IDX 40 44 41 45 76 46 42 47 81 48 75 49 77 50 43 51 80 52 74 53
REMARK SMILES IDX 73 54 44 56 66 57 51 58 65 59 52 60 55 61 64 62 78 63 53 64
REMARK SMILES IDX 54 65 63 67 79 68 56 69 45 70 46 71 50 72 47 73 49 74 48 75
REMARK SMILES IDX 67 76 68 77 72 78 69 79 71 80 70 81 57 82 58 83 62 84 59 85
REMARK SMILES IDX 61 86 60 87
REMARK H PARENT 77 55 55 66
REMARK Flexibility Score: inf
ROOT
ATOM      1  C   UNL     1      -6.527  -2.390   2.241  1.00  0.00     0.188 C 
ENDROOT
BRANCH   1   2
ATOM      2  O   UNL     1      -6.388  -2.158   3.621  1.00  0.00    -0.376 OA
BRANCH   2   3
ATOM      3  C   UNL     1      -5.075  -2.152   4.160  1.00  0.00     0.202 C 
BRANCH   3   4
ATOM      4  C   UNL     1      -4.036  -3.126   3.573  1.00  0.00     0.261 C 
BRANCH   4   5
ATOM      5  O   UNL     1      -3.540  -2.743   2.251  1.00  0.00    -0.462 OA
BRANCH   5   6
ATOM      6  C   UNL     1      -3.344  -3.774   1.384  1.00  0.00     0.325 C 
ATOM      7  O   UNL     1      -3.446  -4.947   1.750  1.00  0.00    -0.250 OA
BRANCH   6   8
ATOM      8  C   UNL     1      -3.233  -3.438  -0.158  1.00  0.00     0.243 C 
BRANCH   8   9
ATOM      9  N   UNL     1      -2.873  -2.240  -0.876  1.00  0.00    -0.315 N 
ATOM     10  N   UNL     1      -0.914   0.676  -1.207  1.00  0.00    -0.334 N 
ATOM     11  C   UNL     1      -1.675  -0.438  -1.203  1.00  0.00     0.114 A 
ATOM     12  C   UNL     1      -1.777   1.774  -1.242  1.00  0.00     0.049 A 
ATOM     13  C   UNL     1      -2.962  -0.106  -1.499  1.00  0.00     0.018 A 
ATOM     14  C   UNL     1      -1.550  -1.817  -0.865  1.00  0.00     0.272 C 
ATOM     15  C   UNL     1      -3.088   1.284  -1.408  1.00  0.00     0.006 A 
ATOM     16  C   UNL     1      -1.541   3.150  -1.117  1.00  0.00     0.027 A 
ATOM     17  C   UNL     1      -3.802  -1.314  -1.594  1.00  0.00     0.150 C 
ATOM     18  O   UNL     1      -0.589  -2.459  -0.518  1.00  0.00    -0.267 OA
ATOM     19  C   UNL     1      -4.180   2.173  -1.426  1.00  0.00     0.011 A 
ATOM     20  C   UNL     1      -2.644   4.016  -1.138  1.00  0.00     0.002 A 
ATOM     21  C   UNL     1      -3.943   3.539  -1.289  1.00  0.00     0.001 A 
BRANCH  10  22
ATOM     22  C   UNL     1       0.543   0.686  -1.179  1.00  0.00     0.082 C 
ATOM     23  C   UNL     1       1.098   0.172   0.148  1.00  0.00     0.031 C 
ATOM     24  C   UNL     1       1.111  -0.084  -2.378  1.00  0.00     0.031 C 
ENDBRANCH  10  22
BRANCH  17  25
ATOM     25  C   UNL     1      -4.062  -1.543  -3.107  1.00  0.00    -0.021 A 
ATOM     26  C   UNL     1      -4.197  -2.828  -3.662  1.00  0.00     0.006 A 
ATOM     27  C   UNL     1      -4.442  -0.467  -3.951  1.00  0.00     0.006 A 
ATOM     28  C   UNL     1      -4.819  -3.022  -4.918  1.00  0.00     0.000 A 
ATOM     29  C   UNL     1      -5.029  -0.656  -5.209  1.00  0.00     0.000 A 
ATOM     30  C   UNL     1      -5.266  -1.939  -5.672  1.00  0.00     0.000 A 
ENDBRANCH  17  25
ENDBRANCH   8   9
ENDBRANCH   6   8
ENDBRANCH   5   6
ENDBRANCH   4   5
ENDBRANCH   3   4
ENDBRANCH   2   3
ENDBRANCH   1   2
BRANCH   1  31
ATOM     31  C   UNL     1      -5.758  -1.497   1.269  1.00  0.00     0.188 C 
BRANCH  31  32
ATOM     32  O   UNL     1      -5.055  -0.359   1.692  1.00  0.00    -0.376 OA
BRANCH  32  33
ATOM     33  C   UNL     1      -5.820   0.716   2.212  1.00  0.00     0.202 C 
BRANCH  33  34
ATOM     34  C   UNL     1      -7.188   1.098   1.586  1.00  0.00     0.261 C 
BRANCH  34  35
ATOM     35  O   UNL     1      -8.007  -0.011   1.129  1.00  0.00    -0.460 OA
BRANCH  35  36
ATOM     36  C   UNL     1      -8.378  -0.003  -0.190  1.00  0.00     0.338 C 
ATOM     37  O   UNL     1      -8.398   0.981  -0.912  1.00  0.00    -0.246 OA
BRANCH  36  38
ATOM     38  C   UNL     1      -8.325  -1.410  -0.733  1.00  0.00     0.060 A 
ATOM     39  C   UNL     1      -8.775  -2.555  -0.066  1.00  0.00     0.016 A 
ATOM     40  C   UNL     1      -7.498  -1.599  -1.835  1.00  0.00     0.016 A 
ATOM     41  C   UNL     1      -8.223  -3.838  -0.365  1.00  0.00     0.010 A 
ATOM     42  C   UNL     1      -6.995  -2.878  -2.127  1.00  0.00     0.010 A 
ATOM     43  C   UNL     1      -7.224  -4.009  -1.340  1.00  0.00    -0.014 A 
BRANCH  43  44
ATOM     44  C   UNL     1      -6.796  -5.352  -1.873  1.00  0.00     0.031 A 
ATOM     45  C   UNL     1      -7.897  -5.902  -2.667  1.00  0.00     0.074 A 
ATOM     46  C   UNL     1      -5.691  -6.157  -1.864  1.00  0.00     0.049 A 
ATOM     47  N   UNL     1      -8.736  -6.748  -2.182  1.00  0.00    -0.248 NA
ATOM     48  C   UNL     1      -8.231  -5.363  -3.982  1.00  0.00     0.031 C 
ATOM     49  C   UNL     1      -4.438  -5.993  -1.168  1.00  0.00     0.029 A 
ATOM     50  N   UNL     1      -5.443  -7.365  -2.505  1.00  0.00    -0.354 N 
ATOM     51  C   UNL     1      -9.615  -7.014  -3.203  1.00  0.00     0.074 A 
ATOM     52  C   UNL     1      -9.373  -6.013  -4.216  1.00  0.00     0.031 C 
ATOM     53  C   UNL     1      -3.463  -6.817  -1.618  1.00  0.00     0.029 A 
ATOM     54  C   UNL     1      -4.100  -7.795  -2.483  1.00  0.00     0.049 A 
ATOM     55  H   UNL     1      -6.155  -7.885  -2.944  1.00  0.00     0.167 HD
ATOM     56  C   UNL     1     -10.296  -8.186  -3.212  1.00  0.00     0.031 A 
ATOM     57  C   UNL     1      -3.546  -9.025  -2.699  1.00  0.00     0.031 A 
ATOM     58  C   UNL     1     -10.210  -8.870  -1.940  1.00  0.00     0.049 A 
ATOM     59  C   UNL     1      -4.594 -10.024  -2.458  1.00  0.00     0.074 A 
ATOM     60  C   UNL     1     -10.556  -8.550  -0.640  1.00  0.00     0.029 A 
ATOM     61  N   UNL     1      -9.310  -9.905  -1.844  1.00  0.00    -0.354 N 
ATOM     62  N   UNL     1      -5.031 -10.336  -1.276  1.00  0.00    -0.248 NA
ATOM     63  C   UNL     1      -5.442 -10.386  -3.574  1.00  0.00     0.031 C 
ATOM     64  C   UNL     1      -9.524  -9.100   0.174  1.00  0.00     0.029 A 
ATOM     65  C   UNL     1      -8.640  -9.796  -0.651  1.00  0.00     0.049 A 
ATOM     66  H   UNL     1      -9.170 -10.609  -2.518  1.00  0.00     0.167 HD
ATOM     67  C   UNL     1      -6.395 -10.480  -1.457  1.00  0.00     0.074 A 
ATOM     68  C   UNL     1      -6.574 -10.599  -2.903  1.00  0.00     0.031 C 
ATOM     69  C   UNL     1      -7.266 -10.210  -0.443  1.00  0.00     0.031 A 
BRANCH  56  70
ATOM     70  C   UNL     1     -10.699  -8.864  -4.482  1.00  0.00    -0.014 A 
ATOM     71  C   UNL     1     -10.122  -8.568  -5.733  1.00  0.00     0.009 A 
ATOM     72  C   UNL     1     -11.519  -9.997  -4.407  1.00  0.00     0.009 A 
ATOM     73  C   UNL     1     -10.368  -9.347  -6.862  1.00  0.00     0.001 A 
ATOM     74  C   UNL     1     -11.732 -10.806  -5.527  1.00  0.00     0.001 A 
ATOM     75  C   UNL     1     -11.161 -10.478  -6.754  1.00  0.00     0.000 A 
ENDBRANCH  56  70
BRANCH  57  76
ATOM     76  C   UNL     1      -2.323  -9.397  -3.465  1.00  0.00    -0.014 A 
ATOM     77  C   UNL     1      -1.766  -8.510  -4.398  1.00  0.00     0.009 A 
ATOM     78  C   UNL     1      -1.878 -10.737  -3.500  1.00  0.00     0.009 A 
ATOM     79  C   UNL     1      -0.875  -8.961  -5.384  1.00  0.00     0.001 A 
ATOM     80  C   UNL     1      -0.988 -11.188  -4.487  1.00  0.00     0.001 A 
ATOM     81  C   UNL     1      -0.507 -10.303  -5.446  1.00  0.00     0.000 A 
ENDBRANCH  57  76
BRANCH  69  82
ATOM     82  C   UNL     1      -6.725 -10.102   0.971  1.00  0.00    -0.014 A 
ATOM     83  C   UNL     1      -7.376 -10.843   1.971  1.00  0.00     0.009 A 
ATOM     84  C   UNL     1      -5.715  -9.207   1.370  1.00  0.00     0.009 A 
ATOM     85  C   UNL     1      -7.056 -10.680   3.321  1.00  0.00     0.001 A 
ATOM     86  C   UNL     1      -5.373  -9.064   2.722  1.00  0.00     0.001 A 
ATOM     87  C   UNL     1      -6.054  -9.791   3.697  1.00  0.00     0.000 A 
ENDBRANCH  69  82
ENDBRANCH  43  44
ENDBRANCH  36  38
ENDBRANCH  35  36
ENDBRANCH  34  35
ENDBRANCH  33  34
ENDBRANCH  32  33
ENDBRANCH  31  32
ENDBRANCH   1  31
TORSDOF 20
