REMARK SMILES O=C(OCCOCCOCCOC(=O)[C@@H](CO)NC(=O)[C@H]1CCCc2ccccc21)c1ccc(-c2c3nc(c(-c4ccccc4)c4ccc([nH]4)c(-c4ccccc4)c4nc(c(-c5ccccc5)c5ccc2[nH]5)C=C4)C=C3)cc1
REMARK SMILES IDX 7 1 6 2 5 3 4 4 3 5 2 6 1 7 31 8 32 9 78 10 33 11 77 12
REMARK SMILES IDX 34 13 35 14 36 15 71 16 37 17 76 18 70 19 72 20 38 21 75 22
REMARK SMILES IDX 69 23 68 24 39 26 61 27 46 28 60 29 47 30 50 31 59 32 73 33
REMARK SMILES IDX 48 34 49 35 58 37 74 38 51 39 40 40 41 41 45 42 42 43 44 44
REMARK SMILES IDX 43 45 62 46 63 47 67 48 64 49 66 50 65 51 52 52 53 53 57 54
REMARK SMILES IDX 54 55 56 56 55 57 8 58 9 59 10 60 11 61 12 62 13 63 14 64
REMARK SMILES IDX 15 65 16 66 17 67 18 69 19 70 20 72 21 73 22 74 30 75 23 76
REMARK SMILES IDX 25 77 29 78 24 79 26 80 28 81 27 82
REMARK H PARENT 72 25 50 36 17 68 18 71
REMARK Flexibility Score: inf
ROOT
ATOM      1  C   UNL     1       2.294   9.719  -2.751  1.00  0.00     0.188 C 
ENDROOT
BRANCH   1   2
ATOM      2  O   UNL     1       1.524   8.899  -3.643  1.00  0.00    -0.376 OA
BRANCH   2   3
ATOM      3  C   UNL     1       1.592   9.324  -5.011  1.00  0.00     0.202 C 
BRANCH   3   4
ATOM      4  C   UNL     1       0.826  10.610  -5.369  1.00  0.00     0.261 C 
BRANCH   4   5
ATOM      5  O   UNL     1       0.681  11.524  -4.270  1.00  0.00    -0.460 OA
BRANCH   5   6
ATOM      6  C   UNL     1      -0.319  11.623  -3.361  1.00  0.00     0.338 C 
ATOM      7  O   UNL     1      -0.271  12.547  -2.550  1.00  0.00    -0.246 OA
BRANCH   6   8
ATOM      8  C   UNL     1      -1.462  10.661  -3.245  1.00  0.00     0.060 A 
ATOM      9  C   UNL     1      -1.541   9.418  -3.871  1.00  0.00     0.016 A 
ATOM     10  C   UNL     1      -2.523  11.027  -2.390  1.00  0.00     0.016 A 
ATOM     11  C   UNL     1      -2.650   8.598  -3.720  1.00  0.00     0.010 A 
ATOM     12  C   UNL     1      -3.638  10.198  -2.214  1.00  0.00     0.010 A 
ATOM     13  C   UNL     1      -3.712   8.992  -2.910  1.00  0.00    -0.014 A 
BRANCH  13  14
ATOM     14  C   UNL     1      -4.937   8.177  -2.990  1.00  0.00     0.031 A 
ATOM     15  C   UNL     1      -5.984   8.601  -3.966  1.00  0.00     0.074 A 
ATOM     16  C   UNL     1      -4.990   6.987  -2.368  1.00  0.00     0.049 A 
ATOM     17  N   UNL     1      -7.093   8.000  -4.295  1.00  0.00    -0.248 NA
ATOM     18  C   UNL     1      -5.743   9.866  -4.683  1.00  0.00     0.031 C 
ATOM     19  C   UNL     1      -3.947   6.473  -1.490  1.00  0.00     0.029 A 
ATOM     20  N   UNL     1      -5.906   5.973  -2.420  1.00  0.00    -0.354 N 
ATOM     21  C   UNL     1      -7.699   8.828  -5.227  1.00  0.00     0.074 A 
ATOM     22  C   UNL     1      -6.833   9.967  -5.425  1.00  0.00     0.031 C 
ATOM     23  C   UNL     1      -4.230   5.208  -1.148  1.00  0.00     0.029 A 
ATOM     24  C   UNL     1      -5.528   4.858  -1.706  1.00  0.00     0.049 A 
ATOM     25  H   UNL     1      -6.752   6.034  -2.920  1.00  0.00     0.167 HD
ATOM     26  C   UNL     1      -8.893   8.654  -5.836  1.00  0.00     0.031 A 
ATOM     27  C   UNL     1      -6.184   3.700  -1.505  1.00  0.00     0.031 A 
ATOM     28  C   UNL     1      -9.742   7.524  -5.577  1.00  0.00     0.049 A 
ATOM     29  C   UNL     1      -7.548   3.574  -2.126  1.00  0.00     0.074 A 
ATOM     30  C   UNL     1     -11.014   7.269  -6.051  1.00  0.00     0.029 A 
ATOM     31  N   UNL     1      -9.393   6.457  -4.756  1.00  0.00    -0.354 N 
ATOM     32  N   UNL     1      -8.158   4.398  -2.947  1.00  0.00    -0.248 NA
ATOM     33  C   UNL     1      -8.329   2.385  -1.772  1.00  0.00     0.031 C 
ATOM     34  C   UNL     1     -11.457   6.076  -5.470  1.00  0.00     0.029 A 
ATOM     35  C   UNL     1     -10.434   5.550  -4.692  1.00  0.00     0.049 A 
ATOM     36  H   UNL     1      -8.532   6.362  -4.289  1.00  0.00     0.167 HD
ATOM     37  C   UNL     1      -9.396   3.832  -3.206  1.00  0.00     0.074 A 
ATOM     38  C   UNL     1      -9.431   2.572  -2.486  1.00  0.00     0.031 C 
ATOM     39  C   UNL     1     -10.420   4.310  -3.955  1.00  0.00     0.031 A 
BRANCH  26  40
ATOM     40  C   UNL     1      -9.366   9.770  -6.720  1.00  0.00    -0.014 A 
ATOM     41  C   UNL     1      -8.767  10.042  -7.960  1.00  0.00     0.009 A 
ATOM     42  C   UNL     1     -10.394  10.611  -6.265  1.00  0.00     0.009 A 
ATOM     43  C   UNL     1      -9.159  11.158  -8.704  1.00  0.00     0.001 A 
ATOM     44  C   UNL     1     -10.803  11.708  -7.023  1.00  0.00     0.001 A 
ATOM     45  C   UNL     1     -10.177  11.989  -8.236  1.00  0.00     0.000 A 
ENDBRANCH  26  40
BRANCH  27  46
ATOM     46  C   UNL     1      -5.617   2.637  -0.627  1.00  0.00    -0.014 A 
ATOM     47  C   UNL     1      -5.350   1.348  -1.115  1.00  0.00     0.009 A 
ATOM     48  C   UNL     1      -5.350   2.904   0.727  1.00  0.00     0.009 A 
ATOM     49  C   UNL     1      -4.853   0.352  -0.266  1.00  0.00     0.001 A 
ATOM     50  C   UNL     1      -4.814   1.922   1.563  1.00  0.00     0.001 A 
ATOM     51  C   UNL     1      -4.578   0.643   1.070  1.00  0.00     0.000 A 
ENDBRANCH  27  46
BRANCH  39  52
ATOM     52  C   UNL     1     -11.639   3.441  -4.051  1.00  0.00    -0.014 A 
ATOM     53  C   UNL     1     -12.510   3.280  -2.962  1.00  0.00     0.009 A 
ATOM     54  C   UNL     1     -11.935   2.807  -5.267  1.00  0.00     0.009 A 
ATOM     55  C   UNL     1     -13.637   2.467  -3.081  1.00  0.00     0.001 A 
ATOM     56  C   UNL     1     -13.081   2.024  -5.393  1.00  0.00     0.001 A 
ATOM     57  C   UNL     1     -13.924   1.846  -4.297  1.00  0.00     0.000 A 
ENDBRANCH  39  52
ENDBRANCH  13  14
ENDBRANCH   6   8
ENDBRANCH   5   6
ENDBRANCH   4   5
ENDBRANCH   3   4
ENDBRANCH   2   3
ENDBRANCH   1   2
BRANCH   1  58
ATOM     58  C   UNL     1       3.058   8.905  -1.702  1.00  0.00     0.188 C 
BRANCH  58  59
ATOM     59  O   UNL     1       4.180   8.144  -2.143  1.00  0.00    -0.376 OA
BRANCH  59  60
ATOM     60  C   UNL     1       4.023   7.309  -3.285  1.00  0.00     0.202 C 
BRANCH  60  61
ATOM     61  C   UNL     1       3.222   6.014  -3.100  1.00  0.00     0.261 C 
BRANCH  61  62
ATOM     62  O   UNL     1       1.991   6.225  -2.400  1.00  0.00    -0.462 OA
BRANCH  62  63
ATOM     63  C   UNL     1       1.915   5.690  -1.149  1.00  0.00     0.331 C 
ATOM     64  O   UNL     1       2.746   4.929  -0.658  1.00  0.00    -0.250 OA
BRANCH  63  65
ATOM     65  C   UNL     1       0.730   6.252  -0.364  1.00  0.00     0.218 C 
BRANCH  65  66
ATOM     66  C   UNL     1      -0.280   7.037  -1.204  1.00  0.00     0.193 C 
BRANCH  66  67
ATOM     67  O   UNL     1      -0.826   6.239  -2.252  1.00  0.00    -0.394 OA
ATOM     68  H   UNL     1      -0.114   5.952  -2.845  1.00  0.00     0.210 HD
ENDBRANCH  66  67
ENDBRANCH  65  66
BRANCH  65  69
ATOM     69  N   UNL     1       0.027   5.204   0.366  1.00  0.00    -0.340 N 
ATOM     70  C   UNL     1      -0.250   5.070   1.690  1.00  0.00     0.228 C 
ATOM     71  H   UNL     1      -0.304   4.466  -0.196  1.00  0.00     0.164 HD
ATOM     72  O   UNL     1      -1.019   4.149   1.978  1.00  0.00    -0.274 OA
BRANCH  70  73
ATOM     73  C   UNL     1       0.393   6.006   2.753  1.00  0.00     0.109 C 
ATOM     74  C   UNL     1      -0.092   7.463   2.568  1.00  0.00     0.018 C 
ATOM     75  C   UNL     1       0.137   5.477   4.172  1.00  0.00    -0.032 A 
ATOM     76  C   UNL     1       0.010   8.299   3.836  1.00  0.00     0.006 C 
ATOM     77  C   UNL     1      -0.499   6.255   5.160  1.00  0.00    -0.044 A 
ATOM     78  C   UNL     1       0.517   4.162   4.497  1.00  0.00     0.005 A 
ATOM     79  C   UNL     1      -0.865   7.693   4.917  1.00  0.00     0.036 C 
ATOM     80  C   UNL     1      -0.843   5.675   6.391  1.00  0.00     0.004 A 
ATOM     81  C   UNL     1       0.181   3.599   5.729  1.00  0.00     0.000 A 
ATOM     82  C   UNL     1      -0.517   4.350   6.668  1.00  0.00     0.000 A 
ENDBRANCH  70  73
ENDBRANCH  65  69
ENDBRANCH  63  65
ENDBRANCH  62  63
ENDBRANCH  61  62
ENDBRANCH  60  61
ENDBRANCH  59  60
ENDBRANCH  58  59
ENDBRANCH   1  58
TORSDOF 21
