REMARK SMILES Cc1cc2nc(NC(=O)[C@H]3[C@@H](C(=O)OCCOCCOCCOC(=O)c4ccc(-c5c6nc(c(-c7ccccc7)c7ccc([nH]7)c(-c7ccccc7)c7nc(c(-c8ccccc8)c8ccc5[nH]8)C=C7)C=C6)cc4)[C@@H]4C=C[C@H]3C4)sc2cc1C
REMARK SMILES IDX 18 1 17 2 16 3 15 4 14 5 12 6 13 7 11 8 10 9 77 10 74 11
REMARK SMILES IDX 76 12 78 13 75 14 8 15 7 16 9 18 6 19 1 20 2 21 3 22 82 23
REMARK SMILES IDX 4 24 81 25 83 26 5 27 80 28 79 29 19 30 20 31 21 32 22 33
REMARK SMILES IDX 23 34 24 35 25 36 26 37 27 38 73 39 28 40 72 41 29 42 30 43
REMARK SMILES IDX 31 44 66 45 32 46 71 47 65 48 67 49 33 50 70 51 64 52 63 53
REMARK SMILES IDX 34 55 56 56 41 57 55 58 42 59 45 60 54 61 68 62 43 63 44 64
REMARK SMILES IDX 53 66 69 67 46 68 35 69 36 70 40 71 37 72 39 73 38 74 57 75
REMARK SMILES IDX 58 76 62 77 59 78 61 79 60 80 47 81 48 82 52 83 49 84 51 85
REMARK SMILES IDX 50 86
REMARK H PARENT 7 17 67 54 45 65
REMARK Flexibility Score: inf
ROOT
ATOM      1  C   UNL     1       0.224   5.164   8.319  1.00  0.00     0.188 C 
ENDROOT
BRANCH   1   2
ATOM      2  O   UNL     1       1.471   5.328   7.658  1.00  0.00    -0.376 OA
BRANCH   2   3
ATOM      3  C   UNL     1       2.123   4.125   7.301  1.00  0.00     0.202 C 
BRANCH   3   4
ATOM      4  C   UNL     1       1.528   3.464   6.053  1.00  0.00     0.261 C 
BRANCH   4   5
ATOM      5  O   UNL     1       0.099   3.279   6.038  1.00  0.00    -0.463 OA
BRANCH   5   6
ATOM      6  C   UNL     1      -0.378   2.397   6.936  1.00  0.00     0.310 C 
ATOM      7  O   UNL     1       0.310   1.832   7.780  1.00  0.00    -0.252 OA
BRANCH   6   8
ATOM      8  C   UNL     1      -1.843   2.087   6.763  1.00  0.00     0.119 C 
ATOM      9  C   UNL     1      -2.090   0.979   5.684  1.00  0.00     0.100 C 
ATOM     10  C   UNL     1      -3.390   1.499   5.040  1.00  0.00     0.025 C 
ATOM     11  C   UNL     1      -2.982   3.115   6.524  1.00  0.00     0.027 C 
ATOM     12  C   UNL     1      -4.539   1.491   6.011  1.00  0.00    -0.027 C 
ATOM     13  C   UNL     1      -3.161   3.025   5.024  1.00  0.00     0.017 C 
ATOM     14  C   UNL     1      -4.318   2.479   6.883  1.00  0.00    -0.027 C 
BRANCH   9  15
ATOM     15  C   UNL     1      -0.803   0.675   4.851  1.00  0.00     0.230 C 
ATOM     16  N   UNL     1      -0.406   1.363   3.740  1.00  0.00    -0.302 N 
ATOM     17  H   UNL     1       0.554   1.563   3.648  1.00  0.00     0.172 HD
ATOM     18  O   UNL     1       0.044  -0.076   5.358  1.00  0.00    -0.274 OA
BRANCH  16  19
ATOM     19  C   UNL     1      -1.234   1.792   2.753  1.00  0.00     0.190 A 
ATOM     20  C   UNL     1      -6.593   3.808   1.431  1.00  0.00     0.044 C 
ATOM     21  C   UNL     1      -5.125   3.573   1.206  1.00  0.00    -0.046 A 
ATOM     22  C   UNL     1      -4.529   2.510   1.883  1.00  0.00     0.033 A 
ATOM     23  C   UNL     1      -4.328   4.363   0.361  1.00  0.00    -0.047 A 
ATOM     24  C   UNL     1      -3.134   2.357   1.875  1.00  0.00     0.084 A 
ATOM     25  C   UNL     1      -2.915   4.240   0.372  1.00  0.00     0.025 A 
ATOM     26  C   UNL     1      -4.944   5.306  -0.636  1.00  0.00     0.044 C 
ATOM     27  N   UNL     1      -2.457   1.401   2.580  1.00  0.00    -0.220 NA
ATOM     28  C   UNL     1      -2.332   3.273   1.203  1.00  0.00     0.057 A 
ATOM     29  S   UNL     1      -0.676   2.961   1.646  1.00  0.00    -0.097 S 
ENDBRANCH  16  19
ENDBRANCH   9  15
ENDBRANCH   6   8
ENDBRANCH   5   6
ENDBRANCH   4   5
ENDBRANCH   3   4
ENDBRANCH   2   3
ENDBRANCH   1   2
BRANCH   1  30
ATOM     30  C   UNL     1      -0.902   5.780   7.471  1.00  0.00     0.188 C 
BRANCH  30  31
ATOM     31  O   UNL     1      -0.710   7.074   6.912  1.00  0.00    -0.376 OA
BRANCH  31  32
ATOM     32  C   UNL     1       0.084   7.986   7.656  1.00  0.00     0.202 C 
BRANCH  32  33
ATOM     33  C   UNL     1      -0.548   8.471   8.969  1.00  0.00     0.261 C 
BRANCH  33  34
ATOM     34  O   UNL     1      -0.868   7.373   9.854  1.00  0.00    -0.460 OA
BRANCH  34  35
ATOM     35  C   UNL     1      -2.150   7.311  10.311  1.00  0.00     0.338 C 
ATOM     36  O   UNL     1      -2.945   8.213  10.336  1.00  0.00    -0.246 OA
BRANCH  35  37
ATOM     37  C   UNL     1      -2.526   5.870  10.498  1.00  0.00     0.060 A 
ATOM     38  C   UNL     1      -1.716   4.904  11.109  1.00  0.00     0.016 A 
ATOM     39  C   UNL     1      -3.731   5.468   9.915  1.00  0.00     0.016 A 
ATOM     40  C   UNL     1      -2.102   3.543  11.103  1.00  0.00     0.010 A 
ATOM     41  C   UNL     1      -4.108   4.119   9.915  1.00  0.00     0.010 A 
ATOM     42  C   UNL     1      -3.295   3.127  10.485  1.00  0.00    -0.014 A 
BRANCH  42  43
ATOM     43  C   UNL     1      -3.925   1.809  10.763  1.00  0.00     0.031 A 
ATOM     44  C   UNL     1      -4.212   1.604  12.180  1.00  0.00     0.074 A 
ATOM     45  C   UNL     1      -4.175   0.702  10.022  1.00  0.00     0.049 A 
ATOM     46  N   UNL     1      -3.494   0.797  12.887  1.00  0.00    -0.248 NA
ATOM     47  C   UNL     1      -5.191   2.390  12.917  1.00  0.00     0.031 C 
ATOM     48  C   UNL     1      -3.467   0.255   8.855  1.00  0.00     0.029 A 
ATOM     49  N   UNL     1      -5.120  -0.304  10.166  1.00  0.00    -0.354 N 
ATOM     50  C   UNL     1      -4.079   0.781  14.124  1.00  0.00     0.074 A 
ATOM     51  C   UNL     1      -5.019   1.882  14.142  1.00  0.00     0.031 C 
ATOM     52  C   UNL     1      -4.156  -0.698   8.203  1.00  0.00     0.029 A 
ATOM     53  C   UNL     1      -5.336  -1.043   8.993  1.00  0.00     0.049 A 
ATOM     54  H   UNL     1      -5.593  -0.482  11.011  1.00  0.00     0.167 HD
ATOM     55  C   UNL     1      -3.922  -0.307  14.917  1.00  0.00     0.031 A 
ATOM     56  C   UNL     1      -5.787  -2.308   8.818  1.00  0.00     0.031 A 
ATOM     57  C   UNL     1      -2.850  -1.176  14.486  1.00  0.00     0.049 A 
ATOM     58  C   UNL     1      -5.127  -3.192   9.791  1.00  0.00     0.074 A 
ATOM     59  C   UNL     1      -1.473  -1.104  14.471  1.00  0.00     0.029 A 
ATOM     60  N   UNL     1      -3.208  -2.193  13.636  1.00  0.00    -0.354 N 
ATOM     61  N   UNL     1      -3.860  -3.497   9.768  1.00  0.00    -0.248 NA
ATOM     62  C   UNL     1      -5.835  -3.530  11.017  1.00  0.00     0.031 C 
ATOM     63  C   UNL     1      -1.028  -1.993  13.450  1.00  0.00     0.029 A 
ATOM     64  C   UNL     1      -2.140  -2.599  12.867  1.00  0.00     0.049 A 
ATOM     65  H   UNL     1      -4.111  -2.582  13.582  1.00  0.00     0.167 HD
ATOM     66  C   UNL     1      -3.529  -3.636  11.103  1.00  0.00     0.074 A 
ATOM     67  C   UNL     1      -4.794  -3.819  11.798  1.00  0.00     0.031 C 
ATOM     68  C   UNL     1      -2.309  -3.261  11.580  1.00  0.00     0.031 A 
BRANCH  55  69
ATOM     69  C   UNL     1      -5.013  -0.768  15.828  1.00  0.00    -0.014 A 
ATOM     70  C   UNL     1      -6.368  -0.456  15.595  1.00  0.00     0.009 A 
ATOM     71  C   UNL     1      -4.731  -1.731  16.805  1.00  0.00     0.009 A 
ATOM     72  C   UNL     1      -7.395  -1.036  16.336  1.00  0.00     0.001 A 
ATOM     73  C   UNL     1      -5.763  -2.344  17.524  1.00  0.00     0.001 A 
ATOM     74  C   UNL     1      -7.091  -1.990  17.295  1.00  0.00     0.000 A 
ENDBRANCH  55  69
BRANCH  56  75
ATOM     75  C   UNL     1      -6.940  -2.671   7.966  1.00  0.00    -0.014 A 
ATOM     76  C   UNL     1      -7.839  -1.690   7.506  1.00  0.00     0.009 A 
ATOM     77  C   UNL     1      -7.218  -4.009   7.649  1.00  0.00     0.009 A 
ATOM     78  C   UNL     1      -9.004  -2.038   6.812  1.00  0.00     0.001 A 
ATOM     79  C   UNL     1      -8.383  -4.358   6.950  1.00  0.00     0.001 A 
ATOM     80  C   UNL     1      -9.284  -3.375   6.548  1.00  0.00     0.000 A 
ENDBRANCH  56  75
BRANCH  68  81
ATOM     81  C   UNL     1      -1.121  -3.307  10.650  1.00  0.00    -0.014 A 
ATOM     82  C   UNL     1      -0.009  -4.075  11.031  1.00  0.00     0.009 A 
ATOM     83  C   UNL     1      -1.014  -2.539   9.483  1.00  0.00     0.009 A 
ATOM     84  C   UNL     1       1.177  -4.046  10.291  1.00  0.00     0.001 A 
ATOM     85  C   UNL     1       0.166  -2.516   8.731  1.00  0.00     0.001 A 
ATOM     86  C   UNL     1       1.266  -3.262   9.144  1.00  0.00     0.000 A 
ENDBRANCH  68  81
ENDBRANCH  42  43
ENDBRANCH  35  37
ENDBRANCH  34  35
ENDBRANCH  33  34
ENDBRANCH  32  33
ENDBRANCH  31  32
ENDBRANCH  30  31
ENDBRANCH   1  30
TORSDOF 19
