REMARK SMILES COc1cc(C)cc2c1[C@@H](C)[C@@H](CC(=O)N[C@@H](Cc1c[nH]c3ccccc13)C(=O)OCCOCCOCCOC(=O)c1ccc(-c3c4nc(c(-c5ccccc5)c5ccc([nH]5)c(-c5ccccc5)c5nc(c(-c6ccccc6)c6ccc3[nH]6)C=C5)C=C4)cc1)C(=O)O2
REMARK SMILES IDX 34 1 33 2 32 3 31 4 30 5 28 6 29 7 17 8 16 9 14 10 15 11
REMARK SMILES IDX 13 13 12 14 3 15 4 16 9 17 5 18 8 19 10 20 6 21 7 22 92 23
REMARK SMILES IDX 11 24 90 25 91 26 2 27 1 28 18 29 19 30 20 31 27 32 21 33
REMARK SMILES IDX 22 34 26 35 23 37 25 38 24 39 35 40 36 41 37 42 38 43 39 44
REMARK SMILES IDX 40 45 41 46 42 47 43 48 89 49 44 50 88 51 45 52 46 53 47 54
REMARK SMILES IDX 82 55 48 56 87 57 81 58 83 59 49 60 86 61 80 62 79 63 50 65
REMARK SMILES IDX 72 66 57 67 71 68 58 69 61 70 70 71 84 72 59 73 60 74 69 76
REMARK SMILES IDX 85 77 62 78 51 79 52 80 56 81 53 82 55 83 54 84 73 85 74 86
REMARK SMILES IDX 78 87 75 88 77 89 76 90 63 91 64 92 68 93 65 94 67 95 66 96
REMARK H PARENT 16 12 21 36 83 64 61 75
REMARK Flexibility Score: inf
ROOT
ATOM      1  C   UNL     1       0.250  -7.206   3.910  1.00  0.00     0.188 C 
ENDROOT
BRANCH   1   2
ATOM      2  O   UNL     1       0.904  -8.066   4.842  1.00  0.00    -0.376 OA
BRANCH   2   3
ATOM      3  C   UNL     1       0.054  -8.895   5.643  1.00  0.00     0.202 C 
BRANCH   3   4
ATOM      4  C   UNL     1      -0.883  -8.136   6.592  1.00  0.00     0.261 C 
BRANCH   4   5
ATOM      5  O   UNL     1      -1.848  -7.340   5.874  1.00  0.00    -0.462 OA
BRANCH   5   6
ATOM      6  C   UNL     1      -2.048  -6.096   6.368  1.00  0.00     0.329 C 
ATOM      7  O   UNL     1      -1.637  -5.714   7.461  1.00  0.00    -0.250 OA
BRANCH   6   8
ATOM      8  C   UNL     1      -2.729  -5.143   5.375  1.00  0.00     0.196 C 
BRANCH   8   9
ATOM      9  N   UNL     1      -3.119  -5.511   4.012  1.00  0.00    -0.342 N 
ATOM     10  C   UNL     1      -3.420  -4.592   3.025  1.00  0.00     0.221 C 
ATOM     11  O   UNL     1      -4.423  -4.741   2.331  1.00  0.00    -0.275 OA
ATOM     12  H   UNL     1      -3.171  -6.468   3.786  1.00  0.00     0.164 HD
BRANCH  10  13
ATOM     13  C   UNL     1      -2.400  -3.505   2.688  1.00  0.00     0.116 C 
BRANCH  13  14
ATOM     14  C   UNL     1      -2.631  -2.055   3.178  1.00  0.00     0.116 C 
ATOM     15  C   UNL     1       0.925  -1.109   2.216  1.00  0.00     0.126 A 
ATOM     16  C   UNL     1       2.162  -1.643   2.624  1.00  0.00     0.050 A 
ATOM     17  C   UNL     1      -0.235  -1.386   2.951  1.00  0.00     0.041 A 
ATOM     18  C   UNL     1       2.261  -2.432   3.783  1.00  0.00    -0.044 A 
ATOM     19  C   UNL     1      -0.077  -2.081   4.159  1.00  0.00     0.138 A 
ATOM     20  C   UNL     1      -1.657  -0.999   2.564  1.00  0.00     0.038 C 
ATOM     21  C   UNL     1       3.556  -3.024   4.245  1.00  0.00     0.044 C 
ATOM     22  C   UNL     1       1.126  -2.647   4.555  1.00  0.00     0.051 A 
ATOM     23  O   UNL     1      -1.132  -2.201   5.080  1.00  0.00    -0.426 OA
ATOM     24  C   UNL     1      -1.950  -0.810   1.072  1.00  0.00     0.014 C 
ATOM     25  C   UNL     1      -2.411  -1.895   4.656  1.00  0.00     0.315 C 
ATOM     26  O   UNL     1      -3.286  -1.553   5.442  1.00  0.00    -0.251 OA
BRANCH  15  27
ATOM     27  O   UNL     1       0.822  -0.187   1.212  1.00  0.00    -0.496 OA
ATOM     28  C   UNL     1       1.549  -0.465   0.021  1.00  0.00     0.278 C 
ENDBRANCH  15  27
ENDBRANCH  13  14
ENDBRANCH  10  13
ENDBRANCH   8   9
BRANCH   8  29
ATOM     29  C   UNL     1      -3.885  -4.459   6.089  1.00  0.00     0.074 C 
BRANCH  29  30
ATOM     30  C   UNL     1      -5.089  -5.218   6.559  1.00  0.00    -0.020 A 
ATOM     31  C   UNL     1      -5.487  -5.192   7.885  1.00  0.00     0.087 A 
ATOM     32  C   UNL     1      -6.208  -5.753   5.830  1.00  0.00     0.003 A 
ATOM     33  N   UNL     1      -6.844  -5.029   7.835  1.00  0.00    -0.361 N 
ATOM     34  C   UNL     1      -7.320  -5.521   6.646  1.00  0.00     0.046 A 
ATOM     35  C   UNL     1      -6.452  -6.290   4.548  1.00  0.00     0.010 A 
ATOM     36  H   UNL     1      -7.394  -4.622   8.542  1.00  0.00     0.166 HD
ATOM     37  C   UNL     1      -8.641  -5.721   6.230  1.00  0.00     0.026 A 
ATOM     38  C   UNL     1      -7.763  -6.604   4.157  1.00  0.00     0.001 A 
ATOM     39  C   UNL     1      -8.842  -6.300   4.978  1.00  0.00     0.002 A 
ENDBRANCH  29  30
ENDBRANCH   8  29
ENDBRANCH   6   8
ENDBRANCH   5   6
ENDBRANCH   4   5
ENDBRANCH   3   4
ENDBRANCH   2   3
ENDBRANCH   1   2
BRANCH   1  40
ATOM     40  C   UNL     1      -0.661  -7.911   2.900  1.00  0.00     0.188 C 
BRANCH  40  41
ATOM     41  O   UNL     1      -1.731  -8.627   3.498  1.00  0.00    -0.376 OA
BRANCH  41  42
ATOM     42  C   UNL     1      -2.670  -9.294   2.658  1.00  0.00     0.202 C 
BRANCH  42  43
ATOM     43  C   UNL     1      -2.171 -10.008   1.390  1.00  0.00     0.261 C 
BRANCH  43  44
ATOM     44  O   UNL     1      -1.365  -9.215   0.502  1.00  0.00    -0.460 OA
BRANCH  44  45
ATOM     45  C   UNL     1      -1.892  -8.073   0.004  1.00  0.00     0.338 C 
ATOM     46  O   UNL     1      -3.058  -7.722   0.072  1.00  0.00    -0.246 OA
BRANCH  45  47
ATOM     47  C   UNL     1      -0.752  -7.197  -0.390  1.00  0.00     0.060 A 
ATOM     48  C   UNL     1       0.442  -7.734  -0.885  1.00  0.00     0.016 A 
ATOM     49  C   UNL     1      -0.838  -5.823  -0.128  1.00  0.00     0.016 A 
ATOM     50  C   UNL     1       1.538  -6.900  -1.125  1.00  0.00     0.010 A 
ATOM     51  C   UNL     1       0.266  -4.990  -0.351  1.00  0.00     0.010 A 
ATOM     52  C   UNL     1       1.458  -5.521  -0.867  1.00  0.00    -0.014 A 
BRANCH  52  53
ATOM     53  C   UNL     1       2.554  -4.625  -1.314  1.00  0.00     0.031 A 
ATOM     54  C   UNL     1       3.678  -4.205  -0.419  1.00  0.00     0.074 A 
ATOM     55  C   UNL     1       2.556  -4.232  -2.601  1.00  0.00     0.049 A 
ATOM     56  N   UNL     1       4.653  -3.363  -0.663  1.00  0.00    -0.248 NA
ATOM     57  C   UNL     1       3.726  -4.815   0.912  1.00  0.00     0.031 C 
ATOM     58  C   UNL     1       1.571  -4.646  -3.599  1.00  0.00     0.029 A 
ATOM     59  N   UNL     1       3.439  -3.448  -3.297  1.00  0.00    -0.354 N 
ATOM     60  C   UNL     1       5.388  -3.277   0.512  1.00  0.00     0.074 A 
ATOM     61  C   UNL     1       4.798  -4.226   1.429  1.00  0.00     0.031 C 
ATOM     62  C   UNL     1       1.942  -4.168  -4.795  1.00  0.00     0.029 A 
ATOM     63  C   UNL     1       3.160  -3.374  -4.638  1.00  0.00     0.049 A 
ATOM     64  H   UNL     1       4.199  -2.983  -2.876  1.00  0.00     0.167 HD
ATOM     65  C   UNL     1       6.426  -2.451   0.800  1.00  0.00     0.031 A 
ATOM     66  C   UNL     1       3.817  -2.758  -5.639  1.00  0.00     0.031 A 
ATOM     67  C   UNL     1       7.091  -1.620  -0.174  1.00  0.00     0.049 A 
ATOM     68  C   UNL     1       5.075  -1.994  -5.347  1.00  0.00     0.074 A 
ATOM     69  C   UNL     1       8.166  -0.765   0.014  1.00  0.00     0.029 A 
ATOM     70  N   UNL     1       6.794  -1.593  -1.526  1.00  0.00    -0.354 N 
ATOM     71  N   UNL     1       5.668  -1.800  -4.194  1.00  0.00    -0.248 NA
ATOM     72  C   UNL     1       5.763  -1.374  -6.489  1.00  0.00     0.031 C 
ATOM     73  C   UNL     1       8.506  -0.207  -1.220  1.00  0.00     0.029 A 
ATOM     74  C   UNL     1       7.683  -0.762  -2.185  1.00  0.00     0.049 A 
ATOM     75  H   UNL     1       6.060  -2.090  -1.954  1.00  0.00     0.167 HD
ATOM     76  C   UNL     1       6.803  -1.049  -4.474  1.00  0.00     0.074 A 
ATOM     77  C   UNL     1       6.830  -0.841  -5.906  1.00  0.00     0.031 C 
ATOM     78  C   UNL     1       7.729  -0.571  -3.610  1.00  0.00     0.031 A 
BRANCH  65  79
ATOM     79  C   UNL     1       6.886  -2.325   2.231  1.00  0.00    -0.014 A 
ATOM     80  C   UNL     1       6.719  -1.087   2.885  1.00  0.00     0.009 A 
ATOM     81  C   UNL     1       7.559  -3.351   2.905  1.00  0.00     0.009 A 
ATOM     82  C   UNL     1       7.219  -0.879   4.171  1.00  0.00     0.001 A 
ATOM     83  C   UNL     1       8.026  -3.152   4.210  1.00  0.00     0.001 A 
ATOM     84  C   UNL     1       7.864  -1.916   4.837  1.00  0.00     0.000 A 
ENDBRANCH  65  79
BRANCH  66  85
ATOM     85  C   UNL     1       3.312  -2.920  -7.025  1.00  0.00    -0.014 A 
ATOM     86  C   UNL     1       2.105  -2.325  -7.424  1.00  0.00     0.009 A 
ATOM     87  C   UNL     1       3.992  -3.754  -7.924  1.00  0.00     0.009 A 
ATOM     88  C   UNL     1       1.572  -2.589  -8.686  1.00  0.00     0.001 A 
ATOM     89  C   UNL     1       3.472  -3.991  -9.197  1.00  0.00     0.001 A 
ATOM     90  C   UNL     1       2.257  -3.419  -9.572  1.00  0.00     0.000 A 
ENDBRANCH  66  85
BRANCH  78  91
ATOM     91  C   UNL     1       8.889   0.213  -4.157  1.00  0.00    -0.014 A 
ATOM     92  C   UNL     1      10.184  -0.327  -4.087  1.00  0.00     0.009 A 
ATOM     93  C   UNL     1       8.726   1.532  -4.605  1.00  0.00     0.009 A 
ATOM     94  C   UNL     1      11.294   0.442  -4.440  1.00  0.00     0.001 A 
ATOM     95  C   UNL     1       9.838   2.292  -4.979  1.00  0.00     0.001 A 
ATOM     96  C   UNL     1      11.120   1.751  -4.886  1.00  0.00     0.000 A 
ENDBRANCH  78  91
ENDBRANCH  52  53
ENDBRANCH  45  47
ENDBRANCH  44  45
ENDBRANCH  43  44
ENDBRANCH  42  43
ENDBRANCH  41  42
ENDBRANCH  40  41
ENDBRANCH   1  40
TORSDOF 23
