REMARK SMILES [NH3+][C@H](Cn1nnc2ccccc21)C(=O)OCCOCCOCCOC(=O)c1ccc(-c2c3nc(c(-c4ccccc4)c4ccc([nH]4)c(-c4ccccc4)c4nc(c(-c5ccccc5)c5ccc2[nH]5)C=C4)C=C3)cc1
REMARK SMILES IDX 19 1 18 2 17 3 16 4 15 5 13 6 14 7 2 8 1 9 3 13 4 14 5 15
REMARK SMILES IDX 12 16 6 17 7 18 11 19 8 20 10 21 9 22 20 23 21 24 22 25
REMARK SMILES IDX 23 26 24 27 25 28 26 29 27 30 28 31 74 32 29 33 73 34 30 35
REMARK SMILES IDX 31 36 32 37 67 38 33 39 72 40 66 41 68 42 34 43 71 44 65 45
REMARK SMILES IDX 64 46 35 48 57 49 42 50 56 51 43 52 46 53 55 54 69 55 44 56
REMARK SMILES IDX 45 57 54 59 70 60 47 61 36 62 37 63 41 64 38 65 40 66 39 67
REMARK SMILES IDX 58 68 59 69 63 70 60 71 62 72 61 73 48 74 49 75 53 76 50 77
REMARK SMILES IDX 52 78 51 79
REMARK H PARENT 1 10 1 11 1 12 68 47 46 58
REMARK Flexibility Score: inf
ROOT
ATOM      1  C   UNL     1      -2.948  -1.093   0.753  1.00  0.00     0.188 C 
ENDROOT
BRANCH   1   2
ATOM      2  O   UNL     1      -4.217  -0.469   0.826  1.00  0.00    -0.376 OA
BRANCH   2   3
ATOM      3  C   UNL     1      -4.319   0.903   0.455  1.00  0.00     0.202 C 
BRANCH   3   4
ATOM      4  C   UNL     1      -3.424   1.880   1.223  1.00  0.00     0.261 C 
BRANCH   4   5
ATOM      5  O   UNL     1      -2.121   2.014   0.607  1.00  0.00    -0.459 OA
BRANCH   5   6
ATOM      6  C   UNL     1      -1.055   1.875   1.428  1.00  0.00     0.366 C 
ATOM      7  O   UNL     1      -1.165   1.643   2.631  1.00  0.00    -0.245 OA
BRANCH   6   8
ATOM      8  C   UNL     1       0.329   2.035   0.756  1.00  0.00     0.313 C 
BRANCH   8   9
ATOM      9  N   UNL     1       0.909   3.360   1.049  1.00  0.00    -0.344 N 
ATOM     10  H   UNL     1       0.586   3.677   1.963  1.00  0.00     0.345 HD
ATOM     11  H   UNL     1       0.615   4.025   0.334  1.00  0.00     0.345 HD
ATOM     12  H   UNL     1       1.927   3.292   1.053  1.00  0.00     0.345 HD
ENDBRANCH   8   9
BRANCH   8  13
ATOM     13  C   UNL     1       0.716   1.414  -0.584  1.00  0.00     0.224 C 
BRANCH  13  14
ATOM     14  N   UNL     1       0.136   1.932  -1.782  1.00  0.00    -0.238 N 
ATOM     15  N   UNL     1      -0.709   2.971  -1.765  1.00  0.00    -0.066 NA
ATOM     16  C   UNL     1       0.349   1.455  -3.048  1.00  0.00     0.089 A 
ATOM     17  N   UNL     1      -1.187   3.107  -2.994  1.00  0.00    -0.130 NA
ATOM     18  C   UNL     1      -0.559   2.191  -3.796  1.00  0.00     0.113 A 
ATOM     19  C   UNL     1       1.190   0.479  -3.596  1.00  0.00     0.030 A 
ATOM     20  C   UNL     1      -0.694   1.927  -5.163  1.00  0.00     0.032 A 
ATOM     21  C   UNL     1       1.065   0.251  -4.971  1.00  0.00     0.002 A 
ATOM     22  C   UNL     1       0.131   0.951  -5.739  1.00  0.00     0.002 A 
ENDBRANCH  13  14
ENDBRANCH   8  13
ENDBRANCH   6   8
ENDBRANCH   5   6
ENDBRANCH   4   5
ENDBRANCH   3   4
ENDBRANCH   2   3
ENDBRANCH   1   2
BRANCH   1  23
ATOM     23  C   UNL     1      -2.064  -0.798  -0.464  1.00  0.00     0.188 C 
BRANCH  23  24
ATOM     24  O   UNL     1      -2.599  -0.644  -1.762  1.00  0.00    -0.376 OA
BRANCH  24  25
ATOM     25  C   UNL     1      -3.588  -1.570  -2.176  1.00  0.00     0.202 C 
BRANCH  25  26
ATOM     26  C   UNL     1      -3.133  -3.030  -2.328  1.00  0.00     0.261 C 
BRANCH  26  27
ATOM     27  O   UNL     1      -2.472  -3.512  -1.144  1.00  0.00    -0.460 OA
BRANCH  27  28
ATOM     28  C   UNL     1      -1.258  -4.104  -1.345  1.00  0.00     0.338 C 
ATOM     29  O   UNL     1      -0.844  -4.593  -2.364  1.00  0.00    -0.246 OA
BRANCH  28  30
ATOM     30  C   UNL     1      -0.392  -3.712  -0.196  1.00  0.00     0.060 A 
ATOM     31  C   UNL     1      -0.826  -3.774   1.132  1.00  0.00     0.016 A 
ATOM     32  C   UNL     1       0.794  -3.034  -0.516  1.00  0.00     0.016 A 
ATOM     33  C   UNL     1      -0.087  -3.129   2.135  1.00  0.00     0.010 A 
ATOM     34  C   UNL     1       1.512  -2.368   0.482  1.00  0.00     0.010 A 
ATOM     35  C   UNL     1       1.078  -2.410   1.817  1.00  0.00    -0.014 A 
BRANCH  35  36
ATOM     36  C   UNL     1       2.054  -2.068   2.868  1.00  0.00     0.031 A 
ATOM     37  C   UNL     1       2.625  -3.239   3.534  1.00  0.00     0.074 A 
ATOM     38  C   UNL     1       2.521  -0.878   3.297  1.00  0.00     0.049 A 
ATOM     39  N   UNL     1       2.390  -3.510   4.773  1.00  0.00    -0.248 NA
ATOM     40  C   UNL     1       3.378  -4.251   2.799  1.00  0.00     0.031 C 
ATOM     41  C   UNL     1       1.908   0.407   3.105  1.00  0.00     0.029 A 
ATOM     42  N   UNL     1       3.655  -0.550   4.003  1.00  0.00    -0.354 N 
ATOM     43  C   UNL     1       3.152  -4.618   5.053  1.00  0.00     0.074 A 
ATOM     44  C   UNL     1       3.618  -5.123   3.781  1.00  0.00     0.031 C 
ATOM     45  C   UNL     1       2.773   1.406   3.381  1.00  0.00     0.029 A 
ATOM     46  C   UNL     1       3.979   0.803   3.937  1.00  0.00     0.049 A 
ATOM     47  H   UNL     1       4.186  -1.208   4.506  1.00  0.00     0.167 HD
ATOM     48  C   UNL     1       3.550  -4.855   6.326  1.00  0.00     0.031 A 
ATOM     49  C   UNL     1       4.834   1.539   4.686  1.00  0.00     0.031 A 
ATOM     50  C   UNL     1       2.790  -4.107   7.301  1.00  0.00     0.049 A 
ATOM     51  C   UNL     1       4.846   0.971   6.040  1.00  0.00     0.074 A 
ATOM     52  C   UNL     1       1.469  -4.066   7.696  1.00  0.00     0.029 A 
ATOM     53  N   UNL     1       3.386  -2.975   7.800  1.00  0.00    -0.354 N 
ATOM     54  N   UNL     1       3.867   1.126   6.882  1.00  0.00    -0.248 NA
ATOM     55  C   UNL     1       5.827  -0.043   6.394  1.00  0.00     0.031 C 
ATOM     56  C   UNL     1       1.242  -2.750   8.193  1.00  0.00     0.029 A 
ATOM     57  C   UNL     1       2.432  -2.030   8.091  1.00  0.00     0.049 A 
ATOM     58  H   UNL     1       4.355  -2.857   7.931  1.00  0.00     0.167 HD
ATOM     59  C   UNL     1       3.852  -0.056   7.597  1.00  0.00     0.074 A 
ATOM     60  C   UNL     1       5.170  -0.639   7.391  1.00  0.00     0.031 C 
ATOM     61  C   UNL     1       2.676  -0.600   8.023  1.00  0.00     0.031 A 
BRANCH  48  62
ATOM     62  C   UNL     1       4.897  -5.439   6.631  1.00  0.00    -0.014 A 
ATOM     63  C   UNL     1       5.971  -5.390   5.719  1.00  0.00     0.009 A 
ATOM     64  C   UNL     1       5.191  -5.818   7.948  1.00  0.00     0.009 A 
ATOM     65  C   UNL     1       7.270  -5.735   6.089  1.00  0.00     0.001 A 
ATOM     66  C   UNL     1       6.501  -6.121   8.334  1.00  0.00     0.001 A 
ATOM     67  C   UNL     1       7.537  -6.085   7.404  1.00  0.00     0.000 A 
ENDBRANCH  48  62
BRANCH  49  68
ATOM     68  C   UNL     1       5.896   2.426   4.159  1.00  0.00    -0.014 A 
ATOM     69  C   UNL     1       6.291   2.378   2.810  1.00  0.00     0.009 A 
ATOM     70  C   UNL     1       6.654   3.224   5.033  1.00  0.00     0.009 A 
ATOM     71  C   UNL     1       7.433   3.056   2.364  1.00  0.00     0.001 A 
ATOM     72  C   UNL     1       7.796   3.902   4.587  1.00  0.00     0.001 A 
ATOM     73  C   UNL     1       8.194   3.805   3.256  1.00  0.00     0.000 A 
ENDBRANCH  49  68
BRANCH  61  74
ATOM     74  C   UNL     1       1.486   0.319   8.169  1.00  0.00    -0.014 A 
ATOM     75  C   UNL     1       0.838   0.373   9.414  1.00  0.00     0.009 A 
ATOM     76  C   UNL     1       0.930   1.045   7.103  1.00  0.00     0.009 A 
ATOM     77  C   UNL     1      -0.328   1.123   9.588  1.00  0.00     0.001 A 
ATOM     78  C   UNL     1      -0.224   1.817   7.282  1.00  0.00     0.001 A 
ATOM     79  C   UNL     1      -0.857   1.849   8.523  1.00  0.00     0.000 A 
ENDBRANCH  61  74
ENDBRANCH  35  36
ENDBRANCH  28  30
ENDBRANCH  27  28
ENDBRANCH  26  27
ENDBRANCH  25  26
ENDBRANCH  24  25
ENDBRANCH  23  24
ENDBRANCH   1  23
TORSDOF 20
