REMARK SMILES CCCC(=O)N(c1cc2sc(=O)oc2c2ccccc12)S(=O)(=O)c1ccc(C(=O)OCCOCCOCCOC(=O)c2ccc(-c3c4nc(c(-c5ccccc5)c5ccc([nH]5)c(-c5ccccc5)c5nc(c(-c6ccccc6)c6ccc3[nH]6)C=C5)C=C4)cc2)cc1
REMARK SMILES IDX 33 1 32 2 31 3 30 4 28 5 29 6 27 7 24 8 25 9 91 10 26 11
REMARK SMILES IDX 90 12 21 13 22 14 23 15 6 16 4 17 5 18 3 19 2 20 1 21 7 22
REMARK SMILES IDX 8 23 20 24 9 25 15 26 19 27 10 28 14 29 16 30 18 31 11 32
REMARK SMILES IDX 13 33 17 34 12 35 34 36 35 37 36 38 37 39 38 40 39 41 40 42
REMARK SMILES IDX 41 43 42 44 43 45 89 46 44 47 88 48 45 49 46 50 47 51 82 52
REMARK SMILES IDX 48 53 87 54 81 55 83 56 49 57 86 58 80 59 79 60 50 62 72 63
REMARK SMILES IDX 57 64 71 65 58 66 61 67 70 68 84 69 59 70 60 71 69 73 85 74
REMARK SMILES IDX 62 75 51 76 52 77 56 78 53 79 55 80 54 81 73 82 74 83 78 84
REMARK SMILES IDX 75 85 77 86 76 87 63 88 64 89 68 90 65 91 67 92 66 93
REMARK H PARENT 83 61 61 72
REMARK Flexibility Score: inf
ROOT
ATOM      1  O   UNL     1       3.684   2.658   8.543  1.00  0.00    -0.376 OA
ENDROOT
BRANCH   1   2
ATOM      2  C   UNL     1       3.643   1.898   9.740  1.00  0.00     0.202 C 
BRANCH   2   3
ATOM      3  C   UNL     1       2.635   0.763   9.987  1.00  0.00     0.261 C 
BRANCH   3   4
ATOM      4  O   UNL     1       2.373  -0.092   8.864  1.00  0.00    -0.460 OA
BRANCH   4   5
ATOM      5  C   UNL     1       1.075  -0.108   8.456  1.00  0.00     0.338 C 
ATOM      6  O   UNL     1       0.134   0.451   8.995  1.00  0.00    -0.246 OA
BRANCH   5   7
ATOM      7  C   UNL     1       0.961  -0.731   7.115  1.00  0.00     0.060 A 
ATOM      8  C   UNL     1       0.554  -1.896   4.606  1.00  0.00     0.088 A 
ATOM      9  C   UNL     1      -0.080  -0.690   4.913  1.00  0.00     0.023 A 
ATOM     10  C   UNL     1       1.421  -2.500   5.536  1.00  0.00     0.023 A 
ATOM     11  C   UNL     1       0.129  -0.108   6.167  1.00  0.00     0.017 A 
ATOM     12  C   UNL     1       1.630  -1.913   6.789  1.00  0.00     0.017 A 
BRANCH   8  13
ATOM     13  S   UNL     1       0.043  -2.825   3.161  1.00  0.00     0.270 S 
ATOM     14  O   UNL     1      -1.404  -2.845   3.226  1.00  0.00    -0.201 OA
ATOM     15  O   UNL     1       0.814  -4.054   3.187  1.00  0.00    -0.201 OA
BRANCH  13  16
ATOM     16  N   UNL     1       0.514  -1.992   1.766  1.00  0.00    -0.202 N 
BRANCH  16  17
ATOM     17  C   UNL     1       0.286  -2.652   0.509  1.00  0.00     0.241 C 
ATOM     18  O   UNL     1      -0.723  -3.329   0.325  1.00  0.00    -0.273 OA
BRANCH  17  19
ATOM     19  C   UNL     1       1.325  -2.575  -0.604  1.00  0.00     0.101 C 
BRANCH  19  20
ATOM     20  C   UNL     1       1.047  -1.498  -1.651  1.00  0.00     0.006 C 
ATOM     21  C   UNL     1       2.244  -0.581  -1.864  1.00  0.00     0.004 C 
ENDBRANCH  19  20
ENDBRANCH  17  19
ENDBRANCH  16  17
BRANCH  16  22
ATOM     22  C   UNL     1       1.413  -0.876   1.824  1.00  0.00     0.070 A 
ATOM     23  C   UNL     1       2.722  -1.058   2.288  1.00  0.00     0.051 A 
ATOM     24  C   UNL     1       0.998   0.372   1.250  1.00  0.00     0.010 A 
ATOM     25  C   UNL     1       3.616  -0.006   2.177  1.00  0.00     0.080 A 
ATOM     26  C   UNL     1       1.942   1.423   1.121  1.00  0.00     0.028 A 
ATOM     27  C   UNL     1      -0.297   0.591   0.724  1.00  0.00     0.011 A 
ATOM     28  S   UNL     1       5.334  -0.024   2.531  1.00  0.00    -0.052 S 
ATOM     29  C   UNL     1       3.240   1.202   1.598  1.00  0.00     0.157 A 
ATOM     30  C   UNL     1       1.587   2.609   0.444  1.00  0.00     0.013 A 
ATOM     31  C   UNL     1      -0.609   1.744  -0.000  1.00  0.00     0.001 A 
ATOM     32  C   UNL     1       5.471   1.540   1.710  1.00  0.00     0.396 A 
ATOM     33  O   UNL     1       4.256   2.145   1.394  1.00  0.00    -0.413 OA
ATOM     34  C   UNL     1       0.330   2.755  -0.137  1.00  0.00     0.001 A 
ATOM     35  O   UNL     1       6.549   2.004   1.365  1.00  0.00    -0.233 OA
ENDBRANCH  16  22
ENDBRANCH  13  16
ENDBRANCH   8  13
ENDBRANCH   5   7
ENDBRANCH   4   5
ENDBRANCH   3   4
ENDBRANCH   2   3
ENDBRANCH   1   2
BRANCH   1  36
ATOM     36  C   UNL     1       3.228   2.099   7.335  1.00  0.00     0.188 C 
BRANCH  36  37
ATOM     37  C   UNL     1       4.109   1.103   6.554  1.00  0.00     0.188 C 
BRANCH  37  38
ATOM     38  O   UNL     1       5.239   0.525   7.180  1.00  0.00    -0.376 OA
BRANCH  38  39
ATOM     39  C   UNL     1       6.306   1.389   7.567  1.00  0.00     0.202 C 
BRANCH  39  40
ATOM     40  C   UNL     1       6.839   2.419   6.563  1.00  0.00     0.261 C 
BRANCH  40  41
ATOM     41  O   UNL     1       5.892   3.471   6.304  1.00  0.00    -0.460 OA
BRANCH  41  42
ATOM     42  C   UNL     1       5.606   3.714   5.002  1.00  0.00     0.338 C 
ATOM     43  O   UNL     1       6.071   3.160   4.021  1.00  0.00    -0.246 OA
BRANCH  42  44
ATOM     44  C   UNL     1       4.427   4.585   4.947  1.00  0.00     0.060 A 
ATOM     45  C   UNL     1       4.481   5.886   5.437  1.00  0.00     0.016 A 
ATOM     46  C   UNL     1       3.220   4.030   4.507  1.00  0.00     0.016 A 
ATOM     47  C   UNL     1       3.297   6.610   5.548  1.00  0.00     0.010 A 
ATOM     48  C   UNL     1       2.033   4.732   4.686  1.00  0.00     0.010 A 
ATOM     49  C   UNL     1       2.057   6.025   5.221  1.00  0.00    -0.014 A 
BRANCH  49  50
ATOM     50  C   UNL     1       0.827   6.833   5.367  1.00  0.00     0.031 A 
ATOM     51  C   UNL     1      -0.351   6.450   4.517  1.00  0.00     0.074 A 
ATOM     52  C   UNL     1       0.566   7.470   6.527  1.00  0.00     0.049 A 
ATOM     53  N   UNL     1      -1.254   5.569   4.848  1.00  0.00    -0.248 NA
ATOM     54  C   UNL     1      -0.421   6.867   3.115  1.00  0.00     0.031 C 
ATOM     55  C   UNL     1       0.769   6.878   7.856  1.00  0.00     0.029 A 
ATOM     56  N   UNL     1      -0.115   8.637   6.771  1.00  0.00    -0.354 N 
ATOM     57  C   UNL     1      -2.008   5.308   3.711  1.00  0.00     0.074 A 
ATOM     58  C   UNL     1      -1.446   6.131   2.662  1.00  0.00     0.031 C 
ATOM     59  C   UNL     1       0.080   7.604   8.759  1.00  0.00     0.029 A 
ATOM     60  C   UNL     1      -0.490   8.779   8.104  1.00  0.00     0.049 A 
ATOM     61  H   UNL     1      -0.316   9.304   6.075  1.00  0.00     0.167 HD
ATOM     62  C   UNL     1      -3.058   4.442   3.668  1.00  0.00     0.031 A 
ATOM     63  C   UNL     1      -1.590   9.466   8.518  1.00  0.00     0.031 A 
ATOM     64  C   UNL     1      -3.397   3.796   4.896  1.00  0.00     0.049 A 
ATOM     65  C   UNL     1      -2.672   8.469   8.176  1.00  0.00     0.074 A 
ATOM     66  C   UNL     1      -3.216   2.572   5.504  1.00  0.00     0.029 A 
ATOM     67  N   UNL     1      -4.137   4.510   5.805  1.00  0.00    -0.354 N 
ATOM     68  N   UNL     1      -2.991   7.400   8.853  1.00  0.00    -0.248 NA
ATOM     69  C   UNL     1      -3.167   8.489   6.797  1.00  0.00     0.031 C 
ATOM     70  C   UNL     1      -3.426   2.808   6.901  1.00  0.00     0.029 A 
ATOM     71  C   UNL     1      -3.683   4.170   7.050  1.00  0.00     0.049 A 
ATOM     72  H   UNL     1      -4.859   5.146   5.599  1.00  0.00     0.167 HD
ATOM     73  C   UNL     1      -3.454   6.484   7.905  1.00  0.00     0.074 A 
ATOM     74  C   UNL     1      -3.552   7.228   6.663  1.00  0.00     0.031 C 
ATOM     75  C   UNL     1      -3.546   5.137   8.120  1.00  0.00     0.031 A 
BRANCH  62  76
ATOM     76  C   UNL     1      -3.946   4.276   2.495  1.00  0.00    -0.014 A 
ATOM     77  C   UNL     1      -3.637   3.402   1.450  1.00  0.00     0.009 A 
ATOM     78  C   UNL     1      -5.211   4.882   2.522  1.00  0.00     0.009 A 
ATOM     79  C   UNL     1      -4.584   3.129   0.456  1.00  0.00     0.001 A 
ATOM     80  C   UNL     1      -6.160   4.600   1.540  1.00  0.00     0.001 A 
ATOM     81  C   UNL     1      -5.847   3.720   0.508  1.00  0.00     0.000 A 
ENDBRANCH  62  76
BRANCH  63  82
ATOM     82  C   UNL     1      -1.645  10.904   8.091  1.00  0.00    -0.014 A 
ATOM     83  C   UNL     1      -2.741  11.516   7.466  1.00  0.00     0.009 A 
ATOM     84  C   UNL     1      -0.508  11.707   8.321  1.00  0.00     0.009 A 
ATOM     85  C   UNL     1      -2.648  12.816   6.951  1.00  0.00     0.001 A 
ATOM     86  C   UNL     1      -0.422  13.015   7.835  1.00  0.00     0.001 A 
ATOM     87  C   UNL     1      -1.482  13.557   7.119  1.00  0.00     0.000 A 
ENDBRANCH  63  82
BRANCH  75  88
ATOM     88  C   UNL     1      -3.251   4.649   9.504  1.00  0.00    -0.014 A 
ATOM     89  C   UNL     1      -2.184   3.764   9.736  1.00  0.00     0.009 A 
ATOM     90  C   UNL     1      -4.080   4.997  10.578  1.00  0.00     0.009 A 
ATOM     91  C   UNL     1      -1.992   3.188  10.993  1.00  0.00     0.001 A 
ATOM     92  C   UNL     1      -3.870   4.443  11.842  1.00  0.00     0.001 A 
ATOM     93  C   UNL     1      -2.840   3.526  12.044  1.00  0.00     0.000 A 
ENDBRANCH  75  88
ENDBRANCH  49  50
ENDBRANCH  42  44
ENDBRANCH  41  42
ENDBRANCH  40  41
ENDBRANCH  39  40
ENDBRANCH  38  39
ENDBRANCH  37  38
ENDBRANCH  36  37
ENDBRANCH   1  36
TORSDOF 23
