REMARK SMILES C[C@@H]1CC[C@@H](C(=O)OCCOCCOCCOC(=O)c2ccc(-c3c4nc(c(-c5ccccc5)c5ccc([nH]5)c(-c5ccccc5)c5nc(c(-c6ccccc6)c6ccc3[nH]6)C=C5)C=C4)cc2)[C@H](SCC[NH+](C)C)C1
REMARK SMILES IDX 12 1 11 2 10 3 9 4 8 5 6 6 7 7 5 8 1 9 2 10 3 11 75 12 4 13
REMARK SMILES IDX 68 14 69 15 70 16 71 17 72 18 73 19 74 20 13 22 14 23 15 24
REMARK SMILES IDX 16 25 17 26 18 27 19 28 20 29 21 30 67 31 22 32 66 33 23 34
REMARK SMILES IDX 24 35 25 36 60 37 26 38 65 39 59 40 61 41 27 42 64 43 58 44
REMARK SMILES IDX 57 45 28 47 50 48 35 49 49 50 36 51 39 52 48 53 62 54 37 55
REMARK SMILES IDX 38 56 47 58 63 59 40 60 29 61 30 62 34 63 31 64 33 65 32 66
REMARK SMILES IDX 51 67 52 68 56 69 53 70 55 71 54 72 41 73 42 74 46 75 43 76
REMARK SMILES IDX 45 77 44 78
REMARK H PARENT 72 21 61 46 39 57
REMARK Flexibility Score: inf
ROOT
ATOM      1  C   UNL     1      -0.747   1.069  -3.895  1.00  0.00     0.188 C 
ENDROOT
BRANCH   1   2
ATOM      2  O   UNL     1      -1.436   0.755  -5.083  1.00  0.00    -0.376 OA
BRANCH   2   3
ATOM      3  C   UNL     1      -2.806   0.386  -4.885  1.00  0.00     0.202 C 
BRANCH   3   4
ATOM      4  C   UNL     1      -3.147  -0.722  -3.838  1.00  0.00     0.261 C 
BRANCH   4   5
ATOM      5  O   UNL     1      -2.936  -0.343  -2.443  1.00  0.00    -0.463 OA
BRANCH   5   6
ATOM      6  C   UNL     1      -2.626  -1.347  -1.542  1.00  0.00     0.310 C 
ATOM      7  O   UNL     1      -2.742  -2.536  -1.805  1.00  0.00    -0.252 OA
BRANCH   6   8
ATOM      8  C   UNL     1      -2.067  -0.782  -0.181  1.00  0.00     0.112 C 
ATOM      9  C   UNL     1       2.138  -1.832   0.206  1.00  0.00     0.007 C 
ATOM     10  C   UNL     1       0.785  -1.766  -0.522  1.00  0.00    -0.013 C 
ATOM     11  C   UNL     1       0.365  -0.363  -0.987  1.00  0.00     0.004 C 
ATOM     12  C   UNL     1      -0.290  -2.606   0.169  1.00  0.00     0.018 C 
ATOM     13  C   UNL     1      -1.000   0.214  -0.568  1.00  0.00     0.017 C 
ATOM     14  C   UNL     1      -1.495  -1.862   0.788  1.00  0.00     0.061 C 
BRANCH  14  15
ATOM     15  S   UNL     1      -1.224  -1.852   2.717  1.00  0.00    -0.152 SA
BRANCH  15  16
ATOM     16  C   UNL     1      -0.984  -0.203   3.587  1.00  0.00     0.131 C 
BRANCH  16  17
ATOM     17  C   UNL     1       0.476   0.273   4.035  1.00  0.00     0.272 C 
BRANCH  17  18
ATOM     18  N   UNL     1       1.220   1.164   3.116  1.00  0.00    -0.339 N 
ATOM     19  C   UNL     1       2.676   1.069   3.182  1.00  0.00     0.332 C 
ATOM     20  C   UNL     1       0.795   0.880   1.787  1.00  0.00     0.332 C 
ATOM     21  H   UNL     1       1.004   2.117   3.411  1.00  0.00     0.347 HD
ENDBRANCH  17  18
ENDBRANCH  16  17
ENDBRANCH  15  16
ENDBRANCH  14  15
ENDBRANCH   6   8
ENDBRANCH   5   6
ENDBRANCH   4   5
ENDBRANCH   3   4
ENDBRANCH   2   3
ENDBRANCH   1   2
BRANCH   1  22
ATOM     22  C   UNL     1      -0.979   2.454  -3.311  1.00  0.00     0.188 C 
BRANCH  22  23
ATOM     23  O   UNL     1      -2.294   2.946  -3.190  1.00  0.00    -0.376 OA
BRANCH  23  24
ATOM     24  C   UNL     1      -2.686   4.022  -4.041  1.00  0.00     0.202 C 
BRANCH  24  25
ATOM     25  C   UNL     1      -1.715   5.139  -4.531  1.00  0.00     0.261 C 
BRANCH  25  26
ATOM     26  O   UNL     1      -0.331   5.104  -4.131  1.00  0.00    -0.460 OA
BRANCH  26  27
ATOM     27  C   UNL     1      -0.059   5.404  -2.841  1.00  0.00     0.338 C 
ATOM     28  O   UNL     1      -0.836   5.929  -2.053  1.00  0.00    -0.246 OA
BRANCH  27  29
ATOM     29  C   UNL     1       1.250   4.798  -2.434  1.00  0.00     0.060 A 
ATOM     30  C   UNL     1       1.329   4.226  -1.156  1.00  0.00     0.016 A 
ATOM     31  C   UNL     1       2.375   4.741  -3.267  1.00  0.00     0.016 A 
ATOM     32  C   UNL     1       2.523   3.651  -0.693  1.00  0.00     0.010 A 
ATOM     33  C   UNL     1       3.581   4.181  -2.792  1.00  0.00     0.010 A 
ATOM     34  C   UNL     1       3.675   3.656  -1.489  1.00  0.00    -0.014 A 
BRANCH  34  35
ATOM     35  C   UNL     1       5.003   3.315  -0.888  1.00  0.00     0.031 A 
ATOM     36  C   UNL     1       5.817   4.426  -0.269  1.00  0.00     0.074 A 
ATOM     37  C   UNL     1       5.494   2.061  -0.840  1.00  0.00     0.049 A 
ATOM     38  N   UNL     1       7.014   4.387   0.264  1.00  0.00    -0.248 NA
ATOM     39  C   UNL     1       5.191   5.756  -0.249  1.00  0.00     0.031 C 
ATOM     40  C   UNL     1       4.814   0.861  -1.314  1.00  0.00     0.029 A 
ATOM     41  N   UNL     1       6.698   1.593  -0.355  1.00  0.00    -0.354 N 
ATOM     42  C   UNL     1       7.287   5.687   0.674  1.00  0.00     0.074 A 
ATOM     43  C   UNL     1       6.137   6.490   0.314  1.00  0.00     0.031 C 
ATOM     44  C   UNL     1       5.607  -0.206  -1.096  1.00  0.00     0.029 A 
ATOM     45  C   UNL     1       6.872   0.236  -0.506  1.00  0.00     0.049 A 
ATOM     46  H   UNL     1       7.372   2.177   0.061  1.00  0.00     0.167 HD
ATOM     47  C   UNL     1       8.392   6.181   1.285  1.00  0.00     0.031 A 
ATOM     48  C   UNL     1       7.930  -0.556  -0.228  1.00  0.00     0.031 A 
ATOM     49  C   UNL     1       9.564   5.416   1.620  1.00  0.00     0.049 A 
ATOM     50  C   UNL     1       9.199   0.038   0.342  1.00  0.00     0.074 A 
ATOM     51  C   UNL     1      10.735   5.854   2.216  1.00  0.00     0.029 A 
ATOM     52  N   UNL     1       9.722   4.062   1.379  1.00  0.00    -0.354 N 
ATOM     53  N   UNL     1       9.445   1.270   0.715  1.00  0.00    -0.248 NA
ATOM     54  C   UNL     1      10.341  -0.875   0.521  1.00  0.00     0.031 C 
ATOM     55  C   UNL     1      11.628   4.779   2.274  1.00  0.00     0.029 A 
ATOM     56  C   UNL     1      10.983   3.655   1.786  1.00  0.00     0.049 A 
ATOM     57  H   UNL     1       9.041   3.476   0.978  1.00  0.00     0.167 HD
ATOM     58  C   UNL     1      10.751   1.270   1.198  1.00  0.00     0.074 A 
ATOM     59  C   UNL     1      11.242  -0.086   1.090  1.00  0.00     0.031 C 
ATOM     60  C   UNL     1      11.477   2.306   1.687  1.00  0.00     0.031 A 
BRANCH  47  61
ATOM     61  C   UNL     1       8.407   7.657   1.579  1.00  0.00    -0.014 A 
ATOM     62  C   UNL     1       7.600   8.212   2.585  1.00  0.00     0.009 A 
ATOM     63  C   UNL     1       9.262   8.499   0.851  1.00  0.00     0.009 A 
ATOM     64  C   UNL     1       7.620   9.587   2.826  1.00  0.00     0.001 A 
ATOM     65  C   UNL     1       9.304   9.868   1.116  1.00  0.00     0.001 A 
ATOM     66  C   UNL     1       8.474  10.412   2.095  1.00  0.00     0.000 A 
ENDBRANCH  47  61
BRANCH  48  67
ATOM     67  C   UNL     1       7.881  -2.019  -0.518  1.00  0.00    -0.014 A 
ATOM     68  C   UNL     1       7.955  -2.960   0.523  1.00  0.00     0.009 A 
ATOM     69  C   UNL     1       7.839  -2.484  -1.842  1.00  0.00     0.009 A 
ATOM     70  C   UNL     1       8.019  -4.329   0.242  1.00  0.00     0.001 A 
ATOM     71  C   UNL     1       7.867  -3.853  -2.118  1.00  0.00     0.001 A 
ATOM     72  C   UNL     1       7.970  -4.774  -1.078  1.00  0.00     0.000 A 
ENDBRANCH  48  67
BRANCH  60  73
ATOM     73  C   UNL     1      12.868   2.021   2.193  1.00  0.00    -0.014 A 
ATOM     74  C   UNL     1      13.919   1.695   1.321  1.00  0.00     0.009 A 
ATOM     75  C   UNL     1      13.144   2.137   3.566  1.00  0.00     0.009 A 
ATOM     76  C   UNL     1      15.206   1.459   1.817  1.00  0.00     0.001 A 
ATOM     77  C   UNL     1      14.437   1.933   4.055  1.00  0.00     0.001 A 
ATOM     78  C   UNL     1      15.464   1.585   3.181  1.00  0.00     0.000 A 
ENDBRANCH  60  73
ENDBRANCH  34  35
ENDBRANCH  27  29
ENDBRANCH  26  27
ENDBRANCH  25  26
ENDBRANCH  24  25
ENDBRANCH  23  24
ENDBRANCH  22  23
ENDBRANCH   1  22
TORSDOF 21
