REMARK SMILES Cc1cc(=O)c(Oc2ccc(C(=O)OCCOCCOCCOC(=O)c3ccc(-c4c5nc(c(-c6ccccc6)c6ccc([nH]6)c(-c6ccccc6)c6nc(c(-c7ccccc7)c7ccc4[nH]7)C=C6)C=C5)cc3)cc2)c(-c2ccc(S(C)(=O)=O)cc2)o1
REMARK SMILES IDX 18 1 17 2 16 3 15 4 14 5 12 6 13 7 11 8 8 9 9 10 75 11 10 12
REMARK SMILES IDX 74 13 7 14 6 15 1 16 2 17 3 18 87 19 4 20 76 21 5 22 77 23
REMARK SMILES IDX 78 24 86 25 79 26 85 27 80 28 81 29 82 30 83 31 84 32 19 33
REMARK SMILES IDX 20 34 21 35 22 36 23 37 24 38 25 39 26 40 27 41 73 42 28 43
REMARK SMILES IDX 72 44 29 45 30 46 31 47 66 48 32 49 71 50 65 51 67 52 33 53
REMARK SMILES IDX 70 54 64 55 63 56 34 58 56 59 41 60 55 61 42 62 45 63 54 64
REMARK SMILES IDX 68 65 43 66 44 67 53 69 69 70 46 71 35 72 36 73 40 74 37 75
REMARK SMILES IDX 39 76 38 77 57 78 58 79 62 80 59 81 61 82 60 83 47 84 48 85
REMARK SMILES IDX 52 86 49 87 51 88 50 89
REMARK H PARENT 67 57 45 68
REMARK Flexibility Score: inf
ROOT
ATOM      1  C   UNL     1      -4.419   4.287  -6.970  1.00  0.00     0.188 C 
ENDROOT
BRANCH   1   2
ATOM      2  O   UNL     1      -3.884   5.248  -7.865  1.00  0.00    -0.376 OA
BRANCH   2   3
ATOM      3  C   UNL     1      -4.611   5.454  -9.054  1.00  0.00     0.202 C 
BRANCH   3   4
ATOM      4  C   UNL     1      -4.396   4.353 -10.102  1.00  0.00     0.261 C 
BRANCH   4   5
ATOM      5  O   UNL     1      -3.874   3.138  -9.532  1.00  0.00    -0.460 OA
BRANCH   5   6
ATOM      6  C   UNL     1      -2.517   3.034  -9.533  1.00  0.00     0.338 C 
ATOM      7  O   UNL     1      -1.746   3.719 -10.187  1.00  0.00    -0.246 OA
BRANCH   6   8
ATOM      8  C   UNL     1      -2.058   2.000  -8.556  1.00  0.00     0.060 A 
ATOM      9  C   UNL     1      -1.097   0.247  -6.578  1.00  0.00     0.127 A 
ATOM     10  C   UNL     1      -0.204   0.990  -7.345  1.00  0.00     0.048 A 
ATOM     11  C   UNL     1      -2.464   0.306  -6.857  1.00  0.00     0.048 A 
ATOM     12  C   UNL     1      -0.684   1.895  -8.299  1.00  0.00     0.019 A 
ATOM     13  C   UNL     1      -2.944   1.171  -7.851  1.00  0.00     0.019 A 
BRANCH   9  14
ATOM     14  O   UNL     1      -0.657  -0.684  -5.680  1.00  0.00    -0.449 OA
BRANCH  14  15
ATOM     15  C   UNL     1      -0.152  -0.388  -4.420  1.00  0.00     0.217 A 
ATOM     16  C   UNL     1       1.094   0.044  -0.295  1.00  0.00     0.088 C 
ATOM     17  C   UNL     1       0.717  -0.226  -1.718  1.00  0.00     0.105 A 
ATOM     18  C   UNL     1       0.443  -1.450  -2.173  1.00  0.00     0.098 A 
ATOM     19  O   UNL     1       0.649   0.895  -2.523  1.00  0.00    -0.457 OA
ATOM     20  C   UNL     1       0.048  -1.616  -3.580  1.00  0.00     0.228 A 
ATOM     21  C   UNL     1       0.171   0.791  -3.828  1.00  0.00     0.180 A 
ATOM     22  O   UNL     1      -0.140  -2.749  -4.016  1.00  0.00    -0.285 OA
BRANCH  21  23
ATOM     23  C   UNL     1       0.009   2.129  -4.412  1.00  0.00     0.021 A 
ATOM     24  C   UNL     1       1.058   2.815  -5.037  1.00  0.00     0.013 A 
ATOM     25  C   UNL     1      -1.230   2.754  -4.325  1.00  0.00     0.013 A 
ATOM     26  C   UNL     1       0.841   4.071  -5.640  1.00  0.00     0.021 A 
ATOM     27  C   UNL     1      -1.403   4.039  -4.853  1.00  0.00     0.021 A 
ATOM     28  C   UNL     1      -0.382   4.731  -5.506  1.00  0.00     0.067 A 
BRANCH  28  29
ATOM     29  S   UNL     1      -0.747   6.255  -6.402  1.00  0.00     0.175 S 
ATOM     30  C   UNL     1      -0.389   7.727  -5.530  1.00  0.00     0.163 C 
ATOM     31  O   UNL     1       0.119   6.241  -7.574  1.00  0.00    -0.224 OA
ATOM     32  O   UNL     1      -2.170   6.342  -6.519  1.00  0.00    -0.224 OA
ENDBRANCH  28  29
ENDBRANCH  21  23
ENDBRANCH  14  15
ENDBRANCH   9  14
ENDBRANCH   6   8
ENDBRANCH   5   6
ENDBRANCH   4   5
ENDBRANCH   3   4
ENDBRANCH   2   3
ENDBRANCH   1   2
BRANCH   1  33
ATOM     33  C   UNL     1      -4.688   4.849  -5.580  1.00  0.00     0.188 C 
BRANCH  33  34
ATOM     34  O   UNL     1      -5.725   5.808  -5.454  1.00  0.00    -0.376 OA
BRANCH  34  35
ATOM     35  C   UNL     1      -5.900   6.127  -4.062  1.00  0.00     0.202 C 
BRANCH  35  36
ATOM     36  C   UNL     1      -4.901   7.120  -3.405  1.00  0.00     0.261 C 
BRANCH  36  37
ATOM     37  O   UNL     1      -3.470   6.846  -3.341  1.00  0.00    -0.460 OA
BRANCH  37  38
ATOM     38  C   UNL     1      -2.943   6.062  -2.358  1.00  0.00     0.338 C 
ATOM     39  O   UNL     1      -3.555   5.233  -1.709  1.00  0.00    -0.246 OA
BRANCH  38  40
ATOM     40  C   UNL     1      -1.450   6.304  -2.268  1.00  0.00     0.060 A 
ATOM     41  C   UNL     1      -0.912   7.592  -2.323  1.00  0.00     0.016 A 
ATOM     42  C   UNL     1      -0.543   5.242  -2.200  1.00  0.00     0.016 A 
ATOM     43  C   UNL     1       0.478   7.792  -2.531  1.00  0.00     0.010 A 
ATOM     44  C   UNL     1       0.841   5.439  -2.461  1.00  0.00     0.010 A 
ATOM     45  C   UNL     1       1.369   6.714  -2.720  1.00  0.00    -0.014 A 
BRANCH  45  46
ATOM     46  C   UNL     1       2.852   6.944  -2.884  1.00  0.00     0.031 A 
ATOM     47  C   UNL     1       3.660   6.971  -4.183  1.00  0.00     0.074 A 
ATOM     48  C   UNL     1       3.531   7.154  -1.744  1.00  0.00     0.049 A 
ATOM     49  N   UNL     1       4.942   7.209  -4.381  1.00  0.00    -0.248 NA
ATOM     50  C   UNL     1       2.960   6.692  -5.429  1.00  0.00     0.031 C 
ATOM     51  C   UNL     1       2.925   7.173  -0.415  1.00  0.00     0.029 A 
ATOM     52  N   UNL     1       4.861   7.396  -1.522  1.00  0.00    -0.354 N 
ATOM     53  C   UNL     1       5.171   7.105  -5.762  1.00  0.00     0.074 A 
ATOM     54  C   UNL     1       3.905   6.765  -6.357  1.00  0.00     0.031 C 
ATOM     55  C   UNL     1       3.877   7.431   0.487  1.00  0.00     0.029 A 
ATOM     56  C   UNL     1       5.163   7.556  -0.196  1.00  0.00     0.049 A 
ATOM     57  H   UNL     1       5.530   7.450  -2.242  1.00  0.00     0.167 HD
ATOM     58  C   UNL     1       6.315   7.276  -6.477  1.00  0.00     0.031 A 
ATOM     59  C   UNL     1       6.335   7.778   0.426  1.00  0.00     0.031 A 
ATOM     60  C   UNL     1       7.587   7.635  -5.898  1.00  0.00     0.049 A 
ATOM     61  C   UNL     1       7.591   7.963  -0.367  1.00  0.00     0.074 A 
ATOM     62  C   UNL     1       8.776   7.923  -6.550  1.00  0.00     0.029 A 
ATOM     63  N   UNL     1       7.839   7.750  -4.544  1.00  0.00    -0.354 N 
ATOM     64  N   UNL     1       7.759   7.928  -1.665  1.00  0.00    -0.248 NA
ATOM     65  C   UNL     1       8.814   8.248   0.393  1.00  0.00     0.031 C 
ATOM     66  C   UNL     1       9.766   8.130  -5.589  1.00  0.00     0.029 A 
ATOM     67  C   UNL     1       9.172   8.066  -4.341  1.00  0.00     0.049 A 
ATOM     68  H   UNL     1       7.171   7.626  -3.831  1.00  0.00     0.167 HD
ATOM     69  C   UNL     1       9.103   8.208  -1.879  1.00  0.00     0.074 A 
ATOM     70  C   UNL     1       9.698   8.432  -0.579  1.00  0.00     0.031 C 
ATOM     71  C   UNL     1       9.777   8.274  -3.052  1.00  0.00     0.031 A 
BRANCH  58  72
ATOM     72  C   UNL     1       6.304   7.109  -7.988  1.00  0.00    -0.014 A 
ATOM     73  C   UNL     1       7.110   6.120  -8.588  1.00  0.00     0.009 A 
ATOM     74  C   UNL     1       5.686   8.053  -8.822  1.00  0.00     0.009 A 
ATOM     75  C   UNL     1       7.328   6.106  -9.970  1.00  0.00     0.001 A 
ATOM     76  C   UNL     1       5.878   8.016 -10.210  1.00  0.00     0.001 A 
ATOM     77  C   UNL     1       6.713   7.056 -10.780  1.00  0.00     0.000 A 
ENDBRANCH  58  72
BRANCH  59  78
ATOM     78  C   UNL     1       6.314   7.891   1.904  1.00  0.00    -0.014 A 
ATOM     79  C   UNL     1       6.001   6.771   2.694  1.00  0.00     0.009 A 
ATOM     80  C   UNL     1       6.456   9.143   2.515  1.00  0.00     0.009 A 
ATOM     81  C   UNL     1       5.778   6.915   4.062  1.00  0.00     0.001 A 
ATOM     82  C   UNL     1       6.272   9.275   3.891  1.00  0.00     0.001 A 
ATOM     83  C   UNL     1       5.915   8.166   4.659  1.00  0.00     0.000 A 
ENDBRANCH  59  78
BRANCH  71  84
ATOM     84  C   UNL     1      11.245   8.599  -3.013  1.00  0.00    -0.014 A 
ATOM     85  C   UNL     1      11.713   9.798  -3.577  1.00  0.00     0.009 A 
ATOM     86  C   UNL     1      12.177   7.680  -2.508  1.00  0.00     0.009 A 
ATOM     87  C   UNL     1      13.082  10.063  -3.648  1.00  0.00     0.001 A 
ATOM     88  C   UNL     1      13.544   7.963  -2.549  1.00  0.00     0.001 A 
ATOM     89  C   UNL     1      13.996   9.149  -3.127  1.00  0.00     0.000 A 
ENDBRANCH  71  84
ENDBRANCH  45  46
ENDBRANCH  38  40
ENDBRANCH  37  38
ENDBRANCH  36  37
ENDBRANCH  35  36
ENDBRANCH  34  35
ENDBRANCH  33  34
ENDBRANCH   1  33
TORSDOF 21
