REMARK SMILES O=C(OCCOCCOCCOC(=O)c1ccncc1-c1ccc(F)cc1F)c1ccc(-c2c3nc(c(-c4ccccc4)c4ccc([nH]4)c(-c4ccccc4)c4nc(c(-c5ccccc5)c5ccc2[nH]5)C=C4)C=C3)cc1
REMARK SMILES IDX 7 1 6 2 5 3 4 4 3 5 2 6 1 7 29 8 30 9 76 10 31 11 75 12
REMARK SMILES IDX 32 13 33 14 34 15 69 16 35 17 74 18 68 19 70 20 36 21 73 22
REMARK SMILES IDX 67 23 66 24 37 26 59 27 44 28 58 29 45 30 48 31 57 32 71 33
REMARK SMILES IDX 46 34 47 35 56 37 72 38 49 39 38 40 39 41 43 42 40 43 42 44
REMARK SMILES IDX 41 45 60 46 61 47 65 48 62 49 64 50 63 51 50 52 51 53 55 54
REMARK SMILES IDX 52 55 54 56 53 57 8 58 9 59 10 60 11 61 12 62 13 63 14 64
REMARK SMILES IDX 15 65 16 66 20 67 17 68 19 69 18 70 21 71 22 72 27 73 23 74
REMARK SMILES IDX 26 75 28 76 24 77 25 78
REMARK H PARENT 70 25 48 36
REMARK Flexibility Score: inf
ROOT
ATOM      1  C   UNL     1       3.292   1.605   0.620  1.00  0.00     0.188 C 
ENDROOT
BRANCH   1   2
ATOM      2  O   UNL     1       4.657   1.512   0.224  1.00  0.00    -0.376 OA
BRANCH   2   3
ATOM      3  C   UNL     1       4.924   1.681  -1.162  1.00  0.00     0.202 C 
BRANCH   3   4
ATOM      4  C   UNL     1       4.758   0.397  -1.988  1.00  0.00     0.261 C 
BRANCH   4   5
ATOM      5  O   UNL     1       3.439  -0.156  -1.843  1.00  0.00    -0.460 OA
BRANCH   5   6
ATOM      6  C   UNL     1       3.147  -1.395  -1.378  1.00  0.00     0.338 C 
ATOM      7  O   UNL     1       2.247  -2.036  -1.915  1.00  0.00    -0.246 OA
BRANCH   6   8
ATOM      8  C   UNL     1       3.713  -1.919  -0.088  1.00  0.00     0.060 A 
ATOM      9  C   UNL     1       4.902  -1.501   0.507  1.00  0.00     0.016 A 
ATOM     10  C   UNL     1       2.976  -2.930   0.567  1.00  0.00     0.016 A 
ATOM     11  C   UNL     1       5.386  -2.114   1.659  1.00  0.00     0.010 A 
ATOM     12  C   UNL     1       3.439  -3.528   1.747  1.00  0.00     0.010 A 
ATOM     13  C   UNL     1       4.683  -3.159   2.261  1.00  0.00    -0.014 A 
BRANCH  13  14
ATOM     14  C   UNL     1       5.412  -3.959   3.270  1.00  0.00     0.031 A 
ATOM     15  C   UNL     1       6.075  -5.229   2.816  1.00  0.00     0.074 A 
ATOM     16  C   UNL     1       5.677  -3.441   4.483  1.00  0.00     0.049 A 
ATOM     17  N   UNL     1       6.967  -5.961   3.431  1.00  0.00    -0.248 NA
ATOM     18  C   UNL     1       5.720  -5.716   1.472  1.00  0.00     0.031 C 
ATOM     19  C   UNL     1       5.162  -2.166   4.982  1.00  0.00     0.029 A 
ATOM     20  N   UNL     1       6.491  -3.892   5.489  1.00  0.00    -0.354 N 
ATOM     21  C   UNL     1       7.303  -6.967   2.536  1.00  0.00     0.074 A 
ATOM     22  C   UNL     1       6.489  -6.786   1.357  1.00  0.00     0.031 C 
ATOM     23  C   UNL     1       5.700  -1.922   6.189  1.00  0.00     0.029 A 
ATOM     24  C   UNL     1       6.567  -3.035   6.559  1.00  0.00     0.049 A 
ATOM     25  H   UNL     1       6.975  -4.748   5.448  1.00  0.00     0.167 HD
ATOM     26  C   UNL     1       8.225  -7.948   2.673  1.00  0.00     0.031 A 
ATOM     27  C   UNL     1       7.261  -3.136   7.709  1.00  0.00     0.031 A 
ATOM     28  C   UNL     1       8.995  -8.159   3.865  1.00  0.00     0.049 A 
ATOM     29  C   UNL     1       8.178  -4.313   7.892  1.00  0.00     0.074 A 
ATOM     30  C   UNL     1       9.887  -9.175   4.151  1.00  0.00     0.029 A 
ATOM     31  N   UNL     1       8.949  -7.334   4.979  1.00  0.00    -0.354 N 
ATOM     32  N   UNL     1       8.475  -5.267   7.041  1.00  0.00    -0.248 NA
ATOM     33  C   UNL     1       8.868  -4.420   9.184  1.00  0.00     0.031 C 
ATOM     34  C   UNL     1      10.350  -8.988   5.459  1.00  0.00     0.029 A 
ATOM     35  C   UNL     1       9.784  -7.828   5.965  1.00  0.00     0.049 A 
ATOM     36  H   UNL     1       8.403  -6.518   5.056  1.00  0.00     0.167 HD
ATOM     37  C   UNL     1       9.394  -6.080   7.689  1.00  0.00     0.074 A 
ATOM     38  C   UNL     1       9.630  -5.488   8.991  1.00  0.00     0.031 C 
ATOM     39  C   UNL     1       9.988  -7.218   7.253  1.00  0.00     0.031 A 
BRANCH  26  40
ATOM     40  C   UNL     1       8.396  -8.879   1.508  1.00  0.00    -0.014 A 
ATOM     41  C   UNL     1       9.061  -8.464   0.342  1.00  0.00     0.009 A 
ATOM     42  C   UNL     1       7.858 -10.172   1.562  1.00  0.00     0.009 A 
ATOM     43  C   UNL     1       9.153  -9.317  -0.759  1.00  0.00     0.001 A 
ATOM     44  C   UNL     1       7.971 -11.030   0.467  1.00  0.00     0.001 A 
ATOM     45  C   UNL     1       8.609 -10.599  -0.696  1.00  0.00     0.000 A 
ENDBRANCH  26  40
BRANCH  27  46
ATOM     46  C   UNL     1       7.088  -2.121   8.784  1.00  0.00    -0.014 A 
ATOM     47  C   UNL     1       8.142  -1.281   9.177  1.00  0.00     0.009 A 
ATOM     48  C   UNL     1       5.858  -2.017   9.455  1.00  0.00     0.009 A 
ATOM     49  C   UNL     1       7.975  -0.384  10.237  1.00  0.00     0.001 A 
ATOM     50  C   UNL     1       5.685  -1.100  10.494  1.00  0.00     0.001 A 
ATOM     51  C   UNL     1       6.748  -0.293  10.892  1.00  0.00     0.000 A 
ENDBRANCH  27  46
BRANCH  39  52
ATOM     52  C   UNL     1      10.952  -7.880   8.193  1.00  0.00    -0.014 A 
ATOM     53  C   UNL     1      10.498  -8.567   9.329  1.00  0.00     0.009 A 
ATOM     54  C   UNL     1      12.328  -7.843   7.919  1.00  0.00     0.009 A 
ATOM     55  C   UNL     1      11.408  -9.173  10.195  1.00  0.00     0.001 A 
ATOM     56  C   UNL     1      13.233  -8.475   8.772  1.00  0.00     0.001 A 
ATOM     57  C   UNL     1      12.774  -9.130   9.914  1.00  0.00     0.000 A 
ENDBRANCH  39  52
ENDBRANCH  13  14
ENDBRANCH   6   8
ENDBRANCH   5   6
ENDBRANCH   4   5
ENDBRANCH   3   4
ENDBRANCH   2   3
ENDBRANCH   1   2
BRANCH   1  58
ATOM     58  C   UNL     1       2.620   2.982   0.572  1.00  0.00     0.188 C 
BRANCH  58  59
ATOM     59  O   UNL     1       3.385   4.142   0.859  1.00  0.00    -0.376 OA
BRANCH  59  60
ATOM     60  C   UNL     1       4.431   4.068   1.814  1.00  0.00     0.202 C 
BRANCH  60  61
ATOM     61  C   UNL     1       4.033   3.884   3.279  1.00  0.00     0.261 C 
BRANCH  61  62
ATOM     62  O   UNL     1       3.581   2.560   3.623  1.00  0.00    -0.460 OA
BRANCH  62  63
ATOM     63  C   UNL     1       2.278   2.443   3.977  1.00  0.00     0.338 C 
ATOM     64  O   UNL     1       1.395   3.275   3.829  1.00  0.00    -0.246 OA
BRANCH  63  65
ATOM     65  C   UNL     1       2.078   1.159   4.676  1.00  0.00     0.071 A 
ATOM     66  C   UNL     1       2.817   0.962   5.849  1.00  0.00     0.036 A 
ATOM     67  C   UNL     1       1.127   0.213   4.263  1.00  0.00     0.017 A 
ATOM     68  C   UNL     1       2.580  -0.181   6.586  1.00  0.00     0.112 A 
ATOM     69  C   UNL     1       0.994  -0.907   5.085  1.00  0.00     0.120 A 
ATOM     70  N   UNL     1       1.694  -1.125   6.222  1.00  0.00    -0.264 NA
BRANCH  67  71
ATOM     71  C   UNL     1       0.312   0.300   3.049  1.00  0.00     0.020 A 
ATOM     72  C   UNL     1       0.774  -0.255   1.846  1.00  0.00     0.015 A 
ATOM     73  C   UNL     1      -0.983   0.836   3.066  1.00  0.00     0.134 A 
ATOM     74  C   UNL     1      -0.018  -0.240   0.694  1.00  0.00     0.040 A 
ATOM     75  C   UNL     1      -1.785   0.848   1.928  1.00  0.00     0.079 A 
ATOM     76  F   UNL     1      -1.491   1.313   4.212  1.00  0.00    -0.206 F 
ATOM     77  C   UNL     1      -1.290   0.314   0.748  1.00  0.00     0.126 A 
ATOM     78  F   UNL     1      -2.054   0.316  -0.352  1.00  0.00    -0.207 F 
ENDBRANCH  67  71
ENDBRANCH  63  65
ENDBRANCH  62  63
ENDBRANCH  61  62
ENDBRANCH  60  61
ENDBRANCH  59  60
ENDBRANCH  58  59
ENDBRANCH   1  58
TORSDOF 18
