REMARK SMILES COc1ccc(-c2[nH]nc3nc(-c4ccc(C(F)(F)F)cc4)cc(C(=O)OCCOCCOCCOC(=O)c4ccc(-c5c6nc(c(-c7ccccc7)c7ccc([nH]7)c(-c7ccccc7)c7nc(c(-c8ccccc8)c8ccc5[nH]8)C=C7)C=C6)cc4)c23)cc1
REMARK SMILES IDX 31 1 30 2 29 3 28 4 27 5 25 6 26 7 24 8 7 9 8 10 87 11 9 12
REMARK SMILES IDX 10 14 11 15 23 16 12 17 6 18 3 19 4 20 89 21 5 22 88 23 2 24
REMARK SMILES IDX 1 25 13 26 14 27 22 28 15 29 21 30 16 31 17 32 18 33 19 34
REMARK SMILES IDX 20 35 32 36 33 37 34 38 35 39 36 40 37 41 38 42 39 43 40 44
REMARK SMILES IDX 86 45 41 46 85 47 42 48 43 49 44 50 79 51 45 52 84 53 78 54
REMARK SMILES IDX 80 55 46 56 83 57 77 58 76 59 47 61 69 62 54 63 68 64 55 65
REMARK SMILES IDX 58 66 67 67 81 68 56 69 57 70 66 72 82 73 59 74 48 75 49 76
REMARK SMILES IDX 53 77 50 78 52 79 51 80 70 81 71 82 75 83 72 84 74 85 73 86
REMARK SMILES IDX 60 87 61 88 65 89 62 90 64 91 63 92
REMARK H PARENT 8 13 80 60 58 71
REMARK Flexibility Score: inf
ROOT
ATOM      1  C   UNL     1       4.957   4.435   2.297  1.00  0.00     0.188 C 
ENDROOT
BRANCH   1   2
ATOM      2  O   UNL     1       4.830   4.183   0.908  1.00  0.00    -0.376 OA
BRANCH   2   3
ATOM      3  C   UNL     1       3.856   5.008   0.247  1.00  0.00     0.202 C 
BRANCH   3   4
ATOM      4  C   UNL     1       3.713   6.502   0.655  1.00  0.00     0.261 C 
BRANCH   4   5
ATOM      5  O   UNL     1       3.694   6.798   2.073  1.00  0.00    -0.460 OA
BRANCH   5   6
ATOM      6  C   UNL     1       2.668   6.327   2.833  1.00  0.00     0.339 C 
ATOM      7  O   UNL     1       1.594   5.993   2.407  1.00  0.00    -0.246 OA
BRANCH   6   8
ATOM      8  C   UNL     1       3.163   6.173   4.237  1.00  0.00     0.075 A 
ATOM      9  C   UNL     1       1.914   4.114   5.044  1.00  0.00     0.075 A 
ATOM     10  N   UNL     1       1.779   3.620   6.323  1.00  0.00    -0.275 N 
ATOM     11  C   UNL     1       2.712   5.241   5.187  1.00  0.00     0.061 A 
ATOM     12  N   UNL     1       2.575   4.196   7.231  1.00  0.00    -0.154 NA
ATOM     13  H   UNL     1       1.147   2.899   6.550  1.00  0.00     0.190 HD
ATOM     14  C   UNL     1       3.191   5.155   6.542  1.00  0.00     0.182 A 
ATOM     15  N   UNL     1       4.182   5.939   7.022  1.00  0.00    -0.226 NA
ATOM     16  C   UNL     1       4.227   6.942   4.770  1.00  0.00     0.045 A 
ATOM     17  C   UNL     1       4.693   6.808   6.110  1.00  0.00     0.074 A 
BRANCH   9  18
ATOM     18  C   UNL     1       1.425   3.329   3.919  1.00  0.00     0.001 A 
ATOM     19  C   UNL     1       0.586   1.796   1.713  1.00  0.00     0.118 A 
ATOM     20  C   UNL     1      -0.205   2.839   2.205  1.00  0.00     0.047 A 
ATOM     21  C   UNL     1       1.780   1.487   2.360  1.00  0.00     0.047 A 
ATOM     22  C   UNL     1       0.204   3.596   3.308  1.00  0.00     0.014 A 
ATOM     23  C   UNL     1       2.192   2.245   3.461  1.00  0.00     0.014 A 
BRANCH  19  24
ATOM     24  O   UNL     1       0.089   1.173   0.602  1.00  0.00    -0.497 OA
ATOM     25  C   UNL     1       0.873   0.128   0.041  1.00  0.00     0.278 C 
ENDBRANCH  19  24
ENDBRANCH   9  18
BRANCH  17  26
ATOM     26  C   UNL     1       5.770   7.678   6.650  1.00  0.00     0.000 A 
ATOM     27  C   UNL     1       6.727   7.198   7.566  1.00  0.00     0.011 A 
ATOM     28  C   UNL     1       5.832   9.041   6.317  1.00  0.00     0.011 A 
ATOM     29  C   UNL     1       7.692   8.046   8.133  1.00  0.00     0.014 A 
ATOM     30  C   UNL     1       6.789   9.892   6.882  1.00  0.00     0.014 A 
ATOM     31  C   UNL     1       7.726   9.408   7.802  1.00  0.00     0.056 A 
BRANCH  31  32
ATOM     32  C   UNL     1       8.733  10.334   8.441  1.00  0.00     0.416 C 
ATOM     33  F   UNL     1       8.607  10.393   9.796  1.00  0.00    -0.166 F 
ATOM     34  F   UNL     1      10.020   9.960   8.200  1.00  0.00    -0.166 F 
ATOM     35  F   UNL     1       8.635  11.623   8.005  1.00  0.00    -0.166 F 
ENDBRANCH  31  32
ENDBRANCH  17  26
ENDBRANCH   6   8
ENDBRANCH   5   6
ENDBRANCH   4   5
ENDBRANCH   3   4
ENDBRANCH   2   3
ENDBRANCH   1   2
BRANCH   1  36
ATOM     36  C   UNL     1       6.018   3.683   3.068  1.00  0.00     0.188 C 
BRANCH  36  37
ATOM     37  O   UNL     1       7.358   3.966   2.667  1.00  0.00    -0.376 OA
BRANCH  37  38
ATOM     38  C   UNL     1       7.636   4.001   1.269  1.00  0.00     0.202 C 
BRANCH  38  39
ATOM     39  C   UNL     1       7.672   2.659   0.545  1.00  0.00     0.261 C 
BRANCH  39  40
ATOM     40  O   UNL     1       6.634   1.773   0.934  1.00  0.00    -0.460 OA
BRANCH  40  41
ATOM     41  C   UNL     1       6.946   1.033   2.021  1.00  0.00     0.338 C 
ATOM     42  O   UNL     1       7.926   1.134   2.740  1.00  0.00    -0.246 OA
BRANCH  41  43
ATOM     43  C   UNL     1       5.957  -0.038   2.168  1.00  0.00     0.060 A 
ATOM     44  C   UNL     1       6.122  -0.843   3.296  1.00  0.00     0.016 A 
ATOM     45  C   UNL     1       5.308  -0.481   1.008  1.00  0.00     0.016 A 
ATOM     46  C   UNL     1       5.969  -2.194   3.127  1.00  0.00     0.010 A 
ATOM     47  C   UNL     1       5.174  -1.833   0.835  1.00  0.00     0.010 A 
ATOM     48  C   UNL     1       5.626  -2.664   1.854  1.00  0.00    -0.014 A 
BRANCH  48  49
ATOM     49  C   UNL     1       5.699  -4.084   1.628  1.00  0.00     0.031 A 
ATOM     50  C   UNL     1       4.580  -4.797   2.262  1.00  0.00     0.074 A 
ATOM     51  C   UNL     1       6.654  -4.662   0.878  1.00  0.00     0.049 A 
ATOM     52  N   UNL     1       4.632  -5.532   3.318  1.00  0.00    -0.248 NA
ATOM     53  C   UNL     1       3.221  -4.481   1.798  1.00  0.00     0.031 C 
ATOM     54  C   UNL     1       7.650  -4.036   0.005  1.00  0.00     0.029 A 
ATOM     55  N   UNL     1       6.860  -5.986   0.671  1.00  0.00    -0.354 N 
ATOM     56  C   UNL     1       3.329  -5.949   3.535  1.00  0.00     0.074 A 
ATOM     57  C   UNL     1       2.489  -5.114   2.714  1.00  0.00     0.031 C 
ATOM     58  C   UNL     1       8.174  -4.979  -0.815  1.00  0.00     0.029 A 
ATOM     59  C   UNL     1       7.654  -6.281  -0.427  1.00  0.00     0.049 A 
ATOM     60  H   UNL     1       6.477  -6.682   1.253  1.00  0.00     0.167 HD
ATOM     61  C   UNL     1       3.072  -7.138   4.140  1.00  0.00     0.031 A 
ATOM     62  C   UNL     1       7.793  -7.504  -1.000  1.00  0.00     0.031 A 
ATOM     63  C   UNL     1       4.224  -7.633   4.852  1.00  0.00     0.049 A 
ATOM     64  C   UNL     1       7.363  -8.515  -0.001  1.00  0.00     0.074 A 
ATOM     65  C   UNL     1       5.005  -7.148   5.883  1.00  0.00     0.029 A 
ATOM     66  N   UNL     1       4.975  -8.607   4.234  1.00  0.00    -0.354 N 
ATOM     67  N   UNL     1       8.027  -8.761   1.092  1.00  0.00    -0.248 NA
ATOM     68  C   UNL     1       5.959  -8.899   0.023  1.00  0.00     0.031 C 
ATOM     69  C   UNL     1       6.340  -7.508   5.535  1.00  0.00     0.029 A 
ATOM     70  C   UNL     1       6.295  -8.256   4.357  1.00  0.00     0.049 A 
ATOM     71  H   UNL     1       4.627  -9.410   3.784  1.00  0.00     0.167 HD
ATOM     72  C   UNL     1       7.054  -8.898   2.072  1.00  0.00     0.074 A 
ATOM     73  C   UNL     1       5.798  -9.068   1.340  1.00  0.00     0.031 C 
ATOM     74  C   UNL     1       7.309  -8.563   3.372  1.00  0.00     0.031 A 
BRANCH  61  75
ATOM     75  C   UNL     1       1.948  -8.033   3.692  1.00  0.00    -0.014 A 
ATOM     76  C   UNL     1       1.731  -9.233   4.385  1.00  0.00     0.009 A 
ATOM     77  C   UNL     1       1.285  -7.883   2.457  1.00  0.00     0.009 A 
ATOM     78  C   UNL     1       0.953 -10.256   3.831  1.00  0.00     0.001 A 
ATOM     79  C   UNL     1       0.474  -8.883   1.921  1.00  0.00     0.001 A 
ATOM     80  C   UNL     1       0.332 -10.084   2.597  1.00  0.00     0.000 A 
ENDBRANCH  61  75
BRANCH  62  81
ATOM     81  C   UNL     1       7.958  -7.838  -2.433  1.00  0.00    -0.014 A 
ATOM     82  C   UNL     1       8.348  -9.127  -2.832  1.00  0.00     0.009 A 
ATOM     83  C   UNL     1       7.459  -6.972  -3.424  1.00  0.00     0.009 A 
ATOM     84  C   UNL     1       8.204  -9.546  -4.163  1.00  0.00     0.001 A 
ATOM     85  C   UNL     1       7.318  -7.389  -4.753  1.00  0.00     0.001 A 
ATOM     86  C   UNL     1       7.676  -8.681  -5.119  1.00  0.00     0.000 A 
ENDBRANCH  62  81
BRANCH  74  87
ATOM     87  C   UNL     1       8.737  -8.245   3.753  1.00  0.00    -0.014 A 
ATOM     88  C   UNL     1       9.472  -7.189   3.183  1.00  0.00     0.009 A 
ATOM     89  C   UNL     1       9.303  -8.939   4.832  1.00  0.00     0.009 A 
ATOM     90  C   UNL     1      10.746  -6.862   3.662  1.00  0.00     0.001 A 
ATOM     91  C   UNL     1      10.565  -8.598   5.323  1.00  0.00     0.001 A 
ATOM     92  C   UNL     1      11.290  -7.564   4.735  1.00  0.00     0.000 A 
ENDBRANCH  74  87
ENDBRANCH  48  49
ENDBRANCH  41  43
ENDBRANCH  40  41
ENDBRANCH  39  40
ENDBRANCH  38  39
ENDBRANCH  37  38
ENDBRANCH  36  37
ENDBRANCH   1  36
TORSDOF 21
