REMARK SMILES CC(C)[C@H](C[C@H]1Cc2ccccc21)C(=O)OCCOCCOCCOC(=O)c1ccc(-c2c3nc(c(-c4ccccc4)c4ccc([nH]4)c(-c4ccccc4)c4nc(c(-c5ccccc5)c5ccc2[nH]5)C=C4)C=C3)cc1
REMARK SMILES IDX 20 1 19 2 18 3 17 4 16 5 14 6 15 7 4 8 2 9 1 10 3 11 5 12
REMARK SMILES IDX 6 13 7 14 13 15 8 16 12 17 9 18 11 19 10 20 21 21 22 22
REMARK SMILES IDX 23 23 24 24 25 25 26 26 27 27 28 28 29 29 75 30 30 31 74 32
REMARK SMILES IDX 31 33 32 34 33 35 68 36 34 37 73 38 67 39 69 40 35 41 72 42
REMARK SMILES IDX 66 43 65 44 36 46 58 47 43 48 57 49 44 50 47 51 56 52 70 53
REMARK SMILES IDX 45 54 46 55 55 57 71 58 48 59 37 60 38 61 42 62 39 63 41 64
REMARK SMILES IDX 40 65 59 66 60 67 64 68 61 69 63 70 62 71 49 72 50 73 54 74
REMARK SMILES IDX 51 75 53 76 52 77
REMARK H PARENT 69 45 47 56
REMARK Flexibility Score: inf
ROOT
ATOM      1  C   UNL     1      -1.341  -4.850  -0.920  1.00  0.00     0.188 C 
ENDROOT
BRANCH   1   2
ATOM      2  O   UNL     1      -2.230  -5.362  -1.907  1.00  0.00    -0.376 OA
BRANCH   2   3
ATOM      3  C   UNL     1      -2.176  -4.885  -3.244  1.00  0.00     0.202 C 
BRANCH   3   4
ATOM      4  C   UNL     1      -2.513  -3.410  -3.514  1.00  0.00     0.261 C 
BRANCH   4   5
ATOM      5  O   UNL     1      -1.646  -2.418  -2.921  1.00  0.00    -0.463 OA
BRANCH   5   6
ATOM      6  C   UNL     1      -2.123  -1.774  -1.830  1.00  0.00     0.309 C 
ATOM      7  O   UNL     1      -3.202  -2.040  -1.305  1.00  0.00    -0.252 OA
BRANCH   6   8
ATOM      8  C   UNL     1      -1.243  -0.630  -1.297  1.00  0.00     0.102 C 
BRANCH   8   9
ATOM      9  C   UNL     1      -1.758   0.783  -1.700  1.00  0.00    -0.003 C 
ATOM     10  C   UNL     1      -3.220   0.830  -2.158  1.00  0.00     0.008 C 
ATOM     11  C   UNL     1      -1.602   1.754  -0.515  1.00  0.00     0.008 C 
ENDBRANCH   8   9
BRANCH   8  12
ATOM     12  C   UNL     1       0.312  -0.726  -1.319  1.00  0.00     0.024 C 
BRANCH  12  13
ATOM     13  C   UNL     1       0.969  -1.072  -2.654  1.00  0.00     0.025 C 
ATOM     14  C   UNL     1       1.153   0.038  -3.750  1.00  0.00     0.044 C 
ATOM     15  C   UNL     1       2.488  -1.115  -2.609  1.00  0.00    -0.041 A 
ATOM     16  C   UNL     1       2.626  -0.236  -3.655  1.00  0.00    -0.044 A 
ATOM     17  C   UNL     1       3.576  -1.725  -2.025  1.00  0.00     0.004 A 
ATOM     18  C   UNL     1       3.852   0.078  -4.192  1.00  0.00     0.004 A 
ATOM     19  C   UNL     1       4.839  -1.420  -2.543  1.00  0.00     0.000 A 
ATOM     20  C   UNL     1       4.975  -0.530  -3.626  1.00  0.00     0.000 A 
ENDBRANCH  12  13
ENDBRANCH   8  12
ENDBRANCH   6   8
ENDBRANCH   5   6
ENDBRANCH   4   5
ENDBRANCH   3   4
ENDBRANCH   2   3
ENDBRANCH   1   2
BRANCH   1  21
ATOM     21  C   UNL     1       0.036  -4.324  -1.339  1.00  0.00     0.188 C 
BRANCH  21  22
ATOM     22  O   UNL     1       0.482  -4.828  -2.579  1.00  0.00    -0.376 OA
BRANCH  22  23
ATOM     23  C   UNL     1       1.695  -5.553  -2.602  1.00  0.00     0.202 C 
BRANCH  23  24
ATOM     24  C   UNL     1       1.694  -6.882  -1.837  1.00  0.00     0.261 C 
BRANCH  24  25
ATOM     25  O   UNL     1       1.200  -6.830  -0.488  1.00  0.00    -0.460 OA
BRANCH  25  26
ATOM     26  C   UNL     1       1.970  -6.214   0.436  1.00  0.00     0.338 C 
ATOM     27  O   UNL     1       3.060  -5.697   0.258  1.00  0.00    -0.246 OA
BRANCH  26  28
ATOM     28  C   UNL     1       1.155  -6.066   1.665  1.00  0.00     0.060 A 
ATOM     29  C   UNL     1       0.981  -4.789   2.219  1.00  0.00     0.016 A 
ATOM     30  C   UNL     1       0.541  -7.176   2.249  1.00  0.00     0.016 A 
ATOM     31  C   UNL     1       0.216  -4.627   3.378  1.00  0.00     0.010 A 
ATOM     32  C   UNL     1      -0.208  -7.014   3.418  1.00  0.00     0.010 A 
ATOM     33  C   UNL     1      -0.348  -5.745   4.006  1.00  0.00    -0.014 A 
BRANCH  33  34
ATOM     34  C   UNL     1      -0.908  -5.634   5.376  1.00  0.00     0.031 A 
ATOM     35  C   UNL     1      -0.034  -6.035   6.534  1.00  0.00     0.074 A 
ATOM     36  C   UNL     1      -2.161  -5.201   5.602  1.00  0.00     0.049 A 
ATOM     37  N   UNL     1      -0.320  -6.108   7.809  1.00  0.00    -0.248 NA
ATOM     38  C   UNL     1       1.352  -6.407   6.205  1.00  0.00     0.031 C 
ATOM     39  C   UNL     1      -3.097  -4.735   4.581  1.00  0.00     0.029 A 
ATOM     40  N   UNL     1      -2.863  -5.095   6.778  1.00  0.00    -0.354 N 
ATOM     41  C   UNL     1       0.843  -6.547   8.429  1.00  0.00     0.074 A 
ATOM     42  C   UNL     1       1.828  -6.751   7.391  1.00  0.00     0.031 C 
ATOM     43  C   UNL     1      -4.258  -4.403   5.176  1.00  0.00     0.029 A 
ATOM     44  C   UNL     1      -4.158  -4.670   6.610  1.00  0.00     0.049 A 
ATOM     45  H   UNL     1      -2.474  -5.305   7.658  1.00  0.00     0.167 HD
ATOM     46  C   UNL     1       1.075  -6.760   9.746  1.00  0.00     0.031 A 
ATOM     47  C   UNL     1      -5.155  -4.538   7.508  1.00  0.00     0.031 A 
ATOM     48  C   UNL     1       0.093  -6.578  10.781  1.00  0.00     0.049 A 
ATOM     49  C   UNL     1      -4.902  -4.872   8.957  1.00  0.00     0.074 A 
ATOM     50  C   UNL     1       0.236  -6.759  12.145  1.00  0.00     0.029 A 
ATOM     51  N   UNL     1      -1.218  -6.185  10.563  1.00  0.00    -0.354 N 
ATOM     52  N   UNL     1      -3.793  -5.265   9.536  1.00  0.00    -0.248 NA
ATOM     53  C   UNL     1      -6.042  -4.739   9.876  1.00  0.00     0.031 C 
ATOM     54  C   UNL     1      -1.007  -6.536  12.747  1.00  0.00     0.029 A 
ATOM     55  C   UNL     1      -1.904  -6.147  11.765  1.00  0.00     0.049 A 
ATOM     56  H   UNL     1      -1.604  -5.966   9.684  1.00  0.00     0.167 HD
ATOM     57  C   UNL     1      -4.093  -5.391  10.889  1.00  0.00     0.074 A 
ATOM     58  C   UNL     1      -5.484  -5.020  11.045  1.00  0.00     0.031 C 
ATOM     59  C   UNL     1      -3.288  -5.774  11.910  1.00  0.00     0.031 A 
BRANCH  46  60
ATOM     60  C   UNL     1       2.440  -7.256  10.133  1.00  0.00    -0.014 A 
ATOM     61  C   UNL     1       3.572  -6.430  10.043  1.00  0.00     0.009 A 
ATOM     62  C   UNL     1       2.592  -8.566  10.614  1.00  0.00     0.009 A 
ATOM     63  C   UNL     1       4.833  -6.919  10.391  1.00  0.00     0.001 A 
ATOM     64  C   UNL     1       3.848  -9.041  10.992  1.00  0.00     0.001 A 
ATOM     65  C   UNL     1       4.969  -8.222  10.870  1.00  0.00     0.000 A 
ENDBRANCH  46  60
BRANCH  47  66
ATOM     66  C   UNL     1      -6.505  -4.089   7.069  1.00  0.00    -0.014 A 
ATOM     67  C   UNL     1      -7.012  -2.844   7.474  1.00  0.00     0.009 A 
ATOM     68  C   UNL     1      -7.309  -4.920   6.272  1.00  0.00     0.009 A 
ATOM     69  C   UNL     1      -8.304  -2.454   7.114  1.00  0.00     0.001 A 
ATOM     70  C   UNL     1      -8.588  -4.513   5.887  1.00  0.00     0.001 A 
ATOM     71  C   UNL     1      -9.088  -3.285   6.316  1.00  0.00     0.000 A 
ENDBRANCH  47  66
BRANCH  59  72
ATOM     72  C   UNL     1      -3.871  -5.768  13.297  1.00  0.00    -0.014 A 
ATOM     73  C   UNL     1      -4.825  -6.716  13.698  1.00  0.00     0.009 A 
ATOM     74  C   UNL     1      -3.419  -4.824  14.233  1.00  0.00     0.009 A 
ATOM     75  C   UNL     1      -5.339  -6.695  14.997  1.00  0.00     0.001 A 
ATOM     76  C   UNL     1      -3.910  -4.825  15.540  1.00  0.00     0.001 A 
ATOM     77  C   UNL     1      -4.877  -5.754  15.918  1.00  0.00     0.000 A 
ENDBRANCH  59  72
ENDBRANCH  33  34
ENDBRANCH  26  28
ENDBRANCH  25  26
ENDBRANCH  24  25
ENDBRANCH  23  24
ENDBRANCH  22  23
ENDBRANCH  21  22
ENDBRANCH   1  21
TORSDOF 20
