REMARK SMILES CCn1ncc(NC(=O)[C@@H]2CCCC[C@@H]2C(=O)OCCOCCOCCOCCOC(=O)c2ccc(-c3c4nc(c(-c5ccccc5)c5ccc([nH]5)c(-c5ccccc5)c5nc(c(-c6ccccc6)c6ccc3[nH]6)C=C5)C=C4)cc2)c1C(=O)Nc1cnn(C)c1C
REMARK SMILES IDX 23 1 22 2 21 3 20 4 19 5 18 6 16 7 17 8 15 9 10 10 11 11
REMARK SMILES IDX 12 12 14 13 13 14 8 15 7 16 9 18 6 19 3 20 4 21 81 22 5 23
REMARK SMILES IDX 2 24 1 25 82 26 83 27 84 28 85 30 86 31 90 32 87 33 88 34
REMARK SMILES IDX 91 35 89 36 24 37 25 38 26 39 27 40 28 41 29 42 30 43 31 44
REMARK SMILES IDX 32 45 33 46 34 47 80 48 35 49 79 50 36 51 37 52 38 53 73 54
REMARK SMILES IDX 39 55 78 56 72 57 74 58 40 59 77 60 71 61 70 62 41 64 63 65
REMARK SMILES IDX 48 66 62 67 49 68 52 69 61 70 75 71 50 72 51 73 60 75 76 76
REMARK SMILES IDX 53 77 42 78 43 79 47 80 44 81 46 82 45 83 64 84 65 85 69 86
REMARK SMILES IDX 66 87 68 88 67 89 54 90 55 91 59 92 56 93 58 94 57 95
REMARK H PARENT 7 17 84 29 74 63 52 74
REMARK Flexibility Score: inf
ROOT
ATOM      1  C   UNL     1       1.892  -2.762  -7.027  1.00  0.00     0.188 C 
ENDROOT
BRANCH   1   2
ATOM      2  C   UNL     1       0.687  -2.029  -7.650  1.00  0.00     0.188 C 
BRANCH   2   3
ATOM      3  O   UNL     1       0.837  -1.278  -8.847  1.00  0.00    -0.376 OA
BRANCH   3   4
ATOM      4  C   UNL     1       2.113  -0.770  -9.192  1.00  0.00     0.202 C 
BRANCH   4   5
ATOM      5  C   UNL     1       2.763   0.256  -8.249  1.00  0.00     0.261 C 
BRANCH   5   6
ATOM      6  O   UNL     1       2.769  -0.063  -6.842  1.00  0.00    -0.463 OA
BRANCH   6   7
ATOM      7  C   UNL     1       1.835   0.548  -6.072  1.00  0.00     0.309 C 
ATOM      8  O   UNL     1       0.959   1.291  -6.500  1.00  0.00    -0.252 OA
BRANCH   7   9
ATOM      9  C   UNL     1       1.982   0.259  -4.571  1.00  0.00     0.111 C 
ATOM     10  C   UNL     1       3.232   0.894  -3.975  1.00  0.00     0.093 C 
ATOM     11  C   UNL     1       4.489   0.080  -4.240  1.00  0.00     0.014 C 
ATOM     12  C   UNL     1       4.354  -1.226  -3.458  1.00  0.00     0.001 C 
ATOM     13  C   UNL     1       1.806  -1.182  -4.074  1.00  0.00     0.016 C 
ATOM     14  C   UNL     1       3.084  -2.004  -3.803  1.00  0.00     0.001 C 
BRANCH  10  15
ATOM     15  C   UNL     1       3.283   2.354  -4.297  1.00  0.00     0.228 C 
ATOM     16  N   UNL     1       2.443   3.211  -3.644  1.00  0.00    -0.322 N 
ATOM     17  H   UNL     1       2.390   4.085  -4.094  1.00  0.00     0.170 HD
ATOM     18  O   UNL     1       3.980   2.781  -5.219  1.00  0.00    -0.274 OA
BRANCH  16  19
ATOM     19  C   UNL     1       1.638   3.167  -2.501  1.00  0.00     0.092 A 
ATOM     20  N   UNL     1       0.663   3.054  -0.525  1.00  0.00    -0.258 N 
ATOM     21  N   UNL     1       0.105   4.137  -1.094  1.00  0.00    -0.178 NA
ATOM     22  C   UNL     1       1.456   2.323  -1.393  1.00  0.00     0.150 A 
ATOM     23  C   UNL     1       0.737   4.237  -2.255  1.00  0.00     0.162 A 
BRANCH  20  24
ATOM     24  C   UNL     1       0.434   2.882   0.902  1.00  0.00     0.142 C 
ATOM     25  C   UNL     1       1.615   2.403   1.735  1.00  0.00     0.029 C 
ENDBRANCH  20  24
BRANCH  22  26
ATOM     26  C   UNL     1       2.078   1.094  -0.970  1.00  0.00     0.276 C 
ATOM     27  O   UNL     1       3.267   1.012  -0.662  1.00  0.00    -0.267 OA
ATOM     28  N   UNL     1       1.329  -0.074  -1.049  1.00  0.00    -0.318 N 
ATOM     29  H   UNL     1       1.281  -0.574  -1.895  1.00  0.00     0.170 HD
BRANCH  28  30
ATOM     30  C   UNL     1       0.647  -0.532   0.072  1.00  0.00     0.082 A 
ATOM     31  C   UNL     1      -0.707  -0.419   0.429  1.00  0.00     0.161 A 
ATOM     32  C   UNL     1       1.234  -1.253   1.093  1.00  0.00     0.059 A 
ATOM     33  N   UNL     1      -0.926  -0.859   1.672  1.00  0.00    -0.179 NA
ATOM     34  N   UNL     1       0.290  -1.264   2.091  1.00  0.00    -0.271 N 
ATOM     35  C   UNL     1       2.616  -1.772   1.261  1.00  0.00     0.068 C 
ATOM     36  C   UNL     1       0.532  -1.399   3.511  1.00  0.00     0.174 C 
ENDBRANCH  28  30
ENDBRANCH  22  26
ENDBRANCH  16  19
ENDBRANCH  10  15
ENDBRANCH   7   9
ENDBRANCH   6   7
ENDBRANCH   5   6
ENDBRANCH   4   5
ENDBRANCH   3   4
ENDBRANCH   2   3
ENDBRANCH   1   2
BRANCH   1  37
ATOM     37  O   UNL     1       3.052  -2.903  -7.824  1.00  0.00    -0.377 OA
BRANCH  37  38
ATOM     38  C   UNL     1       3.292  -4.205  -8.316  1.00  0.00     0.188 C 
BRANCH  38  39
ATOM     39  C   UNL     1       2.125  -4.810  -9.114  1.00  0.00     0.188 C 
BRANCH  39  40
ATOM     40  O   UNL     1       0.864  -4.709  -8.452  1.00  0.00    -0.376 OA
BRANCH  40  41
ATOM     41  C   UNL     1       0.251  -5.850  -7.876  1.00  0.00     0.202 C 
BRANCH  41  42
ATOM     42  C   UNL     1       0.768  -6.277  -6.500  1.00  0.00     0.261 C 
BRANCH  42  43
ATOM     43  O   UNL     1       2.180  -6.307  -6.398  1.00  0.00    -0.460 OA
BRANCH  43  44
ATOM     44  C   UNL     1       2.778  -7.182  -7.230  1.00  0.00     0.338 C 
ATOM     45  O   UNL     1       2.258  -7.859  -8.094  1.00  0.00    -0.246 OA
BRANCH  44  46
ATOM     46  C   UNL     1       4.189  -7.288  -6.854  1.00  0.00     0.060 A 
ATOM     47  C   UNL     1       4.964  -8.069  -7.709  1.00  0.00     0.016 A 
ATOM     48  C   UNL     1       4.531  -7.038  -5.518  1.00  0.00     0.016 A 
ATOM     49  C   UNL     1       5.878  -8.901  -7.123  1.00  0.00     0.010 A 
ATOM     50  C   UNL     1       5.431  -7.883  -4.932  1.00  0.00     0.010 A 
ATOM     51  C   UNL     1       5.988  -8.877  -5.729  1.00  0.00    -0.014 A 
BRANCH  51  52
ATOM     52  C   UNL     1       6.725  -9.949  -5.118  1.00  0.00     0.031 A 
ATOM     53  C   UNL     1       8.177  -9.783  -5.247  1.00  0.00     0.074 A 
ATOM     54  C   UNL     1       6.116 -10.950  -4.461  1.00  0.00     0.049 A 
ATOM     55  N   UNL     1       8.986 -10.486  -5.962  1.00  0.00    -0.248 NA
ATOM     56  C   UNL     1       8.762  -8.572  -4.653  1.00  0.00     0.031 C 
ATOM     57  C   UNL     1       4.715 -11.051  -4.045  1.00  0.00     0.029 A 
ATOM     58  N   UNL     1       6.685 -12.053  -3.918  1.00  0.00    -0.354 N 
ATOM     59  C   UNL     1      10.233  -9.916  -5.752  1.00  0.00     0.074 A 
ATOM     60  C   UNL     1      10.006  -8.642  -5.118  1.00  0.00     0.031 C 
ATOM     61  C   UNL     1       4.606 -12.028  -3.114  1.00  0.00     0.029 A 
ATOM     62  C   UNL     1       5.895 -12.689  -2.976  1.00  0.00     0.049 A 
ATOM     63  H   UNL     1       7.581 -12.374  -4.170  1.00  0.00     0.167 HD
ATOM     64  C   UNL     1      11.366 -10.657  -5.840  1.00  0.00     0.031 A 
ATOM     65  C   UNL     1       6.320 -13.619  -2.088  1.00  0.00     0.031 A 
ATOM     66  C   UNL     1      11.160 -11.878  -6.574  1.00  0.00     0.049 A 
ATOM     67  C   UNL     1       7.607 -14.163  -2.587  1.00  0.00     0.074 A 
ATOM     68  C   UNL     1      10.755 -12.182  -7.859  1.00  0.00     0.029 A 
ATOM     69  N   UNL     1      11.007 -13.034  -5.845  1.00  0.00    -0.354 N 
ATOM     70  N   UNL     1       7.711 -14.899  -3.657  1.00  0.00    -0.248 NA
ATOM     71  C   UNL     1       8.844 -13.531  -2.150  1.00  0.00     0.031 C 
ATOM     72  C   UNL     1       9.966 -13.363  -7.734  1.00  0.00     0.029 A 
ATOM     73  C   UNL     1       9.964 -13.738  -6.389  1.00  0.00     0.049 A 
ATOM     74  H   UNL     1      11.550 -13.307  -5.071  1.00  0.00     0.167 HD
ATOM     75  C   UNL     1       8.889 -14.485  -4.264  1.00  0.00     0.074 A 
ATOM     76  C   UNL     1       9.600 -13.732  -3.235  1.00  0.00     0.031 C 
ATOM     77  C   UNL     1       9.041 -14.547  -5.621  1.00  0.00     0.031 A 
BRANCH  64  78
ATOM     78  C   UNL     1      12.507 -10.468  -4.875  1.00  0.00    -0.014 A 
ATOM     79  C   UNL     1      13.676 -11.221  -5.059  1.00  0.00     0.009 A 
ATOM     80  C   UNL     1      12.374  -9.790  -3.645  1.00  0.00     0.009 A 
ATOM     81  C   UNL     1      14.627 -11.336  -4.040  1.00  0.00     0.001 A 
ATOM     82  C   UNL     1      13.342  -9.864  -2.645  1.00  0.00     0.001 A 
ATOM     83  C   UNL     1      14.458 -10.662  -2.833  1.00  0.00     0.000 A 
ENDBRANCH  64  78
BRANCH  65  84
ATOM     84  C   UNL     1       5.848 -13.831  -0.704  1.00  0.00    -0.014 A 
ATOM     85  C   UNL     1       6.177 -15.002  -0.007  1.00  0.00     0.009 A 
ATOM     86  C   UNL     1       5.286 -12.768   0.029  1.00  0.00     0.009 A 
ATOM     87  C   UNL     1       5.983 -15.092   1.378  1.00  0.00     0.001 A 
ATOM     88  C   UNL     1       5.085 -12.860   1.409  1.00  0.00     0.001 A 
ATOM     89  C   UNL     1       5.448 -14.018   2.086  1.00  0.00     0.000 A 
ENDBRANCH  65  84
BRANCH  77  90
ATOM     90  C   UNL     1       7.989 -15.294  -6.407  1.00  0.00    -0.014 A 
ATOM     91  C   UNL     1       6.641 -14.895  -6.442  1.00  0.00     0.009 A 
ATOM     92  C   UNL     1       8.396 -16.335  -7.253  1.00  0.00     0.009 A 
ATOM     93  C   UNL     1       5.722 -15.541  -7.276  1.00  0.00     0.001 A 
ATOM     94  C   UNL     1       7.482 -16.966  -8.102  1.00  0.00     0.001 A 
ATOM     95  C   UNL     1       6.145 -16.573  -8.109  1.00  0.00     0.000 A 
ENDBRANCH  77  90
ENDBRANCH  51  52
ENDBRANCH  44  46
ENDBRANCH  43  44
ENDBRANCH  42  43
ENDBRANCH  41  42
ENDBRANCH  40  41
ENDBRANCH  39  40
ENDBRANCH  38  39
ENDBRANCH  37  38
ENDBRANCH   1  37
TORSDOF 25
