REMARK SMILES Cc1ccccc1OCCN1C(=O)CC[C@H](C(=O)OCCOCCOCCOCCOC(=O)c2ccc(-c3c4nc(c(-c5ccccc5)c5ccc([nH]5)c(-c5ccccc5)c5nc(c(-c6ccccc6)c6ccc3[nH]6)C=C5)C=C4)cc2)[C@@H]1c1ccco1
REMARK SMILES IDX 24 1 23 2 22 3 21 4 20 5 19 6 17 7 18 8 16 9 11 10 12 11
REMARK SMILES IDX 82 12 13 13 14 14 15 15 10 16 9 17 8 18 7 19 1 20 2 21 3 22
REMARK SMILES IDX 4 23 6 24 5 25 83 26 84 27 87 28 85 29 86 30 25 31 26 32
REMARK SMILES IDX 27 33 28 34 29 35 30 36 31 37 32 38 33 39 34 40 35 41 81 42
REMARK SMILES IDX 36 43 80 44 37 45 38 46 39 47 74 48 40 49 79 50 73 51 75 52
REMARK SMILES IDX 41 53 78 54 72 55 71 56 42 58 64 59 49 60 63 61 50 62 53 63
REMARK SMILES IDX 62 64 76 65 51 66 52 67 61 69 77 70 54 71 43 72 44 73 48 74
REMARK SMILES IDX 45 75 47 76 46 77 65 78 66 79 70 80 67 81 69 82 68 83 55 84
REMARK SMILES IDX 56 85 60 86 57 87 59 88 58 89
REMARK H PARENT 75 57 53 68
REMARK Flexibility Score: inf
ROOT
ATOM      1  C   UNL     1       1.532  -4.217   1.472  1.00  0.00     0.188 C 
ENDROOT
BRANCH   1   2
ATOM      2  C   UNL     1       2.733  -4.309   0.176  1.00  0.00     0.188 C 
BRANCH   2   3
ATOM      3  O   UNL     1       3.879  -3.470  -0.113  1.00  0.00    -0.376 OA
BRANCH   3   4
ATOM      4  C   UNL     1       5.231  -3.410   0.423  1.00  0.00     0.202 C 
BRANCH   4   5
ATOM      5  C   UNL     1       5.605  -2.377   1.417  1.00  0.00     0.261 C 
BRANCH   5   6
ATOM      6  O   UNL     1       5.375  -1.084   0.991  1.00  0.00    -0.463 OA
BRANCH   6   7
ATOM      7  C   UNL     1       4.408  -1.013   0.066  1.00  0.00     0.311 C 
ATOM      8  O   UNL     1       4.629  -1.172  -1.130  1.00  0.00    -0.252 OA
BRANCH   7   9
ATOM      9  C   UNL     1       3.128  -0.450   0.605  1.00  0.00     0.130 C 
ATOM     10  N   UNL     1       2.232   1.588   1.467  1.00  0.00    -0.328 N 
ATOM     11  C   UNL     1       1.064   1.079   1.994  1.00  0.00     0.223 C 
ATOM     12  C   UNL     1       3.449   0.818   1.324  1.00  0.00     0.166 C 
ATOM     13  O   UNL     1       0.178   1.781   2.478  1.00  0.00    -0.275 OA
ATOM     14  C   UNL     1       0.878  -0.404   1.926  1.00  0.00     0.101 C 
ATOM     15  C   UNL     1       1.881  -1.154   1.080  1.00  0.00     0.028 C 
BRANCH  10  16
ATOM     16  C   UNL     1       2.301   2.980   1.117  1.00  0.00     0.162 C 
BRANCH  16  17
ATOM     17  C   UNL     1       1.884   3.241  -0.338  1.00  0.00     0.251 C 
BRANCH  17  18
ATOM     18  O   UNL     1       0.516   2.981  -0.657  1.00  0.00    -0.491 OA
BRANCH  18  19
ATOM     19  C   UNL     1       0.017   1.728  -0.886  1.00  0.00     0.122 A 
ATOM     20  C   UNL     1       1.909   0.709  -2.307  1.00  0.00     0.048 C 
ATOM     21  C   UNL     1       0.592   0.655  -1.583  1.00  0.00    -0.009 A 
ATOM     22  C   UNL     1      -0.133  -0.564  -1.664  1.00  0.00     0.007 A 
ATOM     23  C   UNL     1      -1.404  -0.709  -1.103  1.00  0.00     0.001 A 
ATOM     24  C   UNL     1      -1.287   1.576  -0.373  1.00  0.00     0.047 A 
ATOM     25  C   UNL     1      -1.992   0.374  -0.472  1.00  0.00     0.004 A 
ENDBRANCH  18  19
ENDBRANCH  17  18
ENDBRANCH  16  17
ENDBRANCH  10  16
BRANCH  12  26
ATOM     26  C   UNL     1       4.160   0.755   2.654  1.00  0.00     0.127 A 
ATOM     27  C   UNL     1       5.500   0.771   3.004  1.00  0.00     0.048 A 
ATOM     28  O   UNL     1       3.407   0.811   3.792  1.00  0.00    -0.467 OA
ATOM     29  C   UNL     1       5.567   0.837   4.410  1.00  0.00     0.042 A 
ATOM     30  C   UNL     1       4.266   0.897   4.839  1.00  0.00     0.195 A 
ENDBRANCH  12  26
ENDBRANCH   7   9
ENDBRANCH   6   7
ENDBRANCH   5   6
ENDBRANCH   4   5
ENDBRANCH   3   4
ENDBRANCH   2   3
ENDBRANCH   1   2
BRANCH   1  31
ATOM     31  O   UNL     1       1.414  -5.073   3.110  1.00  0.00    -0.377 OA
BRANCH  31  32
ATOM     32  C   UNL     1       0.647  -6.910   3.495  1.00  0.00     0.188 C 
BRANCH  32  33
ATOM     33  C   UNL     1       0.786  -8.138   2.071  1.00  0.00     0.188 C 
BRANCH  33  34
ATOM     34  O   UNL     1       0.183  -7.911   0.804  1.00  0.00    -0.376 OA
BRANCH  34  35
ATOM     35  C   UNL     1      -0.899  -8.801   0.718  1.00  0.00     0.202 C 
BRANCH  35  36
ATOM     36  C   UNL     1      -1.161  -9.621   2.062  1.00  0.00     0.261 C 
BRANCH  36  37
ATOM     37  O   UNL     1       0.028 -10.499   2.925  1.00  0.00    -0.460 OA
BRANCH  37  38
ATOM     38  C   UNL     1       1.376 -10.438   3.525  1.00  0.00     0.338 C 
ATOM     39  O   UNL     1       1.427 -10.701   4.731  1.00  0.00    -0.246 OA
BRANCH  38  40
ATOM     40  C   UNL     1       2.869  -9.971   2.876  1.00  0.00     0.060 A 
ATOM     41  C   UNL     1       3.882  -9.362   3.675  1.00  0.00     0.016 A 
ATOM     42  C   UNL     1       3.170  -9.845   1.512  1.00  0.00     0.016 A 
ATOM     43  C   UNL     1       4.878  -8.386   3.147  1.00  0.00     0.010 A 
ATOM     44  C   UNL     1       4.003  -8.731   1.024  1.00  0.00     0.010 A 
ATOM     45  C   UNL     1       4.725  -7.830   1.859  1.00  0.00    -0.014 A 
BRANCH  45  46
ATOM     46  C   UNL     1       4.893  -6.197   1.385  1.00  0.00     0.031 A 
ATOM     47  C   UNL     1       5.542  -6.146  -0.172  1.00  0.00     0.074 A 
ATOM     48  C   UNL     1       4.434  -5.062   2.217  1.00  0.00     0.049 A 
ATOM     49  N   UNL     1       5.659  -5.110  -0.957  1.00  0.00    -0.248 NA
ATOM     50  C   UNL     1       6.313  -7.223  -0.807  1.00  0.00     0.031 C 
ATOM     51  C   UNL     1       3.745  -3.515   2.338  1.00  0.00     0.029 A 
ATOM     52  N   UNL     1       4.243  -5.083   3.538  1.00  0.00    -0.354 N 
ATOM     53  C   UNL     1       6.821  -5.129  -1.691  1.00  0.00     0.074 A 
ATOM     54  C   UNL     1       7.015  -6.574  -1.769  1.00  0.00     0.031 C 
ATOM     55  C   UNL     1       3.406  -2.976   3.535  1.00  0.00     0.029 A 
ATOM     56  C   UNL     1       3.856  -4.018   4.336  1.00  0.00     0.049 A 
ATOM     57  H   UNL     1       4.393  -5.943   3.993  1.00  0.00     0.167 HD
ATOM     58  C   UNL     1       7.752  -4.084  -1.853  1.00  0.00     0.031 A 
ATOM     59  C   UNL     1       3.680  -4.301   5.595  1.00  0.00     0.031 A 
ATOM     60  C   UNL     1       7.917  -2.897  -0.833  1.00  0.00     0.049 A 
ATOM     61  C   UNL     1       5.403  -3.580   5.222  1.00  0.00     0.074 A 
ATOM     62  C   UNL     1       7.640  -1.523  -0.893  1.00  0.00     0.029 A 
ATOM     63  N   UNL     1       8.414  -3.039   0.509  1.00  0.00    -0.354 N 
ATOM     64  N   UNL     1       6.088  -3.268   4.045  1.00  0.00    -0.248 NA
ATOM     65  C   UNL     1       6.282  -3.034   6.278  1.00  0.00     0.031 C 
ATOM     66  C   UNL     1       7.870  -0.895   0.406  1.00  0.00     0.029 A 
ATOM     67  C   UNL     1       8.132  -1.904   1.375  1.00  0.00     0.049 A 
ATOM     68  H   UNL     1       8.904  -3.836   0.816  1.00  0.00     0.167 HD
ATOM     69  C   UNL     1       7.301  -2.496   4.113  1.00  0.00     0.074 A 
ATOM     70  C   UNL     1       7.333  -2.454   5.617  1.00  0.00     0.031 C 
ATOM     71  C   UNL     1       8.219  -1.948   3.052  1.00  0.00     0.031 A 
BRANCH  58  72
ATOM     72  C   UNL     1       8.284  -3.881  -3.311  1.00  0.00    -0.014 A 
ATOM     73  C   UNL     1       8.486  -2.581  -3.838  1.00  0.00     0.009 A 
ATOM     74  C   UNL     1       8.546  -4.915  -4.227  1.00  0.00     0.009 A 
ATOM     75  C   UNL     1       8.902  -2.325  -5.158  1.00  0.00     0.001 A 
ATOM     76  C   UNL     1       8.970  -4.671  -5.553  1.00  0.00     0.001 A 
ATOM     77  C   UNL     1       9.146  -3.376  -6.021  1.00  0.00     0.000 A 
ENDBRANCH  58  72
BRANCH  59  78
ATOM     78  C   UNL     1       2.306  -5.481   5.019  1.00  0.00    -0.014 A 
ATOM     79  C   UNL     1       0.663  -4.886   4.980  1.00  0.00     0.009 A 
ATOM     80  C   UNL     1       2.645  -6.533   3.621  1.00  0.00     0.009 A 
ATOM     81  C   UNL     1      -0.474  -4.987   3.598  1.00  0.00     0.001 A 
ATOM     82  C   UNL     1       1.804  -6.368   1.986  1.00  0.00     0.001 A 
ATOM     83  C   UNL     1       0.028  -5.744   2.047  1.00  0.00     0.000 A 
ENDBRANCH  59  78
BRANCH  71  84
ATOM     84  C   UNL     1       9.599  -1.332   3.380  1.00  0.00    -0.014 A 
ATOM     85  C   UNL     1      10.043  -0.907   4.622  1.00  0.00     0.009 A 
ATOM     86  C   UNL     1      10.556  -1.211   2.326  1.00  0.00     0.009 A 
ATOM     87  C   UNL     1      11.393  -0.585   4.838  1.00  0.00     0.001 A 
ATOM     88  C   UNL     1      11.881  -0.840   2.514  1.00  0.00     0.001 A 
ATOM     89  C   UNL     1      12.313  -0.572   3.792  1.00  0.00     0.000 A 
ENDBRANCH  71  84
ENDBRANCH  45  46
ENDBRANCH  38  40
ENDBRANCH  37  38
ENDBRANCH  36  37
ENDBRANCH  35  36
ENDBRANCH  34  35
ENDBRANCH  33  34
ENDBRANCH  32  33
ENDBRANCH  31  32
ENDBRANCH   1  31
TORSDOF 25
