REMARK SMILES [NH3+][C@@H](CCCCC(=O)OCCOCCOCCOCCOC(=O)c1ccc(-c2c3nc(c(-c4ccccc4)c4ccc([nH]4)c(-c4ccccc4)c4nc(c(-c5ccccc5)c5ccc2[nH]5)C=C4)C=C3)cc1)c1ccc2[nH]c(=O)[nH]c2c1
REMARK SMILES IDX 13 1 12 2 11 3 10 4 9 5 7 6 8 7 6 8 5 9 4 10 3 11 2 12 1 13
REMARK SMILES IDX 72 17 73 18 81 19 74 20 80 21 75 22 79 23 76 24 77 25 78 28
REMARK SMILES IDX 14 29 15 30 16 31 17 32 18 33 19 34 20 35 21 36 22 37 23 38
REMARK SMILES IDX 24 39 25 40 71 41 26 42 70 43 27 44 28 45 29 46 64 47 30 48
REMARK SMILES IDX 69 49 63 50 65 51 31 52 68 53 62 54 61 55 32 57 54 58 39 59
REMARK SMILES IDX 53 60 40 61 43 62 52 63 66 64 41 65 42 66 51 68 67 69 44 70
REMARK SMILES IDX 33 71 34 72 38 73 35 74 37 75 36 76 55 77 56 78 60 79 57 80
REMARK SMILES IDX 59 81 58 82 45 83 46 84 50 85 47 86 49 87 48 88
REMARK H PARENT 1 14 1 15 1 16 79 26 76 27 65 56 43 67
REMARK Flexibility Score: inf
ROOT
ATOM      1  C   UNL     1      -2.018  -6.967   1.063  1.00  0.00     0.188 C 
ENDROOT
BRANCH   1   2
ATOM      2  O   UNL     1      -1.102  -8.029   1.213  1.00  0.00    -0.376 OA
BRANCH   2   3
ATOM      3  C   UNL     1      -0.097  -8.289   0.245  1.00  0.00     0.202 C 
BRANCH   3   4
ATOM      4  C   UNL     1       0.491  -7.233  -0.709  1.00  0.00     0.261 C 
BRANCH   4   5
ATOM      5  O   UNL     1       0.150  -5.880  -0.411  1.00  0.00    -0.463 OA
BRANCH   5   6
ATOM      6  C   UNL     1      -0.586  -5.260  -1.358  1.00  0.00     0.305 C 
ATOM      7  O   UNL     1      -0.835  -5.721  -2.468  1.00  0.00    -0.252 OA
BRANCH   6   8
ATOM      8  C   UNL     1      -1.280  -4.019  -0.869  1.00  0.00     0.123 C 
BRANCH   8   9
ATOM      9  C   UNL     1      -0.614  -3.022   0.083  1.00  0.00     0.012 C 
BRANCH   9  10
ATOM     10  C   UNL     1       0.800  -2.556  -0.234  1.00  0.00     0.007 C 
BRANCH  10  11
ATOM     11  C   UNL     1       1.008  -1.678  -1.482  1.00  0.00     0.070 C 
BRANCH  11  12
ATOM     12  C   UNL     1       0.470  -0.204  -1.493  1.00  0.00     0.212 C 
BRANCH  12  13
ATOM     13  N   UNL     1       0.934   0.480  -0.276  1.00  0.00    -0.351 N 
ATOM     14  H   UNL     1       1.935   0.325  -0.159  1.00  0.00     0.345 HD
ATOM     15  H   UNL     1       0.436   0.110   0.534  1.00  0.00     0.345 HD
ATOM     16  H   UNL     1       0.752   1.481  -0.358  1.00  0.00     0.345 HD
ENDBRANCH  12  13
BRANCH  12  17
ATOM     17  C   UNL     1      -1.031   0.023  -1.675  1.00  0.00     0.011 A 
ATOM     18  C   UNL     1      -1.636   1.276  -1.378  1.00  0.00     0.012 A 
ATOM     19  C   UNL     1      -1.868  -1.018  -2.064  1.00  0.00     0.038 A 
ATOM     20  C   UNL     1      -3.031   1.425  -1.275  1.00  0.00     0.029 A 
ATOM     21  C   UNL     1      -3.192  -0.928  -1.720  1.00  0.00     0.067 A 
ATOM     22  C   UNL     1      -3.771   0.274  -1.353  1.00  0.00     0.066 A 
ATOM     23  N   UNL     1      -4.116  -1.944  -1.491  1.00  0.00    -0.306 N 
ATOM     24  N   UNL     1      -5.086   0.019  -0.980  1.00  0.00    -0.306 N 
ATOM     25  C   UNL     1      -5.287  -1.370  -0.978  1.00  0.00     0.323 A 
ATOM     26  H   UNL     1      -3.971  -2.903  -1.660  1.00  0.00     0.171 HD
ATOM     27  H   UNL     1      -5.762   0.699  -0.755  1.00  0.00     0.171 HD
ATOM     28  O   UNL     1      -6.261  -1.967  -0.555  1.00  0.00    -0.248 OA
ENDBRANCH  12  17
ENDBRANCH  11  12
ENDBRANCH  10  11
ENDBRANCH   9  10
ENDBRANCH   8   9
ENDBRANCH   6   8
ENDBRANCH   5   6
ENDBRANCH   4   5
ENDBRANCH   3   4
ENDBRANCH   2   3
ENDBRANCH   1   2
BRANCH   1  29
ATOM     29  C   UNL     1      -1.735  -5.764   1.978  1.00  0.00     0.188 C 
BRANCH  29  30
ATOM     30  O   UNL     1      -0.386  -5.387   2.210  1.00  0.00    -0.377 OA
BRANCH  30  31
ATOM     31  C   UNL     1       0.517  -6.284   2.842  1.00  0.00     0.188 C 
BRANCH  31  32
ATOM     32  C   UNL     1      -0.018  -7.375   3.788  1.00  0.00     0.188 C 
BRANCH  32  33
ATOM     33  O   UNL     1      -1.334  -7.169   4.262  1.00  0.00    -0.376 OA
BRANCH  33  34
ATOM     34  C   UNL     1      -1.514  -6.479   5.489  1.00  0.00     0.202 C 
BRANCH  34  35
ATOM     35  C   UNL     1      -0.880  -5.088   5.653  1.00  0.00     0.261 C 
BRANCH  35  36
ATOM     36  O   UNL     1       0.552  -5.015   5.539  1.00  0.00    -0.460 OA
BRANCH  36  37
ATOM     37  C   UNL     1       1.295  -5.805   6.338  1.00  0.00     0.338 C 
ATOM     38  O   UNL     1       0.904  -6.555   7.220  1.00  0.00    -0.246 OA
BRANCH  37  39
ATOM     39  C   UNL     1       2.683  -5.764   5.844  1.00  0.00     0.060 A 
ATOM     40  C   UNL     1       3.264  -6.934   5.335  1.00  0.00     0.016 A 
ATOM     41  C   UNL     1       3.415  -4.577   5.905  1.00  0.00     0.016 A 
ATOM     42  C   UNL     1       4.593  -6.930   4.920  1.00  0.00     0.010 A 
ATOM     43  C   UNL     1       4.756  -4.581   5.516  1.00  0.00     0.010 A 
ATOM     44  C   UNL     1       5.359  -5.767   5.059  1.00  0.00    -0.014 A 
BRANCH  44  45
ATOM     45  C   UNL     1       6.833  -5.850   4.939  1.00  0.00     0.031 A 
ATOM     46  C   UNL     1       7.642  -5.978   6.202  1.00  0.00     0.074 A 
ATOM     47  C   UNL     1       7.442  -5.845   3.742  1.00  0.00     0.049 A 
ATOM     48  N   UNL     1       8.940  -6.020   6.357  1.00  0.00    -0.248 NA
ATOM     49  C   UNL     1       6.880  -6.069   7.459  1.00  0.00     0.031 C 
ATOM     50  C   UNL     1       6.768  -5.791   2.446  1.00  0.00     0.029 A 
ATOM     51  N   UNL     1       8.777  -5.882   3.428  1.00  0.00    -0.354 N 
ATOM     52  C   UNL     1       9.149  -6.127   7.726  1.00  0.00     0.074 A 
ATOM     53  C   UNL     1       7.849  -6.115   8.359  1.00  0.00     0.031 C 
ATOM     54  C   UNL     1       7.697  -5.790   1.474  1.00  0.00     0.029 A 
ATOM     55  C   UNL     1       9.027  -5.803   2.080  1.00  0.00     0.049 A 
ATOM     56  H   UNL     1       9.489  -5.958   4.105  1.00  0.00     0.167 HD
ATOM     57  C   UNL     1      10.320  -6.229   8.398  1.00  0.00     0.031 A 
ATOM     58  C   UNL     1      10.197  -5.723   1.417  1.00  0.00     0.031 A 
ATOM     59  C   UNL     1      11.613  -6.223   7.768  1.00  0.00     0.049 A 
ATOM     60  C   UNL     1      11.489  -5.740   2.194  1.00  0.00     0.074 A 
ATOM     61  C   UNL     1      12.860  -6.331   8.358  1.00  0.00     0.029 A 
ATOM     62  N   UNL     1      11.825  -6.088   6.404  1.00  0.00    -0.354 N 
ATOM     63  N   UNL     1      11.678  -5.861   3.486  1.00  0.00    -0.248 NA
ATOM     64  C   UNL     1      12.730  -5.617   1.415  1.00  0.00     0.031 C 
ATOM     65  C   UNL     1      13.828  -6.191   7.359  1.00  0.00     0.029 A 
ATOM     66  C   UNL     1      13.183  -6.076   6.137  1.00  0.00     0.049 A 
ATOM     67  H   UNL     1      11.114  -6.014   5.727  1.00  0.00     0.167 HD
ATOM     68  C   UNL     1      13.056  -5.862   3.671  1.00  0.00     0.074 A 
ATOM     69  C   UNL     1      13.653  -5.745   2.357  1.00  0.00     0.031 C 
ATOM     70  C   UNL     1      13.763  -5.957   4.824  1.00  0.00     0.031 A 
BRANCH  57  71
ATOM     71  C   UNL     1      10.252  -6.304   9.899  1.00  0.00    -0.014 A 
ATOM     72  C   UNL     1       9.741  -7.433  10.557  1.00  0.00     0.009 A 
ATOM     73  C   UNL     1      10.728  -5.229  10.667  1.00  0.00     0.009 A 
ATOM     74  C   UNL     1       9.673  -7.468  11.952  1.00  0.00     0.001 A 
ATOM     75  C   UNL     1      10.690  -5.281  12.061  1.00  0.00     0.001 A 
ATOM     76  C   UNL     1      10.153  -6.395  12.702  1.00  0.00     0.000 A 
ENDBRANCH  57  71
BRANCH  58  77
ATOM     77  C   UNL     1      10.208  -5.594  -0.065  1.00  0.00    -0.014 A 
ATOM     78  C   UNL     1      10.713  -6.625  -0.872  1.00  0.00     0.009 A 
ATOM     79  C   UNL     1       9.735  -4.424  -0.680  1.00  0.00     0.009 A 
ATOM     80  C   UNL     1      10.768  -6.476  -2.260  1.00  0.00     0.001 A 
ATOM     81  C   UNL     1       9.762  -4.290  -2.070  1.00  0.00     0.001 A 
ATOM     82  C   UNL     1      10.288  -5.312  -2.858  1.00  0.00     0.000 A 
ENDBRANCH  58  77
BRANCH  70  83
ATOM     83  C   UNL     1      15.264  -5.984   4.717  1.00  0.00    -0.014 A 
ATOM     84  C   UNL     1      15.997  -4.845   4.348  1.00  0.00     0.009 A 
ATOM     85  C   UNL     1      15.959  -7.162   5.038  1.00  0.00     0.009 A 
ATOM     86  C   UNL     1      17.391  -4.897   4.266  1.00  0.00     0.001 A 
ATOM     87  C   UNL     1      17.353  -7.201   4.990  1.00  0.00     0.001 A 
ATOM     88  C   UNL     1      18.067  -6.072   4.593  1.00  0.00     0.000 A 
ENDBRANCH  70  83
ENDBRANCH  44  45
ENDBRANCH  37  39
ENDBRANCH  36  37
ENDBRANCH  35  36
ENDBRANCH  34  35
ENDBRANCH  33  34
ENDBRANCH  32  33
ENDBRANCH  31  32
ENDBRANCH  30  31
ENDBRANCH  29  30
ENDBRANCH   1  29
TORSDOF 26
