REMARK SMILES C[C@H](c1cnccn1)[N@@H+]1[C@@H](C(=O)OCCOCCOCCOCCOC(=O)c2ccc(-c3c4nc(c(-c5ccccc5)c5ccc([nH]5)c(-c5ccccc5)c5nc(c(-c6ccccc6)c6ccc3[nH]6)C=C5)C=C4)cc2)CC[C@H]2CCCC[C@H]21
REMARK SMILES IDX 19 1 18 2 17 3 16 4 15 5 14 6 13 7 11 8 12 9 10 10 9 11
REMARK SMILES IDX 83 12 76 14 78 15 82 16 77 17 79 18 81 19 80 20 2 21 1 22
REMARK SMILES IDX 3 23 4 24 8 25 5 26 7 27 6 28 20 29 21 30 22 31 23 32 24 33
REMARK SMILES IDX 25 34 26 35 27 36 28 37 29 38 75 39 30 40 74 41 31 42 32 43
REMARK SMILES IDX 33 44 68 45 34 46 73 47 67 48 69 49 35 50 72 51 66 52 65 53
REMARK SMILES IDX 36 55 58 56 43 57 57 58 44 59 47 60 56 61 70 62 45 63 46 64
REMARK SMILES IDX 55 66 71 67 48 68 37 69 38 70 42 71 39 72 41 73 40 74 59 75
REMARK SMILES IDX 60 76 64 77 61 78 63 79 62 80 49 81 50 82 54 83 51 84 53 85
REMARK SMILES IDX 52 86
REMARK H PARENT 9 13 69 54 47 65
REMARK Flexibility Score: inf
ROOT
ATOM      1  O   UNL     1      -3.032   2.111  -3.350  1.00  0.00    -0.377 OA
ENDROOT
BRANCH   1   2
ATOM      2  C   UNL     1      -2.534   2.958  -2.336  1.00  0.00     0.188 C 
BRANCH   2   3
ATOM      3  C   UNL     1      -1.063   3.333  -2.481  1.00  0.00     0.188 C 
BRANCH   3   4
ATOM      4  O   UNL     1      -0.540   3.381  -3.786  1.00  0.00    -0.376 OA
BRANCH   4   5
ATOM      5  C   UNL     1      -0.213   2.262  -4.592  1.00  0.00     0.202 C 
BRANCH   5   6
ATOM      6  C   UNL     1      -0.490   0.749  -4.395  1.00  0.00     0.261 C 
BRANCH   6   7
ATOM      7  O   UNL     1      -1.227   0.271  -3.275  1.00  0.00    -0.459 OA
BRANCH   7   8
ATOM      8  C   UNL     1      -0.508   0.292  -2.135  1.00  0.00     0.365 C 
ATOM      9  O   UNL     1       0.628   0.753  -2.110  1.00  0.00    -0.245 OA
BRANCH   8  10
ATOM     10  C   UNL     1      -1.231  -0.293  -0.894  1.00  0.00     0.295 C 
ATOM     11  N   UNL     1      -0.668  -1.639  -0.511  1.00  0.00    -0.313 N 
ATOM     12  C   UNL     1      -1.457  -2.378   0.512  1.00  0.00     0.188 C 
ATOM     13  H   UNL     1      -0.791  -2.280  -1.294  1.00  0.00     0.349 HD
ATOM     14  C   UNL     1      -2.756  -0.295  -1.040  1.00  0.00     0.078 C 
ATOM     15  C   UNL     1      -3.008  -2.234   0.430  1.00  0.00     0.048 C 
ATOM     16  C   UNL     1      -1.240  -3.903   0.519  1.00  0.00     0.065 C 
ATOM     17  C   UNL     1      -3.409  -0.786   0.236  1.00  0.00     0.016 C 
ATOM     18  C   UNL     1      -3.749  -3.119  -0.601  1.00  0.00     0.010 C 
ATOM     19  C   UNL     1      -1.561  -4.507  -0.837  1.00  0.00     0.006 C 
ATOM     20  C   UNL     1      -2.993  -4.255  -1.281  1.00  0.00     0.001 C 
BRANCH  11  21
ATOM     21  C   UNL     1       0.837  -1.549  -0.324  1.00  0.00     0.233 C 
ATOM     22  C   UNL     1       1.623  -2.813   0.016  1.00  0.00     0.083 C 
BRANCH  21  23
ATOM     23  C   UNL     1       1.396  -0.382   0.506  1.00  0.00     0.116 A 
ATOM     24  C   UNL     1       0.909  -0.026   1.757  1.00  0.00     0.141 A 
ATOM     25  N   UNL     1       2.352   0.385  -0.087  1.00  0.00    -0.252 NA
ATOM     26  N   UNL     1       1.245   1.130   2.386  1.00  0.00    -0.261 NA
ATOM     27  C   UNL     1       2.658   1.557   0.507  1.00  0.00     0.131 A 
ATOM     28  C   UNL     1       2.106   1.927   1.716  1.00  0.00     0.131 A 
ENDBRANCH  21  23
ENDBRANCH  11  21
ENDBRANCH   8  10
ENDBRANCH   7   8
ENDBRANCH   6   7
ENDBRANCH   5   6
ENDBRANCH   4   5
ENDBRANCH   3   4
ENDBRANCH   2   3
ENDBRANCH   1   2
BRANCH   1  29
ATOM     29  C   UNL     1      -3.502   2.697  -4.561  1.00  0.00     0.188 C 
BRANCH  29  30
ATOM     30  C   UNL     1      -3.172   4.163  -4.918  1.00  0.00     0.188 C 
BRANCH  30  31
ATOM     31  O   UNL     1      -3.187   5.074  -3.833  1.00  0.00    -0.376 OA
BRANCH  31  32
ATOM     32  C   UNL     1      -4.383   5.778  -3.530  1.00  0.00     0.202 C 
BRANCH  32  33
ATOM     33  C   UNL     1      -5.638   4.962  -3.178  1.00  0.00     0.261 C 
BRANCH  33  34
ATOM     34  O   UNL     1      -6.143   4.090  -4.201  1.00  0.00    -0.460 OA
BRANCH  34  35
ATOM     35  C   UNL     1      -6.373   4.599  -5.428  1.00  0.00     0.338 C 
ATOM     36  O   UNL     1      -6.298   5.762  -5.780  1.00  0.00    -0.246 OA
BRANCH  35  37
ATOM     37  C   UNL     1      -6.539   3.455  -6.345  1.00  0.00     0.060 A 
ATOM     38  C   UNL     1      -5.664   3.315  -7.433  1.00  0.00     0.016 A 
ATOM     39  C   UNL     1      -7.548   2.519  -6.118  1.00  0.00     0.016 A 
ATOM     40  C   UNL     1      -5.819   2.252  -8.321  1.00  0.00     0.010 A 
ATOM     41  C   UNL     1      -7.723   1.475  -7.024  1.00  0.00     0.010 A 
ATOM     42  C   UNL     1      -6.884   1.361  -8.148  1.00  0.00    -0.014 A 
BRANCH  42  43
ATOM     43  C   UNL     1      -7.307   0.479  -9.256  1.00  0.00     0.031 A 
ATOM     44  C   UNL     1      -8.411   0.975 -10.149  1.00  0.00     0.074 A 
ATOM     45  C   UNL     1      -6.765  -0.734  -9.449  1.00  0.00     0.049 A 
ATOM     46  N   UNL     1      -9.091   0.337 -11.063  1.00  0.00    -0.248 NA
ATOM     47  C   UNL     1      -8.806   2.384  -9.972  1.00  0.00     0.031 C 
ATOM     48  C   UNL     1      -5.639  -1.293  -8.703  1.00  0.00     0.029 A 
ATOM     49  N   UNL     1      -7.116  -1.727 -10.329  1.00  0.00    -0.354 N 
ATOM     50  C   UNL     1     -10.008   1.259 -11.553  1.00  0.00     0.074 A 
ATOM     51  C   UNL     1      -9.812   2.491 -10.824  1.00  0.00     0.031 C 
ATOM     52  C   UNL     1      -5.407  -2.543  -9.143  1.00  0.00     0.029 A 
ATOM     53  C   UNL     1      -6.401  -2.886 -10.159  1.00  0.00     0.049 A 
ATOM     54  H   UNL     1      -7.813  -1.618 -11.015  1.00  0.00     0.167 HD
ATOM     55  C   UNL     1     -10.936   1.091 -12.523  1.00  0.00     0.031 A 
ATOM     56  C   UNL     1      -6.564  -4.096 -10.732  1.00  0.00     0.031 A 
ATOM     57  C   UNL     1     -11.141  -0.144 -13.226  1.00  0.00     0.049 A 
ATOM     58  C   UNL     1      -7.680  -4.294 -11.728  1.00  0.00     0.074 A 
ATOM     59  C   UNL     1     -12.060  -0.428 -14.220  1.00  0.00     0.029 A 
ATOM     60  N   UNL     1     -10.416  -1.304 -13.002  1.00  0.00    -0.354 N 
ATOM     61  N   UNL     1      -8.549  -3.423 -12.184  1.00  0.00    -0.248 NA
ATOM     62  C   UNL     1      -7.837  -5.645 -12.289  1.00  0.00     0.031 C 
ATOM     63  C   UNL     1     -11.931  -1.778 -14.555  1.00  0.00     0.029 A 
ATOM     64  C   UNL     1     -10.881  -2.313 -13.824  1.00  0.00     0.049 A 
ATOM     65  H   UNL     1      -9.680  -1.396 -12.354  1.00  0.00     0.167 HD
ATOM     66  C   UNL     1      -9.322  -4.107 -13.115  1.00  0.00     0.074 A 
ATOM     67  C   UNL     1      -8.822  -5.465 -13.159  1.00  0.00     0.031 C 
ATOM     68  C   UNL     1     -10.350  -3.651 -13.872  1.00  0.00     0.031 A 
BRANCH  55  69
ATOM     69  C   UNL     1     -11.827   2.258 -12.837  1.00  0.00    -0.014 A 
ATOM     70  C   UNL     1     -11.332   3.406 -13.475  1.00  0.00     0.009 A 
ATOM     71  C   UNL     1     -13.190   2.199 -12.506  1.00  0.00     0.009 A 
ATOM     72  C   UNL     1     -12.178   4.485 -13.743  1.00  0.00     0.001 A 
ATOM     73  C   UNL     1     -14.039   3.264 -12.806  1.00  0.00     0.001 A 
ATOM     74  C   UNL     1     -13.531   4.410 -13.415  1.00  0.00     0.000 A 
ENDBRANCH  55  69
BRANCH  56  75
ATOM     75  C   UNL     1      -5.679  -5.231 -10.357  1.00  0.00    -0.014 A 
ATOM     76  C   UNL     1      -4.791  -5.783 -11.294  1.00  0.00     0.009 A 
ATOM     77  C   UNL     1      -5.740  -5.795  -9.073  1.00  0.00     0.009 A 
ATOM     78  C   UNL     1      -4.008  -6.892 -10.962  1.00  0.00     0.001 A 
ATOM     79  C   UNL     1      -4.933  -6.883  -8.733  1.00  0.00     0.001 A 
ATOM     80  C   UNL     1      -4.077  -7.438  -9.682  1.00  0.00     0.000 A 
ENDBRANCH  56  75
BRANCH  68  81
ATOM     81  C   UNL     1     -10.958  -4.592 -14.874  1.00  0.00    -0.014 A 
ATOM     82  C   UNL     1     -11.793  -5.649 -14.483  1.00  0.00     0.009 A 
ATOM     83  C   UNL     1     -10.764  -4.349 -16.245  1.00  0.00     0.009 A 
ATOM     84  C   UNL     1     -12.405  -6.455 -15.445  1.00  0.00     0.001 A 
ATOM     85  C   UNL     1     -11.401  -5.136 -17.203  1.00  0.00     0.001 A 
ATOM     86  C   UNL     1     -12.217  -6.192 -16.803  1.00  0.00     0.000 A 
ENDBRANCH  68  81
ENDBRANCH  42  43
ENDBRANCH  35  37
ENDBRANCH  34  35
ENDBRANCH  33  34
ENDBRANCH  32  33
ENDBRANCH  31  32
ENDBRANCH  30  31
ENDBRANCH  29  30
ENDBRANCH   1  29
TORSDOF 22
