REMARK SMILES O=C(CCC(=O)N1CCN(S(=O)(=O)c2cccs2)CC1)OCCOCCOCCOCCOC(=O)c1ccc(-c2c3nc(c(-c4ccccc4)c4ccc([nH]4)c(-c4ccccc4)c4nc(c(-c5ccccc5)c5ccc2[nH]5)C=C4)C=C3)cc1
REMARK SMILES IDX 26 1 25 2 24 3 23 4 22 5 21 6 2 7 1 8 3 9 4 10 5 11 6 12
REMARK SMILES IDX 7 13 8 14 20 15 9 16 19 17 10 18 11 19 12 20 13 21 14 22
REMARK SMILES IDX 15 23 18 24 16 25 17 26 27 27 28 28 29 29 30 30 31 31 32 32
REMARK SMILES IDX 33 33 34 34 35 35 36 36 37 37 83 38 38 39 82 40 39 41 40 42
REMARK SMILES IDX 41 43 76 44 42 45 81 46 75 47 77 48 43 49 80 50 74 51 73 52
REMARK SMILES IDX 44 54 66 55 51 56 65 57 52 58 55 59 64 60 78 61 53 62 54 63
REMARK SMILES IDX 63 65 79 66 56 67 45 68 46 69 50 70 47 71 49 72 48 73 67 74
REMARK SMILES IDX 68 75 72 76 69 77 71 78 70 79 57 80 58 81 62 82 59 83 61 84
REMARK SMILES IDX 60 85
REMARK H PARENT 77 53 55 64
REMARK Flexibility Score: inf
ROOT
ATOM      1  C   UNL     1       2.130  -2.266  -1.342  1.00  0.00     0.188 C 
ENDROOT
BRANCH   1   2
ATOM      2  C   UNL     1       3.018  -1.393  -2.260  1.00  0.00     0.188 C 
BRANCH   2   3
ATOM      3  O   UNL     1       4.411  -1.453  -1.997  1.00  0.00    -0.376 OA
BRANCH   3   4
ATOM      4  C   UNL     1       5.084  -0.552  -1.141  1.00  0.00     0.202 C 
BRANCH   4   5
ATOM      5  C   UNL     1       4.536  -0.371   0.264  1.00  0.00     0.261 C 
BRANCH   5   6
ATOM      6  O   UNL     1       3.120  -0.137   0.310  1.00  0.00    -0.463 OA
BRANCH   6   7
ATOM      7  C   UNL     1       2.417   0.902  -0.168  1.00  0.00     0.306 C 
ATOM      8  O   UNL     1       1.189   0.871  -0.132  1.00  0.00    -0.252 OA
BRANCH   7   9
ATOM      9  C   UNL     1       3.147   2.094  -0.674  1.00  0.00     0.132 C 
BRANCH   9  10
ATOM     10  C   UNL     1       3.503   3.108   0.393  1.00  0.00     0.112 C 
BRANCH  10  11
ATOM     11  C   UNL     1       4.367   2.646   1.557  1.00  0.00     0.223 C 
ATOM     12  O   UNL     1       5.593   2.751   1.458  1.00  0.00    -0.275 OA
ATOM     13  N   UNL     1       3.768   2.143   2.712  1.00  0.00    -0.340 N 
ATOM     14  C   UNL     1       4.665   1.836   3.837  1.00  0.00     0.136 C 
ATOM     15  C   UNL     1       2.459   1.477   2.732  1.00  0.00     0.136 C 
ATOM     16  C   UNL     1       3.934   1.694   5.184  1.00  0.00     0.124 C 
ATOM     17  C   UNL     1       1.807   1.252   4.093  1.00  0.00     0.124 C 
ATOM     18  N   UNL     1       2.773   0.743   5.100  1.00  0.00    -0.194 NA
BRANCH  18  19
ATOM     19  S   UNL     1       3.247  -0.898   5.039  1.00  0.00     0.252 S 
ATOM     20  O   UNL     1       3.969  -1.109   3.794  1.00  0.00    -0.206 OA
ATOM     21  O   UNL     1       3.869  -1.215   6.300  1.00  0.00    -0.206 OA
BRANCH  19  22
ATOM     22  C   UNL     1       1.837  -1.973   4.863  1.00  0.00     0.135 A 
ATOM     23  C   UNL     1       1.274  -2.553   3.738  1.00  0.00     0.033 A 
ATOM     24  S   UNL     1       1.040  -2.478   6.287  1.00  0.00    -0.131 S 
ATOM     25  C   UNL     1       0.230  -3.467   4.058  1.00  0.00     0.013 A 
ATOM     26  C   UNL     1       0.014  -3.540   5.416  1.00  0.00     0.066 A 
ENDBRANCH  19  22
ENDBRANCH  18  19
ENDBRANCH  10  11
ENDBRANCH   9  10
ENDBRANCH   7   9
ENDBRANCH   6   7
ENDBRANCH   5   6
ENDBRANCH   4   5
ENDBRANCH   3   4
ENDBRANCH   2   3
ENDBRANCH   1   2
BRANCH   1  27
ATOM     27  O   UNL     1       2.525  -3.624  -1.176  1.00  0.00    -0.377 OA
BRANCH  27  28
ATOM     28  C   UNL     1       3.855  -3.822  -0.721  1.00  0.00     0.188 C 
BRANCH  28  29
ATOM     29  C   UNL     1       4.910  -4.074  -1.826  1.00  0.00     0.188 C 
BRANCH  29  30
ATOM     30  O   UNL     1       4.542  -4.223  -3.191  1.00  0.00    -0.376 OA
BRANCH  30  31
ATOM     31  C   UNL     1       3.291  -4.795  -3.528  1.00  0.00     0.202 C 
BRANCH  31  32
ATOM     32  C   UNL     1       2.944  -6.206  -3.028  1.00  0.00     0.261 C 
BRANCH  32  33
ATOM     33  O   UNL     1       3.304  -6.508  -1.670  1.00  0.00    -0.460 OA
BRANCH  33  34
ATOM     34  C   UNL     1       4.482  -7.162  -1.518  1.00  0.00     0.338 C 
ATOM     35  O   UNL     1       5.223  -7.558  -2.401  1.00  0.00    -0.246 OA
BRANCH  34  36
ATOM     36  C   UNL     1       4.872  -7.179  -0.090  1.00  0.00     0.060 A 
ATOM     37  C   UNL     1       6.139  -6.681   0.252  1.00  0.00     0.016 A 
ATOM     38  C   UNL     1       4.044  -7.732   0.889  1.00  0.00     0.016 A 
ATOM     39  C   UNL     1       6.609  -6.788   1.555  1.00  0.00     0.010 A 
ATOM     40  C   UNL     1       4.535  -7.881   2.192  1.00  0.00     0.010 A 
ATOM     41  C   UNL     1       5.840  -7.461   2.509  1.00  0.00    -0.014 A 
BRANCH  41  42
ATOM     42  C   UNL     1       6.535  -7.970   3.714  1.00  0.00     0.031 A 
ATOM     43  C   UNL     1       7.066  -9.380   3.675  1.00  0.00     0.074 A 
ATOM     44  C   UNL     1       6.791  -7.176   4.767  1.00  0.00     0.049 A 
ATOM     45  N   UNL     1       7.740 -10.042   4.580  1.00  0.00    -0.248 NA
ATOM     46  C   UNL     1       6.807 -10.145   2.442  1.00  0.00     0.031 C 
ATOM     47  C   UNL     1       6.393  -5.775   4.890  1.00  0.00     0.029 A 
ATOM     48  N   UNL     1       7.463  -7.442   5.933  1.00  0.00    -0.354 N 
ATOM     49  C   UNL     1       7.985 -11.293   4.025  1.00  0.00     0.074 A 
ATOM     50  C   UNL     1       7.354 -11.316   2.725  1.00  0.00     0.031 C 
ATOM     51  C   UNL     1       6.821  -5.306   6.076  1.00  0.00     0.029 A 
ATOM     52  C   UNL     1       7.498  -6.380   6.801  1.00  0.00     0.049 A 
ATOM     53  H   UNL     1       7.880  -8.313   6.128  1.00  0.00     0.167 HD
ATOM     54  C   UNL     1       8.685 -12.329   4.543  1.00  0.00     0.031 A 
ATOM     55  C   UNL     1       8.003  -6.296   8.046  1.00  0.00     0.031 A 
ATOM     56  C   UNL     1       9.296 -12.315   5.845  1.00  0.00     0.049 A 
ATOM     57  C   UNL     1       8.697  -7.496   8.640  1.00  0.00     0.074 A 
ATOM     58  C   UNL     1      10.009 -13.319   6.475  1.00  0.00     0.029 A 
ATOM     59  N   UNL     1       9.260 -11.238   6.718  1.00  0.00    -0.354 N 
ATOM     60  N   UNL     1       8.924  -8.673   8.107  1.00  0.00    -0.248 NA
ATOM     61  C   UNL     1       9.217  -7.347  10.007  1.00  0.00     0.031 C 
ATOM     62  C   UNL     1      10.356 -12.869   7.753  1.00  0.00     0.029 A 
ATOM     63  C   UNL     1       9.920 -11.560   7.891  1.00  0.00     0.049 A 
ATOM     64  H   UNL     1       8.829 -10.373   6.531  1.00  0.00     0.167 HD
ATOM     65  C   UNL     1       9.637  -9.392   9.060  1.00  0.00     0.074 A 
ATOM     66  C   UNL     1       9.827  -8.508  10.191  1.00  0.00     0.031 C 
ATOM     67  C   UNL     1      10.092 -10.669   9.008  1.00  0.00     0.031 A 
BRANCH  54  68
ATOM     68  C   UNL     1       8.796 -13.575   3.708  1.00  0.00    -0.014 A 
ATOM     69  C   UNL     1       9.576 -13.604   2.540  1.00  0.00     0.009 A 
ATOM     70  C   UNL     1       8.130 -14.743   4.108  1.00  0.00     0.009 A 
ATOM     71  C   UNL     1       9.660 -14.770   1.774  1.00  0.00     0.001 A 
ATOM     72  C   UNL     1       8.241 -15.915   3.357  1.00  0.00     0.001 A 
ATOM     73  C   UNL     1       8.998 -15.925   2.187  1.00  0.00     0.000 A 
ENDBRANCH  54  68
BRANCH  55  74
ATOM     74  C   UNL     1       7.844  -5.045   8.836  1.00  0.00    -0.014 A 
ATOM     75  C   UNL     1       8.956  -4.274   9.208  1.00  0.00     0.009 A 
ATOM     76  C   UNL     1       6.568  -4.635   9.256  1.00  0.00     0.009 A 
ATOM     77  C   UNL     1       8.796  -3.142  10.013  1.00  0.00     0.001 A 
ATOM     78  C   UNL     1       6.407  -3.484  10.028  1.00  0.00     0.001 A 
ATOM     79  C   UNL     1       7.523  -2.746  10.418  1.00  0.00     0.000 A 
ENDBRANCH  55  74
BRANCH  67  80
ATOM     80  C   UNL     1      10.873 -11.167  10.195  1.00  0.00    -0.014 A 
ATOM     81  C   UNL     1      10.257 -11.393  11.437  1.00  0.00     0.009 A 
ATOM     82  C   UNL     1      12.246 -11.429  10.062  1.00  0.00     0.009 A 
ATOM     83  C   UNL     1      11.010 -11.819  12.532  1.00  0.00     0.001 A 
ATOM     84  C   UNL     1      12.989 -11.891  11.149  1.00  0.00     0.001 A 
ATOM     85  C   UNL     1      12.374 -12.070  12.387  1.00  0.00     0.000 A 
ENDBRANCH  67  80
ENDBRANCH  41  42
ENDBRANCH  34  36
ENDBRANCH  33  34
ENDBRANCH  32  33
ENDBRANCH  31  32
ENDBRANCH  30  31
ENDBRANCH  29  30
ENDBRANCH  28  29
ENDBRANCH  27  28
ENDBRANCH   1  27
TORSDOF 24
