REMARK SMILES C[C@H]1N=N[C@H](S/C(=C/c2ccc(-c3cccc(Cl)c3)o2)C(=O)OCCOCCOCCOCCOC(=O)c2ccc(-c3c4nc(c(-c5ccccc5)c5ccc([nH]5)c(-c5ccccc5)c5nc(c(-c6ccccc6)c6ccc3[nH]6)C=C5)C=C4)cc2)[NH2+]1
REMARK SMILES IDX 29 1 28 2 27 3 26 4 25 5 24 6 23 7 21 8 22 9 7 10 8 11 6 12
REMARK SMILES IDX 5 13 1 14 2 15 3 16 86 17 4 18 9 21 10 22 20 23 11 24 12 25
REMARK SMILES IDX 13 26 14 27 19 28 15 29 17 30 16 31 18 32 30 33 31 34 32 35
REMARK SMILES IDX 33 36 34 37 35 38 36 39 37 40 38 41 39 42 85 43 40 44 84 45
REMARK SMILES IDX 41 46 42 47 43 48 78 49 44 50 83 51 77 52 79 53 45 54 82 55
REMARK SMILES IDX 76 56 75 57 46 59 68 60 53 61 67 62 54 63 57 64 66 65 80 66
REMARK SMILES IDX 55 67 56 68 65 70 81 71 58 72 47 73 48 74 52 75 49 76 51 77
REMARK SMILES IDX 50 78 69 79 70 80 74 81 71 82 73 83 72 84 59 85 60 86 64 87
REMARK SMILES IDX 61 88 63 89 62 90
REMARK H PARENT 86 19 86 20 79 58 57 69
REMARK Flexibility Score: inf
ROOT
ATOM      1  O   UNL     1      -3.539  -7.117   1.601  1.00  0.00    -0.377 OA
ENDROOT
BRANCH   1   2
ATOM      2  C   UNL     1      -3.490  -5.907   0.865  1.00  0.00     0.188 C 
BRANCH   2   3
ATOM      3  C   UNL     1      -4.096  -5.885  -0.558  1.00  0.00     0.188 C 
BRANCH   3   4
ATOM      4  O   UNL     1      -5.057  -6.885  -0.831  1.00  0.00    -0.376 OA
BRANCH   4   5
ATOM      5  C   UNL     1      -4.711  -8.116  -1.437  1.00  0.00     0.202 C 
BRANCH   5   6
ATOM      6  C   UNL     1      -3.292  -8.703  -1.471  1.00  0.00     0.261 C 
BRANCH   6   7
ATOM      7  O   UNL     1      -2.293  -7.901  -0.857  1.00  0.00    -0.459 OA
BRANCH   7   8
ATOM      8  C   UNL     1      -1.301  -7.394  -1.629  1.00  0.00     0.345 C 
ATOM      9  O   UNL     1      -1.162  -7.563  -2.829  1.00  0.00    -0.246 OA
BRANCH   8  10
ATOM     10  C   UNL     1      -0.453  -6.489  -0.779  1.00  0.00     0.104 C 
ATOM     11  C   UNL     1       0.076  -6.908   0.391  1.00  0.00     0.070 C 
BRANCH  10  12
ATOM     12  S   UNL     1      -0.520  -4.844  -1.360  1.00  0.00    -0.028 SA
BRANCH  12  13
ATOM     13  C   UNL     1       0.907  -3.938  -0.698  1.00  0.00     0.393 C 
ATOM     14  C   UNL     1       0.936  -0.456   0.019  1.00  0.00     0.106 C 
ATOM     15  C   UNL     1       0.494  -1.730  -0.691  1.00  0.00     0.324 C 
ATOM     16  N   UNL     1       1.470  -2.038  -1.749  1.00  0.00    -0.126 NA
ATOM     17  N   UNL     1       0.438  -2.885   0.213  1.00  0.00    -0.293 N 
ATOM     18  N   UNL     1       1.723  -3.268  -1.735  1.00  0.00    -0.115 NA
ATOM     19  H   UNL     1      -0.511  -3.063   0.543  1.00  0.00     0.350 HD
ATOM     20  H   UNL     1       0.977  -2.786   1.073  1.00  0.00     0.350 HD
ENDBRANCH  12  13
ENDBRANCH  10  12
BRANCH  11  21
ATOM     21  C   UNL     1      -0.002  -8.257   0.877  1.00  0.00     0.128 A 
ATOM     22  C   UNL     1      -0.058  -9.466   0.186  1.00  0.00     0.051 A 
ATOM     23  O   UNL     1      -0.037  -8.569   2.232  1.00  0.00    -0.457 OA
ATOM     24  C   UNL     1      -0.244 -10.504   1.117  1.00  0.00     0.051 A 
ATOM     25  C   UNL     1      -0.182  -9.921   2.359  1.00  0.00     0.134 A 
BRANCH  25  26
ATOM     26  C   UNL     1      -0.172 -10.501   3.693  1.00  0.00     0.019 A 
ATOM     27  C   UNL     1       0.577 -11.674   3.902  1.00  0.00     0.012 A 
ATOM     28  C   UNL     1      -0.912  -9.975   4.756  1.00  0.00     0.032 A 
ATOM     29  C   UNL     1       0.573 -12.327   5.133  1.00  0.00     0.002 A 
ATOM     30  C   UNL     1      -0.898 -10.627   5.994  1.00  0.00     0.041 A 
ATOM     31  C   UNL     1      -0.177 -11.807   6.181  1.00  0.00     0.020 A 
ATOM     32  Cl  UNL     1      -1.752  -9.965   7.330  1.00  0.00    -0.084 Cl
ENDBRANCH  25  26
ENDBRANCH  11  21
ENDBRANCH   8  10
ENDBRANCH   7   8
ENDBRANCH   6   7
ENDBRANCH   5   6
ENDBRANCH   4   5
ENDBRANCH   3   4
ENDBRANCH   2   3
ENDBRANCH   1   2
BRANCH   1  33
ATOM     33  C   UNL     1      -4.795  -7.699   1.931  1.00  0.00     0.188 C 
BRANCH  33  34
ATOM     34  C   UNL     1      -6.135  -6.948   1.746  1.00  0.00     0.188 C 
BRANCH  34  35
ATOM     35  O   UNL     1      -6.025  -5.552   1.539  1.00  0.00    -0.376 OA
BRANCH  35  36
ATOM     36  C   UNL     1      -6.338  -4.675   2.605  1.00  0.00     0.202 C 
BRANCH  36  37
ATOM     37  C   UNL     1      -5.510  -4.789   3.892  1.00  0.00     0.261 C 
BRANCH  37  38
ATOM     38  O   UNL     1      -5.428  -6.097   4.475  1.00  0.00    -0.460 OA
BRANCH  38  39
ATOM     39  C   UNL     1      -6.569  -6.633   4.950  1.00  0.00     0.338 C 
ATOM     40  O   UNL     1      -7.684  -6.135   4.945  1.00  0.00    -0.246 OA
BRANCH  39  41
ATOM     41  C   UNL     1      -6.273  -8.023   5.340  1.00  0.00     0.060 A 
ATOM     42  C   UNL     1      -6.889  -9.083   4.661  1.00  0.00     0.016 A 
ATOM     43  C   UNL     1      -5.385  -8.269   6.385  1.00  0.00     0.016 A 
ATOM     44  C   UNL     1      -6.631 -10.400   5.043  1.00  0.00     0.010 A 
ATOM     45  C   UNL     1      -5.160  -9.585   6.788  1.00  0.00     0.010 A 
ATOM     46  C   UNL     1      -5.795 -10.656   6.135  1.00  0.00    -0.014 A 
BRANCH  46  47
ATOM     47  C   UNL     1      -5.744 -12.008   6.741  1.00  0.00     0.031 A 
ATOM     48  C   UNL     1      -6.535 -12.249   7.997  1.00  0.00     0.074 A 
ATOM     49  C   UNL     1      -5.018 -13.002   6.198  1.00  0.00     0.049 A 
ATOM     50  N   UNL     1      -6.605 -13.320   8.745  1.00  0.00    -0.248 NA
ATOM     51  C   UNL     1      -7.351 -11.122   8.479  1.00  0.00     0.031 C 
ATOM     52  C   UNL     1      -4.236 -12.910   4.966  1.00  0.00     0.029 A 
ATOM     53  N   UNL     1      -4.821 -14.291   6.628  1.00  0.00    -0.354 N 
ATOM     54  C   UNL     1      -7.455 -12.987   9.793  1.00  0.00     0.074 A 
ATOM     55  C   UNL     1      -7.846 -11.608   9.606  1.00  0.00     0.031 C 
ATOM     56  C   UNL     1      -3.646 -14.097   4.737  1.00  0.00     0.029 A 
ATOM     57  C   UNL     1      -3.974 -15.016   5.827  1.00  0.00     0.049 A 
ATOM     58  H   UNL     1      -5.248 -14.661   7.435  1.00  0.00     0.167 HD
ATOM     59  C   UNL     1      -7.881 -13.761  10.819  1.00  0.00     0.031 A 
ATOM     60  C   UNL     1      -3.503 -16.271   5.970  1.00  0.00     0.031 A 
ATOM     61  C   UNL     1      -7.482 -15.127  11.015  1.00  0.00     0.049 A 
ATOM     62  C   UNL     1      -3.931 -17.091   7.162  1.00  0.00     0.074 A 
ATOM     63  C   UNL     1      -7.869 -16.003  12.014  1.00  0.00     0.029 A 
ATOM     64  N   UNL     1      -6.596 -15.814  10.200  1.00  0.00    -0.354 N 
ATOM     65  N   UNL     1      -4.757 -16.777   8.132  1.00  0.00    -0.248 NA
ATOM     66  C   UNL     1      -3.363 -18.443   7.275  1.00  0.00     0.031 C 
ATOM     67  C   UNL     1      -7.165 -17.198  11.841  1.00  0.00     0.029 A 
ATOM     68  C   UNL     1      -6.400 -17.093  10.690  1.00  0.00     0.049 A 
ATOM     69  H   UNL     1      -6.169 -15.446   9.392  1.00  0.00     0.167 HD
ATOM     70  C   UNL     1      -4.835 -17.902   8.947  1.00  0.00     0.074 A 
ATOM     71  C   UNL     1      -3.983 -18.909   8.350  1.00  0.00     0.031 C 
ATOM     72  C   UNL     1      -5.551 -18.087  10.084  1.00  0.00     0.031 A 
BRANCH  59  73
ATOM     73  C   UNL     1      -8.796 -13.125  11.828  1.00  0.00    -0.014 A 
ATOM     74  C   UNL     1     -10.112 -12.760  11.500  1.00  0.00     0.009 A 
ATOM     75  C   UNL     1      -8.336 -12.899  13.135  1.00  0.00     0.009 A 
ATOM     76  C   UNL     1     -10.933 -12.146  12.448  1.00  0.00     0.001 A 
ATOM     77  C   UNL     1      -9.171 -12.317  14.090  1.00  0.00     0.001 A 
ATOM     78  C   UNL     1     -10.464 -11.930  13.743  1.00  0.00     0.000 A 
ENDBRANCH  59  73
BRANCH  60  79
ATOM     79  C   UNL     1      -2.558 -16.836   4.969  1.00  0.00    -0.014 A 
ATOM     80  C   UNL     1      -2.938 -17.909   4.148  1.00  0.00     0.009 A 
ATOM     81  C   UNL     1      -1.255 -16.325   4.851  1.00  0.00     0.009 A 
ATOM     82  C   UNL     1      -2.027 -18.476   3.253  1.00  0.00     0.001 A 
ATOM     83  C   UNL     1      -0.357 -16.872   3.932  1.00  0.00     0.001 A 
ATOM     84  C   UNL     1      -0.740 -17.954   3.142  1.00  0.00     0.000 A 
ENDBRANCH  60  79
BRANCH  72  85
ATOM     85  C   UNL     1      -5.488 -19.443  10.733  1.00  0.00    -0.014 A 
ATOM     86  C   UNL     1      -4.329 -19.899  11.380  1.00  0.00     0.009 A 
ATOM     87  C   UNL     1      -6.633 -20.257  10.741  1.00  0.00     0.009 A 
ATOM     88  C   UNL     1      -4.308 -21.157  11.988  1.00  0.00     0.001 A 
ATOM     89  C   UNL     1      -6.620 -21.498  11.379  1.00  0.00     0.001 A 
ATOM     90  C   UNL     1      -5.454 -21.952  11.992  1.00  0.00     0.000 A 
ENDBRANCH  72  85
ENDBRANCH  46  47
ENDBRANCH  39  41
ENDBRANCH  38  39
ENDBRANCH  37  38
ENDBRANCH  36  37
ENDBRANCH  35  36
ENDBRANCH  34  35
ENDBRANCH  33  34
ENDBRANCH   1  33
TORSDOF 24
