REMARK SMILES CC[C@@H](C(=O)OCCOCCOCCOCCOC(=O)c1ccc(-c2c3nc(c(-c4ccccc4)c4ccc([nH]4)c(-c4ccccc4)c4nc(c(-c5ccccc5)c5ccc2[nH]5)C=C4)C=C3)cc1)N(C)C(=O)N(C)C[C@@H]1CCC[N@H+]1C
REMARK SMILES IDX 10 1 9 2 8 3 7 4 6 5 4 6 5 7 3 8 2 9 1 10 69 11 70 12 71 13
REMARK SMILES IDX 72 14 73 15 74 16 75 17 76 18 77 19 80 20 78 21 79 22 81 23
REMARK SMILES IDX 11 25 12 26 13 27 14 28 15 29 16 30 17 31 18 32 19 33 20 34
REMARK SMILES IDX 21 35 22 36 68 37 23 38 67 39 24 40 25 41 26 42 61 43 27 44
REMARK SMILES IDX 66 45 60 46 62 47 28 48 65 49 59 50 58 51 29 53 51 54 36 55
REMARK SMILES IDX 50 56 37 57 40 58 49 59 63 60 38 61 39 62 48 64 64 65 41 66
REMARK SMILES IDX 30 67 31 68 35 69 32 70 34 71 33 72 52 73 53 74 57 75 54 76
REMARK SMILES IDX 56 77 55 78 42 79 43 80 47 81 44 82 46 83 45 84
REMARK H PARENT 80 24 62 52 40 63
REMARK Flexibility Score: inf
ROOT
ATOM      1  C   UNL     1      -6.048  -1.952   7.074  1.00  0.00     0.188 C 
ENDROOT
BRANCH   1   2
ATOM      2  O   UNL     1      -6.828  -2.007   8.257  1.00  0.00    -0.376 OA
BRANCH   2   3
ATOM      3  C   UNL     1      -8.186  -1.622   8.154  1.00  0.00     0.202 C 
BRANCH   3   4
ATOM      4  C   UNL     1      -9.085  -2.502   7.276  1.00  0.00     0.261 C 
BRANCH   4   5
ATOM      5  O   UNL     1      -8.593  -2.791   5.955  1.00  0.00    -0.462 OA
BRANCH   5   6
ATOM      6  C   UNL     1      -8.620  -1.800   5.037  1.00  0.00     0.328 C 
ATOM      7  O   UNL     1      -9.079  -0.685   5.278  1.00  0.00    -0.250 OA
BRANCH   6   8
ATOM      8  C   UNL     1      -8.091  -2.214   3.633  1.00  0.00     0.196 C 
BRANCH   8   9
ATOM      9  C   UNL     1      -7.514  -3.623   3.312  1.00  0.00     0.034 C 
ATOM     10  C   UNL     1      -8.222  -4.833   3.918  1.00  0.00     0.007 C 
ENDBRANCH   8   9
BRANCH   8  11
ATOM     11  N   UNL     1      -7.266  -1.062   3.091  1.00  0.00    -0.314 N 
ATOM     12  C   UNL     1      -8.040  -0.090   2.346  1.00  0.00     0.149 C 
BRANCH  11  13
ATOM     13  C   UNL     1      -5.954  -0.924   3.509  1.00  0.00     0.320 C 
ATOM     14  O   UNL     1      -5.442  -1.866   4.119  1.00  0.00    -0.248 OA
BRANCH  13  15
ATOM     15  N   UNL     1      -5.172   0.201   3.311  1.00  0.00    -0.322 N 
ATOM     16  C   UNL     1      -5.453   1.436   2.595  1.00  0.00     0.149 C 
BRANCH  15  17
ATOM     17  C   UNL     1      -3.776   0.143   3.834  1.00  0.00     0.185 C 
BRANCH  17  18
ATOM     18  C   UNL     1      -3.338   1.121   4.965  1.00  0.00     0.203 C 
ATOM     19  C   UNL     1      -4.158   1.025   6.251  1.00  0.00     0.073 C 
ATOM     20  N   UNL     1      -3.334   2.575   4.701  1.00  0.00    -0.333 N 
ATOM     21  C   UNL     1      -3.960   2.364   6.958  1.00  0.00     0.068 C 
ATOM     22  C   UNL     1      -3.096   3.186   6.017  1.00  0.00     0.262 C 
ATOM     23  C   UNL     1      -2.311   2.983   3.746  1.00  0.00     0.333 C 
ATOM     24  H   UNL     1      -4.213   2.869   4.274  1.00  0.00     0.348 HD
ENDBRANCH  17  18
ENDBRANCH  15  17
ENDBRANCH  13  15
ENDBRANCH  11  13
ENDBRANCH   8  11
ENDBRANCH   6   8
ENDBRANCH   5   6
ENDBRANCH   4   5
ENDBRANCH   3   4
ENDBRANCH   2   3
ENDBRANCH   1   2
BRANCH   1  25
ATOM     25  C   UNL     1      -5.725  -3.324   6.437  1.00  0.00     0.188 C 
BRANCH  25  26
ATOM     26  O   UNL     1      -5.711  -4.552   7.154  1.00  0.00    -0.377 OA
BRANCH  26  27
ATOM     27  C   UNL     1      -5.928  -4.511   8.545  1.00  0.00     0.188 C 
BRANCH  27  28
ATOM     28  C   UNL     1      -4.836  -3.793   9.357  1.00  0.00     0.188 C 
BRANCH  28  29
ATOM     29  O   UNL     1      -3.952  -3.002   8.573  1.00  0.00    -0.376 OA
BRANCH  29  30
ATOM     30  C   UNL     1      -2.674  -3.538   8.262  1.00  0.00     0.202 C 
BRANCH  30  31
ATOM     31  C   UNL     1      -2.597  -4.800   7.386  1.00  0.00     0.261 C 
BRANCH  31  32
ATOM     32  O   UNL     1      -3.312  -5.953   7.851  1.00  0.00    -0.460 OA
BRANCH  32  33
ATOM     33  C   UNL     1      -3.013  -6.452   9.065  1.00  0.00     0.338 C 
ATOM     34  O   UNL     1      -2.149  -6.074   9.837  1.00  0.00    -0.246 OA
BRANCH  33  35
ATOM     35  C   UNL     1      -4.069  -7.433   9.391  1.00  0.00     0.060 A 
ATOM     36  C   UNL     1      -4.867  -7.226  10.526  1.00  0.00     0.016 A 
ATOM     37  C   UNL     1      -4.307  -8.515   8.542  1.00  0.00     0.016 A 
ATOM     38  C   UNL     1      -5.911  -8.103  10.812  1.00  0.00     0.010 A 
ATOM     39  C   UNL     1      -5.323  -9.418   8.854  1.00  0.00     0.010 A 
ATOM     40  C   UNL     1      -6.113  -9.227  10.002  1.00  0.00    -0.014 A 
BRANCH  40  41
ATOM     41  C   UNL     1      -6.976 -10.329  10.480  1.00  0.00     0.031 A 
ATOM     42  C   UNL     1      -6.318 -11.445  11.241  1.00  0.00     0.074 A 
ATOM     43  C   UNL     1      -8.300 -10.345  10.251  1.00  0.00     0.049 A 
ATOM     44  N   UNL     1      -6.832 -12.556  11.697  1.00  0.00    -0.248 NA
ATOM     45  C   UNL     1      -4.880 -11.283  11.520  1.00  0.00     0.031 C 
ATOM     46  C   UNL     1      -9.061  -9.295   9.577  1.00  0.00     0.029 A 
ATOM     47  N   UNL     1      -9.237 -11.300  10.558  1.00  0.00    -0.354 N 
ATOM     48  C   UNL     1      -5.780 -13.229  12.306  1.00  0.00     0.074 A 
ATOM     49  C   UNL     1      -4.597 -12.416  12.141  1.00  0.00     0.031 C 
ATOM     50  C   UNL     1     -10.351  -9.671   9.508  1.00  0.00     0.029 A 
ATOM     51  C   UNL     1     -10.496 -11.002  10.096  1.00  0.00     0.049 A 
ATOM     52  H   UNL     1      -9.027 -12.119  11.062  1.00  0.00     0.167 HD
ATOM     53  C   UNL     1      -5.798 -14.420  12.947  1.00  0.00     0.031 A 
ATOM     54  C   UNL     1     -11.624 -11.739  10.120  1.00  0.00     0.031 A 
ATOM     55  C   UNL     1      -6.970 -15.239  13.084  1.00  0.00     0.049 A 
ATOM     56  C   UNL     1     -11.597 -13.109  10.750  1.00  0.00     0.074 A 
ATOM     57  C   UNL     1      -7.096 -16.462  13.718  1.00  0.00     0.029 A 
ATOM     58  N   UNL     1      -8.216 -14.922  12.565  1.00  0.00    -0.354 N 
ATOM     59  N   UNL     1     -10.605 -13.729  11.345  1.00  0.00    -0.248 NA
ATOM     60  C   UNL     1     -12.848 -13.881  10.714  1.00  0.00     0.031 C 
ATOM     61  C   UNL     1      -8.404 -16.916  13.526  1.00  0.00     0.029 A 
ATOM     62  C   UNL     1      -9.111 -15.942  12.837  1.00  0.00     0.049 A 
ATOM     63  H   UNL     1      -8.432 -14.095  12.076  1.00  0.00     0.167 HD
ATOM     64  C   UNL     1     -11.121 -14.944  11.782  1.00  0.00     0.074 A 
ATOM     65  C   UNL     1     -12.515 -14.969  11.395  1.00  0.00     0.031 C 
ATOM     66  C   UNL     1     -10.498 -15.947  12.449  1.00  0.00     0.031 A 
BRANCH  53  67
ATOM     67  C   UNL     1      -4.496 -14.923  13.501  1.00  0.00    -0.014 A 
ATOM     68  C   UNL     1      -3.885 -14.312  14.608  1.00  0.00     0.009 A 
ATOM     69  C   UNL     1      -3.879 -16.039  12.914  1.00  0.00     0.009 A 
ATOM     70  C   UNL     1      -2.666 -14.789  15.094  1.00  0.00     0.001 A 
ATOM     71  C   UNL     1      -2.677 -16.532  13.421  1.00  0.00     0.001 A 
ATOM     72  C   UNL     1      -2.066 -15.901  14.504  1.00  0.00     0.000 A 
ENDBRANCH  53  67
BRANCH  54  73
ATOM     73  C   UNL     1     -12.874 -11.218   9.503  1.00  0.00    -0.014 A 
ATOM     74  C   UNL     1     -13.991 -10.908  10.295  1.00  0.00     0.009 A 
ATOM     75  C   UNL     1     -12.969 -11.062   8.111  1.00  0.00     0.009 A 
ATOM     76  C   UNL     1     -15.182 -10.479   9.704  1.00  0.00     0.001 A 
ATOM     77  C   UNL     1     -14.151 -10.602   7.525  1.00  0.00     0.001 A 
ATOM     78  C   UNL     1     -15.260 -10.322   8.321  1.00  0.00     0.000 A 
ENDBRANCH  54  73
BRANCH  66  79
ATOM     79  C   UNL     1     -11.325 -17.137  12.849  1.00  0.00    -0.014 A 
ATOM     80  C   UNL     1     -11.776 -18.070  11.903  1.00  0.00     0.009 A 
ATOM     81  C   UNL     1     -11.600 -17.360  14.208  1.00  0.00     0.009 A 
ATOM     82  C   UNL     1     -12.510 -19.187  12.309  1.00  0.00     0.001 A 
ATOM     83  C   UNL     1     -12.304 -18.494  14.614  1.00  0.00     0.001 A 
ATOM     84  C   UNL     1     -12.767 -19.402  13.664  1.00  0.00     0.000 A 
ENDBRANCH  66  79
ENDBRANCH  40  41
ENDBRANCH  33  35
ENDBRANCH  32  33
ENDBRANCH  31  32
ENDBRANCH  30  31
ENDBRANCH  29  30
ENDBRANCH  28  29
ENDBRANCH  27  28
ENDBRANCH  26  27
ENDBRANCH  25  26
ENDBRANCH   1  25
TORSDOF 26
