REMARK SMILES C/C(=N\NC(N)=S)c1nnn(-c2ccc(C(=O)OCCOCCOCCOCCOC(=O)c3ccc(-c4c5nc(c(-c6ccccc6)c6ccc([nH]6)c(-c6ccccc6)c6nc(c(-c7ccccc7)c7ccc4[nH]7)C=C6)C=C5)cc3)cc2)c1C
REMARK SMILES IDX 22 1 21 2 20 3 19 4 18 5 16 6 17 7 15 8 12 9 13 10 82 11
REMARK SMILES IDX 14 12 81 13 11 14 8 15 9 16 83 17 10 18 84 19 2 20 1 21 3 22
REMARK SMILES IDX 4 23 5 25 7 26 6 27 23 30 24 31 25 32 26 33 27 34 28 35
REMARK SMILES IDX 29 36 30 37 31 38 32 39 33 40 34 41 80 42 35 43 79 44 36 45
REMARK SMILES IDX 37 46 38 47 73 48 39 49 78 50 72 51 74 52 40 53 77 54 71 55
REMARK SMILES IDX 70 56 41 58 63 59 48 60 62 61 49 62 52 63 61 64 75 65 50 66
REMARK SMILES IDX 51 67 60 69 76 70 53 71 42 72 43 73 47 74 44 75 46 76 45 77
REMARK SMILES IDX 64 78 65 79 69 80 66 81 68 82 67 83 54 84 55 85 59 86 56 87
REMARK SMILES IDX 58 88 57 89
REMARK H PARENT 4 24 6 28 6 29 74 57 52 68
REMARK Flexibility Score: inf
ROOT
ATOM      1  C   UNL     1       6.947   8.880  -2.846  1.00  0.00     0.188 C 
ENDROOT
BRANCH   1   2
ATOM      2  O   UNL     1       8.339   9.150  -2.848  1.00  0.00    -0.376 OA
BRANCH   2   3
ATOM      3  C   UNL     1       9.164   8.496  -1.909  1.00  0.00     0.202 C 
BRANCH   3   4
ATOM      4  C   UNL     1       9.262   6.970  -2.000  1.00  0.00     0.261 C 
BRANCH   4   5
ATOM      5  O   UNL     1       8.021   6.280  -2.173  1.00  0.00    -0.460 OA
BRANCH   5   6
ATOM      6  C   UNL     1       7.179   6.241  -1.127  1.00  0.00     0.338 C 
ATOM      7  O   UNL     1       7.369   6.720  -0.007  1.00  0.00    -0.246 OA
BRANCH   6   8
ATOM      8  C   UNL     1       5.899   5.666  -1.585  1.00  0.00     0.060 A 
ATOM      9  C   UNL     1       3.512   4.434  -2.241  1.00  0.00     0.067 A 
ATOM     10  C   UNL     1       3.479   5.574  -1.432  1.00  0.00     0.029 A 
ATOM     11  C   UNL     1       4.698   4.002  -2.845  1.00  0.00     0.029 A 
ATOM     12  C   UNL     1       4.689   6.175  -1.082  1.00  0.00     0.018 A 
ATOM     13  C   UNL     1       5.894   4.624  -2.520  1.00  0.00     0.018 A 
BRANCH   9  14
ATOM     14  N   UNL     1       2.419   3.547  -2.205  1.00  0.00    -0.217 N 
ATOM     15  C   UNL     1       1.136   1.877  -1.663  1.00  0.00     0.132 A 
ATOM     16  N   UNL     1       0.352   2.911  -2.108  1.00  0.00    -0.128 NA
ATOM     17  C   UNL     1       2.460   2.261  -1.689  1.00  0.00     0.071 A 
ATOM     18  N   UNL     1       1.141   3.951  -2.355  1.00  0.00    -0.061 NA
ATOM     19  C   UNL     1       3.673   1.613  -1.130  1.00  0.00     0.069 C 
BRANCH  15  20
ATOM     20  C   UNL     1       0.588   0.680  -1.057  1.00  0.00     0.087 C 
ATOM     21  C   UNL     1       0.536   0.661   0.450  1.00  0.00     0.071 C 
ATOM     22  N   UNL     1       0.187  -0.236  -1.887  1.00  0.00    -0.176 NA
BRANCH  22  23
ATOM     23  N   UNL     1      -0.389  -1.390  -1.444  1.00  0.00    -0.254 N 
ATOM     24  H   UNL     1      -1.343  -1.508  -1.658  1.00  0.00     0.193 HD
BRANCH  23  25
ATOM     25  C   UNL     1       0.204  -2.413  -0.731  1.00  0.00     0.184 C 
ATOM     26  S   UNL     1       1.740  -2.514  -0.101  1.00  0.00    -0.040 S 
BRANCH  25  27
ATOM     27  N   UNL     1      -0.647  -3.469  -0.546  1.00  0.00    -0.375 N 
ATOM     28  H   UNL     1      -1.561  -3.434  -0.909  1.00  0.00     0.159 HD
ATOM     29  H   UNL     1      -0.344  -4.264  -0.050  1.00  0.00     0.159 HD
ENDBRANCH  25  27
ENDBRANCH  23  25
ENDBRANCH  22  23
ENDBRANCH  15  20
ENDBRANCH   9  14
ENDBRANCH   6   8
ENDBRANCH   5   6
ENDBRANCH   4   5
ENDBRANCH   3   4
ENDBRANCH   2   3
ENDBRANCH   1   2
BRANCH   1  30
ATOM     30  C   UNL     1       6.461   8.152  -4.122  1.00  0.00     0.188 C 
BRANCH  30  31
ATOM     31  O   UNL     1       7.405   7.689  -5.080  1.00  0.00    -0.377 OA
BRANCH  31  32
ATOM     32  C   UNL     1       8.492   8.523  -5.476  1.00  0.00     0.188 C 
BRANCH  32  33
ATOM     33  C   UNL     1       8.409  10.074  -5.439  1.00  0.00     0.188 C 
BRANCH  33  34
ATOM     34  O   UNL     1       7.233  10.607  -4.855  1.00  0.00    -0.376 OA
BRANCH  34  35
ATOM     35  C   UNL     1       6.293  11.334  -5.616  1.00  0.00     0.202 C 
BRANCH  35  36
ATOM     36  C   UNL     1       5.538  10.581  -6.706  1.00  0.00     0.261 C 
BRANCH  36  37
ATOM     37  O   UNL     1       6.333   9.653  -7.419  1.00  0.00    -0.460 OA
BRANCH  37  38
ATOM     38  C   UNL     1       7.223  10.194  -8.256  1.00  0.00     0.338 C 
ATOM     39  O   UNL     1       7.533  11.386  -8.347  1.00  0.00    -0.246 OA
BRANCH  38  40
ATOM     40  C   UNL     1       7.705   9.150  -9.154  1.00  0.00     0.060 A 
ATOM     41  C   UNL     1       8.706   9.516 -10.051  1.00  0.00     0.016 A 
ATOM     42  C   UNL     1       6.935   7.985  -9.316  1.00  0.00     0.016 A 
ATOM     43  C   UNL     1       8.738   8.869 -11.260  1.00  0.00     0.010 A 
ATOM     44  C   UNL     1       6.963   7.345 -10.529  1.00  0.00     0.010 A 
ATOM     45  C   UNL     1       7.782   7.876 -11.515  1.00  0.00    -0.014 A 
BRANCH  45  46
ATOM     46  C   UNL     1       7.643   7.447 -12.884  1.00  0.00     0.031 A 
ATOM     47  C   UNL     1       8.771   6.645 -13.377  1.00  0.00     0.074 A 
ATOM     48  C   UNL     1       6.579   7.765 -13.640  1.00  0.00     0.049 A 
ATOM     49  N   UNL     1       9.674   7.009 -14.222  1.00  0.00    -0.248 NA
ATOM     50  C   UNL     1       8.999   5.339 -12.748  1.00  0.00     0.031 C 
ATOM     51  C   UNL     1       5.287   8.320 -13.231  1.00  0.00     0.029 A 
ATOM     52  N   UNL     1       6.420   7.551 -14.970  1.00  0.00    -0.354 N 
ATOM     53  C   UNL     1      10.506   5.910 -14.368  1.00  0.00     0.074 A 
ATOM     54  C   UNL     1      10.135   4.970 -13.338  1.00  0.00     0.031 C 
ATOM     55  C   UNL     1       4.405   8.174 -14.249  1.00  0.00     0.029 A 
ATOM     56  C   UNL     1       5.113   7.658 -15.410  1.00  0.00     0.049 A 
ATOM     57  H   UNL     1       7.170   7.338 -15.571  1.00  0.00     0.167 HD
ATOM     58  C   UNL     1      11.284   5.754 -15.470  1.00  0.00     0.031 A 
ATOM     59  C   UNL     1       4.654   7.269 -16.622  1.00  0.00     0.031 A 
ATOM     60  C   UNL     1      11.433   6.976 -16.215  1.00  0.00     0.049 A 
ATOM     61  C   UNL     1       5.814   7.192 -17.544  1.00  0.00     0.074 A 
ATOM     62  C   UNL     1      11.956   8.225 -15.942  1.00  0.00     0.029 A 
ATOM     63  N   UNL     1      10.655   7.131 -17.338  1.00  0.00    -0.354 N 
ATOM     64  N   UNL     1       6.470   8.238 -17.957  1.00  0.00    -0.248 NA
ATOM     65  C   UNL     1       6.526   5.927 -17.662  1.00  0.00     0.031 C 
ATOM     66  C   UNL     1      11.100   9.142 -16.622  1.00  0.00     0.029 A 
ATOM     67  C   UNL     1      10.132   8.399 -17.300  1.00  0.00     0.049 A 
ATOM     68  H   UNL     1      10.502   6.458 -18.040  1.00  0.00     0.167 HD
ATOM     69  C   UNL     1       7.800   7.842 -17.973  1.00  0.00     0.074 A 
ATOM     70  C   UNL     1       7.761   6.384 -17.891  1.00  0.00     0.031 C 
ATOM     71  C   UNL     1       8.807   8.742 -17.766  1.00  0.00     0.031 A 
BRANCH  58  72
ATOM     72  C   UNL     1      11.555   4.407 -16.073  1.00  0.00    -0.014 A 
ATOM     73  C   UNL     1      12.472   4.309 -17.131  1.00  0.00     0.009 A 
ATOM     74  C   UNL     1      10.733   3.288 -15.831  1.00  0.00     0.009 A 
ATOM     75  C   UNL     1      12.520   3.170 -17.941  1.00  0.00     0.001 A 
ATOM     76  C   UNL     1      10.809   2.133 -16.609  1.00  0.00     0.001 A 
ATOM     77  C   UNL     1      11.684   2.086 -17.683  1.00  0.00     0.000 A 
ENDBRANCH  58  72
BRANCH  59  78
ATOM     78  C   UNL     1       3.348   6.659 -16.936  1.00  0.00    -0.014 A 
ATOM     79  C   UNL     1       2.882   6.599 -18.258  1.00  0.00     0.009 A 
ATOM     80  C   UNL     1       2.679   5.889 -15.966  1.00  0.00     0.009 A 
ATOM     81  C   UNL     1       1.808   5.767 -18.601  1.00  0.00     0.001 A 
ATOM     82  C   UNL     1       1.605   5.062 -16.308  1.00  0.00     0.001 A 
ATOM     83  C   UNL     1       1.180   4.990 -17.630  1.00  0.00     0.000 A 
ENDBRANCH  59  78
BRANCH  71  84
ATOM     84  C   UNL     1       8.442  10.207 -17.746  1.00  0.00    -0.014 A 
ATOM     85  C   UNL     1       7.550  10.756 -16.807  1.00  0.00     0.009 A 
ATOM     86  C   UNL     1       9.122  11.082 -18.605  1.00  0.00     0.009 A 
ATOM     87  C   UNL     1       7.317  12.134 -16.758  1.00  0.00     0.001 A 
ATOM     88  C   UNL     1       8.905  12.460 -18.542  1.00  0.00     0.001 A 
ATOM     89  C   UNL     1       7.998  12.986 -17.624  1.00  0.00     0.000 A 
ENDBRANCH  71  84
ENDBRANCH  45  46
ENDBRANCH  38  40
ENDBRANCH  37  38
ENDBRANCH  36  37
ENDBRANCH  35  36
ENDBRANCH  34  35
ENDBRANCH  33  34
ENDBRANCH  32  33
ENDBRANCH  31  32
ENDBRANCH  30  31
ENDBRANCH   1  30
TORSDOF 25
