REMARK SMILES O=C(OCCOCCOCCOCCOC(=O)[C@@H]1[C@H](C(=O)NCc2ccncc2)[C@H]2C=C[C@@H]1O2)c1ccc(-c2c3nc(c(-c4ccccc4)c4ccc([nH]4)c(-c4ccccc4)c4nc(c(-c5ccccc5)c5ccc2[nH]5)C=C4)C=C3)cc1
REMARK SMILES IDX 10 1 9 2 8 3 7 4 6 5 5 6 4 7 3 8 2 9 1 10 35 11 36 12 82 13
REMARK SMILES IDX 37 14 81 15 38 16 39 17 40 18 75 19 41 20 80 21 74 22 76 23
REMARK SMILES IDX 42 24 79 25 73 26 72 27 43 29 65 30 50 31 64 32 51 33 54 34
REMARK SMILES IDX 63 35 77 36 52 37 53 38 62 40 78 41 55 42 44 43 45 44 49 45
REMARK SMILES IDX 46 46 48 47 47 48 66 49 67 50 71 51 68 52 70 53 69 54 56 55
REMARK SMILES IDX 57 56 61 57 58 58 60 59 59 60 11 61 12 62 13 63 14 64 15 65
REMARK SMILES IDX 16 66 17 67 18 68 19 69 33 70 30 71 32 72 34 73 31 74 20 75
REMARK SMILES IDX 21 76 22 77 23 79 24 80 25 81 29 82 26 83 28 84 27 85
REMARK H PARENT 76 28 54 39 22 78
REMARK Flexibility Score: inf
ROOT
ATOM      1  C   UNL     1       5.487   0.260  -2.458  1.00  0.00     0.188 C 
ENDROOT
BRANCH   1   2
ATOM      2  O   UNL     1       4.214  -0.347  -2.693  1.00  0.00    -0.377 OA
BRANCH   2   3
ATOM      3  C   UNL     1       3.374  -0.750  -1.625  1.00  0.00     0.188 C 
BRANCH   3   4
ATOM      4  C   UNL     1       3.600  -0.051  -0.311  1.00  0.00     0.188 C 
BRANCH   4   5
ATOM      5  O   UNL     1       4.887  -0.356   0.222  1.00  0.00    -0.376 OA
BRANCH   5   6
ATOM      6  C   UNL     1       5.099  -1.707   0.596  1.00  0.00     0.202 C 
BRANCH   6   7
ATOM      7  C   UNL     1       4.563  -2.044   1.987  1.00  0.00     0.261 C 
BRANCH   7   8
ATOM      8  O   UNL     1       3.214  -1.591   2.204  1.00  0.00    -0.460 OA
BRANCH   8   9
ATOM      9  C   UNL     1       2.891  -0.551   3.023  1.00  0.00     0.338 C 
ATOM     10  O   UNL     1       1.955  -0.648   3.810  1.00  0.00    -0.246 OA
BRANCH   9  11
ATOM     11  C   UNL     1       3.456   0.807   2.740  1.00  0.00     0.060 A 
ATOM     12  C   UNL     1       4.809   1.047   2.496  1.00  0.00     0.016 A 
ATOM     13  C   UNL     1       2.575   1.907   2.744  1.00  0.00     0.016 A 
ATOM     14  C   UNL     1       5.271   2.322   2.187  1.00  0.00     0.010 A 
ATOM     15  C   UNL     1       3.051   3.215   2.556  1.00  0.00     0.010 A 
ATOM     16  C   UNL     1       4.417   3.421   2.325  1.00  0.00    -0.014 A 
BRANCH  16  17
ATOM     17  C   UNL     1       5.100   4.673   2.732  1.00  0.00     0.031 A 
ATOM     18  C   UNL     1       5.688   4.648   4.123  1.00  0.00     0.074 A 
ATOM     19  C   UNL     1       5.360   5.685   1.890  1.00  0.00     0.049 A 
ATOM     20  N   UNL     1       6.621   5.393   4.650  1.00  0.00    -0.248 NA
ATOM     21  C   UNL     1       5.215   3.564   5.007  1.00  0.00     0.031 C 
ATOM     22  C   UNL     1       4.923   5.780   0.500  1.00  0.00     0.029 A 
ATOM     23  N   UNL     1       6.105   6.820   2.089  1.00  0.00    -0.354 N 
ATOM     24  C   UNL     1       6.887   4.821   5.888  1.00  0.00     0.074 A 
ATOM     25  C   UNL     1       6.032   3.670   6.037  1.00  0.00     0.031 C 
ATOM     26  C   UNL     1       5.419   6.912  -0.035  1.00  0.00     0.029 A 
ATOM     27  C   UNL     1       6.198   7.622   0.978  1.00  0.00     0.049 A 
ATOM     28  H   UNL     1       6.532   7.039   2.949  1.00  0.00     0.167 HD
ATOM     29  C   UNL     1       7.745   5.235   6.847  1.00  0.00     0.031 A 
ATOM     30  C   UNL     1       6.847   8.793   0.818  1.00  0.00     0.031 A 
ATOM     31  C   UNL     1       8.444   6.481   6.780  1.00  0.00     0.049 A 
ATOM     32  C   UNL     1       7.640   9.343   1.981  1.00  0.00     0.074 A 
ATOM     33  C   UNL     1       9.222   7.090   7.744  1.00  0.00     0.029 A 
ATOM     34  N   UNL     1       8.386   7.341   5.693  1.00  0.00    -0.354 N 
ATOM     35  N   UNL     1       7.903   8.791   3.143  1.00  0.00    -0.248 NA
ATOM     36  C   UNL     1       8.226  10.680   1.808  1.00  0.00     0.031 C 
ATOM     37  C   UNL     1       9.571   8.359   7.267  1.00  0.00     0.029 A 
ATOM     38  C   UNL     1       9.083   8.498   5.975  1.00  0.00     0.049 A 
ATOM     39  H   UNL     1       7.919   7.154   4.847  1.00  0.00     0.167 HD
ATOM     40  C   UNL     1       8.707   9.697   3.826  1.00  0.00     0.074 A 
ATOM     41  C   UNL     1       8.899  10.829   2.941  1.00  0.00     0.031 C 
ATOM     42  C   UNL     1       9.246   9.606   5.068  1.00  0.00     0.031 A 
BRANCH  29  43
ATOM     43  C   UNL     1       7.812   4.388   8.085  1.00  0.00    -0.014 A 
ATOM     44  C   UNL     1       8.434   3.128   8.075  1.00  0.00     0.009 A 
ATOM     45  C   UNL     1       7.148   4.812   9.245  1.00  0.00     0.009 A 
ATOM     46  C   UNL     1       8.348   2.292   9.191  1.00  0.00     0.001 A 
ATOM     47  C   UNL     1       7.086   3.985  10.366  1.00  0.00     0.001 A 
ATOM     48  C   UNL     1       7.673   2.721  10.334  1.00  0.00     0.000 A 
ENDBRANCH  29  43
BRANCH  30  49
ATOM     49  C   UNL     1       6.764   9.544  -0.467  1.00  0.00    -0.014 A 
ATOM     50  C   UNL     1       7.905   9.772  -1.253  1.00  0.00     0.009 A 
ATOM     51  C   UNL     1       5.540  10.086  -0.892  1.00  0.00     0.009 A 
ATOM     52  C   UNL     1       7.827  10.544  -2.417  1.00  0.00     0.001 A 
ATOM     53  C   UNL     1       5.458  10.833  -2.071  1.00  0.00     0.001 A 
ATOM     54  C   UNL     1       6.603  11.070  -2.827  1.00  0.00     0.000 A 
ENDBRANCH  30  49
BRANCH  42  55
ATOM     55  C   UNL     1      10.127  10.734   5.526  1.00  0.00    -0.014 A 
ATOM     56  C   UNL     1       9.602  11.991   5.857  1.00  0.00     0.009 A 
ATOM     57  C   UNL     1      11.501  10.501   5.697  1.00  0.00     0.009 A 
ATOM     58  C   UNL     1      10.444  13.005   6.319  1.00  0.00     0.001 A 
ATOM     59  C   UNL     1      12.334  11.504   6.192  1.00  0.00     0.001 A 
ATOM     60  C   UNL     1      11.806  12.758   6.492  1.00  0.00     0.000 A 
ENDBRANCH  42  55
ENDBRANCH  16  17
ENDBRANCH   9  11
ENDBRANCH   8   9
ENDBRANCH   7   8
ENDBRANCH   6   7
ENDBRANCH   5   6
ENDBRANCH   4   5
ENDBRANCH   3   4
ENDBRANCH   2   3
ENDBRANCH   1   2
BRANCH   1  61
ATOM     61  C   UNL     1       5.902   1.037  -3.720  1.00  0.00     0.188 C 
BRANCH  61  62
ATOM     62  O   UNL     1       5.155   2.253  -3.843  1.00  0.00    -0.376 OA
BRANCH  62  63
ATOM     63  C   UNL     1       5.306   2.920  -5.100  1.00  0.00     0.202 C 
BRANCH  63  64
ATOM     64  C   UNL     1       4.313   2.509  -6.208  1.00  0.00     0.261 C 
BRANCH  64  65
ATOM     65  O   UNL     1       4.148   1.093  -6.402  1.00  0.00    -0.463 OA
BRANCH  65  66
ATOM     66  C   UNL     1       5.138   0.424  -7.002  1.00  0.00     0.312 C 
ATOM     67  O   UNL     1       6.162   0.965  -7.431  1.00  0.00    -0.252 OA
BRANCH  66  68
ATOM     68  C   UNL     1       4.966  -1.072  -7.019  1.00  0.00     0.147 C 
ATOM     69  C   UNL     1       3.654  -1.833  -6.676  1.00  0.00     0.128 C 
ATOM     70  C   UNL     1       5.944  -1.669  -5.987  1.00  0.00     0.157 C 
ATOM     71  C   UNL     1       4.092  -2.708  -5.487  1.00  0.00     0.155 C 
ATOM     72  C   UNL     1       6.211  -3.115  -6.260  1.00  0.00     0.004 C 
ATOM     73  O   UNL     1       5.053  -1.835  -4.853  1.00  0.00    -0.365 OA
ATOM     74  C   UNL     1       5.078  -3.762  -5.950  1.00  0.00     0.004 C 
BRANCH  69  75
ATOM     75  C   UNL     1       2.237  -1.232  -6.639  1.00  0.00     0.227 C 
ATOM     76  O   UNL     1       1.414  -1.693  -7.450  1.00  0.00    -0.275 OA
ATOM     77  N   UNL     1       1.717  -0.276  -5.833  1.00  0.00    -0.352 N 
ATOM     78  H   UNL     1       0.916   0.174  -6.188  1.00  0.00     0.163 HD
BRANCH  77  79
ATOM     79  C   UNL     1       2.149   0.190  -4.539  1.00  0.00     0.151 C 
BRANCH  79  80
ATOM     80  C   UNL     1       1.724   1.581  -4.085  1.00  0.00    -0.026 A 
ATOM     81  C   UNL     1       2.432   2.196  -3.038  1.00  0.00     0.025 A 
ATOM     82  C   UNL     1       0.664   2.320  -4.598  1.00  0.00     0.025 A 
ATOM     83  C   UNL     1       2.146   3.479  -2.605  1.00  0.00     0.111 A 
ATOM     84  C   UNL     1       0.423   3.601  -4.089  1.00  0.00     0.111 A 
ATOM     85  N   UNL     1       1.143   4.202  -3.115  1.00  0.00    -0.265 NA
ENDBRANCH  79  80
ENDBRANCH  77  79
ENDBRANCH  69  75
ENDBRANCH  66  68
ENDBRANCH  65  66
ENDBRANCH  64  65
ENDBRANCH  63  64
ENDBRANCH  62  63
ENDBRANCH  61  62
ENDBRANCH   1  61
TORSDOF 23
