REMARK SMILES CC(C)CCOc1ccccc1-c1cc(C(=O)OCCOCCOCCOCCOC(=O)c2ccc(-c3c4nc(c(-c5ccccc5)c5ccc([nH]5)c(-c5ccccc5)c5nc(c(-c6ccccc6)c6ccc3[nH]6)C=C5)C=C4)cc2)no1
REMARK SMILES IDX 22 1 21 2 20 3 19 4 18 5 16 6 17 7 15 8 13 9 14 10 82 11
REMARK SMILES IDX 81 12 12 13 7 14 8 15 9 16 11 17 10 18 6 19 5 20 4 21 2 22
REMARK SMILES IDX 1 23 3 24 23 25 24 26 25 27 26 28 27 29 28 30 29 31 30 32
REMARK SMILES IDX 31 33 32 34 33 35 34 36 80 37 35 38 79 39 36 40 37 41 38 42
REMARK SMILES IDX 73 43 39 44 78 45 72 46 74 47 40 48 77 49 71 50 70 51 41 53
REMARK SMILES IDX 63 54 48 55 62 56 49 57 52 58 61 59 75 60 50 61 51 62 60 64
REMARK SMILES IDX 76 65 53 66 42 67 43 68 47 69 44 70 46 71 45 72 64 73 65 74
REMARK SMILES IDX 69 75 66 76 68 77 67 78 54 79 55 80 59 81 56 82 58 83 57 84
REMARK H PARENT 74 52 52 63
REMARK Flexibility Score: inf
ROOT
ATOM      1  C   UNL     1      -1.084  -4.971   2.779  1.00  0.00     0.188 C 
ENDROOT
BRANCH   1   2
ATOM      2  O   UNL     1      -2.379  -5.281   3.272  1.00  0.00    -0.376 OA
BRANCH   2   3
ATOM      3  C   UNL     1      -3.525  -5.347   2.442  1.00  0.00     0.202 C 
BRANCH   3   4
ATOM      4  C   UNL     1      -3.814  -4.348   1.304  1.00  0.00     0.261 C 
BRANCH   4   5
ATOM      5  O   UNL     1      -2.696  -3.721   0.670  1.00  0.00    -0.458 OA
BRANCH   5   6
ATOM      6  C   UNL     1      -2.178  -2.613   1.273  1.00  0.00     0.360 C 
ATOM      7  O   UNL     1      -2.702  -2.018   2.203  1.00  0.00    -0.244 OA
BRANCH   6   8
ATOM      8  C   UNL     1      -0.870  -2.278   0.686  1.00  0.00     0.192 A 
ATOM      9  C   UNL     1       1.042  -2.015  -1.487  1.00  0.00     0.171 A 
ATOM     10  C   UNL     1      -0.423  -2.682  -1.067  1.00  0.00     0.090 A 
ATOM     11  O   UNL     1       1.715  -1.144   0.035  1.00  0.00    -0.355 OA
ATOM     12  N   UNL     1       0.354  -1.401   1.475  1.00  0.00    -0.072 NA
BRANCH   9  13
ATOM     13  C   UNL     1       1.484  -1.451  -2.753  1.00  0.00     0.062 A 
ATOM     14  C   UNL     1       0.539  -0.723  -3.517  1.00  0.00     0.130 A 
ATOM     15  C   UNL     1       0.966   0.059  -4.580  1.00  0.00     0.047 A 
ATOM     16  C   UNL     1       2.328   0.113  -4.884  1.00  0.00     0.004 A 
ATOM     17  C   UNL     1       2.838  -1.412  -3.074  1.00  0.00     0.016 A 
ATOM     18  C   UNL     1       3.257  -0.632  -4.149  1.00  0.00     0.001 A 
BRANCH  14  19
ATOM     19  O   UNL     1      -0.815  -0.805  -3.266  1.00  0.00    -0.493 OA
BRANCH  19  20
ATOM     20  C   UNL     1      -1.327   0.170  -2.332  1.00  0.00     0.230 C 
BRANCH  20  21
ATOM     21  C   UNL     1      -1.481  -0.424  -0.913  1.00  0.00     0.044 C 
BRANCH  21  22
ATOM     22  C   UNL     1       0.054  -0.773  -0.257  1.00  0.00    -0.014 C 
ATOM     23  C   UNL     1       0.341   0.732   0.622  1.00  0.00     0.007 C 
ATOM     24  C   UNL     1       1.052  -2.698   0.359  1.00  0.00     0.007 C 
ENDBRANCH  21  22
ENDBRANCH  20  21
ENDBRANCH  19  20
ENDBRANCH  14  19
ENDBRANCH   9  13
ENDBRANCH   6   8
ENDBRANCH   5   6
ENDBRANCH   4   5
ENDBRANCH   3   4
ENDBRANCH   2   3
ENDBRANCH   1   2
BRANCH   1  25
ATOM     25  C   UNL     1      -0.597  -5.542   1.431  1.00  0.00     0.188 C 
BRANCH  25  26
ATOM     26  O   UNL     1      -1.589  -6.188   0.670  1.00  0.00    -0.377 OA
BRANCH  26  27
ATOM     27  C   UNL     1      -1.656  -7.590   0.836  1.00  0.00     0.188 C 
BRANCH  27  28
ATOM     28  C   UNL     1      -1.423  -8.188   2.248  1.00  0.00     0.188 C 
BRANCH  28  29
ATOM     29  O   UNL     1      -0.440  -7.577   3.053  1.00  0.00    -0.376 OA
BRANCH  29  30
ATOM     30  C   UNL     1       0.929  -7.922   3.086  1.00  0.00     0.202 C 
BRANCH  30  31
ATOM     31  C   UNL     1       1.727  -8.426   1.873  1.00  0.00     0.261 C 
BRANCH  31  32
ATOM     32  O   UNL     1       0.990  -8.972   0.781  1.00  0.00    -0.460 OA
BRANCH  32  33
ATOM     33  C   UNL     1       0.548 -10.241   0.934  1.00  0.00     0.338 C 
ATOM     34  O   UNL     1       0.686 -10.957   1.906  1.00  0.00    -0.246 OA
BRANCH  33  35
ATOM     35  C   UNL     1      -0.301 -10.555  -0.233  1.00  0.00     0.060 A 
ATOM     36  C   UNL     1      -1.684 -10.739  -0.066  1.00  0.00     0.016 A 
ATOM     37  C   UNL     1       0.276 -10.635  -1.498  1.00  0.00     0.016 A 
ATOM     38  C   UNL     1      -2.495 -11.013  -1.165  1.00  0.00     0.010 A 
ATOM     39  C   UNL     1      -0.527 -10.957  -2.589  1.00  0.00     0.010 A 
ATOM     40  C   UNL     1      -1.908 -11.175  -2.422  1.00  0.00    -0.014 A 
BRANCH  40  41
ATOM     41  C   UNL     1      -2.668 -11.784  -3.535  1.00  0.00     0.031 A 
ATOM     42  C   UNL     1      -2.419 -13.233  -3.840  1.00  0.00     0.074 A 
ATOM     43  C   UNL     1      -3.519 -11.065  -4.284  1.00  0.00     0.049 A 
ATOM     44  N   UNL     1      -2.812 -13.945  -4.862  1.00  0.00    -0.248 NA
ATOM     45  C   UNL     1      -1.594 -13.970  -2.867  1.00  0.00     0.031 C 
ATOM     46  C   UNL     1      -3.897  -9.674  -4.045  1.00  0.00     0.029 A 
ATOM     47  N   UNL     1      -4.199 -11.411  -5.425  1.00  0.00    -0.354 N 
ATOM     48  C   UNL     1      -2.261 -15.205  -4.670  1.00  0.00     0.074 A 
ATOM     49  C   UNL     1      -1.479 -15.150  -3.455  1.00  0.00     0.031 C 
ATOM     50  C   UNL     1      -4.729  -9.278  -5.024  1.00  0.00     0.029 A 
ATOM     51  C   UNL     1      -4.895 -10.368  -5.984  1.00  0.00     0.049 A 
ATOM     52  H   UNL     1      -4.188 -12.319  -5.805  1.00  0.00     0.167 HD
ATOM     53  C   UNL     1      -2.395 -16.309  -5.440  1.00  0.00     0.031 A 
ATOM     54  C   UNL     1      -5.557 -10.296  -7.155  1.00  0.00     0.031 A 
ATOM     55  C   UNL     1      -3.151 -16.345  -6.662  1.00  0.00     0.049 A 
ATOM     56  C   UNL     1      -5.594 -11.504  -8.058  1.00  0.00     0.074 A 
ATOM     57  C   UNL     1      -3.357 -17.414  -7.515  1.00  0.00     0.029 A 
ATOM     58  N   UNL     1      -3.811 -15.257  -7.213  1.00  0.00    -0.354 N 
ATOM     59  N   UNL     1      -5.084 -12.697  -7.867  1.00  0.00    -0.248 NA
ATOM     60  C   UNL     1      -6.302 -11.356  -9.339  1.00  0.00     0.031 C 
ATOM     61  C   UNL     1      -4.069 -16.952  -8.623  1.00  0.00     0.029 A 
ATOM     62  C   UNL     1      -4.395 -15.621  -8.413  1.00  0.00     0.049 A 
ATOM     63  H   UNL     1      -3.857 -14.359  -6.810  1.00  0.00     0.167 HD
ATOM     64  C   UNL     1      -5.452 -13.452  -8.976  1.00  0.00     0.074 A 
ATOM     65  C   UNL     1      -6.228 -12.583  -9.835  1.00  0.00     0.031 C 
ATOM     66  C   UNL     1      -5.180 -14.751  -9.251  1.00  0.00     0.031 A 
BRANCH  53  67
ATOM     67  C   UNL     1      -1.665 -17.550  -5.005  1.00  0.00    -0.014 A 
ATOM     68  C   UNL     1      -2.005 -18.228  -3.823  1.00  0.00     0.009 A 
ATOM     69  C   UNL     1      -0.629 -18.060  -5.803  1.00  0.00     0.009 A 
ATOM     70  C   UNL     1      -1.288 -19.358  -3.425  1.00  0.00     0.001 A 
ATOM     71  C   UNL     1       0.057 -19.215  -5.425  1.00  0.00     0.001 A 
ATOM     72  C   UNL     1      -0.262 -19.853  -4.229  1.00  0.00     0.000 A 
ENDBRANCH  53  67
BRANCH  54  73
ATOM     73  C   UNL     1      -6.226  -9.030  -7.562  1.00  0.00    -0.014 A 
ATOM     74  C   UNL     1      -7.622  -8.975  -7.692  1.00  0.00     0.009 A 
ATOM     75  C   UNL     1      -5.475  -7.879  -7.849  1.00  0.00     0.009 A 
ATOM     76  C   UNL     1      -8.248  -7.807  -8.135  1.00  0.00     0.001 A 
ATOM     77  C   UNL     1      -6.106  -6.701  -8.254  1.00  0.00     0.001 A 
ATOM     78  C   UNL     1      -7.491  -6.670  -8.410  1.00  0.00     0.000 A 
ENDBRANCH  54  73
BRANCH  66  79
ATOM     79  C   UNL     1      -5.779 -15.353 -10.493  1.00  0.00    -0.014 A 
ATOM     80  C   UNL     1      -5.333 -15.006 -11.777  1.00  0.00     0.009 A 
ATOM     81  C   UNL     1      -6.746 -16.366 -10.362  1.00  0.00     0.009 A 
ATOM     82  C   UNL     1      -5.856 -15.649 -12.902  1.00  0.00     0.001 A 
ATOM     83  C   UNL     1      -7.238 -17.032 -11.484  1.00  0.00     0.001 A 
ATOM     84  C   UNL     1      -6.797 -16.668 -12.754  1.00  0.00     0.000 A 
ENDBRANCH  66  79
ENDBRANCH  40  41
ENDBRANCH  33  35
ENDBRANCH  32  33
ENDBRANCH  31  32
ENDBRANCH  30  31
ENDBRANCH  29  30
ENDBRANCH  28  29
ENDBRANCH  27  28
ENDBRANCH  26  27
ENDBRANCH  25  26
ENDBRANCH   1  25
TORSDOF 25
