REMARK SMILES Cc1cccc(NC(=O)C[C@@H]2CCCCO2)c1C(=O)OCCOCCOCCOCCOC(=O)c1ccc(-c2c3nc(c(-c4ccccc4)c4ccc([nH]4)c(-c4ccccc4)c4nc(c(-c5ccccc5)c5ccc2[nH]5)C=C4)C=C3)cc1
REMARK SMILES IDX 25 1 24 2 23 3 22 4 21 5 20 6 18 7 19 8 17 9 1 10 2 11 3 12
REMARK SMILES IDX 4 13 6 14 5 15 7 16 8 17 9 19 10 20 11 21 12 22 16 23 13 24
REMARK SMILES IDX 15 25 14 26 26 27 27 28 28 29 29 30 30 31 31 32 32 33 33 34
REMARK SMILES IDX 34 35 35 36 36 37 82 38 37 39 81 40 38 41 39 42 40 43 75 44
REMARK SMILES IDX 41 45 80 46 74 47 76 48 42 49 79 50 73 51 72 52 43 54 65 55
REMARK SMILES IDX 50 56 64 57 51 58 54 59 63 60 77 61 52 62 53 63 62 65 78 66
REMARK SMILES IDX 55 67 44 68 45 69 49 70 46 71 48 72 47 73 66 74 67 75 71 76
REMARK SMILES IDX 68 77 70 78 69 79 56 80 57 81 61 82 58 83 60 84 59 85
REMARK H PARENT 7 18 76 53 54 64
REMARK Flexibility Score: inf
ROOT
ATOM      1  C   UNL     1       0.000   1.492  -2.887  1.00  0.00     0.188 C 
ENDROOT
BRANCH   1   2
ATOM      2  C   UNL     1      -0.909   2.464  -2.121  1.00  0.00     0.188 C 
BRANCH   2   3
ATOM      3  O   UNL     1      -0.487   3.817  -2.045  1.00  0.00    -0.376 OA
BRANCH   3   4
ATOM      4  C   UNL     1       0.477   4.059  -1.035  1.00  0.00     0.202 C 
BRANCH   4   5
ATOM      5  C   UNL     1      -0.012   3.906   0.380  1.00  0.00     0.261 C 
BRANCH   5   6
ATOM      6  O   UNL     1       0.120   2.526   0.703  1.00  0.00    -0.460 OA
BRANCH   6   7
ATOM      7  C   UNL     1      -0.795   2.119   1.572  1.00  0.00     0.340 C 
ATOM      8  O   UNL     1      -1.509   2.844   2.252  1.00  0.00    -0.246 OA
BRANCH   7   9
ATOM      9  C   UNL     1      -1.031   0.664   1.493  1.00  0.00     0.086 A 
ATOM     10  C   UNL     1       1.186  -0.161   0.399  1.00  0.00     0.045 C 
ATOM     11  C   UNL     1      -0.090  -0.339   1.176  1.00  0.00    -0.034 A 
ATOM     12  C   UNL     1      -0.432  -1.668   1.476  1.00  0.00     0.004 A 
ATOM     13  C   UNL     1      -1.688  -1.992   1.990  1.00  0.00     0.002 A 
ATOM     14  C   UNL     1      -2.366   0.305   1.793  1.00  0.00     0.056 A 
ATOM     15  C   UNL     1      -2.674  -1.013   2.100  1.00  0.00     0.027 A 
BRANCH  14  16
ATOM     16  N   UNL     1      -3.401   1.293   1.711  1.00  0.00    -0.325 N 
ATOM     17  C   UNL     1      -3.985   1.572   0.480  1.00  0.00     0.227 C 
ATOM     18  H   UNL     1      -3.696   1.771   2.520  1.00  0.00     0.169 HD
ATOM     19  O   UNL     1      -3.879   2.680  -0.039  1.00  0.00    -0.275 OA
BRANCH  17  20
ATOM     20  C   UNL     1      -4.912   0.519  -0.051  1.00  0.00     0.132 C 
BRANCH  20  21
ATOM     21  C   UNL     1      -4.748   0.030  -1.496  1.00  0.00     0.127 C 
ATOM     22  C   UNL     1      -5.254  -1.412  -1.613  1.00  0.00     0.033 C 
ATOM     23  O   UNL     1      -3.468   0.132  -2.108  1.00  0.00    -0.378 OA
ATOM     24  C   UNL     1      -4.288  -2.377  -0.934  1.00  0.00     0.005 C 
ATOM     25  C   UNL     1      -2.477  -0.802  -1.721  1.00  0.00     0.160 C 
ATOM     26  C   UNL     1      -2.913  -2.243  -1.547  1.00  0.00     0.029 C 
ENDBRANCH  20  21
ENDBRANCH  17  20
ENDBRANCH  14  16
ENDBRANCH   7   9
ENDBRANCH   6   7
ENDBRANCH   5   6
ENDBRANCH   4   5
ENDBRANCH   3   4
ENDBRANCH   2   3
ENDBRANCH   1   2
BRANCH   1  27
ATOM     27  O   UNL     1       1.343   1.292  -2.471  1.00  0.00    -0.377 OA
BRANCH  27  28
ATOM     28  C   UNL     1       2.379   2.015  -3.136  1.00  0.00     0.188 C 
BRANCH  28  29
ATOM     29  C   UNL     1       2.134   2.462  -4.569  1.00  0.00     0.188 C 
BRANCH  29  30
ATOM     30  O   UNL     1       1.214   3.553  -4.537  1.00  0.00    -0.376 OA
BRANCH  30  31
ATOM     31  C   UNL     1       0.454   3.750  -5.723  1.00  0.00     0.202 C 
BRANCH  31  32
ATOM     32  C   UNL     1       1.322   4.129  -6.925  1.00  0.00     0.261 C 
BRANCH  32  33
ATOM     33  O   UNL     1       1.994   5.375  -6.651  1.00  0.00    -0.460 OA
BRANCH  33  34
ATOM     34  C   UNL     1       3.301   5.267  -6.302  1.00  0.00     0.338 C 
ATOM     35  O   UNL     1       4.145   4.610  -6.905  1.00  0.00    -0.246 OA
BRANCH  34  36
ATOM     36  C   UNL     1       3.518   5.826  -4.940  1.00  0.00     0.060 A 
ATOM     37  C   UNL     1       4.744   5.637  -4.282  1.00  0.00     0.016 A 
ATOM     38  C   UNL     1       2.419   6.260  -4.213  1.00  0.00     0.016 A 
ATOM     39  C   UNL     1       4.814   5.701  -2.879  1.00  0.00     0.010 A 
ATOM     40  C   UNL     1       2.483   6.244  -2.834  1.00  0.00     0.010 A 
ATOM     41  C   UNL     1       3.649   5.891  -2.137  1.00  0.00    -0.014 A 
BRANCH  41  42
ATOM     42  C   UNL     1       3.495   5.544  -0.698  1.00  0.00     0.031 A 
ATOM     43  C   UNL     1       2.711   6.454   0.219  1.00  0.00     0.074 A 
ATOM     44  C   UNL     1       3.679   4.239  -0.343  1.00  0.00     0.049 A 
ATOM     45  N   UNL     1       2.421   6.205   1.454  1.00  0.00    -0.248 NA
ATOM     46  C   UNL     1       2.114   7.722  -0.210  1.00  0.00     0.031 C 
ATOM     47  C   UNL     1       3.087   3.545   0.800  1.00  0.00     0.029 A 
ATOM     48  N   UNL     1       4.395   3.205  -0.943  1.00  0.00    -0.354 N 
ATOM     49  C   UNL     1       1.328   6.978   1.811  1.00  0.00     0.074 A 
ATOM     50  C   UNL     1       1.256   7.985   0.784  1.00  0.00     0.031 C 
ATOM     51  C   UNL     1       3.514   2.280   0.885  1.00  0.00     0.029 A 
ATOM     52  C   UNL     1       4.649   2.211   0.010  1.00  0.00     0.049 A 
ATOM     53  H   UNL     1       4.678   3.178  -1.885  1.00  0.00     0.167 HD
ATOM     54  C   UNL     1       0.515   6.583   2.843  1.00  0.00     0.031 A 
ATOM     55  C   UNL     1       5.898   1.942   0.492  1.00  0.00     0.031 A 
ATOM     56  C   UNL     1       1.052   5.403   3.556  1.00  0.00     0.049 A 
ATOM     57  C   UNL     1       5.954   2.360   1.968  1.00  0.00     0.074 A 
ATOM     58  C   UNL     1       0.523   4.195   3.974  1.00  0.00     0.029 A 
ATOM     59  N   UNL     1       2.424   5.303   3.804  1.00  0.00    -0.354 N 
ATOM     60  N   UNL     1       5.259   3.367   2.460  1.00  0.00    -0.248 NA
ATOM     61  C   UNL     1       6.525   1.528   3.029  1.00  0.00     0.031 C 
ATOM     62  C   UNL     1       1.603   3.304   4.244  1.00  0.00     0.029 A 
ATOM     63  C   UNL     1       2.792   4.015   4.139  1.00  0.00     0.049 A 
ATOM     64  H   UNL     1       3.052   6.060   3.748  1.00  0.00     0.167 HD
ATOM     65  C   UNL     1       5.104   3.194   3.814  1.00  0.00     0.074 A 
ATOM     66  C   UNL     1       5.994   2.085   4.135  1.00  0.00     0.031 C 
ATOM     67  C   UNL     1       4.138   3.739   4.620  1.00  0.00     0.031 A 
BRANCH  54  68
ATOM     68  C   UNL     1      -0.894   7.131   3.116  1.00  0.00    -0.014 A 
ATOM     69  C   UNL     1      -1.607   6.710   4.260  1.00  0.00     0.009 A 
ATOM     70  C   UNL     1      -1.613   7.994   2.264  1.00  0.00     0.009 A 
ATOM     71  C   UNL     1      -2.929   7.114   4.532  1.00  0.00     0.001 A 
ATOM     72  C   UNL     1      -2.920   8.440   2.550  1.00  0.00     0.001 A 
ATOM     73  C   UNL     1      -3.583   7.993   3.682  1.00  0.00     0.000 A 
ENDBRANCH  54  68
BRANCH  55  74
ATOM     74  C   UNL     1       6.902   1.888  -0.616  1.00  0.00    -0.014 A 
ATOM     75  C   UNL     1       6.740   0.764  -1.466  1.00  0.00     0.009 A 
ATOM     76  C   UNL     1       7.386   3.074  -1.196  1.00  0.00     0.009 A 
ATOM     77  C   UNL     1       6.768   0.903  -2.860  1.00  0.00     0.001 A 
ATOM     78  C   UNL     1       7.444   3.196  -2.600  1.00  0.00     0.001 A 
ATOM     79  C   UNL     1       7.062   2.137  -3.426  1.00  0.00     0.000 A 
ENDBRANCH  55  74
BRANCH  67  80
ATOM     80  C   UNL     1       4.417   4.156   6.046  1.00  0.00    -0.014 A 
ATOM     81  C   UNL     1       5.715   4.275   6.551  1.00  0.00     0.009 A 
ATOM     82  C   UNL     1       3.372   4.714   6.824  1.00  0.00     0.009 A 
ATOM     83  C   UNL     1       5.956   4.926   7.765  1.00  0.00     0.001 A 
ATOM     84  C   UNL     1       3.613   5.402   8.011  1.00  0.00     0.001 A 
ATOM     85  C   UNL     1       4.911   5.505   8.482  1.00  0.00     0.000 A 
ENDBRANCH  67  80
ENDBRANCH  41  42
ENDBRANCH  34  36
ENDBRANCH  33  34
ENDBRANCH  32  33
ENDBRANCH  31  32
ENDBRANCH  30  31
ENDBRANCH  29  30
ENDBRANCH  28  29
ENDBRANCH  27  28
ENDBRANCH   1  27
TORSDOF 23
