REMARK SMILES O=C(Cc1ccn(-c2ccccc2F)c1)OCCOCCOCCOCCOC(=O)c1ccc(-c2c3nc(c(-c4ccccc4)c4ccc([nH]4)c(-c4ccccc4)c4nc(c(-c5ccccc5)c5ccc2[nH]5)C=C4)C=C3)cc1
REMARK SMILES IDX 22 1 21 2 20 3 19 4 18 5 17 6 16 7 2 8 1 9 3 10 4 11 5 12
REMARK SMILES IDX 15 13 6 14 7 15 8 16 9 17 13 18 10 19 12 20 14 21 11 22
REMARK SMILES IDX 23 23 24 24 25 25 26 26 27 27 28 28 29 29 30 30 31 31 32 32
REMARK SMILES IDX 78 33 33 34 77 35 34 36 35 37 36 38 71 39 37 40 76 41 70 42
REMARK SMILES IDX 72 43 38 44 75 45 69 46 68 47 39 49 61 50 46 51 60 52 47 53
REMARK SMILES IDX 50 54 59 55 73 56 48 57 49 58 58 60 74 61 51 62 40 63 41 64
REMARK SMILES IDX 45 65 42 66 44 67 43 68 62 69 63 70 67 71 64 72 66 73 65 74
REMARK SMILES IDX 52 75 53 76 57 77 54 78 56 79 55 80
REMARK H PARENT 72 48 50 59
REMARK Flexibility Score: inf
ROOT
ATOM      1  O   UNL     1       2.814   3.061   2.447  1.00  0.00    -0.377 OA
ENDROOT
BRANCH   1   2
ATOM      2  C   UNL     1       2.083   2.363   1.440  1.00  0.00     0.188 C 
BRANCH   2   3
ATOM      3  C   UNL     1       2.355   0.863   1.460  1.00  0.00     0.188 C 
BRANCH   3   4
ATOM      4  O   UNL     1       3.733   0.524   1.460  1.00  0.00    -0.376 OA
BRANCH   4   5
ATOM      5  C   UNL     1       4.496   0.413   0.271  1.00  0.00     0.202 C 
BRANCH   5   6
ATOM      6  C   UNL     1       3.901   0.782  -1.081  1.00  0.00     0.261 C 
BRANCH   6   7
ATOM      7  O   UNL     1       2.632   0.233  -1.491  1.00  0.00    -0.463 OA
BRANCH   7   8
ATOM      8  C   UNL     1       2.111  -1.005  -1.375  1.00  0.00     0.310 C 
ATOM      9  O   UNL     1       1.072  -1.268  -1.983  1.00  0.00    -0.252 OA
BRANCH   8  10
ATOM     10  C   UNL     1       2.717  -2.002  -0.430  1.00  0.00     0.159 C 
BRANCH  10  11
ATOM     11  C   UNL     1       3.759  -2.877  -1.023  1.00  0.00    -0.019 A 
ATOM     12  C   UNL     1       5.037  -2.565  -1.552  1.00  0.00     0.024 A 
ATOM     13  C   UNL     1       3.645  -4.247  -1.093  1.00  0.00     0.095 A 
ATOM     14  C   UNL     1       5.651  -3.751  -1.892  1.00  0.00     0.091 A 
ATOM     15  N   UNL     1       4.757  -4.781  -1.696  1.00  0.00    -0.321 N 
BRANCH  15  16
ATOM     16  C   UNL     1       4.930  -6.137  -2.049  1.00  0.00     0.081 A 
ATOM     17  C   UNL     1       6.213  -6.685  -2.147  1.00  0.00     0.030 A 
ATOM     18  C   UNL     1       3.814  -6.934  -2.328  1.00  0.00     0.147 A 
ATOM     19  C   UNL     1       6.363  -8.026  -2.508  1.00  0.00     0.002 A 
ATOM     20  C   UNL     1       3.967  -8.260  -2.709  1.00  0.00     0.041 A 
ATOM     21  F   UNL     1       2.568  -6.438  -2.314  1.00  0.00    -0.205 F 
ATOM     22  C   UNL     1       5.244  -8.809  -2.795  1.00  0.00     0.003 A 
ENDBRANCH  15  16
ENDBRANCH  10  11
ENDBRANCH   8  10
ENDBRANCH   7   8
ENDBRANCH   6   7
ENDBRANCH   5   6
ENDBRANCH   4   5
ENDBRANCH   3   4
ENDBRANCH   2   3
ENDBRANCH   1   2
BRANCH   1  23
ATOM     23  C   UNL     1       4.175   3.290   2.119  1.00  0.00     0.188 C 
BRANCH  23  24
ATOM     24  C   UNL     1       5.263   2.618   2.995  1.00  0.00     0.188 C 
BRANCH  24  25
ATOM     25  O   UNL     1       5.057   1.800   4.141  1.00  0.00    -0.376 OA
BRANCH  25  26
ATOM     26  C   UNL     1       3.773   1.500   4.650  1.00  0.00     0.202 C 
BRANCH  26  27
ATOM     27  C   UNL     1       3.145   2.521   5.596  1.00  0.00     0.261 C 
BRANCH  27  28
ATOM     28  O   UNL     1       3.204   3.846   5.091  1.00  0.00    -0.460 OA
BRANCH  28  29
ATOM     29  C   UNL     1       4.390   4.430   5.317  1.00  0.00     0.338 C 
ATOM     30  O   UNL     1       5.363   3.978   5.922  1.00  0.00    -0.246 OA
BRANCH  29  31
ATOM     31  C   UNL     1       4.392   5.778   4.775  1.00  0.00     0.060 A 
ATOM     32  C   UNL     1       5.634   6.307   4.404  1.00  0.00     0.016 A 
ATOM     33  C   UNL     1       3.254   6.568   4.956  1.00  0.00     0.016 A 
ATOM     34  C   UNL     1       5.793   7.671   4.413  1.00  0.00     0.010 A 
ATOM     35  C   UNL     1       3.427   7.930   5.020  1.00  0.00     0.010 A 
ATOM     36  C   UNL     1       4.712   8.455   4.824  1.00  0.00    -0.014 A 
BRANCH  36  37
ATOM     37  C   UNL     1       4.954   9.869   5.109  1.00  0.00     0.031 A 
ATOM     38  C   UNL     1       4.627  10.761   3.935  1.00  0.00     0.074 A 
ATOM     39  C   UNL     1       5.426  10.129   6.364  1.00  0.00     0.049 A 
ATOM     40  N   UNL     1       4.936  12.002   3.745  1.00  0.00    -0.248 NA
ATOM     41  C   UNL     1       3.865  10.197   2.787  1.00  0.00     0.031 C 
ATOM     42  C   UNL     1       5.692   9.090   7.388  1.00  0.00     0.029 A 
ATOM     43  N   UNL     1       5.781  11.276   7.036  1.00  0.00    -0.354 N 
ATOM     44  C   UNL     1       4.279  12.412   2.576  1.00  0.00     0.074 A 
ATOM     45  C   UNL     1       3.700  11.245   1.983  1.00  0.00     0.031 C 
ATOM     46  C   UNL     1       6.221   9.637   8.499  1.00  0.00     0.029 A 
ATOM     47  C   UNL     1       6.317  11.072   8.329  1.00  0.00     0.049 A 
ATOM     48  H   UNL     1       5.670  12.173   6.646  1.00  0.00     0.167 HD
ATOM     49  C   UNL     1       4.143  13.717   2.222  1.00  0.00     0.031 A 
ATOM     50  C   UNL     1       6.831  11.986   9.204  1.00  0.00     0.031 A 
ATOM     51  C   UNL     1       4.903  14.569   3.072  1.00  0.00     0.049 A 
ATOM     52  C   UNL     1       6.574  13.315   8.624  1.00  0.00     0.074 A 
ATOM     53  C   UNL     1       6.251  14.784   3.207  1.00  0.00     0.029 A 
ATOM     54  N   UNL     1       4.266  15.079   4.176  1.00  0.00    -0.354 N 
ATOM     55  N   UNL     1       5.407  13.880   8.555  1.00  0.00    -0.248 NA
ATOM     56  C   UNL     1       7.678  14.052   8.001  1.00  0.00     0.031 C 
ATOM     57  C   UNL     1       6.430  15.048   4.585  1.00  0.00     0.029 A 
ATOM     58  C   UNL     1       5.179  15.079   5.207  1.00  0.00     0.049 A 
ATOM     59  H   UNL     1       3.332  15.387   4.223  1.00  0.00     0.167 HD
ATOM     60  C   UNL     1       5.580  14.810   7.558  1.00  0.00     0.074 A 
ATOM     61  C   UNL     1       6.999  15.079   7.492  1.00  0.00     0.031 C 
ATOM     62  C   UNL     1       4.674  14.894   6.550  1.00  0.00     0.031 A 
BRANCH  49  63
ATOM     63  C   UNL     1       3.185  14.317   1.246  1.00  0.00    -0.014 A 
ATOM     64  C   UNL     1       3.464  15.610   0.759  1.00  0.00     0.009 A 
ATOM     65  C   UNL     1       1.905  13.796   1.013  1.00  0.00     0.009 A 
ATOM     66  C   UNL     1       2.484  16.379   0.130  1.00  0.00     0.001 A 
ATOM     67  C   UNL     1       0.931  14.554   0.353  1.00  0.00     0.001 A 
ATOM     68  C   UNL     1       1.213  15.853  -0.063  1.00  0.00     0.000 A 
ENDBRANCH  49  63
BRANCH  50  69
ATOM     69  C   UNL     1       7.588  11.943  10.503  1.00  0.00    -0.014 A 
ATOM     70  C   UNL     1       7.855  10.796  11.257  1.00  0.00     0.009 A 
ATOM     71  C   UNL     1       8.143  13.148  11.008  1.00  0.00     0.009 A 
ATOM     72  C   UNL     1       8.685  10.841  12.395  1.00  0.00     0.001 A 
ATOM     73  C   UNL     1       8.993  13.195  12.117  1.00  0.00     0.001 A 
ATOM     74  C   UNL     1       9.275  12.032  12.808  1.00  0.00     0.000 A 
ENDBRANCH  50  69
BRANCH  62  75
ATOM     75  C   UNL     1       3.310  14.308   6.878  1.00  0.00    -0.014 A 
ATOM     76  C   UNL     1       2.519  14.863   7.894  1.00  0.00     0.009 A 
ATOM     77  C   UNL     1       2.844  13.127   6.274  1.00  0.00     0.009 A 
ATOM     78  C   UNL     1       1.325  14.251   8.299  1.00  0.00     0.001 A 
ATOM     79  C   UNL     1       1.649  12.514   6.670  1.00  0.00     0.001 A 
ATOM     80  C   UNL     1       0.891  13.075   7.690  1.00  0.00     0.000 A 
ENDBRANCH  62  75
ENDBRANCH  36  37
ENDBRANCH  29  31
ENDBRANCH  28  29
ENDBRANCH  27  28
ENDBRANCH  26  27
ENDBRANCH  25  26
ENDBRANCH  24  25
ENDBRANCH  23  24
ENDBRANCH   1  23
TORSDOF 22
