REMARK SMILES COC(=O)c1c(-c2ccccc2Cl)csc1NC(=O)[C@@H]1[C@@H]2CC[C@@H](C2)[C@@H]1C(=O)OCCOCCOCCOCCOC(=O)c1ccc(-c2c3nc(c(-c4ccccc4)c4ccc([nH]4)c(-c4ccccc4)c4nc(c(-c5ccccc5)c5ccc2[nH]5)C=C4)C=C3)cc1
REMARK SMILES IDX 34 1 33 2 32 3 31 4 30 5 29 6 27 7 28 8 26 9 20 10 21 11
REMARK SMILES IDX 22 12 25 13 24 14 23 15 18 16 17 17 19 19 16 20 5 21 6 22
REMARK SMILES IDX 14 23 15 24 3 25 4 26 2 27 1 28 7 29 8 30 12 31 9 32 11 33
REMARK SMILES IDX 13 34 10 35 35 36 36 37 37 38 38 39 39 40 40 41 41 42 42 43
REMARK SMILES IDX 43 44 44 45 45 46 91 47 46 48 90 49 47 50 48 51 49 52 84 53
REMARK SMILES IDX 50 54 89 55 83 56 85 57 51 58 88 59 82 60 81 61 52 63 74 64
REMARK SMILES IDX 59 65 73 66 60 67 63 68 72 69 86 70 61 71 62 72 71 74 87 75
REMARK SMILES IDX 64 76 53 77 54 78 58 79 55 80 57 81 56 82 75 83 76 84 80 85
REMARK SMILES IDX 77 86 79 87 78 88 65 89 66 90 70 91 67 92 69 93 68 94
REMARK H PARENT 17 18 85 62 63 73
REMARK Flexibility Score: inf
ROOT
ATOM      1  C   UNL     1       0.472   4.980   4.684  1.00  0.00     0.188 C 
ENDROOT
BRANCH   1   2
ATOM      2  C   UNL     1      -0.127   6.261   5.298  1.00  0.00     0.188 C 
BRANCH   2   3
ATOM      3  O   UNL     1      -1.545   6.176   5.469  1.00  0.00    -0.376 OA
BRANCH   3   4
ATOM      4  C   UNL     1      -2.341   6.697   4.403  1.00  0.00     0.202 C 
BRANCH   4   5
ATOM      5  C   UNL     1      -2.002   6.274   2.963  1.00  0.00     0.261 C 
BRANCH   5   6
ATOM      6  O   UNL     1      -0.618   6.551   2.675  1.00  0.00    -0.463 OA
BRANCH   6   7
ATOM      7  C   UNL     1      -0.222   7.143   1.533  1.00  0.00     0.310 C 
ATOM      8  O   UNL     1      -0.972   7.529   0.648  1.00  0.00    -0.252 OA
BRANCH   7   9
ATOM      9  C   UNL     1       1.300   7.122   1.452  1.00  0.00     0.115 C 
ATOM     10  C   UNL     1       2.337   7.532   2.545  1.00  0.00     0.096 C 
ATOM     11  C   UNL     1       3.422   8.279   1.714  1.00  0.00     0.003 C 
ATOM     12  C   UNL     1       2.933   9.654   1.255  1.00  0.00     0.005 C 
ATOM     13  C   UNL     1       3.386   7.510   0.385  1.00  0.00     0.009 C 
ATOM     14  C   UNL     1       1.892   7.767   0.167  1.00  0.00     0.004 C 
ATOM     15  C   UNL     1       1.873   9.303   0.197  1.00  0.00     0.005 C 
BRANCH  10  16
ATOM     16  C   UNL     1       2.296   8.002   4.027  1.00  0.00     0.229 C 
ATOM     17  N   UNL     1       1.712   9.069   4.633  1.00  0.00    -0.317 N 
ATOM     18  H   UNL     1       2.031   9.203   5.555  1.00  0.00     0.170 HD
ATOM     19  O   UNL     1       3.002   7.336   4.814  1.00  0.00    -0.274 OA
BRANCH  17  20
ATOM     20  C   UNL     1       0.777  10.005   4.257  1.00  0.00     0.110 A 
ATOM     21  C   UNL     1       0.271  11.109   4.943  1.00  0.00     0.102 A 
ATOM     22  C   UNL     1      -0.493  11.944   4.025  1.00  0.00     0.011 A 
ATOM     23  C   UNL     1      -0.614  11.350   2.788  1.00  0.00     0.076 A 
ATOM     24  S   UNL     1      -0.092   9.767   2.851  1.00  0.00    -0.125 S 
BRANCH  21  25
ATOM     25  C   UNL     1       0.483  11.347   6.368  1.00  0.00     0.341 C 
ATOM     26  O   UNL     1       1.369  10.800   7.019  1.00  0.00    -0.246 OA
BRANCH  25  27
ATOM     27  O   UNL     1      -0.483  12.149   6.896  1.00  0.00    -0.465 OA
ATOM     28  C   UNL     1      -0.567  12.195   8.321  1.00  0.00     0.282 C 
ENDBRANCH  25  27
ENDBRANCH  21  25
BRANCH  22  29
ATOM     29  C   UNL     1      -1.048  13.285   4.158  1.00  0.00     0.002 A 
ATOM     30  C   UNL     1      -0.168  14.346   4.413  1.00  0.00     0.010 A 
ATOM     31  C   UNL     1      -2.390  13.566   3.830  1.00  0.00     0.048 A 
ATOM     32  C   UNL     1      -0.606  15.665   4.284  1.00  0.00     0.001 A 
ATOM     33  C   UNL     1      -2.811  14.886   3.676  1.00  0.00     0.021 A 
ATOM     34  Cl  UNL     1      -3.574  12.325   3.574  1.00  0.00    -0.084 Cl
ATOM     35  C   UNL     1      -1.917  15.933   3.892  1.00  0.00     0.002 A 
ENDBRANCH  22  29
ENDBRANCH  17  20
ENDBRANCH  10  16
ENDBRANCH   7   9
ENDBRANCH   6   7
ENDBRANCH   5   6
ENDBRANCH   4   5
ENDBRANCH   3   4
ENDBRANCH   2   3
ENDBRANCH   1   2
BRANCH   1  36
ATOM     36  O   UNL     1      -0.522   3.967   4.582  1.00  0.00    -0.377 OA
BRANCH  36  37
ATOM     37  C   UNL     1      -0.654   3.147   5.737  1.00  0.00     0.188 C 
BRANCH  37  38
ATOM     38  C   UNL     1      -0.524   3.780   7.140  1.00  0.00     0.188 C 
BRANCH  38  39
ATOM     39  O   UNL     1       0.729   4.429   7.364  1.00  0.00    -0.376 OA
BRANCH  39  40
ATOM     40  C   UNL     1       1.690   3.763   8.171  1.00  0.00     0.202 C 
BRANCH  40  41
ATOM     41  C   UNL     1       2.513   2.710   7.418  1.00  0.00     0.261 C 
BRANCH  41  42
ATOM     42  O   UNL     1       1.757   1.591   6.929  1.00  0.00    -0.460 OA
BRANCH  42  43
ATOM     43  C   UNL     1       1.031   0.888   7.826  1.00  0.00     0.338 C 
ATOM     44  O   UNL     1       1.048   0.993   9.038  1.00  0.00    -0.246 OA
BRANCH  43  45
ATOM     45  C   UNL     1       0.020   0.121   7.068  1.00  0.00     0.060 A 
ATOM     46  C   UNL     1      -1.324   0.236   7.448  1.00  0.00     0.016 A 
ATOM     47  C   UNL     1       0.382  -0.645   5.955  1.00  0.00     0.016 A 
ATOM     48  C   UNL     1      -2.308  -0.445   6.734  1.00  0.00     0.010 A 
ATOM     49  C   UNL     1      -0.600  -1.349   5.259  1.00  0.00     0.010 A 
ATOM     50  C   UNL     1      -1.941  -1.280   5.671  1.00  0.00    -0.014 A 
BRANCH  50  51
ATOM     51  C   UNL     1      -2.906  -2.288   5.180  1.00  0.00     0.031 A 
ATOM     52  C   UNL     1      -2.933  -3.616   5.883  1.00  0.00     0.074 A 
ATOM     53  C   UNL     1      -3.744  -2.037   4.161  1.00  0.00     0.049 A 
ATOM     54  N   UNL     1      -3.687  -4.661   5.661  1.00  0.00    -0.248 NA
ATOM     55  C   UNL     1      -1.979  -3.783   6.994  1.00  0.00     0.031 C 
ATOM     56  C   UNL     1      -3.847  -0.775   3.433  1.00  0.00     0.029 A 
ATOM     57  N   UNL     1      -4.676  -2.850   3.569  1.00  0.00    -0.354 N 
ATOM     58  C   UNL     1      -3.307  -5.600   6.611  1.00  0.00     0.074 A 
ATOM     59  C   UNL     1      -2.233  -5.020   7.385  1.00  0.00     0.031 C 
ATOM     60  C   UNL     1      -4.798  -0.898   2.488  1.00  0.00     0.029 A 
ATOM     61  C   UNL     1      -5.347  -2.252   2.531  1.00  0.00     0.049 A 
ATOM     62  H   UNL     1      -4.849  -3.774   3.861  1.00  0.00     0.167 HD
ATOM     63  C   UNL     1      -3.810  -6.837   6.828  1.00  0.00     0.031 A 
ATOM     64  C   UNL     1      -6.289  -2.753   1.710  1.00  0.00     0.031 A 
ATOM     65  C   UNL     1      -4.839  -7.437   6.028  1.00  0.00     0.049 A 
ATOM     66  C   UNL     1      -6.748  -4.177   1.891  1.00  0.00     0.074 A 
ATOM     67  C   UNL     1      -5.408  -8.691   6.151  1.00  0.00     0.029 A 
ATOM     68  N   UNL     1      -5.439  -6.825   4.939  1.00  0.00    -0.354 N 
ATOM     69  N   UNL     1      -6.402  -5.049   2.807  1.00  0.00    -0.248 NA
ATOM     70  C   UNL     1      -7.731  -4.682   0.921  1.00  0.00     0.031 C 
ATOM     71  C   UNL     1      -6.319  -8.858   5.101  1.00  0.00     0.029 A 
ATOM     72  C   UNL     1      -6.354  -7.687   4.360  1.00  0.00     0.049 A 
ATOM     73  H   UNL     1      -5.243  -5.913   4.623  1.00  0.00     0.167 HD
ATOM     74  C   UNL     1      -7.146  -6.193   2.544  1.00  0.00     0.074 A 
ATOM     75  C   UNL     1      -7.965  -5.902   1.385  1.00  0.00     0.031 C 
ATOM     76  C   UNL     1      -7.156  -7.377   3.205  1.00  0.00     0.031 A 
BRANCH  63  77
ATOM     77  C   UNL     1      -3.202  -7.622   7.954  1.00  0.00    -0.014 A 
ATOM     78  C   UNL     1      -3.442  -7.272   9.293  1.00  0.00     0.009 A 
ATOM     79  C   UNL     1      -2.353  -8.702   7.673  1.00  0.00     0.009 A 
ATOM     80  C   UNL     1      -2.807  -7.962  10.328  1.00  0.00     0.001 A 
ATOM     81  C   UNL     1      -1.742  -9.407   8.710  1.00  0.00     0.001 A 
ATOM     82  C   UNL     1      -1.959  -9.030  10.035  1.00  0.00     0.000 A 
ENDBRANCH  63  77
BRANCH  64  83
ATOM     83  C   UNL     1      -6.870  -1.907   0.635  1.00  0.00    -0.014 A 
ATOM     84  C   UNL     1      -8.197  -1.459   0.723  1.00  0.00     0.009 A 
ATOM     85  C   UNL     1      -6.110  -1.560  -0.493  1.00  0.00     0.009 A 
ATOM     86  C   UNL     1      -8.757  -0.697  -0.306  1.00  0.00     0.001 A 
ATOM     87  C   UNL     1      -6.665  -0.779  -1.509  1.00  0.00     0.001 A 
ATOM     88  C   UNL     1      -7.990  -0.354  -1.418  1.00  0.00     0.000 A 
ENDBRANCH  64  83
BRANCH  76  89
ATOM     89  C   UNL     1      -8.105  -8.433   2.715  1.00  0.00    -0.014 A 
ATOM     90  C   UNL     1      -7.856  -9.147   1.533  1.00  0.00     0.009 A 
ATOM     91  C   UNL     1      -9.241  -8.751   3.477  1.00  0.00     0.009 A 
ATOM     92  C   UNL     1      -8.741 -10.141   1.111  1.00  0.00     0.001 A 
ATOM     93  C   UNL     1     -10.109  -9.763   3.066  1.00  0.00     0.001 A 
ATOM     94  C   UNL     1      -9.863 -10.451   1.880  1.00  0.00     0.000 A 
ENDBRANCH  76  89
ENDBRANCH  50  51
ENDBRANCH  43  45
ENDBRANCH  42  43
ENDBRANCH  41  42
ENDBRANCH  40  41
ENDBRANCH  39  40
ENDBRANCH  38  39
ENDBRANCH  37  38
ENDBRANCH  36  37
ENDBRANCH   1  36
TORSDOF 25
