REMARK SMILES Nc1nonc1C(=O)N1[C@@H]2CC[C@H]1C[C@H](CC(=O)OCCOCCOCCOCCOC(=O)c1ccc(-c3c4nc(c(-c5ccccc5)c5ccc([nH]5)c(-c5ccccc5)c5nc(c(-c6ccccc6)c6ccc3[nH]6)C=C5)C=C4)cc1)C2
REMARK SMILES IDX 24 1 23 2 22 3 21 4 20 5 19 6 17 7 18 8 16 9 15 10 9 11
REMARK SMILES IDX 10 12 13 13 11 14 82 15 12 16 14 17 7 18 8 19 6 20 2 21 3 22
REMARK SMILES IDX 4 23 5 24 1 25 25 28 26 29 27 30 28 31 29 32 30 33 31 34
REMARK SMILES IDX 32 35 33 36 34 37 35 38 81 39 36 40 80 41 37 42 38 43 39 44
REMARK SMILES IDX 74 45 40 46 79 47 73 48 75 49 41 50 78 51 72 52 71 53 42 55
REMARK SMILES IDX 64 56 49 57 63 58 50 59 53 60 62 61 76 62 51 63 52 64 61 66
REMARK SMILES IDX 77 67 54 68 43 69 44 70 48 71 45 72 47 73 46 74 65 75 66 76
REMARK SMILES IDX 70 77 67 78 69 79 68 80 55 81 56 82 60 83 57 84 59 85 58 86
REMARK H PARENT 1 26 1 27 75 54 53 65
REMARK Flexibility Score: inf
ROOT
ATOM      1  C   UNL     1       7.292  -2.598  -0.948  1.00  0.00     0.188 C 
ENDROOT
BRANCH   1   2
ATOM      2  C   UNL     1       8.302  -1.540  -1.409  1.00  0.00     0.188 C 
BRANCH   2   3
ATOM      3  O   UNL     1       8.800  -0.741  -0.358  1.00  0.00    -0.376 OA
BRANCH   3   4
ATOM      4  C   UNL     1       8.349   0.596  -0.275  1.00  0.00     0.202 C 
BRANCH   4   5
ATOM      5  C   UNL     1       6.845   0.906  -0.147  1.00  0.00     0.261 C 
BRANCH   5   6
ATOM      6  O   UNL     1       5.918  -0.070  -0.654  1.00  0.00    -0.463 OA
BRANCH   6   7
ATOM      7  C   UNL     1       5.389   0.165  -1.871  1.00  0.00     0.306 C 
ATOM      8  O   UNL     1       5.735   1.089  -2.600  1.00  0.00    -0.252 OA
BRANCH   7   9
ATOM      9  C   UNL     1       4.290  -0.800  -2.290  1.00  0.00     0.126 C 
BRANCH   9  10
ATOM     10  C   UNL     1       3.834  -2.018  -1.451  1.00  0.00     0.004 C 
ATOM     11  N   UNL     1       1.365  -2.663  -0.243  1.00  0.00    -0.331 N 
ATOM     12  C   UNL     1       1.790  -3.574  -1.283  1.00  0.00     0.086 C 
ATOM     13  C   UNL     1       2.474  -2.571   0.693  1.00  0.00     0.086 C 
ATOM     14  C   UNL     1       2.602  -4.653  -0.557  1.00  0.00     0.027 C 
ATOM     15  C   UNL     1       2.643  -2.699  -2.198  1.00  0.00     0.029 C 
ATOM     16  C   UNL     1       2.941  -4.034   0.804  1.00  0.00     0.027 C 
ATOM     17  C   UNL     1       3.582  -1.716   0.055  1.00  0.00     0.029 C 
BRANCH  11  18
ATOM     18  C   UNL     1       0.023  -2.536   0.079  1.00  0.00     0.280 C 
ATOM     19  O   UNL     1      -0.724  -3.513   0.005  1.00  0.00    -0.267 OA
BRANCH  18  20
ATOM     20  C   UNL     1      -0.482  -1.186   0.353  1.00  0.00     0.216 A 
ATOM     21  C   UNL     1       0.067   0.107   0.128  1.00  0.00     0.201 A 
ATOM     22  N   UNL     1      -0.801   1.038   0.513  1.00  0.00    -0.032 NA
ATOM     23  O   UNL     1      -1.931   0.342   0.902  1.00  0.00    -0.242 OA
ATOM     24  N   UNL     1      -1.732  -1.024   0.816  1.00  0.00    -0.042 NA
BRANCH  21  25
ATOM     25  N   UNL     1       1.245   0.418  -0.432  1.00  0.00    -0.379 N 
ATOM     26  H   UNL     1       1.509   1.361  -0.530  1.00  0.00     0.158 HD
ATOM     27  H   UNL     1       1.845  -0.297  -0.745  1.00  0.00     0.158 HD
ENDBRANCH  21  25
ENDBRANCH  18  20
ENDBRANCH  11  18
ENDBRANCH   9  10
ENDBRANCH   7   9
ENDBRANCH   6   7
ENDBRANCH   5   6
ENDBRANCH   4   5
ENDBRANCH   3   4
ENDBRANCH   2   3
ENDBRANCH   1   2
BRANCH   1  28
ATOM     28  O   UNL     1       6.817  -2.630   0.395  1.00  0.00    -0.377 OA
BRANCH  28  29
ATOM     29  C   UNL     1       7.725  -2.374   1.464  1.00  0.00     0.188 C 
BRANCH  29  30
ATOM     30  C   UNL     1       9.141  -2.974   1.375  1.00  0.00     0.188 C 
BRANCH  30  31
ATOM     31  O   UNL     1       9.326  -3.839   0.267  1.00  0.00    -0.376 OA
BRANCH  31  32
ATOM     32  C   UNL     1       9.145  -5.230   0.493  1.00  0.00     0.202 C 
BRANCH  32  33
ATOM     33  C   UNL     1       7.793  -5.714   1.049  1.00  0.00     0.261 C 
BRANCH  33  34
ATOM     34  O   UNL     1       7.381  -5.173   2.317  1.00  0.00    -0.460 OA
BRANCH  34  35
ATOM     35  C   UNL     1       8.185  -5.388   3.381  1.00  0.00     0.338 C 
ATOM     36  O   UNL     1       9.221  -6.019   3.409  1.00  0.00    -0.246 OA
BRANCH  35  37
ATOM     37  C   UNL     1       7.682  -4.561   4.499  1.00  0.00     0.060 A 
ATOM     38  C   UNL     1       8.499  -3.542   5.004  1.00  0.00     0.016 A 
ATOM     39  C   UNL     1       6.428  -4.809   5.062  1.00  0.00     0.016 A 
ATOM     40  C   UNL     1       8.085  -2.801   6.109  1.00  0.00     0.010 A 
ATOM     41  C   UNL     1       6.022  -4.077   6.182  1.00  0.00     0.010 A 
ATOM     42  C   UNL     1       6.868  -3.101   6.737  1.00  0.00    -0.014 A 
BRANCH  42  43
ATOM     43  C   UNL     1       6.604  -2.545   8.086  1.00  0.00     0.031 A 
ATOM     44  C   UNL     1       6.918  -3.399   9.286  1.00  0.00     0.074 A 
ATOM     45  C   UNL     1       6.171  -1.283   8.253  1.00  0.00     0.049 A 
ATOM     46  N   UNL     1       6.832  -3.110  10.559  1.00  0.00    -0.248 NA
ATOM     47  C   UNL     1       7.399  -4.762   9.008  1.00  0.00     0.031 C 
ATOM     48  C   UNL     1       5.890  -0.334   7.178  1.00  0.00     0.029 A 
ATOM     49  N   UNL     1       5.911  -0.580   9.403  1.00  0.00    -0.354 N 
ATOM     50  C   UNL     1       7.250  -4.253  11.232  1.00  0.00     0.074 A 
ATOM     51  C   UNL     1       7.544  -5.252  10.228  1.00  0.00     0.031 C 
ATOM     52  C   UNL     1       5.512   0.837   7.721  1.00  0.00     0.029 A 
ATOM     53  C   UNL     1       5.495   0.709   9.177  1.00  0.00     0.049 A 
ATOM     54  H   UNL     1       6.013  -0.963  10.304  1.00  0.00     0.167 HD
ATOM     55  C   UNL     1       7.388  -4.454  12.564  1.00  0.00     0.031 A 
ATOM     56  C   UNL     1       5.138   1.672  10.048  1.00  0.00     0.031 A 
ATOM     57  C   UNL     1       7.065  -3.473  13.566  1.00  0.00     0.049 A 
ATOM     58  C   UNL     1       5.196   1.389  11.527  1.00  0.00     0.074 A 
ATOM     59  C   UNL     1       7.163  -3.579  14.942  1.00  0.00     0.029 A 
ATOM     60  N   UNL     1       6.566  -2.208  13.297  1.00  0.00    -0.354 N 
ATOM     61  N   UNL     1       5.612   0.314  12.152  1.00  0.00    -0.248 NA
ATOM     62  C   UNL     1       4.744   2.466  12.421  1.00  0.00     0.031 C 
ATOM     63  C   UNL     1       6.661  -2.401  15.507  1.00  0.00     0.029 A 
ATOM     64  C   UNL     1       6.323  -1.533  14.481  1.00  0.00     0.049 A 
ATOM     65  H   UNL     1       6.408  -1.843  12.396  1.00  0.00     0.167 HD
ATOM     66  C   UNL     1       5.509   0.598  13.509  1.00  0.00     0.074 A 
ATOM     67  C   UNL     1       5.005   1.952  13.614  1.00  0.00     0.031 C 
ATOM     68  C   UNL     1       5.814  -0.187  14.573  1.00  0.00     0.031 A 
BRANCH  55  69
ATOM     69  C   UNL     1       7.865  -5.813  13.004  1.00  0.00    -0.014 A 
ATOM     70  C   UNL     1       9.172  -6.254  12.740  1.00  0.00     0.009 A 
ATOM     71  C   UNL     1       6.987  -6.670  13.686  1.00  0.00     0.009 A 
ATOM     72  C   UNL     1       9.572  -7.543  13.102  1.00  0.00     0.001 A 
ATOM     73  C   UNL     1       7.401  -7.945  14.078  1.00  0.00     0.001 A 
ATOM     74  C   UNL     1       8.688  -8.385  13.773  1.00  0.00     0.000 A 
ENDBRANCH  55  69
BRANCH  56  75
ATOM     75  C   UNL     1       4.701   3.005   9.553  1.00  0.00    -0.014 A 
ATOM     76  C   UNL     1       5.486   4.146   9.785  1.00  0.00     0.009 A 
ATOM     77  C   UNL     1       3.486   3.149   8.865  1.00  0.00     0.009 A 
ATOM     78  C   UNL     1       5.051   5.404   9.360  1.00  0.00     0.001 A 
ATOM     79  C   UNL     1       3.069   4.403   8.415  1.00  0.00     0.001 A 
ATOM     80  C   UNL     1       3.846   5.531   8.671  1.00  0.00     0.000 A 
ENDBRANCH  56  75
BRANCH  68  81
ATOM     81  C   UNL     1       5.658   0.418  15.943  1.00  0.00    -0.014 A 
ATOM     82  C   UNL     1       4.395   0.717  16.480  1.00  0.00     0.009 A 
ATOM     83  C   UNL     1       6.800   0.676  16.718  1.00  0.00     0.009 A 
ATOM     84  C   UNL     1       4.284   1.306  17.742  1.00  0.00     0.001 A 
ATOM     85  C   UNL     1       6.685   1.230  17.994  1.00  0.00     0.001 A 
ATOM     86  C   UNL     1       5.428   1.558  18.499  1.00  0.00     0.000 A 
ENDBRANCH  68  81
ENDBRANCH  42  43
ENDBRANCH  35  37
ENDBRANCH  34  35
ENDBRANCH  33  34
ENDBRANCH  32  33
ENDBRANCH  31  32
ENDBRANCH  30  31
ENDBRANCH  29  30
ENDBRANCH  28  29
ENDBRANCH   1  28
TORSDOF 24
