REMARK SMILES Cc1cc(C(=O)N[C@@H]2C(=O)N3C(C(=O)OCCOCCOCCOCCOC(=O)c4ccc(-c5c6nc(c(-c7ccccc7)c7ccc([nH]7)c(-c7ccccc7)c7nc(c(-c8ccccc8)c8ccc5[nH]8)C=C7)C=C6)cc4)=C(CSc4nnc(C)s4)CS[C@H]23)n(C)n1
REMARK SMILES IDX 20 1 19 2 18 3 17 4 16 5 15 6 13 7 14 8 12 9 8 10 9 11 89 12
REMARK SMILES IDX 10 13 11 14 88 15 87 16 78 17 7 18 5 19 6 20 4 22 1 23 2 24
REMARK SMILES IDX 3 25 92 26 90 27 91 28 79 29 80 30 81 31 82 32 86 33 83 34
REMARK SMILES IDX 84 35 85 36 21 37 22 38 23 39 24 40 25 41 26 42 27 43 28 44
REMARK SMILES IDX 29 45 30 46 31 47 77 48 32 49 76 50 33 51 34 52 35 53 70 54
REMARK SMILES IDX 36 55 75 56 69 57 71 58 37 59 74 60 68 61 67 62 38 64 60 65
REMARK SMILES IDX 45 66 59 67 46 68 49 69 58 70 72 71 47 72 48 73 57 75 73 76
REMARK SMILES IDX 50 77 39 78 40 79 44 80 41 81 43 82 42 83 61 84 62 85 66 86
REMARK SMILES IDX 63 87 65 88 64 89 51 90 52 91 56 92 53 93 55 94 54 95
REMARK H PARENT 7 21 71 63 49 74
REMARK Flexibility Score: inf
ROOT
ATOM      1  C   UNL     1      -4.028  -0.745  -0.609  1.00  0.00     0.188 C 
ENDROOT
BRANCH   1   2
ATOM      2  C   UNL     1      -2.982   0.391  -0.782  1.00  0.00     0.188 C 
BRANCH   2   3
ATOM      3  O   UNL     1      -3.442   1.515  -1.510  1.00  0.00    -0.376 OA
BRANCH   3   4
ATOM      4  C   UNL     1      -2.950   1.778  -2.804  1.00  0.00     0.202 C 
BRANCH   4   5
ATOM      5  C   UNL     1      -3.122   0.727  -3.910  1.00  0.00     0.261 C 
BRANCH   5   6
ATOM      6  O   UNL     1      -3.276  -0.628  -3.478  1.00  0.00    -0.459 OA
BRANCH   6   7
ATOM      7  C   UNL     1      -2.144  -1.347  -3.330  1.00  0.00     0.355 C 
ATOM      8  O   UNL     1      -1.010  -0.936  -3.533  1.00  0.00    -0.244 OA
BRANCH   7   9
ATOM      9  C   UNL     1      -2.416  -2.740  -2.832  1.00  0.00     0.132 C 
ATOM     10  C   UNL     1      -0.267  -4.142  -0.573  1.00  0.00     0.206 C 
ATOM     11  C   UNL     1      -1.029  -2.794  -0.701  1.00  0.00     0.253 C 
ATOM     12  C   UNL     1      -1.191  -4.583  -1.750  1.00  0.00     0.181 C 
ATOM     13  O   UNL     1      -1.160  -1.811  -0.024  1.00  0.00    -0.272 OA
ATOM     14  N   UNL     1      -1.526  -3.197  -1.903  1.00  0.00    -0.289 N 
ATOM     15  S   UNL     1      -2.721  -5.459  -1.350  1.00  0.00    -0.129 SA
ATOM     16  C   UNL     1      -3.447  -5.054  -2.955  1.00  0.00     0.106 C 
ATOM     17  C   UNL     1      -3.380  -3.570  -3.319  1.00  0.00    -0.019 C 
BRANCH  10  18
ATOM     18  N   UNL     1      -0.300  -4.938   0.677  1.00  0.00    -0.336 N 
ATOM     19  C   UNL     1      -0.004  -6.286   0.815  1.00  0.00     0.270 C 
ATOM     20  O   UNL     1      -0.091  -6.783   1.935  1.00  0.00    -0.268 OA
ATOM     21  H   UNL     1      -0.560  -4.459   1.497  1.00  0.00     0.164 HD
BRANCH  19  22
ATOM     22  C   UNL     1       0.309  -7.046  -0.380  1.00  0.00     0.126 A 
ATOM     23  C   UNL     1       0.397  -7.421  -3.995  1.00  0.00     0.069 C 
ATOM     24  C   UNL     1       0.447  -7.593  -2.523  1.00  0.00     0.060 A 
ATOM     25  C   UNL     1       0.944  -6.688  -1.561  1.00  0.00     0.059 A 
ATOM     26  N   UNL     1      -0.111  -8.651  -1.933  1.00  0.00    -0.178 NA
ATOM     27  N   UNL     1      -0.043  -8.357  -0.613  1.00  0.00    -0.263 N 
ATOM     28  C   UNL     1      -0.341  -9.410   0.328  1.00  0.00     0.174 C 
ENDBRANCH  19  22
ENDBRANCH  10  18
BRANCH  17  29
ATOM     29  C   UNL     1      -4.415  -3.211  -4.359  1.00  0.00     0.111 C 
BRANCH  29  30
ATOM     30  S   UNL     1      -5.947  -2.421  -3.817  1.00  0.00    -0.089 SA
BRANCH  30  31
ATOM     31  C   UNL     1      -6.490  -3.150  -2.326  1.00  0.00     0.174 A 
ATOM     32  N   UNL     1      -5.840  -4.068  -1.653  1.00  0.00    -0.132 NA
ATOM     33  S   UNL     1      -7.960  -2.671  -1.570  1.00  0.00    -0.091 S 
ATOM     34  N   UNL     1      -6.416  -4.346  -0.428  1.00  0.00    -0.143 NA
ATOM     35  C   UNL     1      -7.493  -3.620  -0.217  1.00  0.00     0.115 A 
ATOM     36  C   UNL     1      -8.262  -3.590   1.054  1.00  0.00     0.081 C 
ENDBRANCH  30  31
ENDBRANCH  29  30
ENDBRANCH  17  29
ENDBRANCH   7   9
ENDBRANCH   6   7
ENDBRANCH   5   6
ENDBRANCH   4   5
ENDBRANCH   3   4
ENDBRANCH   2   3
ENDBRANCH   1   2
BRANCH   1  37
ATOM     37  O   UNL     1      -5.434  -0.540  -0.705  1.00  0.00    -0.377 OA
BRANCH  37  38
ATOM     38  C   UNL     1      -5.905   0.708  -1.172  1.00  0.00     0.188 C 
BRANCH  38  39
ATOM     39  C   UNL     1      -5.777   1.832  -0.129  1.00  0.00     0.188 C 
BRANCH  39  40
ATOM     40  O   UNL     1      -4.960   1.523   0.982  1.00  0.00    -0.376 OA
BRANCH  40  41
ATOM     41  C   UNL     1      -5.437   0.704   2.037  1.00  0.00     0.202 C 
BRANCH  41  42
ATOM     42  C   UNL     1      -6.636  -0.268   1.966  1.00  0.00     0.261 C 
BRANCH  42  43
ATOM     43  O   UNL     1      -7.651  -0.068   0.977  1.00  0.00    -0.460 OA
BRANCH  43  44
ATOM     44  C   UNL     1      -8.551   0.916   1.170  1.00  0.00     0.338 C 
ATOM     45  O   UNL     1      -8.622   1.681   2.111  1.00  0.00    -0.246 OA
BRANCH  44  46
ATOM     46  C   UNL     1      -9.351   1.012  -0.072  1.00  0.00     0.060 A 
ATOM     47  C   UNL     1      -9.227   2.147  -0.885  1.00  0.00     0.016 A 
ATOM     48  C   UNL     1     -10.201  -0.031  -0.444  1.00  0.00     0.016 A 
ATOM     49  C   UNL     1      -9.968   2.252  -2.061  1.00  0.00     0.010 A 
ATOM     50  C   UNL     1     -10.959   0.083  -1.613  1.00  0.00     0.010 A 
ATOM     51  C   UNL     1     -10.873   1.242  -2.405  1.00  0.00    -0.014 A 
BRANCH  51  52
ATOM     52  C   UNL     1     -11.887   1.498  -3.455  1.00  0.00     0.031 A 
ATOM     53  C   UNL     1     -13.271   1.897  -3.018  1.00  0.00     0.074 A 
ATOM     54  C   UNL     1     -11.589   1.415  -4.763  1.00  0.00     0.049 A 
ATOM     55  N   UNL     1     -14.336   2.130  -3.739  1.00  0.00    -0.248 NA
ATOM     56  C   UNL     1     -13.478   2.049  -1.567  1.00  0.00     0.031 C 
ATOM     57  C   UNL     1     -10.275   1.097  -5.317  1.00  0.00     0.029 A 
ATOM     58  N   UNL     1     -12.389   1.591  -5.865  1.00  0.00    -0.354 N 
ATOM     59  C   UNL     1     -15.341   2.439  -2.830  1.00  0.00     0.074 A 
ATOM     60  C   UNL     1     -14.770   2.329  -1.507  1.00  0.00     0.031 C 
ATOM     61  C   UNL     1     -10.360   1.097  -6.660  1.00  0.00     0.029 A 
ATOM     62  C   UNL     1     -11.740   1.374  -7.055  1.00  0.00     0.049 A 
ATOM     63  H   UNL     1     -13.337   1.849  -5.808  1.00  0.00     0.167 HD
ATOM     64  C   UNL     1     -16.626   2.791  -3.074  1.00  0.00     0.031 A 
ATOM     65  C   UNL     1     -12.214   1.375  -8.317  1.00  0.00     0.031 A 
ATOM     66  C   UNL     1     -17.199   2.884  -4.389  1.00  0.00     0.049 A 
ATOM     67  C   UNL     1     -13.672   1.673  -8.559  1.00  0.00     0.074 A 
ATOM     68  C   UNL     1     -18.487   3.242  -4.744  1.00  0.00     0.029 A 
ATOM     69  N   UNL     1     -16.521   2.605  -5.566  1.00  0.00    -0.354 N 
ATOM     70  N   UNL     1     -14.610   1.985  -7.696  1.00  0.00    -0.248 NA
ATOM     71  C   UNL     1     -14.135   1.623  -9.954  1.00  0.00     0.031 C 
ATOM     72  C   UNL     1     -18.610   3.109  -6.130  1.00  0.00     0.029 A 
ATOM     73  C   UNL     1     -17.375   2.748  -6.646  1.00  0.00     0.049 A 
ATOM     74  H   UNL     1     -15.574   2.344  -5.625  1.00  0.00     0.167 HD
ATOM     75  C   UNL     1     -15.761   2.203  -8.446  1.00  0.00     0.074 A 
ATOM     76  C   UNL     1     -15.400   2.002  -9.834  1.00  0.00     0.031 C 
ATOM     77  C   UNL     1     -17.004   2.543  -8.024  1.00  0.00     0.031 A 
BRANCH  64  78
ATOM     78  C   UNL     1     -17.508   3.051  -1.884  1.00  0.00    -0.014 A 
ATOM     79  C   UNL     1     -17.312   4.164  -1.051  1.00  0.00     0.009 A 
ATOM     80  C   UNL     1     -18.565   2.171  -1.600  1.00  0.00     0.009 A 
ATOM     81  C   UNL     1     -18.129   4.367   0.063  1.00  0.00     0.001 A 
ATOM     82  C   UNL     1     -19.403   2.397  -0.507  1.00  0.00     0.001 A 
ATOM     83  C   UNL     1     -19.177   3.487   0.330  1.00  0.00     0.000 A 
ENDBRANCH  64  78
BRANCH  65  84
ATOM     84  C   UNL     1     -11.309   1.061  -9.456  1.00  0.00    -0.014 A 
ATOM     85  C   UNL     1     -10.990   2.039 -10.410  1.00  0.00     0.009 A 
ATOM     86  C   UNL     1     -10.780  -0.231  -9.610  1.00  0.00     0.009 A 
ATOM     87  C   UNL     1     -10.183   1.724 -11.507  1.00  0.00     0.001 A 
ATOM     88  C   UNL     1      -9.947  -0.535 -10.688  1.00  0.00     0.001 A 
ATOM     89  C   UNL     1      -9.658   0.439 -11.642  1.00  0.00     0.000 A 
ENDBRANCH  65  84
BRANCH  77  90
ATOM     90  C   UNL     1     -18.059   2.767  -9.074  1.00  0.00    -0.014 A 
ATOM     91  C   UNL     1     -18.587   1.706  -9.826  1.00  0.00     0.009 A 
ATOM     92  C   UNL     1     -18.569   4.061  -9.277  1.00  0.00     0.009 A 
ATOM     93  C   UNL     1     -19.576   1.943 -10.785  1.00  0.00     0.001 A 
ATOM     94  C   UNL     1     -19.582   4.288 -10.209  1.00  0.00     0.001 A 
ATOM     95  C   UNL     1     -20.076   3.231 -10.970  1.00  0.00     0.000 A 
ENDBRANCH  77  90
ENDBRANCH  51  52
ENDBRANCH  44  46
ENDBRANCH  43  44
ENDBRANCH  42  43
ENDBRANCH  41  42
ENDBRANCH  40  41
ENDBRANCH  39  40
ENDBRANCH  38  39
ENDBRANCH  37  38
ENDBRANCH   1  37
TORSDOF 25
