REMARK SMILES CC1(C)CCSC[C@@]1(Nc1ccccc1Br)C(=O)OCCOCCOCCOCCOC(=O)c1ccc(-c2c3nc(c(-c4ccccc4)c4ccc([nH]4)c(-c4ccccc4)c4nc(c(-c5ccccc5)c5ccc2[nH]5)C=C4)C=C3)cc1
REMARK SMILES IDX 25 1 24 2 23 3 22 4 21 5 20 6 19 7 17 8 18 9 8 10 1 11 2 12
REMARK SMILES IDX 3 13 4 14 5 15 7 16 6 17 9 18 10 20 11 21 15 22 12 23 14 24
REMARK SMILES IDX 16 25 13 26 26 27 27 28 28 29 29 30 30 31 31 32 32 33 33 34
REMARK SMILES IDX 34 35 35 36 81 37 36 38 80 39 37 40 38 41 39 42 74 43 40 44
REMARK SMILES IDX 79 45 73 46 75 47 41 48 78 49 72 50 71 51 42 53 64 54 49 55
REMARK SMILES IDX 63 56 50 57 53 58 62 59 76 60 51 61 52 62 61 64 77 65 54 66
REMARK SMILES IDX 43 67 44 68 48 69 45 70 47 71 46 72 65 73 66 74 70 75 67 76
REMARK SMILES IDX 69 77 68 78 55 79 56 80 60 81 57 82 59 83 58 84
REMARK H PARENT 9 19 75 52 53 63
REMARK Flexibility Score: inf
ROOT
ATOM      1  O   UNL     1       2.825  -2.597   4.338  1.00  0.00    -0.377 OA
ENDROOT
BRANCH   1   2
ATOM      2  C   UNL     1       2.316  -3.586   3.449  1.00  0.00     0.188 C 
BRANCH   2   3
ATOM      3  C   UNL     1       2.749  -3.227   2.061  1.00  0.00     0.188 C 
BRANCH   3   4
ATOM      4  O   UNL     1       3.871  -3.893   1.514  1.00  0.00    -0.376 OA
BRANCH   4   5
ATOM      5  C   UNL     1       4.388  -3.189   0.374  1.00  0.00     0.202 C 
BRANCH   5   6
ATOM      6  C   UNL     1       3.429  -2.492  -0.647  1.00  0.00     0.261 C 
BRANCH   6   7
ATOM      7  O   UNL     1       2.232  -1.891  -0.094  1.00  0.00    -0.461 OA
BRANCH   7   8
ATOM      8  C   UNL     1       1.021  -2.483  -0.351  1.00  0.00     0.333 C 
ATOM      9  O   UNL     1       0.885  -3.375  -1.182  1.00  0.00    -0.249 OA
BRANCH   8  10
ATOM     10  C   UNL     1      -0.151  -1.947   0.584  1.00  0.00     0.150 C 
ATOM     11  C   UNL     1       0.588   0.477  -0.148  1.00  0.00     0.014 C 
ATOM     12  C   UNL     1       0.099  -0.396   1.044  1.00  0.00     0.000 C 
ATOM     13  C   UNL     1       1.147  -0.178   2.177  1.00  0.00     0.014 C 
ATOM     14  C   UNL     1      -1.199   0.252   1.614  1.00  0.00     0.020 C 
ATOM     15  C   UNL     1      -2.363   0.323   0.646  1.00  0.00     0.070 C 
ATOM     16  C   UNL     1      -1.413  -2.074  -0.323  1.00  0.00     0.110 C 
ATOM     17  S   UNL     1      -2.969  -1.327   0.274  1.00  0.00    -0.159 SA
BRANCH  10  18
ATOM     18  N   UNL     1      -0.308  -2.817   1.823  1.00  0.00    -0.368 N 
ATOM     19  H   UNL     1       0.198  -2.504   2.607  1.00  0.00     0.161 HD
BRANCH  18  20
ATOM     20  C   UNL     1      -1.050  -3.989   2.039  1.00  0.00     0.049 A 
ATOM     21  C   UNL     1      -2.299  -3.832   2.679  1.00  0.00     0.027 A 
ATOM     22  C   UNL     1      -0.625  -5.329   1.860  1.00  0.00     0.041 A 
ATOM     23  C   UNL     1      -3.074  -4.915   3.121  1.00  0.00     0.002 A 
ATOM     24  C   UNL     1      -1.380  -6.413   2.362  1.00  0.00     0.018 A 
ATOM     25  Br  UNL     1       0.960  -5.904   0.990  1.00  0.00    -0.049 Br
ATOM     26  C   UNL     1      -2.603  -6.210   2.984  1.00  0.00     0.001 A 
ENDBRANCH  18  20
ENDBRANCH  10  18
ENDBRANCH   8  10
ENDBRANCH   7   8
ENDBRANCH   6   7
ENDBRANCH   5   6
ENDBRANCH   4   5
ENDBRANCH   3   4
ENDBRANCH   2   3
ENDBRANCH   1   2
BRANCH   1  27
ATOM     27  C   UNL     1       4.225  -2.710   4.503  1.00  0.00     0.188 C 
BRANCH  27  28
ATOM     28  C   UNL     1       4.681  -4.104   4.953  1.00  0.00     0.188 C 
BRANCH  28  29
ATOM     29  O   UNL     1       4.049  -4.790   6.037  1.00  0.00    -0.376 OA
BRANCH  29  30
ATOM     30  C   UNL     1       2.779  -4.409   6.550  1.00  0.00     0.202 C 
BRANCH  30  31
ATOM     31  C   UNL     1       2.864  -3.507   7.780  1.00  0.00     0.261 C 
BRANCH  31  32
ATOM     32  O   UNL     1       3.662  -2.340   7.556  1.00  0.00    -0.460 OA
BRANCH  32  33
ATOM     33  C   UNL     1       4.989  -2.510   7.765  1.00  0.00     0.338 C 
ATOM     34  O   UNL     1       5.566  -3.498   8.192  1.00  0.00    -0.246 OA
BRANCH  33  35
ATOM     35  C   UNL     1       5.697  -1.329   7.246  1.00  0.00     0.060 A 
ATOM     36  C   UNL     1       6.819  -1.530   6.427  1.00  0.00     0.016 A 
ATOM     37  C   UNL     1       5.239  -0.041   7.536  1.00  0.00     0.016 A 
ATOM     38  C   UNL     1       7.524  -0.438   5.940  1.00  0.00     0.010 A 
ATOM     39  C   UNL     1       5.966   1.053   7.082  1.00  0.00     0.010 A 
ATOM     40  C   UNL     1       7.138   0.848   6.332  1.00  0.00    -0.014 A 
BRANCH  40  41
ATOM     41  C   UNL     1       8.122   1.939   6.237  1.00  0.00     0.031 A 
ATOM     42  C   UNL     1       8.988   2.184   7.441  1.00  0.00     0.074 A 
ATOM     43  C   UNL     1       8.254   2.662   5.116  1.00  0.00     0.049 A 
ATOM     44  N   UNL     1       9.892   3.104   7.641  1.00  0.00    -0.248 NA
ATOM     45  C   UNL     1       8.802   1.262   8.577  1.00  0.00     0.031 C 
ATOM     46  C   UNL     1       7.506   2.453   3.878  1.00  0.00     0.029 A 
ATOM     47  N   UNL     1       9.073   3.724   4.847  1.00  0.00    -0.354 N 
ATOM     48  C   UNL     1      10.374   2.876   8.924  1.00  0.00     0.074 A 
ATOM     49  C   UNL     1       9.639   1.759   9.471  1.00  0.00     0.031 C 
ATOM     50  C   UNL     1       7.901   3.369   2.976  1.00  0.00     0.029 A 
ATOM     51  C   UNL     1       8.896   4.244   3.591  1.00  0.00     0.049 A 
ATOM     52  H   UNL     1       9.726   4.080   5.493  1.00  0.00     0.167 HD
ATOM     53  C   UNL     1      11.349   3.538   9.586  1.00  0.00     0.031 A 
ATOM     54  C   UNL     1       9.467   5.322   3.023  1.00  0.00     0.031 A 
ATOM     55  C   UNL     1      12.046   4.668   9.039  1.00  0.00     0.049 A 
ATOM     56  C   UNL     1      10.473   6.111   3.819  1.00  0.00     0.074 A 
ATOM     57  C   UNL     1      13.045   5.430   9.614  1.00  0.00     0.029 A 
ATOM     58  N   UNL     1      11.800   5.204   7.782  1.00  0.00    -0.354 N 
ATOM     59  N   UNL     1      10.934   5.887   5.028  1.00  0.00    -0.248 NA
ATOM     60  C   UNL     1      11.041   7.298   3.168  1.00  0.00     0.031 C 
ATOM     61  C   UNL     1      13.360   6.466   8.729  1.00  0.00     0.029 A 
ATOM     62  C   UNL     1      12.610   6.305   7.573  1.00  0.00     0.049 A 
ATOM     63  H   UNL     1      11.147   4.852   7.135  1.00  0.00     0.167 HD
ATOM     64  C   UNL     1      11.873   6.882   5.268  1.00  0.00     0.074 A 
ATOM     65  C   UNL     1      11.922   7.702   4.073  1.00  0.00     0.031 C 
ATOM     66  C   UNL     1      12.632   7.100   6.371  1.00  0.00     0.031 A 
BRANCH  53  67
ATOM     67  C   UNL     1      11.665   3.080  10.983  1.00  0.00    -0.014 A 
ATOM     68  C   UNL     1      12.263   1.832  11.229  1.00  0.00     0.009 A 
ATOM     69  C   UNL     1      11.346   3.903  12.073  1.00  0.00     0.009 A 
ATOM     70  C   UNL     1      12.494   1.402  12.537  1.00  0.00     0.001 A 
ATOM     71  C   UNL     1      11.610   3.486  13.379  1.00  0.00     0.001 A 
ATOM     72  C   UNL     1      12.171   2.231  13.611  1.00  0.00     0.000 A 
ENDBRANCH  53  67
BRANCH  54  73
ATOM     73  C   UNL     1       9.100   5.720   1.639  1.00  0.00    -0.014 A 
ATOM     74  C   UNL     1      10.035   5.626   0.598  1.00  0.00     0.009 A 
ATOM     75  C   UNL     1       7.814   6.207   1.352  1.00  0.00     0.009 A 
ATOM     76  C   UNL     1       9.700   6.035  -0.695  1.00  0.00     0.001 A 
ATOM     77  C   UNL     1       7.472   6.587   0.053  1.00  0.00     0.001 A 
ATOM     78  C   UNL     1       8.418   6.510  -0.968  1.00  0.00     0.000 A 
ENDBRANCH  54  73
BRANCH  66  79
ATOM     79  C   UNL     1      13.611   8.240   6.313  1.00  0.00    -0.014 A 
ATOM     80  C   UNL     1      13.185   9.577   6.326  1.00  0.00     0.009 A 
ATOM     81  C   UNL     1      14.988   7.964   6.287  1.00  0.00     0.009 A 
ATOM     82  C   UNL     1      14.118  10.614   6.272  1.00  0.00     0.001 A 
ATOM     83  C   UNL     1      15.919   9.002   6.271  1.00  0.00     0.001 A 
ATOM     84  C   UNL     1      15.483  10.326   6.251  1.00  0.00     0.000 A 
ENDBRANCH  66  79
ENDBRANCH  40  41
ENDBRANCH  33  35
ENDBRANCH  32  33
ENDBRANCH  31  32
ENDBRANCH  30  31
ENDBRANCH  29  30
ENDBRANCH  28  29
ENDBRANCH  27  28
ENDBRANCH   1  27
TORSDOF 22
