REMARK SMILES O=C(Cn1cc(/C=C(/Cl)c2nnc(C(=O)Nc3ccc(Cl)cc3)s2)nn1)OCCOCCOCCOCCOC(=O)c1ccc(-c2c3nc(c(-c4ccccc4)c4ccc([nH]4)c(-c4ccccc4)c4nc(c(-c5ccccc5)c5ccc2[nH]5)C=C4)C=C3)cc1
REMARK SMILES IDX 31 1 30 2 29 3 28 4 27 5 2 6 1 7 3 8 4 9 5 10 26 11 6 12
REMARK SMILES IDX 25 13 7 14 8 15 9 16 10 17 11 18 24 19 12 20 13 21 14 22
REMARK SMILES IDX 15 23 16 24 17 26 18 27 23 28 19 29 22 30 20 31 21 32 32 33
REMARK SMILES IDX 33 34 34 35 35 36 36 37 37 38 38 39 39 40 40 41 41 42 42 43
REMARK SMILES IDX 43 44 89 45 44 46 88 47 45 48 46 49 47 50 82 51 48 52 87 53
REMARK SMILES IDX 81 54 83 55 49 56 86 57 80 58 79 59 50 61 72 62 57 63 71 64
REMARK SMILES IDX 58 65 61 66 70 67 84 68 59 69 60 70 69 72 85 73 62 74 51 75
REMARK SMILES IDX 52 76 56 77 53 78 55 79 54 80 73 81 74 82 78 83 75 84 77 85
REMARK SMILES IDX 76 86 63 87 64 88 68 89 65 90 67 91 66 92
REMARK H PARENT 16 25 83 60 61 71
REMARK Flexibility Score: inf
ROOT
ATOM      1  C   UNL     1       2.316  -1.412  -0.429  1.00  0.00     0.188 C 
ENDROOT
BRANCH   1   2
ATOM      2  O   UNL     1       3.619  -1.090  -0.868  1.00  0.00    -0.376 OA
BRANCH   2   3
ATOM      3  C   UNL     1       4.456  -0.214  -0.116  1.00  0.00     0.202 C 
BRANCH   3   4
ATOM      4  C   UNL     1       3.958   0.469   1.161  1.00  0.00     0.261 C 
BRANCH   4   5
ATOM      5  O   UNL     1       2.651   1.106   1.201  1.00  0.00    -0.462 OA
BRANCH   5   6
ATOM      6  C   UNL     1       1.879   1.656   0.247  1.00  0.00     0.327 C 
ATOM      7  O   UNL     1       0.678   1.816   0.467  1.00  0.00    -0.250 OA
BRANCH   6   8
ATOM      8  C   UNL     1       2.456   2.072  -1.065  1.00  0.00     0.268 C 
BRANCH   8   9
ATOM      9  N   UNL     1       3.433   3.104  -0.881  1.00  0.00    -0.241 N 
ATOM     10  C   UNL     1       3.258   4.440  -0.664  1.00  0.00     0.139 A 
ATOM     11  N   UNL     1       4.720   2.765  -0.812  1.00  0.00    -0.066 NA
ATOM     12  C   UNL     1       4.523   4.864  -0.332  1.00  0.00     0.107 A 
ATOM     13  N   UNL     1       5.396   3.832  -0.466  1.00  0.00    -0.131 NA
BRANCH  12  14
ATOM     14  C   UNL     1       4.962   6.145   0.102  1.00  0.00     0.055 C 
ATOM     15  C   UNL     1       6.179   6.446   0.603  1.00  0.00     0.081 C 
ATOM     16  Cl  UNL     1       6.549   8.067   1.069  1.00  0.00    -0.081 Cl
BRANCH  15  17
ATOM     17  C   UNL     1       7.189   5.455   0.786  1.00  0.00     0.159 A 
ATOM     18  N   UNL     1       7.252   4.543   1.741  1.00  0.00    -0.137 NA
ATOM     19  S   UNL     1       8.410   5.207  -0.423  1.00  0.00    -0.086 S 
ATOM     20  N   UNL     1       8.040   3.462   1.379  1.00  0.00    -0.133 NA
ATOM     21  C   UNL     1       8.540   3.602   0.164  1.00  0.00     0.206 A 
BRANCH  21  22
ATOM     22  C   UNL     1       9.249   2.516  -0.502  1.00  0.00     0.286 C 
ATOM     23  O   UNL     1      10.227   1.959   0.011  1.00  0.00    -0.266 OA
ATOM     24  N   UNL     1       8.733   1.890  -1.637  1.00  0.00    -0.320 N 
ATOM     25  H   UNL     1       9.145   1.021  -1.845  1.00  0.00     0.170 HD
BRANCH  24  26
ATOM     26  C   UNL     1       7.729   2.284  -2.533  1.00  0.00     0.041 A 
ATOM     27  C   UNL     1       7.692   3.556  -3.102  1.00  0.00     0.027 A 
ATOM     28  C   UNL     1       6.775   1.340  -2.927  1.00  0.00     0.027 A 
ATOM     29  C   UNL     1       6.615   3.948  -3.901  1.00  0.00     0.022 A 
ATOM     30  C   UNL     1       5.694   1.725  -3.730  1.00  0.00     0.022 A 
ATOM     31  C   UNL     1       5.597   3.041  -4.176  1.00  0.00     0.041 A 
ATOM     32  Cl  UNL     1       4.209   3.552  -5.053  1.00  0.00    -0.084 Cl
ENDBRANCH  24  26
ENDBRANCH  21  22
ENDBRANCH  15  17
ENDBRANCH  12  14
ENDBRANCH   8   9
ENDBRANCH   6   8
ENDBRANCH   5   6
ENDBRANCH   4   5
ENDBRANCH   3   4
ENDBRANCH   2   3
ENDBRANCH   1   2
BRANCH   1  33
ATOM     33  C   UNL     1       2.016  -2.900  -0.246  1.00  0.00     0.188 C 
BRANCH  33  34
ATOM     34  O   UNL     1       2.952  -3.753   0.382  1.00  0.00    -0.377 OA
BRANCH  34  35
ATOM     35  C   UNL     1       4.329  -3.449   0.358  1.00  0.00     0.188 C 
BRANCH  35  36
ATOM     36  C   UNL     1       5.205  -3.624  -0.913  1.00  0.00     0.188 C 
BRANCH  36  37
ATOM     37  O   UNL     1       4.881  -3.270  -2.248  1.00  0.00    -0.376 OA
BRANCH  37  38
ATOM     38  C   UNL     1       3.693  -3.600  -2.948  1.00  0.00     0.202 C 
BRANCH  38  39
ATOM     39  C   UNL     1       3.117  -5.015  -3.009  1.00  0.00     0.261 C 
BRANCH  39  40
ATOM     40  O   UNL     1       3.086  -5.629  -1.742  1.00  0.00    -0.460 OA
BRANCH  40  41
ATOM     41  C   UNL     1       4.200  -6.340  -1.482  1.00  0.00     0.338 C 
ATOM     42  O   UNL     1       5.119  -6.583  -2.242  1.00  0.00    -0.246 OA
BRANCH  41  43
ATOM     43  C   UNL     1       4.141  -6.814  -0.096  1.00  0.00     0.060 A 
ATOM     44  C   UNL     1       5.222  -7.594   0.309  1.00  0.00     0.016 A 
ATOM     45  C   UNL     1       2.925  -6.775   0.601  1.00  0.00     0.016 A 
ATOM     46  C   UNL     1       4.950  -8.631   1.155  1.00  0.00     0.010 A 
ATOM     47  C   UNL     1       2.656  -7.795   1.463  1.00  0.00     0.010 A 
ATOM     48  C   UNL     1       3.627  -8.784   1.571  1.00  0.00    -0.014 A 
BRANCH  48  49
ATOM     49  C   UNL     1       3.215 -10.111   1.940  1.00  0.00     0.031 A 
ATOM     50  C   UNL     1       3.554 -10.472   3.318  1.00  0.00     0.074 A 
ATOM     51  C   UNL     1       2.519 -10.864   1.067  1.00  0.00     0.049 A 
ATOM     52  N   UNL     1       4.332 -11.416   3.721  1.00  0.00    -0.248 NA
ATOM     53  C   UNL     1       3.075  -9.565   4.372  1.00  0.00     0.031 C 
ATOM     54  C   UNL     1       1.909 -10.451  -0.206  1.00  0.00     0.029 A 
ATOM     55  N   UNL     1       2.084 -12.138   1.216  1.00  0.00    -0.354 N 
ATOM     56  C   UNL     1       4.300 -11.336   5.104  1.00  0.00     0.074 A 
ATOM     57  C   UNL     1       3.673 -10.083   5.440  1.00  0.00     0.031 C 
ATOM     58  C   UNL     1       0.980 -11.367  -0.563  1.00  0.00     0.029 A 
ATOM     59  C   UNL     1       1.031 -12.470   0.381  1.00  0.00     0.049 A 
ATOM     60  H   UNL     1       2.481 -12.769   1.859  1.00  0.00     0.167 HD
ATOM     61  C   UNL     1       4.525 -12.425   5.881  1.00  0.00     0.031 A 
ATOM     62  C   UNL     1       0.192 -13.520   0.546  1.00  0.00     0.031 A 
ATOM     63  C   UNL     1       5.220 -13.468   5.178  1.00  0.00     0.049 A 
ATOM     64  C   UNL     1       0.839 -14.468   1.487  1.00  0.00     0.074 A 
ATOM     65  C   UNL     1       6.450 -13.559   4.557  1.00  0.00     0.029 A 
ATOM     66  N   UNL     1       4.476 -14.522   4.704  1.00  0.00    -0.354 N 
ATOM     67  N   UNL     1       1.915 -15.145   1.202  1.00  0.00    -0.248 NA
ATOM     68  C   UNL     1       0.555 -14.328   2.909  1.00  0.00     0.031 C 
ATOM     69  C   UNL     1       6.233 -14.385   3.417  1.00  0.00     0.029 A 
ATOM     70  C   UNL     1       4.893 -14.778   3.421  1.00  0.00     0.049 A 
ATOM     71  H   UNL     1       3.773 -15.005   5.194  1.00  0.00     0.167 HD
ATOM     72  C   UNL     1       2.657 -15.155   2.377  1.00  0.00     0.074 A 
ATOM     73  C   UNL     1       1.721 -14.737   3.418  1.00  0.00     0.031 C 
ATOM     74  C   UNL     1       4.022 -15.217   2.351  1.00  0.00     0.031 A 
BRANCH  61  75
ATOM     75  C   UNL     1       3.734 -12.662   7.135  1.00  0.00    -0.014 A 
ATOM     76  C   UNL     1       4.114 -13.699   7.995  1.00  0.00     0.009 A 
ATOM     77  C   UNL     1       2.477 -12.063   7.368  1.00  0.00     0.009 A 
ATOM     78  C   UNL     1       3.260 -14.134   9.015  1.00  0.00     0.001 A 
ATOM     79  C   UNL     1       1.645 -12.461   8.412  1.00  0.00     0.001 A 
ATOM     80  C   UNL     1       2.029 -13.516   9.223  1.00  0.00     0.000 A 
ENDBRANCH  61  75
BRANCH  62  81
ATOM     81  C   UNL     1      -1.250 -13.560   0.223  1.00  0.00    -0.014 A 
ATOM     82  C   UNL     1      -1.933 -14.780   0.129  1.00  0.00     0.009 A 
ATOM     83  C   UNL     1      -2.019 -12.379   0.240  1.00  0.00     0.009 A 
ATOM     84  C   UNL     1      -3.333 -14.816   0.076  1.00  0.00     0.001 A 
ATOM     85  C   UNL     1      -3.415 -12.414   0.180  1.00  0.00     0.001 A 
ATOM     86  C   UNL     1      -4.073 -13.635   0.111  1.00  0.00     0.000 A 
ENDBRANCH  62  81
BRANCH  74  87
ATOM     87  C   UNL     1       4.682 -15.481   1.018  1.00  0.00    -0.014 A 
ATOM     88  C   UNL     1       4.586 -14.583  -0.061  1.00  0.00     0.009 A 
ATOM     89  C   UNL     1       5.554 -16.572   0.897  1.00  0.00     0.009 A 
ATOM     90  C   UNL     1       5.317 -14.787  -1.236  1.00  0.00     0.001 A 
ATOM     91  C   UNL     1       6.299 -16.765  -0.270  1.00  0.00     0.001 A 
ATOM     92  C   UNL     1       6.178 -15.877  -1.337  1.00  0.00     0.000 A 
ENDBRANCH  74  87
ENDBRANCH  48  49
ENDBRANCH  41  43
ENDBRANCH  40  41
ENDBRANCH  39  40
ENDBRANCH  38  39
ENDBRANCH  37  38
ENDBRANCH  36  37
ENDBRANCH  35  36
ENDBRANCH  34  35
ENDBRANCH  33  34
ENDBRANCH   1  33
TORSDOF 25
