REMARK SMILES C[C@H]([NH2+][C@@H](C)Cc1cccs1)[C@@H](C)C(=O)OCCOCCOCCOCCOC(=O)c1ccc(-c2c3nc(c(-c4ccccc4)c4ccc([nH]4)c(-c4ccccc4)c4nc(c(-c5ccccc5)c5ccc2[nH]5)C=C4)C=C3)cc1
REMARK SMILES IDX 20 1 19 2 18 3 17 4 16 5 14 6 15 7 12 8 13 9 2 10 1 11 3 12
REMARK SMILES IDX 4 15 5 16 6 17 7 18 8 19 11 20 9 21 10 22 21 23 22 24 23 25
REMARK SMILES IDX 24 26 25 27 26 28 27 29 28 30 29 31 30 32 31 33 32 34 78 35
REMARK SMILES IDX 33 36 77 37 34 38 35 39 36 40 71 41 37 42 76 43 70 44 72 45
REMARK SMILES IDX 38 46 75 47 69 48 68 49 39 51 61 52 46 53 60 54 47 55 50 56
REMARK SMILES IDX 59 57 73 58 48 59 49 60 58 62 74 63 51 64 40 65 41 66 45 67
REMARK SMILES IDX 42 68 44 69 43 70 62 71 63 72 67 73 64 74 66 75 65 76 52 77
REMARK SMILES IDX 53 78 57 79 54 80 56 81 55 82
REMARK H PARENT 3 13 3 14 72 50 50 61
REMARK Flexibility Score: inf
ROOT
ATOM      1  C   UNL     1      -2.398  -2.348   3.966  1.00  0.00     0.188 C 
ENDROOT
BRANCH   1   2
ATOM      2  O   UNL     1      -3.090  -3.591   3.989  1.00  0.00    -0.376 OA
BRANCH   2   3
ATOM      3  C   UNL     1      -2.585  -4.647   3.172  1.00  0.00     0.202 C 
BRANCH   3   4
ATOM      4  C   UNL     1      -2.400  -4.403   1.656  1.00  0.00     0.261 C 
BRANCH   4   5
ATOM      5  O   UNL     1      -1.458  -3.370   1.240  1.00  0.00    -0.463 OA
BRANCH   5   6
ATOM      6  C   UNL     1      -2.019  -2.302   0.629  1.00  0.00     0.314 C 
ATOM      7  O   UNL     1      -3.242  -2.186   0.516  1.00  0.00    -0.252 OA
BRANCH   6   8
ATOM      8  C   UNL     1      -1.117  -1.158   0.135  1.00  0.00     0.154 C 
ATOM      9  C   UNL     1      -1.629  -0.861  -1.294  1.00  0.00     0.026 C 
BRANCH   8  10
ATOM     10  C   UNL     1       0.450  -1.080   0.098  1.00  0.00     0.193 C 
ATOM     11  C   UNL     1       1.156  -1.750   1.268  1.00  0.00     0.076 C 
BRANCH  10  12
ATOM     12  N   UNL     1       0.771   0.376  -0.071  1.00  0.00    -0.341 N 
ATOM     13  H   UNL     1       0.198   0.875   0.610  1.00  0.00     0.346 HD
ATOM     14  H   UNL     1       0.597   0.519  -1.066  1.00  0.00     0.346 HD
BRANCH  12  15
ATOM     15  C   UNL     1       2.138   0.897   0.081  1.00  0.00     0.184 C 
ATOM     16  C   UNL     1       2.544   1.596  -1.222  1.00  0.00     0.075 C 
BRANCH  15  17
ATOM     17  C   UNL     1       2.220   1.980   1.199  1.00  0.00     0.111 C 
BRANCH  17  18
ATOM     18  C   UNL     1       2.059   1.393   2.562  1.00  0.00     0.010 A 
ATOM     19  C   UNL     1       2.946   0.566   3.215  1.00  0.00     0.015 A 
ATOM     20  S   UNL     1       0.654   1.692   3.490  1.00  0.00    -0.149 S 
ATOM     21  C   UNL     1       2.429   0.113   4.452  1.00  0.00     0.012 A 
ATOM     22  C   UNL     1       1.186   0.638   4.726  1.00  0.00     0.065 A 
ENDBRANCH  17  18
ENDBRANCH  15  17
ENDBRANCH  12  15
ENDBRANCH  10  12
ENDBRANCH   8  10
ENDBRANCH   6   8
ENDBRANCH   5   6
ENDBRANCH   4   5
ENDBRANCH   3   4
ENDBRANCH   2   3
ENDBRANCH   1   2
BRANCH   1  23
ATOM     23  C   UNL     1      -0.915  -2.391   4.341  1.00  0.00     0.188 C 
BRANCH  23  24
ATOM     24  O   UNL     1      -0.229  -3.416   3.645  1.00  0.00    -0.377 OA
BRANCH  24  25
ATOM     25  C   UNL     1       0.792  -4.149   4.308  1.00  0.00     0.188 C 
BRANCH  25  26
ATOM     26  C   UNL     1       0.520  -4.566   5.764  1.00  0.00     0.188 C 
BRANCH  26  27
ATOM     27  O   UNL     1       0.656  -3.592   6.803  1.00  0.00    -0.376 OA
BRANCH  27  28
ATOM     28  C   UNL     1       1.598  -2.542   6.616  1.00  0.00     0.202 C 
BRANCH  28  29
ATOM     29  C   UNL     1       3.066  -2.901   6.842  1.00  0.00     0.261 C 
BRANCH  29  30
ATOM     30  O   UNL     1       3.513  -3.867   5.878  1.00  0.00    -0.460 OA
BRANCH  30  31
ATOM     31  C   UNL     1       3.871  -5.058   6.411  1.00  0.00     0.338 C 
ATOM     32  O   UNL     1       3.977  -5.349   7.585  1.00  0.00    -0.246 OA
BRANCH  31  33
ATOM     33  C   UNL     1       3.923  -6.062   5.339  1.00  0.00     0.060 A 
ATOM     34  C   UNL     1       3.051  -7.151   5.455  1.00  0.00     0.016 A 
ATOM     35  C   UNL     1       4.852  -5.989   4.300  1.00  0.00     0.016 A 
ATOM     36  C   UNL     1       3.116  -8.192   4.544  1.00  0.00     0.010 A 
ATOM     37  C   UNL     1       4.949  -7.060   3.409  1.00  0.00     0.010 A 
ATOM     38  C   UNL     1       4.105  -8.175   3.556  1.00  0.00    -0.014 A 
BRANCH  38  39
ATOM     39  C   UNL     1       4.388  -9.435   2.844  1.00  0.00     0.031 A 
ATOM     40  C   UNL     1       5.438 -10.346   3.411  1.00  0.00     0.074 A 
ATOM     41  C   UNL     1       3.665  -9.791   1.771  1.00  0.00     0.049 A 
ATOM     42  N   UNL     1       5.871 -11.493   2.960  1.00  0.00    -0.248 NA
ATOM     43  C   UNL     1       6.080  -9.907   4.662  1.00  0.00     0.031 C 
ATOM     44  C   UNL     1       2.560  -9.021   1.202  1.00  0.00     0.029 A 
ATOM     45  N   UNL     1       3.756 -10.900   0.973  1.00  0.00    -0.354 N 
ATOM     46  C   UNL     1       6.839 -11.909   3.865  1.00  0.00     0.074 A 
ATOM     47  C   UNL     1       6.947 -10.884   4.879  1.00  0.00     0.031 C 
ATOM     48  C   UNL     1       2.082  -9.678   0.132  1.00  0.00     0.029 A 
ATOM     49  C   UNL     1       2.876 -10.887  -0.080  1.00  0.00     0.049 A 
ATOM     50  H   UNL     1       4.391 -11.634   1.137  1.00  0.00     0.167 HD
ATOM     51  C   UNL     1       7.574 -13.045   3.848  1.00  0.00     0.031 A 
ATOM     52  C   UNL     1       2.756 -11.741  -1.113  1.00  0.00     0.031 A 
ATOM     53  C   UNL     1       7.474 -14.041   2.817  1.00  0.00     0.049 A 
ATOM     54  C   UNL     1       3.675 -12.932  -1.179  1.00  0.00     0.074 A 
ATOM     55  C   UNL     1       8.170 -15.229   2.694  1.00  0.00     0.029 A 
ATOM     56  N   UNL     1       6.629 -13.954   1.721  1.00  0.00    -0.354 N 
ATOM     57  N   UNL     1       4.582 -13.325  -0.317  1.00  0.00    -0.248 NA
ATOM     58  C   UNL     1       3.557 -13.792  -2.364  1.00  0.00     0.031 C 
ATOM     59  C   UNL     1       7.799 -15.825   1.485  1.00  0.00     0.029 A 
ATOM     60  C   UNL     1       6.821 -15.043   0.890  1.00  0.00     0.049 A 
ATOM     61  H   UNL     1       5.988 -13.225   1.558  1.00  0.00     0.167 HD
ATOM     62  C   UNL     1       5.132 -14.486  -0.846  1.00  0.00     0.074 A 
ATOM     63  C   UNL     1       4.437 -14.746  -2.091  1.00  0.00     0.031 C 
ATOM     64  C   UNL     1       6.124 -15.268  -0.351  1.00  0.00     0.031 A 
BRANCH  51  65
ATOM     65  C   UNL     1       8.590 -13.229   4.941  1.00  0.00    -0.014 A 
ATOM     66  C   UNL     1       8.208 -13.480   6.268  1.00  0.00     0.009 A 
ATOM     67  C   UNL     1       9.957 -13.163   4.630  1.00  0.00     0.009 A 
ATOM     68  C   UNL     1       9.174 -13.626   7.266  1.00  0.00     0.001 A 
ATOM     69  C   UNL     1      10.921 -13.340   5.623  1.00  0.00     0.001 A 
ATOM     70  C   UNL     1      10.529 -13.561   6.942  1.00  0.00     0.000 A 
ENDBRANCH  51  65
BRANCH  52  71
ATOM     71  C   UNL     1       1.768 -11.472  -2.190  1.00  0.00    -0.014 A 
ATOM     72  C   UNL     1       0.669 -12.320  -2.388  1.00  0.00     0.009 A 
ATOM     73  C   UNL     1       1.928 -10.362  -3.037  1.00  0.00     0.009 A 
ATOM     74  C   UNL     1      -0.236 -12.074  -3.423  1.00  0.00     0.001 A 
ATOM     75  C   UNL     1       1.004 -10.101  -4.050  1.00  0.00     0.001 A 
ATOM     76  C   UNL     1      -0.072 -10.962  -4.249  1.00  0.00     0.000 A 
ENDBRANCH  52  71
BRANCH  64  77
ATOM     77  C   UNL     1       6.508 -16.479  -1.155  1.00  0.00    -0.014 A 
ATOM     78  C   UNL     1       7.210 -16.354  -2.364  1.00  0.00     0.009 A 
ATOM     79  C   UNL     1       6.214 -17.762  -0.667  1.00  0.00     0.009 A 
ATOM     80  C   UNL     1       7.583 -17.490  -3.083  1.00  0.00     0.001 A 
ATOM     81  C   UNL     1       6.618 -18.896  -1.372  1.00  0.00     0.001 A 
ATOM     82  C   UNL     1       7.294 -18.759  -2.583  1.00  0.00     0.000 A 
ENDBRANCH  64  77
ENDBRANCH  38  39
ENDBRANCH  31  33
ENDBRANCH  30  31
ENDBRANCH  29  30
ENDBRANCH  28  29
ENDBRANCH  27  28
ENDBRANCH  26  27
ENDBRANCH  25  26
ENDBRANCH  24  25
ENDBRANCH  23  24
ENDBRANCH   1  23
TORSDOF 25
