REMARK SMILES Cn1ccc(-c2n[nH]c(=O)n2-c2ccc(C(=O)OCCOCCOCCOCCOC(=O)c3ccc(-c4c5nc(c(-c6ccccc6)c6ccc([nH]6)c(-c6ccccc6)c6nc(c(-c7ccccc7)c7ccc4[nH]7)C=C6)C=C5)cc3)cc2)n1
REMARK SMILES IDX 24 1 23 2 22 3 21 4 20 5 19 6 18 7 16 8 17 9 15 10 12 11
REMARK SMILES IDX 13 12 82 13 14 14 81 15 11 16 6 17 7 18 8 19 9 20 10 22 5 23
REMARK SMILES IDX 1 24 2 25 3 26 83 27 4 28 25 29 26 30 27 31 28 32 29 33
REMARK SMILES IDX 30 34 31 35 32 36 33 37 34 38 80 39 35 40 79 41 36 42 37 43
REMARK SMILES IDX 38 44 73 45 39 46 78 47 72 48 74 49 40 50 77 51 71 52 70 53
REMARK SMILES IDX 41 55 63 56 48 57 62 58 49 59 52 60 61 61 75 62 50 63 51 64
REMARK SMILES IDX 60 66 76 67 53 68 42 69 43 70 47 71 44 72 46 73 45 74 64 75
REMARK SMILES IDX 65 76 69 77 66 78 68 79 67 80 54 81 55 82 59 83 56 84 58 85
REMARK SMILES IDX 57 86
REMARK H PARENT 8 21 74 54 52 65
REMARK Flexibility Score: inf
ROOT
ATOM      1  O   UNL     1       2.093   2.963   7.864  1.00  0.00    -0.377 OA
ENDROOT
BRANCH   1   2
ATOM      2  C   UNL     1       1.796   3.951   6.882  1.00  0.00     0.188 C 
BRANCH   2   3
ATOM      3  C   UNL     1       0.514   4.814   6.952  1.00  0.00     0.188 C 
BRANCH   3   4
ATOM      4  O   UNL     1      -0.323   4.516   8.056  1.00  0.00    -0.376 OA
BRANCH   4   5
ATOM      5  C   UNL     1      -1.608   3.993   7.802  1.00  0.00     0.202 C 
BRANCH   5   6
ATOM      6  C   UNL     1      -1.641   2.576   7.221  1.00  0.00     0.261 C 
BRANCH   6   7
ATOM      7  O   UNL     1      -0.815   2.373   6.066  1.00  0.00    -0.460 OA
BRANCH   7   8
ATOM      8  C   UNL     1      -1.190   3.009   4.932  1.00  0.00     0.338 C 
ATOM      9  O   UNL     1      -2.179   3.699   4.774  1.00  0.00    -0.246 OA
BRANCH   8  10
ATOM     10  C   UNL     1      -0.086   2.881   3.953  1.00  0.00     0.060 A 
ATOM     11  C   UNL     1       1.896   2.652   1.998  1.00  0.00     0.052 A 
ATOM     12  C   UNL     1       1.331   3.901   2.266  1.00  0.00     0.028 A 
ATOM     13  C   UNL     1       1.556   1.552   2.804  1.00  0.00     0.028 A 
ATOM     14  C   UNL     1       0.312   4.007   3.218  1.00  0.00     0.018 A 
ATOM     15  C   UNL     1       0.576   1.665   3.787  1.00  0.00     0.018 A 
BRANCH  11  16
ATOM     16  N   UNL     1       2.710   2.464   0.871  1.00  0.00    -0.242 N 
ATOM     17  C   UNL     1       2.623   1.469  -0.061  1.00  0.00     0.189 A 
ATOM     18  N   UNL     1       3.562   1.478  -0.967  1.00  0.00    -0.150 NA
ATOM     19  N   UNL     1       4.288   2.601  -0.659  1.00  0.00    -0.226 N 
ATOM     20  C   UNL     1       3.753   3.253   0.456  1.00  0.00     0.348 A 
ATOM     21  H   UNL     1       5.080   2.906  -1.157  1.00  0.00     0.195 HD
ATOM     22  O   UNL     1       4.189   4.286   0.940  1.00  0.00    -0.246 OA
BRANCH  17  23
ATOM     23  C   UNL     1       1.508   0.538  -0.111  1.00  0.00     0.130 A 
ATOM     24  C   UNL     1      -1.948  -0.017  -0.017  1.00  0.00     0.173 C 
ATOM     25  N   UNL     1      -0.511  -0.134  -0.069  1.00  0.00    -0.275 N 
ATOM     26  C   UNL     1       0.226  -1.274  -0.188  1.00  0.00     0.109 A 
ATOM     27  N   UNL     1       0.238   0.976  -0.008  1.00  0.00    -0.170 NA
ATOM     28  C   UNL     1       1.540  -0.871  -0.256  1.00  0.00     0.054 A 
ENDBRANCH  17  23
ENDBRANCH  11  16
ENDBRANCH   8  10
ENDBRANCH   7   8
ENDBRANCH   6   7
ENDBRANCH   5   6
ENDBRANCH   4   5
ENDBRANCH   3   4
ENDBRANCH   2   3
ENDBRANCH   1   2
BRANCH   1  29
ATOM     29  C   UNL     1       1.664   3.129   9.210  1.00  0.00     0.188 C 
BRANCH  29  30
ATOM     30  C   UNL     1       1.708   4.518   9.896  1.00  0.00     0.188 C 
BRANCH  30  31
ATOM     31  O   UNL     1       1.983   5.611   9.035  1.00  0.00    -0.376 OA
BRANCH  31  32
ATOM     32  C   UNL     1       3.219   6.295   9.083  1.00  0.00     0.202 C 
BRANCH  32  33
ATOM     33  C   UNL     1       4.474   5.500   8.750  1.00  0.00     0.261 C 
BRANCH  33  34
ATOM     34  O   UNL     1       4.523   4.227   9.363  1.00  0.00    -0.460 OA
BRANCH  34  35
ATOM     35  C   UNL     1       4.646   4.253  10.701  1.00  0.00     0.338 C 
ATOM     36  O   UNL     1       4.531   5.208  11.446  1.00  0.00    -0.246 OA
BRANCH  35  37
ATOM     37  C   UNL     1       5.103   2.933  11.127  1.00  0.00     0.060 A 
ATOM     38  C   UNL     1       5.162   2.724  12.503  1.00  0.00     0.016 A 
ATOM     39  C   UNL     1       5.821   2.159  10.203  1.00  0.00     0.016 A 
ATOM     40  C   UNL     1       6.165   1.915  12.973  1.00  0.00     0.010 A 
ATOM     41  C   UNL     1       6.842   1.381  10.674  1.00  0.00     0.010 A 
ATOM     42  C   UNL     1       7.052   1.351  12.048  1.00  0.00    -0.014 A 
BRANCH  42  43
ATOM     43  C   UNL     1       8.191   0.646  12.572  1.00  0.00     0.031 A 
ATOM     44  C   UNL     1       7.837  -0.682  13.101  1.00  0.00     0.074 A 
ATOM     45  C   UNL     1       9.439   1.137  12.503  1.00  0.00     0.049 A 
ATOM     46  N   UNL     1       7.878  -1.073  14.328  1.00  0.00    -0.248 NA
ATOM     47  C   UNL     1       7.195  -1.627  12.174  1.00  0.00     0.031 C 
ATOM     48  C   UNL     1       9.924   2.294  11.747  1.00  0.00     0.029 A 
ATOM     49  N   UNL     1      10.574   0.605  13.023  1.00  0.00    -0.354 N 
ATOM     50  C   UNL     1       7.441  -2.390  14.305  1.00  0.00     0.074 A 
ATOM     51  C   UNL     1       6.863  -2.612  13.005  1.00  0.00     0.031 C 
ATOM     52  C   UNL     1      11.274   2.231  11.669  1.00  0.00     0.029 A 
ATOM     53  C   UNL     1      11.740   1.109  12.470  1.00  0.00     0.049 A 
ATOM     54  H   UNL     1      10.569  -0.079  13.731  1.00  0.00     0.167 HD
ATOM     55  C   UNL     1       7.841  -3.276  15.254  1.00  0.00     0.031 A 
ATOM     56  C   UNL     1      12.977   0.573  12.606  1.00  0.00     0.031 A 
ATOM     57  C   UNL     1       8.326  -2.608  16.436  1.00  0.00     0.049 A 
ATOM     58  C   UNL     1      12.943  -0.355  13.762  1.00  0.00     0.074 A 
ATOM     59  C   UNL     1       7.778  -1.721  17.342  1.00  0.00     0.029 A 
ATOM     60  N   UNL     1       9.688  -2.522  16.599  1.00  0.00    -0.354 N 
ATOM     61  N   UNL     1      12.844   0.036  14.999  1.00  0.00    -0.248 NA
ATOM     62  C   UNL     1      12.593  -1.747  13.521  1.00  0.00     0.031 C 
ATOM     63  C   UNL     1       8.837  -0.829  17.679  1.00  0.00     0.029 A 
ATOM     64  C   UNL     1       9.985  -1.247  17.003  1.00  0.00     0.049 A 
ATOM     65  H   UNL     1      10.336  -3.249  16.451  1.00  0.00     0.167 HD
ATOM     66  C   UNL     1      12.010  -0.898  15.599  1.00  0.00     0.074 A 
ATOM     67  C   UNL     1      11.986  -2.031  14.678  1.00  0.00     0.031 C 
ATOM     68  C   UNL     1      11.197  -0.546  16.640  1.00  0.00     0.031 A 
BRANCH  55  69
ATOM     69  C   UNL     1       8.208  -4.699  14.911  1.00  0.00    -0.014 A 
ATOM     70  C   UNL     1       8.655  -5.540  15.943  1.00  0.00     0.009 A 
ATOM     71  C   UNL     1       8.404  -5.158  13.593  1.00  0.00     0.009 A 
ATOM     72  C   UNL     1       9.340  -6.728  15.664  1.00  0.00     0.001 A 
ATOM     73  C   UNL     1       9.047  -6.364  13.311  1.00  0.00     0.001 A 
ATOM     74  C   UNL     1       9.544  -7.134  14.349  1.00  0.00     0.000 A 
ENDBRANCH  55  69
BRANCH  56  75
ATOM     75  C   UNL     1      14.112   0.586  11.660  1.00  0.00    -0.014 A 
ATOM     76  C   UNL     1      15.393   0.207  12.092  1.00  0.00     0.009 A 
ATOM     77  C   UNL     1      13.893   0.697  10.276  1.00  0.00     0.009 A 
ATOM     78  C   UNL     1      16.401  -0.103  11.171  1.00  0.00     0.001 A 
ATOM     79  C   UNL     1      14.902   0.396   9.356  1.00  0.00     0.001 A 
ATOM     80  C   UNL     1      16.150  -0.023   9.804  1.00  0.00     0.000 A 
ENDBRANCH  56  75
BRANCH  68  81
ATOM     81  C   UNL     1      11.426   0.799  17.287  1.00  0.00    -0.014 A 
ATOM     82  C   UNL     1      11.364   2.015  16.582  1.00  0.00     0.009 A 
ATOM     83  C   UNL     1      11.592   0.849  18.679  1.00  0.00     0.009 A 
ATOM     84  C   UNL     1      11.510   3.238  17.245  1.00  0.00     0.001 A 
ATOM     85  C   UNL     1      11.712   2.070  19.345  1.00  0.00     0.001 A 
ATOM     86  C   UNL     1      11.682   3.264  18.627  1.00  0.00     0.000 A 
ENDBRANCH  68  81
ENDBRANCH  42  43
ENDBRANCH  35  37
ENDBRANCH  34  35
ENDBRANCH  33  34
ENDBRANCH  32  33
ENDBRANCH  31  32
ENDBRANCH  30  31
ENDBRANCH  29  30
ENDBRANCH   1  29
TORSDOF 22
