REMARK SMILES Cc1ccnc(N[C@@H]2CCCCC[C@H]2C(=O)OCCOCCOCCOCCOC(=O)c2ccc(-c3c4nc(c(-c5ccccc5)c5ccc([nH]5)c(-c5ccccc5)c5nc(c(-c6ccccc6)c6ccc3[nH]6)C=C5)C=C4)cc2)n1
REMARK SMILES IDX 22 1 21 2 20 3 19 4 18 5 17 6 15 7 16 8 14 9 8 10 7 11 6 13
REMARK SMILES IDX 1 14 2 15 3 16 80 17 4 18 5 19 9 20 10 21 11 22 13 24 12 25
REMARK SMILES IDX 23 27 24 28 25 29 26 30 27 31 28 32 29 33 30 34 31 35 32 36
REMARK SMILES IDX 33 37 79 38 34 39 78 40 35 41 36 42 37 43 72 44 38 45 77 46
REMARK SMILES IDX 71 47 73 48 39 49 76 50 70 51 69 52 40 54 62 55 47 56 61 57
REMARK SMILES IDX 48 58 51 59 60 60 74 61 49 62 50 63 59 65 75 66 52 67 41 68
REMARK SMILES IDX 42 69 46 70 43 71 45 72 44 73 63 74 64 75 68 76 65 77 67 78
REMARK SMILES IDX 66 79 53 80 54 81 58 82 55 83 57 84 56 85
REMARK H PARENT 7 12 73 53 51 64
REMARK Flexibility Score: 90.00
ROOT
ATOM      1  C   UNL     1       1.870   5.619  -1.802  1.00  0.00     0.188 C 
ENDROOT
BRANCH   1   2
ATOM      2  C   UNL     1       2.028   5.782  -3.310  1.00  0.00     0.188 C 
BRANCH   2   3
ATOM      3  O   UNL     1       1.331   6.815  -3.985  1.00  0.00    -0.376 OA
BRANCH   3   4
ATOM      4  C   UNL     1      -0.022   7.160  -3.745  1.00  0.00     0.202 C 
BRANCH   4   5
ATOM      5  C   UNL     1      -1.149   6.149  -3.484  1.00  0.00     0.261 C 
BRANCH   5   6
ATOM      6  O   UNL     1      -0.992   5.257  -2.366  1.00  0.00    -0.463 OA
BRANCH   6   7
ATOM      7  C   UNL     1      -0.713   3.959  -2.664  1.00  0.00     0.311 C 
ATOM      8  O   UNL     1      -0.467   3.569  -3.800  1.00  0.00    -0.252 OA
BRANCH   7   9
ATOM      9  C   UNL     1      -0.845   3.002  -1.479  1.00  0.00     0.121 C 
BRANCH   9  10
ATOM     10  C   UNL     1      -0.025   3.299  -0.191  1.00  0.00     0.096 C 
BRANCH  10  11
ATOM     11  N   UNL     1       0.928   2.232   0.139  1.00  0.00    -0.351 N 
ATOM     12  H   UNL     1       1.871   2.475   0.279  1.00  0.00     0.164 HD
BRANCH  11  13
ATOM     13  C   UNL     1       0.572   0.917   0.261  1.00  0.00     0.223 A 
ATOM     14  C   UNL     1      -2.572  -0.905   0.217  1.00  0.00     0.067 C 
ATOM     15  C   UNL     1      -1.096  -0.672   0.256  1.00  0.00     0.043 A 
ATOM     16  C   UNL     1      -0.180  -1.678   0.076  1.00  0.00     0.044 A 
ATOM     17  N   UNL     1      -0.722   0.612   0.367  1.00  0.00    -0.218 NA
ATOM     18  C   UNL     1       1.137  -1.281   0.046  1.00  0.00     0.117 A 
ATOM     19  N   UNL     1       1.537   0.004   0.135  1.00  0.00    -0.222 NA
ENDBRANCH  11  13
ENDBRANCH  10  11
BRANCH  10  20
ATOM     20  C   UNL     1      -0.797   3.719   1.065  1.00  0.00     0.026 C 
BRANCH  20  21
ATOM     21  C   UNL     1      -1.703   4.924   0.832  1.00  0.00     0.002 C 
BRANCH  21  22
ATOM     22  C   UNL     1      -3.107   4.547   0.373  1.00  0.00     0.000 CG0
ATOM     23  G   UNL     1      -3.258   3.869  -0.985  1.00  0.00     0.000 G0
ENDBRANCH  21  22
ENDBRANCH  20  21
ENDBRANCH  10  20
ENDBRANCH   9  10
BRANCH   9  24
ATOM     24  C   UNL     1      -2.333   2.691  -1.270  1.00  0.00     0.017 C 
BRANCH  24  25
ATOM     25  C   UNL     1      -3.258   3.869  -0.985  1.00  0.00     0.001 CG0
ATOM     26  G   UNL     1      -3.107   4.547   0.373  1.00  0.00     0.000 G0
ENDBRANCH  24  25
ENDBRANCH   9  24
ENDBRANCH   7   9
ENDBRANCH   6   7
ENDBRANCH   5   6
ENDBRANCH   4   5
ENDBRANCH   3   4
ENDBRANCH   2   3
ENDBRANCH   1   2
BRANCH   1  27
ATOM     27  O   UNL     1       2.451   6.523  -0.896  1.00  0.00    -0.377 OA
BRANCH  27  28
ATOM     28  C   UNL     1       2.028   7.859  -1.039  1.00  0.00     0.188 C 
BRANCH  28  29
ATOM     29  C   UNL     1       2.998   8.667  -1.897  1.00  0.00     0.188 C 
BRANCH  29  30
ATOM     30  O   UNL     1       4.371   8.306  -2.011  1.00  0.00    -0.376 OA
BRANCH  30  31
ATOM     31  C   UNL     1       4.952   7.274  -1.231  1.00  0.00     0.202 C 
BRANCH  31  32
ATOM     32  C   UNL     1       5.000   7.395   0.308  1.00  0.00     0.261 C 
BRANCH  32  33
ATOM     33  O   UNL     1       4.028   8.235   0.943  1.00  0.00    -0.460 OA
BRANCH  33  34
ATOM     34  C   UNL     1       4.294   9.558   0.947  1.00  0.00     0.338 C 
ATOM     35  O   UNL     1       5.282  10.119   0.501  1.00  0.00    -0.246 OA
BRANCH  34  36
ATOM     36  C   UNL     1       3.108  10.271   1.469  1.00  0.00     0.060 A 
ATOM     37  C   UNL     1       2.497  11.231   0.654  1.00  0.00     0.016 A 
ATOM     38  C   UNL     1       2.608  10.013   2.749  1.00  0.00     0.016 A 
ATOM     39  C   UNL     1       1.400  11.950   1.119  1.00  0.00     0.010 A 
ATOM     40  C   UNL     1       1.529  10.763   3.232  1.00  0.00     0.010 A 
ATOM     41  C   UNL     1       0.943  11.757   2.428  1.00  0.00    -0.014 A 
BRANCH  41  42
ATOM     42  C   UNL     1      -0.008  12.742   2.992  1.00  0.00     0.031 A 
ATOM     43  C   UNL     1       0.542  13.895   3.786  1.00  0.00     0.074 A 
ATOM     44  C   UNL     1      -1.325  12.666   2.733  1.00  0.00     0.049 A 
ATOM     45  N   UNL     1      -0.086  14.914   4.314  1.00  0.00    -0.248 NA
ATOM     46  C   UNL     1       1.997  13.901   4.009  1.00  0.00     0.031 C 
ATOM     47  C   UNL     1      -1.972  11.626   1.935  1.00  0.00     0.029 A 
ATOM     48  N   UNL     1      -2.352  13.494   3.109  1.00  0.00    -0.354 N 
ATOM     49  C   UNL     1       0.895  15.680   4.932  1.00  0.00     0.074 A 
ATOM     50  C   UNL     1       2.153  14.993   4.742  1.00  0.00     0.031 C 
ATOM     51  C   UNL     1      -3.292  11.880   1.881  1.00  0.00     0.029 A 
ATOM     52  C   UNL     1      -3.582  13.082   2.660  1.00  0.00     0.049 A 
ATOM     53  H   UNL     1      -2.220  14.306   3.650  1.00  0.00     0.167 HD
ATOM     54  C   UNL     1       0.763  16.854   5.593  1.00  0.00     0.031 A 
ATOM     55  C   UNL     1      -4.805  13.609   2.867  1.00  0.00     0.031 A 
ATOM     56  C   UNL     1      -0.492  17.527   5.801  1.00  0.00     0.049 A 
ATOM     57  C   UNL     1      -4.936  14.873   3.675  1.00  0.00     0.074 A 
ATOM     58  C   UNL     1      -0.729  18.729   6.443  1.00  0.00     0.029 A 
ATOM     59  N   UNL     1      -1.723  17.045   5.384  1.00  0.00    -0.354 N 
ATOM     60  N   UNL     1      -3.997  15.610   4.220  1.00  0.00    -0.248 NA
ATOM     61  C   UNL     1      -6.298  15.385   3.884  1.00  0.00     0.031 C 
ATOM     62  C   UNL     1      -2.112  18.940   6.476  1.00  0.00     0.029 A 
ATOM     63  C   UNL     1      -2.729  17.906   5.790  1.00  0.00     0.049 A 
ATOM     64  H   UNL     1      -1.862  16.214   4.875  1.00  0.00     0.167 HD
ATOM     65  C   UNL     1      -4.652  16.681   4.816  1.00  0.00     0.074 A 
ATOM     66  C   UNL     1      -6.064  16.511   4.543  1.00  0.00     0.031 C 
ATOM     67  C   UNL     1      -4.133  17.714   5.526  1.00  0.00     0.031 A 
BRANCH  54  68
ATOM     68  C   UNL     1       2.008  17.458   6.182  1.00  0.00    -0.014 A 
ATOM     69  C   UNL     1       3.017  18.003   5.371  1.00  0.00     0.009 A 
ATOM     70  C   UNL     1       2.163  17.499   7.577  1.00  0.00     0.009 A 
ATOM     71  C   UNL     1       4.171  18.542   5.945  1.00  0.00     0.001 A 
ATOM     72  C   UNL     1       3.303  18.067   8.148  1.00  0.00     0.001 A 
ATOM     73  C   UNL     1       4.310  18.578   7.332  1.00  0.00     0.000 A 
ENDBRANCH  54  68
BRANCH  55  74
ATOM     74  C   UNL     1      -6.009  12.931   2.319  1.00  0.00    -0.014 A 
ATOM     75  C   UNL     1      -6.771  13.522   1.300  1.00  0.00     0.009 A 
ATOM     76  C   UNL     1      -6.415  11.688   2.833  1.00  0.00     0.009 A 
ATOM     77  C   UNL     1      -7.925  12.894   0.824  1.00  0.00     0.001 A 
ATOM     78  C   UNL     1      -7.551  11.048   2.333  1.00  0.00     0.001 A 
ATOM     79  C   UNL     1      -8.311  11.656   1.337  1.00  0.00     0.000 A 
ENDBRANCH  55  74
BRANCH  67  80
ATOM     80  C   UNL     1      -5.097  18.750   6.037  1.00  0.00    -0.014 A 
ATOM     81  C   UNL     1      -6.009  18.459   7.064  1.00  0.00     0.009 A 
ATOM     82  C   UNL     1      -5.076  20.047   5.498  1.00  0.00     0.009 A 
ATOM     83  C   UNL     1      -6.909  19.430   7.509  1.00  0.00     0.001 A 
ATOM     84  C   UNL     1      -5.953  21.026   5.969  1.00  0.00     0.001 A 
ATOM     85  C   UNL     1      -6.877  20.713   6.964  1.00  0.00     0.000 A 
ENDBRANCH  67  80
ENDBRANCH  41  42
ENDBRANCH  34  36
ENDBRANCH  33  34
ENDBRANCH  32  33
ENDBRANCH  31  32
ENDBRANCH  30  31
ENDBRANCH  29  30
ENDBRANCH  28  29
ENDBRANCH  27  28
ENDBRANCH   1  27
TORSDOF 22
