REMARK SMILES Nc1nccc(N2CCC[C@@](Cc3ccc(F)cc3F)(C(=O)OCCOCCOCCOCCOC(=O)c3ccc(-c4c5nc(c(-c6ccccc6)c6ccc([nH]6)c(-c6ccccc6)c6nc(c(-c7ccccc7)c7ccc4[nH]7)C=C6)C=C5)cc3)C2)n1
REMARK SMILES IDX 29 1 28 2 27 3 26 4 25 5 24 6 23 7 21 8 22 9 11 10 7 11 8 12
REMARK SMILES IDX 86 13 9 14 10 15 6 16 2 17 3 18 87 19 4 20 5 21 1 22 12 25
REMARK SMILES IDX 13 26 14 27 19 28 15 29 18 30 20 31 16 32 17 33 30 34 31 35
REMARK SMILES IDX 32 36 33 37 34 38 35 39 36 40 37 41 38 42 39 43 85 44 40 45
REMARK SMILES IDX 84 46 41 47 42 48 43 49 78 50 44 51 83 52 77 53 79 54 45 55
REMARK SMILES IDX 82 56 76 57 75 58 46 60 68 61 53 62 67 63 54 64 57 65 66 66
REMARK SMILES IDX 80 67 55 68 56 69 65 71 81 72 58 73 47 74 48 75 52 76 49 77
REMARK SMILES IDX 51 78 50 79 69 80 70 81 74 82 71 83 73 84 72 85 59 86 60 87
REMARK SMILES IDX 64 88 61 89 63 90 62 91
REMARK H PARENT 1 23 1 24 79 59 57 70
REMARK Flexibility Score: inf
ROOT
ATOM      1  O   UNL     1       2.853  -7.146  -2.077  1.00  0.00    -0.377 OA
ENDROOT
BRANCH   1   2
ATOM      2  C   UNL     1       1.562  -6.707  -1.702  1.00  0.00     0.188 C 
BRANCH   2   3
ATOM      3  C   UNL     1       0.579  -6.363  -2.826  1.00  0.00     0.188 C 
BRANCH   3   4
ATOM      4  O   UNL     1       0.705  -7.031  -4.059  1.00  0.00    -0.376 OA
BRANCH   4   5
ATOM      5  C   UNL     1       1.743  -6.747  -4.979  1.00  0.00     0.202 C 
BRANCH   5   6
ATOM      6  C   UNL     1       2.771  -5.606  -4.889  1.00  0.00     0.261 C 
BRANCH   6   7
ATOM      7  O   UNL     1       3.144  -5.108  -3.599  1.00  0.00    -0.463 OA
BRANCH   7   8
ATOM      8  C   UNL     1       2.619  -3.901  -3.295  1.00  0.00     0.314 C 
ATOM      9  O   UNL     1       1.819  -3.324  -4.030  1.00  0.00    -0.252 OA
BRANCH   8  10
ATOM     10  C   UNL     1       3.146  -3.252  -2.015  1.00  0.00     0.090 C 
ATOM     11  N   UNL     1       2.124  -2.076  -0.126  1.00  0.00    -0.355 N 
ATOM     12  C   UNL     1       2.695  -2.877   0.937  1.00  0.00     0.118 C 
ATOM     13  C   UNL     1       1.830  -2.751  -1.373  1.00  0.00     0.137 C 
ATOM     14  C   UNL     1       4.032  -3.421   0.423  1.00  0.00     0.023 C 
ATOM     15  C   UNL     1       3.904  -4.112  -0.955  1.00  0.00     0.023 C 
BRANCH  11  16
ATOM     16  C   UNL     1       1.301  -1.001   0.159  1.00  0.00     0.134 A 
ATOM     17  C   UNL     1      -0.766  -0.019   0.132  1.00  0.00     0.221 A 
ATOM     18  N   UNL     1      -0.269   1.216   0.241  1.00  0.00    -0.222 NA
ATOM     19  N   UNL     1      -0.034  -1.137   0.073  1.00  0.00    -0.196 NA
ATOM     20  C   UNL     1       1.067   1.313   0.324  1.00  0.00     0.119 A 
ATOM     21  C   UNL     1       1.902   0.229   0.311  1.00  0.00     0.067 A 
BRANCH  17  22
ATOM     22  N   UNL     1      -2.123  -0.134   0.048  1.00  0.00    -0.368 N 
ATOM     23  H   UNL     1      -2.688   0.671   0.089  1.00  0.00     0.159 HD
ATOM     24  H   UNL     1      -2.536  -1.022  -0.053  1.00  0.00     0.159 HD
ENDBRANCH  17  22
ENDBRANCH  11  16
BRANCH  10  25
ATOM     25  C   UNL     1       4.043  -2.066  -2.501  1.00  0.00     0.059 C 
BRANCH  25  26
ATOM     26  C   UNL     1       5.361  -2.531  -3.102  1.00  0.00    -0.011 A 
ATOM     27  C   UNL     1       5.406  -3.128  -4.372  1.00  0.00     0.010 A 
ATOM     28  C   UNL     1       6.539  -2.503  -2.342  1.00  0.00     0.129 A 
ATOM     29  C   UNL     1       6.560  -3.781  -4.807  1.00  0.00     0.040 A 
ATOM     30  C   UNL     1       7.701  -3.126  -2.780  1.00  0.00     0.078 A 
ATOM     31  F   UNL     1       6.542  -1.917  -1.137  1.00  0.00    -0.207 F 
ATOM     32  C   UNL     1       7.691  -3.785  -4.000  1.00  0.00     0.126 A 
ATOM     33  F   UNL     1       8.785  -4.443  -4.405  1.00  0.00    -0.207 F 
ENDBRANCH  25  26
ENDBRANCH  10  25
ENDBRANCH   8  10
ENDBRANCH   7   8
ENDBRANCH   6   7
ENDBRANCH   5   6
ENDBRANCH   4   5
ENDBRANCH   3   4
ENDBRANCH   2   3
ENDBRANCH   1   2
BRANCH   1  34
ATOM     34  C   UNL     1       3.042  -8.477  -2.540  1.00  0.00     0.188 C 
BRANCH  34  35
ATOM     35  C   UNL     1       1.849  -9.444  -2.672  1.00  0.00     0.188 C 
BRANCH  35  36
ATOM     36  O   UNL     1       0.829  -9.269  -1.708  1.00  0.00    -0.376 OA
BRANCH  36  37
ATOM     37  C   UNL     1       0.878 -10.025  -0.508  1.00  0.00     0.202 C 
BRANCH  37  38
ATOM     38  C   UNL     1       2.131  -9.918   0.376  1.00  0.00     0.261 C 
BRANCH  38  39
ATOM     39  O   UNL     1       3.376 -10.331  -0.212  1.00  0.00    -0.460 OA
BRANCH  39  40
ATOM     40  C   UNL     1       3.456 -11.561  -0.756  1.00  0.00     0.338 C 
ATOM     41  O   UNL     1       2.603 -12.433  -0.751  1.00  0.00    -0.246 OA
BRANCH  40  42
ATOM     42  C   UNL     1       4.702 -11.620  -1.546  1.00  0.00     0.060 A 
ATOM     43  C   UNL     1       4.624 -11.841  -2.928  1.00  0.00     0.016 A 
ATOM     44  C   UNL     1       5.941 -11.464  -0.922  1.00  0.00     0.016 A 
ATOM     45  C   UNL     1       5.790 -11.946  -3.685  1.00  0.00     0.010 A 
ATOM     46  C   UNL     1       7.109 -11.594  -1.677  1.00  0.00     0.010 A 
ATOM     47  C   UNL     1       7.038 -11.872  -3.054  1.00  0.00    -0.014 A 
BRANCH  47  48
ATOM     48  C   UNL     1       8.257 -12.287  -3.787  1.00  0.00     0.031 A 
ATOM     49  C   UNL     1       8.777 -13.681  -3.572  1.00  0.00     0.074 A 
ATOM     50  C   UNL     1       8.882 -11.456  -4.637  1.00  0.00     0.049 A 
ATOM     51  N   UNL     1       9.855 -14.250  -4.048  1.00  0.00    -0.248 NA
ATOM     52  C   UNL     1       7.973 -14.549  -2.695  1.00  0.00     0.031 C 
ATOM     53  C   UNL     1       8.451 -10.100  -4.968  1.00  0.00     0.029 A 
ATOM     54  N   UNL     1      10.030 -11.637  -5.368  1.00  0.00    -0.354 N 
ATOM     55  C   UNL     1       9.862 -15.537  -3.523  1.00  0.00     0.074 A 
ATOM     56  C   UNL     1       8.704 -15.651  -2.664  1.00  0.00     0.031 C 
ATOM     57  C   UNL     1       9.337  -9.562  -5.824  1.00  0.00     0.029 A 
ATOM     58  C   UNL     1      10.413 -10.521  -6.069  1.00  0.00     0.049 A 
ATOM     59  H   UNL     1      10.530 -12.485  -5.387  1.00  0.00     0.167 HD
ATOM     60  C   UNL     1      10.749 -16.536  -3.739  1.00  0.00     0.031 A 
ATOM     61  C   UNL     1      11.523 -10.289  -6.797  1.00  0.00     0.031 A 
ATOM     62  C   UNL     1      11.918 -16.410  -4.569  1.00  0.00     0.049 A 
ATOM     63  C   UNL     1      12.549 -11.382  -6.949  1.00  0.00     0.074 A 
ATOM     64  C   UNL     1      12.880 -17.362  -4.855  1.00  0.00     0.029 A 
ATOM     65  N   UNL     1      12.290 -15.251  -5.234  1.00  0.00    -0.354 N 
ATOM     66  N   UNL     1      12.537 -12.603  -6.468  1.00  0.00    -0.248 NA
ATOM     67  C   UNL     1      13.739 -11.066  -7.753  1.00  0.00     0.031 C 
ATOM     68  C   UNL     1      13.869 -16.759  -5.639  1.00  0.00     0.029 A 
ATOM     69  C   UNL     1      13.485 -15.454  -5.904  1.00  0.00     0.049 A 
ATOM     70  H   UNL     1      11.780 -14.409  -5.231  1.00  0.00     0.167 HD
ATOM     71  C   UNL     1      13.701 -13.207  -6.931  1.00  0.00     0.074 A 
ATOM     72  C   UNL     1      14.385 -12.224  -7.745  1.00  0.00     0.031 C 
ATOM     73  C   UNL     1      14.160 -14.463  -6.704  1.00  0.00     0.031 A 
BRANCH  60  74
ATOM     74  C   UNL     1      10.506 -17.836  -3.021  1.00  0.00    -0.014 A 
ATOM     75  C   UNL     1       9.413 -18.658  -3.341  1.00  0.00     0.009 A 
ATOM     76  C   UNL     1      11.384 -18.244  -2.006  1.00  0.00     0.009 A 
ATOM     77  C   UNL     1       9.178 -19.835  -2.627  1.00  0.00     0.001 A 
ATOM     78  C   UNL     1      11.168 -19.439  -1.317  1.00  0.00     0.001 A 
ATOM     79  C   UNL     1      10.057 -20.226  -1.618  1.00  0.00     0.000 A 
ENDBRANCH  60  74
BRANCH  61  80
ATOM     80  C   UNL     1      11.739  -8.950  -7.408  1.00  0.00    -0.014 A 
ATOM     81  C   UNL     1      11.709  -8.778  -8.799  1.00  0.00     0.009 A 
ATOM     82  C   UNL     1      11.979  -7.832  -6.592  1.00  0.00     0.009 A 
ATOM     83  C   UNL     1      11.935  -7.518  -9.361  1.00  0.00     0.001 A 
ATOM     84  C   UNL     1      12.171  -6.569  -7.155  1.00  0.00     0.001 A 
ATOM     85  C   UNL     1      12.158  -6.414  -8.539  1.00  0.00     0.000 A 
ENDBRANCH  61  80
BRANCH  73  86
ATOM     86  C   UNL     1      15.449 -14.861  -7.372  1.00  0.00    -0.014 A 
ATOM     87  C   UNL     1      16.682 -14.328  -6.967  1.00  0.00     0.009 A 
ATOM     88  C   UNL     1      15.431 -15.826  -8.393  1.00  0.00     0.009 A 
ATOM     89  C   UNL     1      17.865 -14.726  -7.594  1.00  0.00     0.001 A 
ATOM     90  C   UNL     1      16.618 -16.247  -8.995  1.00  0.00     0.001 A 
ATOM     91  C   UNL     1      17.833 -15.688  -8.603  1.00  0.00     0.000 A 
ENDBRANCH  73  86
ENDBRANCH  47  48
ENDBRANCH  40  42
ENDBRANCH  39  40
ENDBRANCH  38  39
ENDBRANCH  37  38
ENDBRANCH  36  37
ENDBRANCH  35  36
ENDBRANCH  34  35
ENDBRANCH   1  34
TORSDOF 24
