REMARK SMILES O=C(OCCOCCOCCOCCOC(=O)c1cc(Cl)cc(Cl)c1O)c1ccc(-c2c3nc(c(-c4ccccc4)c4ccc([nH]4)c(-c4ccccc4)c4nc(c(-c5ccccc5)c5ccc2[nH]5)C=C4)C=C3)cc1
REMARK SMILES IDX 8 1 7 2 6 3 5 4 4 5 3 6 2 7 1 8 27 9 28 10 74 11 29 12 73 13
REMARK SMILES IDX 30 14 31 15 32 16 67 17 33 18 72 19 66 20 68 21 34 22 71 23
REMARK SMILES IDX 65 24 64 25 35 27 57 28 42 29 56 30 43 31 46 32 55 33 69 34
REMARK SMILES IDX 44 35 45 36 54 38 70 39 47 40 36 41 37 42 41 43 38 44 40 45
REMARK SMILES IDX 39 46 58 47 59 48 63 49 60 50 62 51 61 52 48 53 49 54 53 55
REMARK SMILES IDX 50 56 52 57 51 58 9 59 10 60 11 61 12 62 13 63 14 64 15 65
REMARK SMILES IDX 16 66 17 67 18 68 19 69 25 70 20 71 23 72 21 73 22 74 24 75
REMARK SMILES IDX 26 76
REMARK H PARENT 68 26 46 37 26 77
REMARK Flexibility Score: inf
ROOT
ATOM      1  C   UNL     1       1.833   2.124   1.706  1.00  0.00     0.188 C 
ENDROOT
BRANCH   1   2
ATOM      2  C   UNL     1       2.283   1.500   0.386  1.00  0.00     0.188 C 
BRANCH   2   3
ATOM      3  O   UNL     1       3.624   1.010   0.482  1.00  0.00    -0.376 OA
BRANCH   3   4
ATOM      4  C   UNL     1       4.428   1.223  -0.681  1.00  0.00     0.202 C 
BRANCH   4   5
ATOM      5  C   UNL     1       4.229   0.175  -1.780  1.00  0.00     0.261 C 
BRANCH   5   6
ATOM      6  O   UNL     1       2.885  -0.328  -1.828  1.00  0.00    -0.460 OA
BRANCH   6   7
ATOM      7  C   UNL     1       2.369  -1.400  -1.174  1.00  0.00     0.338 C 
ATOM      8  O   UNL     1       1.193  -1.698  -1.380  1.00  0.00    -0.246 OA
BRANCH   7   9
ATOM      9  C   UNL     1       3.145  -2.262  -0.226  1.00  0.00     0.060 A 
ATOM     10  C   UNL     1       4.296  -1.874   0.459  1.00  0.00     0.016 A 
ATOM     11  C   UNL     1       2.640  -3.550   0.033  1.00  0.00     0.016 A 
ATOM     12  C   UNL     1       4.976  -2.740   1.297  1.00  0.00     0.010 A 
ATOM     13  C   UNL     1       3.299  -4.425   0.904  1.00  0.00     0.010 A 
ATOM     14  C   UNL     1       4.492  -4.024   1.511  1.00  0.00    -0.014 A 
BRANCH  14  15
ATOM     15  C   UNL     1       5.383  -4.948   2.230  1.00  0.00     0.031 A 
ATOM     16  C   UNL     1       6.178  -5.923   1.414  1.00  0.00     0.074 A 
ATOM     17  C   UNL     1       5.632  -4.748   3.537  1.00  0.00     0.049 A 
ATOM     18  N   UNL     1       7.053  -6.809   1.805  1.00  0.00    -0.248 NA
ATOM     19  C   UNL     1       5.982  -5.872  -0.047  1.00  0.00     0.031 C 
ATOM     20  C   UNL     1       5.024  -3.698   4.362  1.00  0.00     0.029 A 
ATOM     21  N   UNL     1       6.500  -5.376   4.386  1.00  0.00    -0.354 N 
ATOM     22  C   UNL     1       7.494  -7.431   0.644  1.00  0.00     0.074 A 
ATOM     23  C   UNL     1       6.790  -6.832  -0.465  1.00  0.00     0.031 C 
ATOM     24  C   UNL     1       5.563  -3.739   5.591  1.00  0.00     0.029 A 
ATOM     25  C   UNL     1       6.494  -4.859   5.659  1.00  0.00     0.049 A 
ATOM     26  H   UNL     1       7.075  -6.127   4.112  1.00  0.00     0.167 HD
ATOM     27  C   UNL     1       8.406  -8.421   0.523  1.00  0.00     0.031 A 
ATOM     28  C   UNL     1       7.145  -5.279   6.759  1.00  0.00     0.031 A 
ATOM     29  C   UNL     1       9.075  -9.008   1.649  1.00  0.00     0.049 A 
ATOM     30  C   UNL     1       8.045  -6.477   6.618  1.00  0.00     0.074 A 
ATOM     31  C   UNL     1       9.934 -10.088   1.683  1.00  0.00     0.029 A 
ATOM     32  N   UNL     1       8.953  -8.543   2.952  1.00  0.00    -0.354 N 
ATOM     33  N   UNL     1       8.381  -7.134   5.533  1.00  0.00    -0.248 NA
ATOM     34  C   UNL     1       8.642  -7.001   7.852  1.00  0.00     0.031 C 
ATOM     35  C   UNL     1      10.296 -10.306   3.018  1.00  0.00     0.029 A 
ATOM     36  C   UNL     1       9.708  -9.325   3.804  1.00  0.00     0.049 A 
ATOM     37  H   UNL     1       8.409  -7.770   3.228  1.00  0.00     0.167 HD
ATOM     38  C   UNL     1       9.236  -8.144   5.949  1.00  0.00     0.074 A 
ATOM     39  C   UNL     1       9.394  -7.986   7.383  1.00  0.00     0.031 C 
ATOM     40  C   UNL     1       9.831  -9.124   5.225  1.00  0.00     0.031 A 
BRANCH  27  41
ATOM     41  C   UNL     1       8.643  -8.965  -0.855  1.00  0.00    -0.014 A 
ATOM     42  C   UNL     1       9.364  -8.242  -1.819  1.00  0.00     0.009 A 
ATOM     43  C   UNL     1       8.100 -10.210  -1.207  1.00  0.00     0.009 A 
ATOM     44  C   UNL     1       9.506  -8.741  -3.116  1.00  0.00     0.001 A 
ATOM     45  C   UNL     1       8.264 -10.717  -2.497  1.00  0.00     0.001 A 
ATOM     46  C   UNL     1       8.958  -9.979  -3.453  1.00  0.00     0.000 A 
ENDBRANCH  27  41
BRANCH  28  47
ATOM     47  C   UNL     1       6.901  -4.643   8.083  1.00  0.00    -0.014 A 
ATOM     48  C   UNL     1       7.936  -4.025   8.801  1.00  0.00     0.009 A 
ATOM     49  C   UNL     1       5.623  -4.700   8.666  1.00  0.00     0.009 A 
ATOM     50  C   UNL     1       7.705  -3.516  10.084  1.00  0.00     0.001 A 
ATOM     51  C   UNL     1       5.386  -4.159   9.931  1.00  0.00     0.001 A 
ATOM     52  C   UNL     1       6.431  -3.581  10.646  1.00  0.00     0.000 A 
ENDBRANCH  28  47
BRANCH  40  53
ATOM     53  C   UNL     1      10.720 -10.068   5.980  1.00  0.00    -0.014 A 
ATOM     54  C   UNL     1      10.184 -11.034   6.845  1.00  0.00     0.009 A 
ATOM     55  C   UNL     1      12.109 -10.005   5.795  1.00  0.00     0.009 A 
ATOM     56  C   UNL     1      11.030 -11.895   7.543  1.00  0.00     0.001 A 
ATOM     57  C   UNL     1      12.949 -10.889   6.469  1.00  0.00     0.001 A 
ATOM     58  C   UNL     1      12.409 -11.825   7.351  1.00  0.00     0.000 A 
ENDBRANCH  40  53
ENDBRANCH  14  15
ENDBRANCH   7   9
ENDBRANCH   6   7
ENDBRANCH   5   6
ENDBRANCH   4   5
ENDBRANCH   3   4
ENDBRANCH   2   3
ENDBRANCH   1   2
BRANCH   1  59
ATOM     59  O   UNL     1       2.501   3.337   2.056  1.00  0.00    -0.377 OA
BRANCH  59  60
ATOM     60  C   UNL     1       3.925   3.318   2.008  1.00  0.00     0.188 C 
BRANCH  60  61
ATOM     61  C   UNL     1       4.667   2.301   2.898  1.00  0.00     0.188 C 
BRANCH  61  62
ATOM     62  O   UNL     1       3.793   1.512   3.686  1.00  0.00    -0.376 OA
BRANCH  62  63
ATOM     63  C   UNL     1       3.731   1.811   5.069  1.00  0.00     0.202 C 
BRANCH  63  64
ATOM     64  C   UNL     1       3.240   3.199   5.518  1.00  0.00     0.261 C 
BRANCH  64  65
ATOM     65  O   UNL     1       3.723   4.358   4.816  1.00  0.00    -0.460 OA
BRANCH  65  66
ATOM     66  C   UNL     1       4.992   4.777   4.995  1.00  0.00     0.342 C 
ATOM     67  O   UNL     1       5.871   4.237   5.648  1.00  0.00    -0.246 OA
BRANCH  66  68
ATOM     68  C   UNL     1       5.240   5.876   4.032  1.00  0.00     0.104 A 
ATOM     69  C   UNL     1       4.320   6.926   3.924  1.00  0.00     0.040 A 
ATOM     70  C   UNL     1       6.294   5.762   3.110  1.00  0.00     0.148 A 
ATOM     71  C   UNL     1       4.444   7.845   2.882  1.00  0.00     0.043 A 
ATOM     72  C   UNL     1       6.374   6.668   2.043  1.00  0.00     0.085 A 
ATOM     73  Cl  UNL     1       3.313   9.134   2.746  1.00  0.00    -0.084 Cl
ATOM     74  C   UNL     1       5.454   7.713   1.932  1.00  0.00     0.045 A 
ATOM     75  Cl  UNL     1       7.563   6.494   0.802  1.00  0.00    -0.080 Cl
BRANCH  70  76
ATOM     76  O   UNL     1       7.197   4.731   3.172  1.00  0.00    -0.505 OA
ATOM     77  H   UNL     1       7.159   4.117   3.877  1.00  0.00     0.293 HD
ENDBRANCH  70  76
ENDBRANCH  66  68
ENDBRANCH  65  66
ENDBRANCH  64  65
ENDBRANCH  63  64
ENDBRANCH  62  63
ENDBRANCH  61  62
ENDBRANCH  60  61
ENDBRANCH  59  60
ENDBRANCH   1  59
TORSDOF 21
