REMARK SMILES O=C(CC[C@H]1CCC[N@H+](Cc2cccc(C3CC3)c2)C1)OCCOCCOCCOCCOC(=O)c1ccc(-c2c3nc(c(-c4ccccc4)c4ccc([nH]4)c(-c4ccccc4)c4nc(c(-c5ccccc5)c5ccc2[nH]5)C=C4)C=C3)cc1
REMARK SMILES IDX 25 1 24 2 23 3 22 4 21 5 2 6 1 7 3 8 4 9 5 10 6 11 20 12
REMARK SMILES IDX 7 13 9 14 8 15 10 17 11 18 12 19 19 20 13 21 15 22 14 23
REMARK SMILES IDX 16 24 17 25 18 26 26 27 27 28 28 29 29 30 30 31 31 32 32 33
REMARK SMILES IDX 33 34 34 35 35 36 36 37 37 38 83 39 38 40 82 41 39 42 40 43
REMARK SMILES IDX 41 44 76 45 42 46 81 47 75 48 77 49 43 50 80 51 74 52 73 53
REMARK SMILES IDX 44 55 66 56 51 57 65 58 52 59 55 60 64 61 78 62 53 63 54 64
REMARK SMILES IDX 63 66 79 67 56 68 45 69 46 70 50 71 47 72 49 73 48 74 67 75
REMARK SMILES IDX 68 76 72 77 69 78 71 79 70 80 57 81 58 82 62 83 59 84 61 85
REMARK SMILES IDX 60 86
REMARK H PARENT 9 16 77 54 55 65
REMARK Flexibility Score: inf
ROOT
ATOM      1  C   UNL     1       8.447   4.133  -0.881  1.00  0.00     0.188 C 
ENDROOT
BRANCH   1   2
ATOM      2  O   UNL     1       7.248   3.481  -1.269  1.00  0.00    -0.376 OA
BRANCH   2   3
ATOM      3  C   UNL     1       6.345   3.104  -0.265  1.00  0.00     0.202 C 
BRANCH   3   4
ATOM      4  C   UNL     1       6.632   1.899   0.618  1.00  0.00     0.261 C 
BRANCH   4   5
ATOM      5  O   UNL     1       7.784   1.143   0.354  1.00  0.00    -0.463 OA
BRANCH   5   6
ATOM      6  C   UNL     1       7.402  -0.142   0.116  1.00  0.00     0.305 C 
ATOM      7  O   UNL     1       7.890  -1.096   0.704  1.00  0.00    -0.252 OA
BRANCH   6   8
ATOM      8  C   UNL     1       6.411  -0.225  -1.033  1.00  0.00     0.123 C 
BRANCH   8   9
ATOM      9  C   UNL     1       4.946  -0.647  -0.808  1.00  0.00     0.021 C 
BRANCH   9  10
ATOM     10  C   UNL     1       3.797  -0.083   0.138  1.00  0.00     0.045 C 
ATOM     11  C   UNL     1       3.739  -0.894   1.448  1.00  0.00     0.015 C 
ATOM     12  C   UNL     1       3.433   1.438   0.448  1.00  0.00     0.265 C 
ATOM     13  C   UNL     1       2.623  -0.339   2.326  1.00  0.00     0.062 C 
ATOM     14  N   UNL     1       3.799   1.840   1.842  1.00  0.00    -0.331 N 
ATOM     15  C   UNL     1       2.936   1.095   2.787  1.00  0.00     0.262 C 
ATOM     16  H   UNL     1       4.787   1.601   1.928  1.00  0.00     0.348 HD
BRANCH  14  17
ATOM     17  C   UNL     1       3.781   3.297   2.172  1.00  0.00     0.299 C 
BRANCH  17  18
ATOM     18  C   UNL     1       4.634   3.725   3.398  1.00  0.00     0.006 A 
ATOM     19  C   UNL     1       4.033   4.142   4.586  1.00  0.00     0.009 A 
ATOM     20  C   UNL     1       6.051   3.771   3.393  1.00  0.00     0.013 A 
ATOM     21  C   UNL     1       4.813   4.556   5.678  1.00  0.00     0.001 A 
ATOM     22  C   UNL     1       6.881   4.032   4.505  1.00  0.00    -0.044 A 
ATOM     23  C   UNL     1       6.211   4.478   5.642  1.00  0.00     0.004 A 
BRANCH  22  24
ATOM     24  C   UNL     1       8.395   3.794   4.561  1.00  0.00     0.019 C 
ATOM     25  C   UNL     1       9.193   3.148   3.450  1.00  0.00     0.009 C 
ATOM     26  C   UNL     1       9.365   4.611   3.746  1.00  0.00     0.009 C 
ENDBRANCH  22  24
ENDBRANCH  17  18
ENDBRANCH  14  17
ENDBRANCH   9  10
ENDBRANCH   8   9
ENDBRANCH   6   8
ENDBRANCH   5   6
ENDBRANCH   4   5
ENDBRANCH   3   4
ENDBRANCH   2   3
ENDBRANCH   1   2
BRANCH   1  27
ATOM     27  C   UNL     1       8.496   4.883   0.454  1.00  0.00     0.188 C 
BRANCH  27  28
ATOM     28  O   UNL     1       7.944   6.184   0.573  1.00  0.00    -0.377 OA
BRANCH  28  29
ATOM     29  C   UNL     1       6.530   6.332   0.597  1.00  0.00     0.188 C 
BRANCH  29  30
ATOM     30  C   UNL     1       5.943   6.501  -0.807  1.00  0.00     0.188 C 
BRANCH  30  31
ATOM     31  O   UNL     1       6.953   6.757  -1.769  1.00  0.00    -0.376 OA
BRANCH  31  32
ATOM     32  C   UNL     1       7.458   8.082  -1.895  1.00  0.00     0.202 C 
BRANCH  32  33
ATOM     33  C   UNL     1       7.843   8.922  -0.656  1.00  0.00     0.261 C 
BRANCH  33  34
ATOM     34  O   UNL     1       6.828   9.196   0.335  1.00  0.00    -0.460 OA
BRANCH  34  35
ATOM     35  C   UNL     1       5.611   9.630  -0.046  1.00  0.00     0.338 C 
ATOM     36  O   UNL     1       5.279   9.981  -1.166  1.00  0.00    -0.246 OA
BRANCH  35  37
ATOM     37  C   UNL     1       4.649   9.407   1.072  1.00  0.00     0.060 A 
ATOM     38  C   UNL     1       3.386   8.879   0.766  1.00  0.00     0.016 A 
ATOM     39  C   UNL     1       4.966   9.702   2.403  1.00  0.00     0.016 A 
ATOM     40  C   UNL     1       2.417   8.724   1.764  1.00  0.00     0.010 A 
ATOM     41  C   UNL     1       3.990   9.558   3.403  1.00  0.00     0.010 A 
ATOM     42  C   UNL     1       2.691   9.124   3.078  1.00  0.00    -0.014 A 
BRANCH  42  43
ATOM     43  C   UNL     1       1.558   9.374   4.014  1.00  0.00     0.031 A 
ATOM     44  C   UNL     1       1.019  10.782   4.097  1.00  0.00     0.074 A 
ATOM     45  C   UNL     1       0.967   8.402   4.735  1.00  0.00     0.049 A 
ATOM     46  N   UNL     1       0.042  11.262   4.824  1.00  0.00    -0.248 NA
ATOM     47  C   UNL     1       1.671  11.780   3.233  1.00  0.00     0.031 C 
ATOM     48  C   UNL     1       1.329   6.989   4.717  1.00  0.00     0.029 A 
ATOM     49  N   UNL     1      -0.077   8.470   5.629  1.00  0.00    -0.354 N 
ATOM     50  C   UNL     1      -0.034  12.613   4.505  1.00  0.00     0.074 A 
ATOM     51  C   UNL     1       1.017  12.885   3.550  1.00  0.00     0.031 C 
ATOM     52  C   UNL     1       0.525   6.322   5.568  1.00  0.00     0.029 A 
ATOM     53  C   UNL     1      -0.390   7.265   6.211  1.00  0.00     0.049 A 
ATOM     54  H   UNL     1      -0.556   9.306   5.833  1.00  0.00     0.167 HD
ATOM     55  C   UNL     1      -0.904  13.550   4.950  1.00  0.00     0.031 A 
ATOM     56  C   UNL     1      -1.298   6.962   7.162  1.00  0.00     0.031 A 
ATOM     57  C   UNL     1      -1.940  13.306   5.914  1.00  0.00     0.049 A 
ATOM     58  C   UNL     1      -2.187   8.045   7.726  1.00  0.00     0.074 A 
ATOM     59  C   UNL     1      -2.867  14.197   6.427  1.00  0.00     0.029 A 
ATOM     60  N   UNL     1      -2.180  12.084   6.520  1.00  0.00    -0.354 N 
ATOM     61  N   UNL     1      -2.263   9.312   7.396  1.00  0.00    -0.248 NA
ATOM     62  C   UNL     1      -3.124   7.649   8.791  1.00  0.00     0.031 C 
ATOM     63  C   UNL     1      -3.631  13.527   7.387  1.00  0.00     0.029 A 
ATOM     64  C   UNL     1      -3.223  12.204   7.423  1.00  0.00     0.049 A 
ATOM     65  H   UNL     1      -1.683  11.254   6.336  1.00  0.00     0.167 HD
ATOM     66  C   UNL     1      -3.276   9.851   8.184  1.00  0.00     0.074 A 
ATOM     67  C   UNL     1      -3.794   8.773   8.999  1.00  0.00     0.031 C 
ATOM     68  C   UNL     1      -3.738  11.125   8.225  1.00  0.00     0.031 A 
BRANCH  55  69
ATOM     69  C   UNL     1      -0.740  14.945   4.415  1.00  0.00    -0.014 A 
ATOM     70  C   UNL     1      -1.063  15.258   3.085  1.00  0.00     0.009 A 
ATOM     71  C   UNL     1      -0.267  15.961   5.259  1.00  0.00     0.009 A 
ATOM     72  C   UNL     1      -0.881  16.555   2.602  1.00  0.00     0.001 A 
ATOM     73  C   UNL     1      -0.115  17.264   4.781  1.00  0.00     0.001 A 
ATOM     74  C   UNL     1      -0.412  17.557   3.451  1.00  0.00     0.000 A 
ENDBRANCH  55  69
BRANCH  56  75
ATOM     75  C   UNL     1      -1.414   5.569   7.678  1.00  0.00    -0.014 A 
ATOM     76  C   UNL     1      -2.568   4.806   7.442  1.00  0.00     0.009 A 
ATOM     77  C   UNL     1      -0.390   5.018   8.465  1.00  0.00     0.009 A 
ATOM     78  C   UNL     1      -2.708   3.535   8.008  1.00  0.00     0.001 A 
ATOM     79  C   UNL     1      -0.519   3.736   9.004  1.00  0.00     0.001 A 
ATOM     80  C   UNL     1      -1.681   3.000   8.785  1.00  0.00     0.000 A 
ENDBRANCH  56  75
BRANCH  68  81
ATOM     81  C   UNL     1      -4.893  11.422   9.144  1.00  0.00    -0.014 A 
ATOM     82  C   UNL     1      -4.736  11.446  10.538  1.00  0.00     0.009 A 
ATOM     83  C   UNL     1      -6.149  11.735   8.598  1.00  0.00     0.009 A 
ATOM     84  C   UNL     1      -5.822  11.741  11.366  1.00  0.00     0.001 A 
ATOM     85  C   UNL     1      -7.224  12.061   9.426  1.00  0.00     0.001 A 
ATOM     86  C   UNL     1      -7.062  12.054  10.810  1.00  0.00     0.000 A 
ENDBRANCH  68  81
ENDBRANCH  42  43
ENDBRANCH  35  37
ENDBRANCH  34  35
ENDBRANCH  33  34
ENDBRANCH  32  33
ENDBRANCH  31  32
ENDBRANCH  30  31
ENDBRANCH  29  30
ENDBRANCH  28  29
ENDBRANCH  27  28
ENDBRANCH   1  27
TORSDOF 25
