REMARK SMILES Cc1ccc(C2=NN(C(=O)CCC(=O)OCCOCCOCCOCCOC(=O)c3ccc(-c4c5nc(c(-c6ccccc6)c6ccc([nH]6)c(-c6ccccc6)c6nc(c(-c7ccccc7)c7ccc4[nH]7)C=C6)C=C5)cc3)[C@H](C[C@H]3C=c4cccc(C)c4=NC3=O)C2)cc1
REMARK SMILES IDX 19 1 18 2 17 3 16 4 15 5 13 6 14 7 12 8 11 9 9 10 10 11 8 12
REMARK SMILES IDX 6 13 7 14 92 15 78 16 5 17 1 18 2 19 3 20 94 21 4 22 93 23
REMARK SMILES IDX 79 24 80 25 81 26 90 27 82 28 89 29 91 30 83 31 88 32 84 33
REMARK SMILES IDX 86 34 85 35 87 36 20 37 21 38 22 39 23 40 24 41 25 42 26 43
REMARK SMILES IDX 27 44 28 45 29 46 30 47 31 48 77 49 32 50 76 51 33 52 34 53
REMARK SMILES IDX 35 54 70 55 36 56 75 57 69 58 71 59 37 60 74 61 68 62 67 63
REMARK SMILES IDX 38 65 60 66 45 67 59 68 46 69 49 70 58 71 72 72 47 73 48 74
REMARK SMILES IDX 57 76 73 77 50 78 39 79 40 80 44 81 41 82 43 83 42 84 61 85
REMARK SMILES IDX 62 86 66 87 63 88 65 89 64 90 51 91 52 92 56 93 53 94 55 95
REMARK SMILES IDX 54 96
REMARK H PARENT 71 64 49 75
REMARK Flexibility Score: inf
ROOT
ATOM      1  C   UNL     1      -9.100   0.096  -1.315  1.00  0.00     0.188 C 
ENDROOT
BRANCH   1   2
ATOM      2  O   UNL     1      -8.940   0.842  -2.540  1.00  0.00    -0.376 OA
BRANCH   2   3
ATOM      3  C   UNL     1      -8.258   2.086  -2.466  1.00  0.00     0.202 C 
BRANCH   3   4
ATOM      4  C   UNL     1      -8.571   2.932  -1.265  1.00  0.00     0.261 C 
BRANCH   4   5
ATOM      5  O   UNL     1      -8.144   2.161  -0.115  1.00  0.00    -0.463 OA
BRANCH   5   6
ATOM      6  C   UNL     1      -8.824   2.123   1.028  1.00  0.00     0.306 C 
ATOM      7  O   UNL     1      -9.833   2.795   1.218  1.00  0.00    -0.252 OA
BRANCH   6   8
ATOM      8  C   UNL     1      -8.344   1.034   2.034  1.00  0.00     0.132 C 
BRANCH   8   9
ATOM      9  C   UNL     1      -7.148  -0.058   2.248  1.00  0.00     0.114 C 
BRANCH   9  10
ATOM     10  C   UNL     1      -5.942  -1.202   1.738  1.00  0.00     0.243 C 
ATOM     11  O   UNL     1      -6.119  -2.265   2.387  1.00  0.00    -0.273 OA
BRANCH  10  12
ATOM     12  N   UNL     1      -4.813  -1.087   0.692  1.00  0.00    -0.230 N 
ATOM     13  C   UNL     1      -1.895  -0.952  -0.264  1.00  0.00     0.070 C 
ATOM     14  N   UNL     1      -2.771  -1.310   1.014  1.00  0.00    -0.174 NA
ATOM     15  C   UNL     1      -3.051  -0.470  -1.815  1.00  0.00     0.086 C 
ATOM     16  C   UNL     1      -4.995  -0.676  -1.260  1.00  0.00     0.118 C 
BRANCH  13  17
ATOM     17  C   UNL     1      -0.496  -0.606  -0.191  1.00  0.00    -0.002 A 
ATOM     18  C   UNL     1       3.654   0.233   0.029  1.00  0.00     0.044 C 
ATOM     19  C   UNL     1       2.181  -0.025   0.038  1.00  0.00    -0.051 A 
ATOM     20  C   UNL     1       1.734  -1.355   0.101  1.00  0.00     0.004 A 
ATOM     21  C   UNL     1       1.259   1.025  -0.066  1.00  0.00     0.004 A 
ATOM     22  C   UNL     1       0.386  -1.649   0.007  1.00  0.00     0.010 A 
ATOM     23  C   UNL     1      -0.096   0.736  -0.186  1.00  0.00     0.010 A 
ENDBRANCH  13  17
BRANCH  16  24
ATOM     24  C   UNL     1      -6.697  -0.932  -2.266  1.00  0.00     0.045 C 
BRANCH  24  25
ATOM     25  C   UNL     1      -8.181  -2.239  -1.953  1.00  0.00     0.106 C 
ATOM     26  C   UNL     1      -8.591  -2.782  -0.386  1.00  0.00    -0.003 C 
ATOM     27  C   UNL     1      -9.592  -2.591  -2.592  1.00  0.00     0.253 C 
ATOM     28  C   UNL     1      -9.551  -3.535   0.114  1.00  0.00    -0.003 A 
ATOM     29  N   UNL     1     -10.050  -3.903  -2.263  1.00  0.00    -0.212 NA
ATOM     30  O   UNL     1     -10.166  -1.887  -3.411  1.00  0.00    -0.272 OA
ATOM     31  C   UNL     1      -9.353  -4.000   1.486  1.00  0.00     0.010 A 
ATOM     32  C   UNL     1      -9.936  -4.341  -1.034  1.00  0.00     0.077 A 
ATOM     33  C   UNL     1      -9.273  -5.315   1.702  1.00  0.00     0.001 A 
ATOM     34  C   UNL     1      -9.912  -5.806  -0.635  1.00  0.00    -0.025 A 
ATOM     35  C   UNL     1      -9.565  -6.215   0.611  1.00  0.00     0.005 A 
ATOM     36  C   UNL     1     -10.064  -6.748  -1.763  1.00  0.00     0.047 C 
ENDBRANCH  24  25
ENDBRANCH  16  24
ENDBRANCH  10  12
ENDBRANCH   9  10
ENDBRANCH   8   9
ENDBRANCH   6   8
ENDBRANCH   5   6
ENDBRANCH   4   5
ENDBRANCH   3   4
ENDBRANCH   2   3
ENDBRANCH   1   2
BRANCH   1  37
ATOM     37  C   UNL     1      -7.787  -0.536  -0.370  1.00  0.00     0.188 C 
BRANCH  37  38
ATOM     38  O   UNL     1      -6.592  -1.852  -0.458  1.00  0.00    -0.377 OA
BRANCH  38  39
ATOM     39  C   UNL     1      -6.017  -3.066  -1.496  1.00  0.00     0.188 C 
BRANCH  39  40
ATOM     40  C   UNL     1      -5.530  -2.861  -3.045  1.00  0.00     0.188 C 
BRANCH  40  41
ATOM     41  O   UNL     1      -6.526  -2.501  -4.024  1.00  0.00    -0.376 OA
BRANCH  41  42
ATOM     42  C   UNL     1      -7.182  -3.393  -4.882  1.00  0.00     0.202 C 
BRANCH  42  43
ATOM     43  C   UNL     1      -6.084  -4.185  -5.516  1.00  0.00     0.261 C 
BRANCH  43  44
ATOM     44  O   UNL     1      -5.309  -3.143  -6.271  1.00  0.00    -0.460 OA
BRANCH  44  45
ATOM     45  C   UNL     1      -4.183  -2.500  -5.792  1.00  0.00     0.338 C 
ATOM     46  O   UNL     1      -3.134  -3.108  -5.603  1.00  0.00    -0.246 OA
BRANCH  45  47
ATOM     47  C   UNL     1      -4.274  -0.967  -5.429  1.00  0.00     0.060 A 
ATOM     48  C   UNL     1      -3.192  -0.252  -4.882  1.00  0.00     0.016 A 
ATOM     49  C   UNL     1      -5.441  -0.225  -5.384  1.00  0.00     0.016 A 
ATOM     50  C   UNL     1      -3.353   0.966  -4.055  1.00  0.00     0.010 A 
ATOM     51  C   UNL     1      -5.594   0.883  -4.443  1.00  0.00     0.010 A 
ATOM     52  C   UNL     1      -4.604   1.370  -3.541  1.00  0.00    -0.014 A 
BRANCH  52  53
ATOM     53  C   UNL     1      -4.999   2.492  -2.296  1.00  0.00     0.031 A 
ATOM     54  C   UNL     1      -5.384   3.744  -3.053  1.00  0.00     0.074 A 
ATOM     55  C   UNL     1      -5.314   2.485  -0.843  1.00  0.00     0.049 A 
ATOM     56  N   UNL     1      -5.874   4.787  -2.507  1.00  0.00    -0.248 NA
ATOM     57  C   UNL     1      -5.480   3.845  -4.518  1.00  0.00     0.031 C 
ATOM     58  C   UNL     1      -5.990   3.424   0.116  1.00  0.00     0.029 A 
ATOM     59  N   UNL     1      -5.245   1.583   0.224  1.00  0.00    -0.354 N 
ATOM     60  C   UNL     1      -6.765   5.353  -3.399  1.00  0.00     0.074 A 
ATOM     61  C   UNL     1      -6.419   4.787  -4.673  1.00  0.00     0.031 C 
ATOM     62  C   UNL     1      -5.938   3.143   1.458  1.00  0.00     0.029 A 
ATOM     63  C   UNL     1      -5.122   2.002   1.551  1.00  0.00     0.049 A 
ATOM     64  H   UNL     1      -5.286   0.618   0.033  1.00  0.00     0.167 HD
ATOM     65  C   UNL     1      -7.783   6.096  -2.873  1.00  0.00     0.031 A 
ATOM     66  C   UNL     1      -3.921   1.849   2.179  1.00  0.00     0.031 A 
ATOM     67  C   UNL     1      -7.594   6.284  -1.399  1.00  0.00     0.049 A 
ATOM     68  C   UNL     1      -3.288   3.254   1.853  1.00  0.00     0.074 A 
ATOM     69  C   UNL     1      -8.369   6.098  -0.265  1.00  0.00     0.029 A 
ATOM     70  N   UNL     1      -6.286   6.449  -0.910  1.00  0.00    -0.354 N 
ATOM     71  N   UNL     1      -3.679   4.031   0.849  1.00  0.00    -0.248 NA
ATOM     72  C   UNL     1      -2.492   4.048   2.786  1.00  0.00     0.031 C 
ATOM     73  C   UNL     1      -7.480   6.052   0.877  1.00  0.00     0.029 A 
ATOM     74  C   UNL     1      -6.146   6.160   0.444  1.00  0.00     0.049 A 
ATOM     75  H   UNL     1      -5.536   6.742  -1.476  1.00  0.00     0.167 HD
ATOM     76  C   UNL     1      -3.789   5.332   1.309  1.00  0.00     0.074 A 
ATOM     77  C   UNL     1      -2.713   5.295   2.311  1.00  0.00     0.031 C 
ATOM     78  C   UNL     1      -4.800   6.293   1.090  1.00  0.00     0.031 A 
BRANCH  65  79
ATOM     79  C   UNL     1      -9.040   6.534  -3.622  1.00  0.00    -0.014 A 
ATOM     80  C   UNL     1      -9.976   7.329  -2.931  1.00  0.00     0.009 A 
ATOM     81  C   UNL     1      -9.401   6.213  -4.949  1.00  0.00     0.009 A 
ATOM     82  C   UNL     1     -11.160   7.806  -3.513  1.00  0.00     0.001 A 
ATOM     83  C   UNL     1     -10.580   6.711  -5.552  1.00  0.00     0.001 A 
ATOM     84  C   UNL     1     -11.455   7.516  -4.834  1.00  0.00     0.000 A 
ENDBRANCH  65  79
BRANCH  66  85
ATOM     85  C   UNL     1      -3.521   0.406   1.853  1.00  0.00    -0.014 A 
ATOM     86  C   UNL     1      -3.644  -1.004   2.873  1.00  0.00     0.009 A 
ATOM     87  C   UNL     1      -3.507   0.058   0.132  1.00  0.00     0.009 A 
ATOM     88  C   UNL     1      -3.702  -2.675   2.304  1.00  0.00     0.001 A 
ATOM     89  C   UNL     1      -3.610  -1.909  -0.462  1.00  0.00     0.001 A 
ATOM     90  C   UNL     1      -3.708  -3.137   0.709  1.00  0.00     0.000 A 
ENDBRANCH  66  85
BRANCH  78  91
ATOM     91  C   UNL     1      -4.556   7.736   1.397  1.00  0.00    -0.014 A 
ATOM     92  C   UNL     1      -3.751   8.184   2.421  1.00  0.00     0.009 A 
ATOM     93  C   UNL     1      -5.134   8.716   0.551  1.00  0.00     0.009 A 
ATOM     94  C   UNL     1      -3.278   9.488   2.389  1.00  0.00     0.001 A 
ATOM     95  C   UNL     1      -4.729  10.030   0.552  1.00  0.00     0.001 A 
ATOM     96  C   UNL     1      -3.735  10.395   1.432  1.00  0.00     0.000 A 
ENDBRANCH  78  91
ENDBRANCH  52  53
ENDBRANCH  45  47
ENDBRANCH  44  45
ENDBRANCH  43  44
ENDBRANCH  42  43
ENDBRANCH  41  42
ENDBRANCH  40  41
ENDBRANCH  39  40
ENDBRANCH  38  39
ENDBRANCH  37  38
ENDBRANCH   1  37
TORSDOF 26
