REMARK SMILES C=C[C@@H]1[C@@H](O)C[C@H]2[C@]3(CC[C@]4(C)[C@@H]([C@H](C)CCC=C(C)C)CC[C@]24C)C[C@]13CCC(=O)OCCOCCOCCOCCOC(=O)c1ccc(-c2c3nc(c(-c4ccccc4)c4ccc([nH]4)c(-c4ccccc4)c4nc(c(-c5ccccc5)c5ccc2[nH]5)C=C4)C=C3)cc1
REMARK SMILES IDX 36 1 35 2 34 3 33 4 32 5 30 6 31 7 29 8 28 9 27 10 3 11 4 12
REMARK SMILES IDX 6 13 8 14 26 15 7 16 9 17 24 18 10 19 11 20 23 21 25 22
REMARK SMILES IDX 13 23 12 24 22 25 2 26 1 27 5 28 14 30 15 31 16 32 17 33
REMARK SMILES IDX 18 34 19 35 20 36 21 37 37 38 38 39 39 40 40 41 41 42 42 43
REMARK SMILES IDX 43 44 44 45 45 46 46 47 47 48 48 49 94 50 49 51 93 52 50 53
REMARK SMILES IDX 51 54 52 55 87 56 53 57 92 58 86 59 88 60 54 61 91 62 85 63
REMARK SMILES IDX 84 64 55 66 77 67 62 68 76 69 63 70 66 71 75 72 89 73 64 74
REMARK SMILES IDX 65 75 74 77 90 78 67 79 56 80 57 81 61 82 58 83 60 84 59 85
REMARK SMILES IDX 78 86 79 87 83 88 80 89 82 90 81 91 68 92 69 93 73 94 70 95
REMARK SMILES IDX 72 96 71 97
REMARK H PARENT 5 29 88 65 66 76
REMARK Flexibility Score: inf
ROOT
ATOM      1  C   UNL     1       1.109   2.743   1.221  1.00  0.00     0.188 C 
ENDROOT
BRANCH   1   2
ATOM      2  O   UNL     1       2.016   1.883   1.898  1.00  0.00    -0.376 OA
BRANCH   2   3
ATOM      3  C   UNL     1       1.709   0.508   2.091  1.00  0.00     0.202 C 
BRANCH   3   4
ATOM      4  C   UNL     1       0.313   0.088   2.560  1.00  0.00     0.261 C 
BRANCH   4   5
ATOM      5  O   UNL     1      -0.675   0.289   1.533  1.00  0.00    -0.463 OA
BRANCH   5   6
ATOM      6  C   UNL     1      -1.761   1.047   1.786  1.00  0.00     0.305 C 
ATOM      7  O   UNL     1      -1.987   1.559   2.876  1.00  0.00    -0.252 OA
BRANCH   6   8
ATOM      8  C   UNL     1      -2.748   1.112   0.625  1.00  0.00     0.123 C 
BRANCH   8   9
ATOM      9  C   UNL     1      -2.372   1.425  -0.835  1.00  0.00     0.020 C 
BRANCH   9  10
ATOM     10  C   UNL     1      -1.809   0.370  -1.831  1.00  0.00    -0.014 C 
ATOM     11  C   UNL     1      -1.129  -0.902  -1.258  1.00  0.00     0.047 C 
ATOM     12  C   UNL     1      -2.116  -2.067  -1.241  1.00  0.00     0.122 C 
ATOM     13  C   UNL     1      -2.673  -2.288  -2.634  1.00  0.00     0.037 C 
ATOM     14  C   UNL     1      -2.671   0.305  -3.137  1.00  0.00    -0.019 C 
ATOM     15  C   UNL     1      -1.231   0.724  -3.189  1.00  0.00     0.016 C 
ATOM     16  C   UNL     1      -3.387  -1.059  -3.246  1.00  0.00     0.005 C 
ATOM     17  C   UNL     1      -3.494   1.457  -3.725  1.00  0.00     0.008 C 
ATOM     18  C   UNL     1      -3.987  -1.355  -4.684  1.00  0.00    -0.023 C 
ATOM     19  C   UNL     1      -3.865   1.129  -5.170  1.00  0.00     0.008 C 
ATOM     20  C   UNL     1      -4.783  -0.110  -5.265  1.00  0.00    -0.024 C 
ATOM     21  C   UNL     1      -5.141  -2.380  -4.560  1.00  0.00     0.008 C 
ATOM     22  C   UNL     1      -2.886  -1.866  -5.645  1.00  0.00     0.012 C 
ATOM     23  C   UNL     1      -6.053  -0.090  -4.330  1.00  0.00    -0.002 C 
ATOM     24  C   UNL     1      -5.203  -0.301  -6.742  1.00  0.00     0.012 C 
ATOM     25  C   UNL     1      -6.364  -1.587  -4.074  1.00  0.00     0.005 C 
BRANCH  11  26
ATOM     26  C   UNL     1       0.171  -1.373  -1.924  1.00  0.00    -0.028 C 
ATOM     27  C   UNL     1       1.332  -1.604  -1.302  1.00  0.00     0.004 C 
ENDBRANCH  11  26
BRANCH  12  28
ATOM     28  O   UNL     1      -3.170  -1.866  -0.305  1.00  0.00    -0.392 OA
ATOM     29  H   UNL     1      -3.679  -1.079  -0.555  1.00  0.00     0.210 HD
ENDBRANCH  12  28
BRANCH  23  30
ATOM     30  C   UNL     1      -7.287   0.835  -4.569  1.00  0.00    -0.010 C 
ATOM     31  C   UNL     1      -8.395   0.267  -5.465  1.00  0.00     0.008 C 
BRANCH  30  32
ATOM     32  C   UNL     1      -6.926   2.280  -4.989  1.00  0.00     0.008 C 
BRANCH  32  33
ATOM     33  C   UNL     1      -7.769   3.373  -4.315  1.00  0.00     0.027 C 
BRANCH  33  34
ATOM     34  C   UNL     1      -7.155   3.746  -2.984  1.00  0.00    -0.028 C 
ATOM     35  C   UNL     1      -6.568   4.917  -2.663  1.00  0.00    -0.080 C 
ATOM     36  C   UNL     1      -5.908   5.118  -1.325  1.00  0.00     0.039 C 
ATOM     37  C   UNL     1      -6.492   6.094  -3.598  1.00  0.00     0.039 C 
ENDBRANCH  33  34
ENDBRANCH  32  33
ENDBRANCH  30  32
ENDBRANCH  23  30
ENDBRANCH   9  10
ENDBRANCH   8   9
ENDBRANCH   6   8
ENDBRANCH   5   6
ENDBRANCH   4   5
ENDBRANCH   3   4
ENDBRANCH   2   3
ENDBRANCH   1   2
BRANCH   1  38
ATOM     38  C   UNL     1       0.637   2.364  -0.188  1.00  0.00     0.188 C 
BRANCH  38  39
ATOM     39  O   UNL     1       1.484   2.330  -1.314  1.00  0.00    -0.377 OA
BRANCH  39  40
ATOM     40  C   UNL     1       2.727   1.689  -1.133  1.00  0.00     0.188 C 
BRANCH  40  41
ATOM     41  C   UNL     1       3.809   2.713  -0.808  1.00  0.00     0.188 C 
BRANCH  41  42
ATOM     42  O   UNL     1       3.251   4.002  -0.590  1.00  0.00    -0.376 OA
BRANCH  42  43
ATOM     43  C   UNL     1       3.176   4.876  -1.712  1.00  0.00     0.202 C 
BRANCH  43  44
ATOM     44  C   UNL     1       2.481   4.463  -3.031  1.00  0.00     0.261 C 
BRANCH  44  45
ATOM     45  O   UNL     1       2.807   3.194  -3.628  1.00  0.00    -0.460 OA
BRANCH  45  46
ATOM     46  C   UNL     1       4.048   2.990  -4.098  1.00  0.00     0.338 C 
ATOM     47  O   UNL     1       4.995   3.762  -4.054  1.00  0.00    -0.246 OA
BRANCH  46  48
ATOM     48  C   UNL     1       4.125   1.595  -4.585  1.00  0.00     0.060 A 
ATOM     49  C   UNL     1       4.900   0.660  -3.886  1.00  0.00     0.016 A 
ATOM     50  C   UNL     1       3.453   1.214  -5.750  1.00  0.00     0.016 A 
ATOM     51  C   UNL     1       5.033  -0.646  -4.367  1.00  0.00     0.010 A 
ATOM     52  C   UNL     1       3.604  -0.088  -6.242  1.00  0.00     0.010 A 
ATOM     53  C   UNL     1       4.423  -1.015  -5.573  1.00  0.00    -0.014 A 
BRANCH  53  54
ATOM     54  C   UNL     1       4.797  -2.295  -6.233  1.00  0.00     0.031 A 
ATOM     55  C   UNL     1       5.823  -2.262  -7.336  1.00  0.00     0.074 A 
ATOM     56  C   UNL     1       4.262  -3.470  -5.856  1.00  0.00     0.049 A 
ATOM     57  N   UNL     1       6.277  -3.238  -8.081  1.00  0.00    -0.248 NA
ATOM     58  C   UNL     1       6.413  -0.948  -7.641  1.00  0.00     0.031 C 
ATOM     59  C   UNL     1       3.296  -3.655  -4.776  1.00  0.00     0.029 A 
ATOM     60  N   UNL     1       4.456  -4.736  -6.355  1.00  0.00    -0.354 N 
ATOM     61  C   UNL     1       7.194  -2.656  -8.947  1.00  0.00     0.074 A 
ATOM     62  C   UNL     1       7.211  -1.239  -8.656  1.00  0.00     0.031 C 
ATOM     63  C   UNL     1       2.976  -4.959  -4.696  1.00  0.00     0.029 A 
ATOM     64  C   UNL     1       3.683  -5.694  -5.744  1.00  0.00     0.049 A 
ATOM     65  H   UNL     1       5.090  -4.938  -7.081  1.00  0.00     0.167 HD
ATOM     66  C   UNL     1       7.958  -3.244  -9.899  1.00  0.00     0.031 A 
ATOM     67  C   UNL     1       3.543  -7.007  -6.017  1.00  0.00     0.031 A 
ATOM     68  C   UNL     1       7.932  -4.649 -10.205  1.00  0.00     0.049 A 
ATOM     69  C   UNL     1       4.338  -7.624  -7.140  1.00  0.00     0.074 A 
ATOM     70  C   UNL     1       8.682  -5.341 -11.141  1.00  0.00     0.029 A 
ATOM     71  N   UNL     1       7.103  -5.576  -9.593  1.00  0.00    -0.354 N 
ATOM     72  N   UNL     1       5.225  -7.069  -7.930  1.00  0.00    -0.248 NA
ATOM     73  C   UNL     1       4.115  -9.054  -7.403  1.00  0.00     0.031 C 
ATOM     74  C   UNL     1       8.258  -6.673 -11.142  1.00  0.00     0.029 A 
ATOM     75  C   UNL     1       7.299  -6.827 -10.155  1.00  0.00     0.049 A 
ATOM     76  H   UNL     1       6.470  -5.375  -8.866  1.00  0.00     0.167 HD
ATOM     77  C   UNL     1       5.687  -8.086  -8.759  1.00  0.00     0.074 A 
ATOM     78  C   UNL     1       4.995  -9.295  -8.364  1.00  0.00     0.031 C 
ATOM     79  C   UNL     1       6.605  -8.024  -9.755  1.00  0.00     0.031 A 
BRANCH  66  80
ATOM     80  C   UNL     1       8.859  -2.355 -10.712  1.00  0.00    -0.014 A 
ATOM     81  C   UNL     1       9.992  -1.745 -10.149  1.00  0.00     0.009 A 
ATOM     82  C   UNL     1       8.587  -2.153 -12.075  1.00  0.00     0.009 A 
ATOM     83  C   UNL     1      10.812  -0.923 -10.926  1.00  0.00     0.001 A 
ATOM     84  C   UNL     1       9.426  -1.357 -12.856  1.00  0.00     0.001 A 
ATOM     85  C   UNL     1      10.532  -0.735 -12.279  1.00  0.00     0.000 A 
ENDBRANCH  66  80
BRANCH  67  86
ATOM     86  C   UNL     1       2.586  -7.836  -5.233  1.00  0.00    -0.014 A 
ATOM     87  C   UNL     1       3.043  -8.863  -4.393  1.00  0.00     0.009 A 
ATOM     88  C   UNL     1       1.203  -7.625  -5.350  1.00  0.00     0.009 A 
ATOM     89  C   UNL     1       2.136  -9.678  -3.709  1.00  0.00     0.001 A 
ATOM     90  C   UNL     1       0.299  -8.419  -4.640  1.00  0.00     0.001 A 
ATOM     91  C   UNL     1       0.766  -9.451  -3.829  1.00  0.00     0.000 A 
ENDBRANCH  67  86
BRANCH  79  92
ATOM     92  C   UNL     1       6.952  -9.307 -10.464  1.00  0.00    -0.014 A 
ATOM     93  C   UNL     1       6.043  -9.940 -11.326  1.00  0.00     0.009 A 
ATOM     94  C   UNL     1       8.230  -9.866 -10.299  1.00  0.00     0.009 A 
ATOM     95  C   UNL     1       6.395 -11.125 -11.978  1.00  0.00     0.001 A 
ATOM     96  C   UNL     1       8.591 -11.030 -10.978  1.00  0.00     0.001 A 
ATOM     97  C   UNL     1       7.670 -11.665 -11.808  1.00  0.00     0.000 A 
ENDBRANCH  79  92
ENDBRANCH  53  54
ENDBRANCH  46  48
ENDBRANCH  45  46
ENDBRANCH  44  45
ENDBRANCH  43  44
ENDBRANCH  42  43
ENDBRANCH  41  42
ENDBRANCH  40  41
ENDBRANCH  39  40
ENDBRANCH  38  39
ENDBRANCH   1  38
TORSDOF 28
