REMARK SMILES C[C@@H](C(=O)OCCOCCOCCOCCOC(=O)c1ccc(-c2c3nc(c(-c4ccccc4)c4ccc([nH]4)c(-c4ccccc4)c4nc(c(-c5ccccc5)c5ccc2[nH]5)C=C4)C=C3)cc1)[C@@H](C)C(=O)c1cccc(Cl)c1
REMARK SMILES IDX 10 1 9 2 8 3 7 4 6 5 5 6 3 7 4 8 2 9 1 10 68 11 69 12 70 13
REMARK SMILES IDX 71 14 72 15 73 16 78 17 74 18 76 19 75 20 77 21 11 22 12 23
REMARK SMILES IDX 13 24 14 25 15 26 16 27 17 28 18 29 19 30 20 31 21 32 67 33
REMARK SMILES IDX 22 34 66 35 23 36 24 37 25 38 60 39 26 40 65 41 59 42 61 43
REMARK SMILES IDX 27 44 64 45 58 46 57 47 28 49 50 50 35 51 49 52 36 53 39 54
REMARK SMILES IDX 48 55 62 56 37 57 38 58 47 60 63 61 40 62 29 63 30 64 34 65
REMARK SMILES IDX 31 66 33 67 32 68 51 69 52 70 56 71 53 72 55 73 54 74 41 75
REMARK SMILES IDX 42 76 46 77 43 78 45 79 44 80
REMARK H PARENT 61 48 39 59
REMARK Flexibility Score: inf
ROOT
ATOM      1  C   UNL     1       0.627  -2.866   0.011  1.00  0.00     0.188 C 
ENDROOT
BRANCH   1   2
ATOM      2  C   UNL     1       0.192  -3.609  -1.259  1.00  0.00     0.188 C 
BRANCH   2   3
ATOM      3  O   UNL     1       1.183  -4.492  -1.744  1.00  0.00    -0.376 OA
BRANCH   3   4
ATOM      4  C   UNL     1       1.985  -4.122  -2.847  1.00  0.00     0.202 C 
BRANCH   4   5
ATOM      5  C   UNL     1       2.777  -2.797  -2.907  1.00  0.00     0.261 C 
BRANCH   5   6
ATOM      6  O   UNL     1       2.308  -1.678  -2.142  1.00  0.00    -0.463 OA
BRANCH   6   7
ATOM      7  C   UNL     1       1.272  -1.014  -2.682  1.00  0.00     0.309 C 
ATOM      8  O   UNL     1       0.762  -1.360  -3.742  1.00  0.00    -0.252 OA
BRANCH   7   9
ATOM      9  C   UNL     1       0.794   0.217  -1.885  1.00  0.00     0.106 C 
ATOM     10  C   UNL     1       1.427   0.442  -0.501  1.00  0.00     0.021 C 
BRANCH   9  11
ATOM     11  C   UNL     1      -0.754   0.218  -1.865  1.00  0.00     0.072 C 
ATOM     12  C   UNL     1      -1.384   1.402  -1.129  1.00  0.00     0.017 C 
BRANCH  11  13
ATOM     13  C   UNL     1      -1.485   0.057  -3.214  1.00  0.00     0.166 C 
ATOM     14  O   UNL     1      -2.457  -0.704  -3.278  1.00  0.00    -0.294 OA
BRANCH  13  15
ATOM     15  C   UNL     1      -1.183   0.909  -4.413  1.00  0.00     0.019 A 
ATOM     16  C   UNL     1      -2.264   1.280  -5.221  1.00  0.00     0.012 A 
ATOM     17  C   UNL     1       0.098   1.306  -4.806  1.00  0.00     0.032 A 
ATOM     18  C   UNL     1      -2.067   2.071  -6.357  1.00  0.00     0.002 A 
ATOM     19  C   UNL     1       0.294   2.106  -5.928  1.00  0.00     0.041 A 
ATOM     20  C   UNL     1      -0.785   2.500  -6.702  1.00  0.00     0.020 A 
ATOM     21  Cl  UNL     1       1.893   2.585  -6.350  1.00  0.00    -0.084 Cl
ENDBRANCH  13  15
ENDBRANCH  11  13
ENDBRANCH   9  11
ENDBRANCH   7   9
ENDBRANCH   6   7
ENDBRANCH   5   6
ENDBRANCH   4   5
ENDBRANCH   3   4
ENDBRANCH   2   3
ENDBRANCH   1   2
BRANCH   1  22
ATOM     22  O   UNL     1       2.016  -2.770   0.283  1.00  0.00    -0.377 OA
BRANCH  22  23
ATOM     23  C   UNL     1       2.778  -3.962   0.470  1.00  0.00     0.188 C 
BRANCH  23  24
ATOM     24  C   UNL     1       2.091  -5.321   0.736  1.00  0.00     0.188 C 
BRANCH  24  25
ATOM     25  O   UNL     1       0.759  -5.241   1.209  1.00  0.00    -0.376 OA
BRANCH  25  26
ATOM     26  C   UNL     1       0.539  -5.319   2.607  1.00  0.00     0.202 C 
BRANCH  26  27
ATOM     27  C   UNL     1       1.208  -4.262   3.500  1.00  0.00     0.261 C 
BRANCH  27  28
ATOM     28  O   UNL     1       2.643  -4.185   3.442  1.00  0.00    -0.460 OA
BRANCH  28  29
ATOM     29  C   UNL     1       3.352  -5.297   3.720  1.00  0.00     0.338 C 
ATOM     30  O   UNL     1       2.921  -6.380   4.084  1.00  0.00    -0.246 OA
BRANCH  29  31
ATOM     31  C   UNL     1       4.751  -5.052   3.315  1.00  0.00     0.060 A 
ATOM     32  C   UNL     1       5.328  -5.859   2.324  1.00  0.00     0.016 A 
ATOM     33  C   UNL     1       5.487  -4.023   3.906  1.00  0.00     0.016 A 
ATOM     34  C   UNL     1       6.658  -5.667   1.951  1.00  0.00     0.010 A 
ATOM     35  C   UNL     1       6.827  -3.849   3.551  1.00  0.00     0.010 A 
ATOM     36  C   UNL     1       7.428  -4.695   2.601  1.00  0.00    -0.014 A 
BRANCH  36  37
ATOM     37  C   UNL     1       8.903  -4.710   2.453  1.00  0.00     0.031 A 
ATOM     38  C   UNL     1       9.715  -5.397   3.517  1.00  0.00     0.074 A 
ATOM     39  C   UNL     1       9.512  -4.152   1.393  1.00  0.00     0.049 A 
ATOM     40  N   UNL     1      11.013  -5.503   3.635  1.00  0.00    -0.248 NA
ATOM     41  C   UNL     1       8.956  -6.053   4.596  1.00  0.00     0.031 C 
ATOM     42  C   UNL     1       8.838  -3.510   0.266  1.00  0.00     0.029 A 
ATOM     43  N   UNL     1      10.848  -4.037   1.099  1.00  0.00    -0.354 N 
ATOM     44  C   UNL     1      11.226  -6.221   4.806  1.00  0.00     0.074 A 
ATOM     45  C   UNL     1       9.927  -6.501   5.376  1.00  0.00     0.031 C 
ATOM     46  C   UNL     1       9.768  -3.062  -0.597  1.00  0.00     0.029 A 
ATOM     47  C   UNL     1      11.098  -3.350  -0.064  1.00  0.00     0.049 A 
ATOM     48  H   UNL     1      11.559  -4.411   1.668  1.00  0.00     0.167 HD
ATOM     49  C   UNL     1      12.398  -6.614   5.358  1.00  0.00     0.031 A 
ATOM     50  C   UNL     1      12.268  -2.977  -0.619  1.00  0.00     0.031 A 
ATOM     51  C   UNL     1      13.690  -6.321   4.799  1.00  0.00     0.049 A 
ATOM     52  C   UNL     1      13.561  -3.345   0.065  1.00  0.00     0.074 A 
ATOM     53  C   UNL     1      14.936  -6.689   5.273  1.00  0.00     0.029 A 
ATOM     54  N   UNL     1      13.901  -5.579   3.647  1.00  0.00    -0.354 N 
ATOM     55  N   UNL     1      13.752  -4.044   1.158  1.00  0.00    -0.248 NA
ATOM     56  C   UNL     1      14.802  -2.874  -0.569  1.00  0.00     0.031 C 
ATOM     57  C   UNL     1      15.904  -6.109   4.448  1.00  0.00     0.029 A 
ATOM     58  C   UNL     1      15.259  -5.446   3.416  1.00  0.00     0.049 A 
ATOM     59  H   UNL     1      13.191  -5.203   3.079  1.00  0.00     0.167 HD
ATOM     60  C   UNL     1      15.130  -4.127   1.322  1.00  0.00     0.074 A 
ATOM     61  C   UNL     1      15.727  -3.418   0.209  1.00  0.00     0.031 C 
ATOM     62  C   UNL     1      15.839  -4.739   2.303  1.00  0.00     0.031 A 
BRANCH  49  63
ATOM     63  C   UNL     1      12.333  -7.359   6.662  1.00  0.00    -0.014 A 
ATOM     64  C   UNL     1      11.829  -8.668   6.739  1.00  0.00     0.009 A 
ATOM     65  C   UNL     1      12.810  -6.747   7.832  1.00  0.00     0.009 A 
ATOM     66  C   UNL     1      11.771  -9.332   7.966  1.00  0.00     0.001 A 
ATOM     67  C   UNL     1      12.782  -7.426   9.051  1.00  0.00     0.001 A 
ATOM     68  C   UNL     1      12.253  -8.713   9.120  1.00  0.00     0.000 A 
ENDBRANCH  49  63
BRANCH  50  69
ATOM     69  C   UNL     1      12.283  -2.191  -1.882  1.00  0.00    -0.014 A 
ATOM     70  C   UNL     1      12.797  -2.745  -3.065  1.00  0.00     0.009 A 
ATOM     71  C   UNL     1      11.812  -0.869  -1.904  1.00  0.00     0.009 A 
ATOM     72  C   UNL     1      12.865  -1.982  -4.234  1.00  0.00     0.001 A 
ATOM     73  C   UNL     1      11.850  -0.120  -3.082  1.00  0.00     0.001 A 
ATOM     74  C   UNL     1      12.387  -0.673  -4.243  1.00  0.00     0.000 A 
ENDBRANCH  50  69
BRANCH  62  75
ATOM     75  C   UNL     1      17.341  -4.713   2.195  1.00  0.00    -0.014 A 
ATOM     76  C   UNL     1      18.073  -3.532   2.388  1.00  0.00     0.009 A 
ATOM     77  C   UNL     1      18.035  -5.907   1.941  1.00  0.00     0.009 A 
ATOM     78  C   UNL     1      19.467  -3.541   2.292  1.00  0.00     0.001 A 
ATOM     79  C   UNL     1      19.429  -5.920   1.881  1.00  0.00     0.001 A 
ATOM     80  C   UNL     1      20.143  -4.735   2.045  1.00  0.00     0.000 A 
ENDBRANCH  62  75
ENDBRANCH  36  37
ENDBRANCH  29  31
ENDBRANCH  28  29
ENDBRANCH  27  28
ENDBRANCH  26  27
ENDBRANCH  25  26
ENDBRANCH  24  25
ENDBRANCH  23  24
ENDBRANCH  22  23
ENDBRANCH   1  22
TORSDOF 23
