REMARK SMILES Cc1cc(F)cc(N[C@](C)(C(=O)OCCOCCOCCOCCOC(=O)c2ccc(-c3c4nc(c(-c5ccccc5)c5ccc([nH]5)c(-c5ccccc5)c5nc(c(-c6ccccc6)c6ccc3[nH]6)C=C5)C=C4)cc2)c2cccc(F)c2)c1
REMARK SMILES IDX 19 1 18 2 17 3 16 4 15 5 14 6 13 7 11 8 12 9 9 10 10 11 8 12
REMARK SMILES IDX 7 14 1 15 2 16 3 17 83 18 4 19 5 20 6 21 76 22 77 23 82 24
REMARK SMILES IDX 78 25 80 26 79 27 81 28 20 29 21 30 22 31 23 32 24 33 25 34
REMARK SMILES IDX 26 35 27 36 28 37 29 38 75 39 30 40 74 41 31 42 32 43 33 44
REMARK SMILES IDX 68 45 34 46 73 47 67 48 69 49 35 50 72 51 66 52 65 53 36 55
REMARK SMILES IDX 58 56 43 57 57 58 44 59 47 60 56 61 70 62 45 63 46 64 55 66
REMARK SMILES IDX 71 67 48 68 37 69 38 70 42 71 39 72 41 73 40 74 59 75 60 76
REMARK SMILES IDX 64 77 61 78 63 79 62 80 49 81 50 82 54 83 51 84 53 85 52 86
REMARK H PARENT 8 13 69 54 47 65
REMARK Flexibility Score: inf
ROOT
ATOM      1  O   UNL     1      -1.509  -5.978   2.920  1.00  0.00    -0.377 OA
ENDROOT
BRANCH   1   2
ATOM      2  C   UNL     1      -0.381  -5.133   2.810  1.00  0.00     0.188 C 
BRANCH   2   3
ATOM      3  C   UNL     1      -0.583  -3.702   3.316  1.00  0.00     0.188 C 
BRANCH   3   4
ATOM      4  O   UNL     1      -1.629  -3.589   4.257  1.00  0.00    -0.376 OA
BRANCH   4   5
ATOM      5  C   UNL     1      -2.960  -3.348   3.829  1.00  0.00     0.202 C 
BRANCH   5   6
ATOM      6  C   UNL     1      -3.601  -3.898   2.534  1.00  0.00     0.261 C 
BRANCH   6   7
ATOM      7  O   UNL     1      -2.739  -4.277   1.452  1.00  0.00    -0.461 OA
BRANCH   7   8
ATOM      8  C   UNL     1      -2.376  -3.304   0.591  1.00  0.00     0.336 C 
ATOM      9  O   UNL     1      -2.807  -2.164   0.736  1.00  0.00    -0.249 OA
BRANCH   8  10
ATOM     10  C   UNL     1      -1.367  -3.769  -0.558  1.00  0.00     0.159 C 
ATOM     11  C   UNL     1      -2.082  -3.627  -1.910  1.00  0.00     0.053 C 
BRANCH  10  12
ATOM     12  N   UNL     1      -0.136  -2.901  -0.506  1.00  0.00    -0.366 N 
ATOM     13  H   UNL     1       0.719  -3.388  -0.485  1.00  0.00     0.162 HD
BRANCH  12  14
ATOM     14  C   UNL     1      -0.028  -1.515  -0.483  1.00  0.00     0.038 A 
ATOM     15  C   UNL     1       2.774   1.054   0.117  1.00  0.00     0.044 C 
ATOM     16  C   UNL     1       1.422   0.451  -0.119  1.00  0.00    -0.046 A 
ATOM     17  C   UNL     1       0.315   1.291  -0.223  1.00  0.00     0.042 A 
ATOM     18  C   UNL     1       1.238  -0.941  -0.241  1.00  0.00     0.029 A 
ATOM     19  C   UNL     1      -0.915   0.747  -0.539  1.00  0.00     0.125 A 
ATOM     20  F   UNL     1      -1.980   1.550  -0.660  1.00  0.00    -0.207 F 
ATOM     21  C   UNL     1      -1.071  -0.623  -0.724  1.00  0.00     0.065 A 
ENDBRANCH  12  14
ENDBRANCH  10  12
BRANCH  10  22
ATOM     22  C   UNL     1      -0.920  -5.285  -0.518  1.00  0.00    -0.009 A 
ATOM     23  C   UNL     1       0.428  -5.697  -0.694  1.00  0.00     0.007 A 
ATOM     24  C   UNL     1      -1.860  -6.320  -0.324  1.00  0.00     0.046 A 
ATOM     25  C   UNL     1       0.823  -7.038  -0.550  1.00  0.00     0.003 A 
ATOM     26  C   UNL     1      -1.460  -7.654  -0.200  1.00  0.00     0.123 A 
ATOM     27  C   UNL     1      -0.125  -8.019  -0.289  1.00  0.00     0.039 A 
ATOM     28  F   UNL     1      -2.383  -8.602   0.015  1.00  0.00    -0.207 F 
ENDBRANCH  10  22
ENDBRANCH   8  10
ENDBRANCH   7   8
ENDBRANCH   6   7
ENDBRANCH   5   6
ENDBRANCH   4   5
ENDBRANCH   3   4
ENDBRANCH   2   3
ENDBRANCH   1   2
BRANCH   1  29
ATOM     29  C   UNL     1      -1.832  -6.551   4.179  1.00  0.00     0.188 C 
BRANCH  29  30
ATOM     30  C   UNL     1      -1.080  -6.146   5.464  1.00  0.00     0.188 C 
BRANCH  30  31
ATOM     31  O   UNL     1       0.290  -5.832   5.284  1.00  0.00    -0.376 OA
BRANCH  31  32
ATOM     32  C   UNL     1       1.260  -6.840   5.519  1.00  0.00     0.202 C 
BRANCH  32  33
ATOM     33  C   UNL     1       1.238  -8.095   4.629  1.00  0.00     0.261 C 
BRANCH  33  34
ATOM     34  O   UNL     1       0.024  -8.860   4.615  1.00  0.00    -0.460 OA
BRANCH  34  35
ATOM     35  C   UNL     1      -0.444  -9.338   5.786  1.00  0.00     0.338 C 
ATOM     36  O   UNL     1       0.085  -9.251   6.883  1.00  0.00    -0.246 OA
BRANCH  35  37
ATOM     37  C   UNL     1      -1.823  -9.821   5.558  1.00  0.00     0.060 A 
ATOM     38  C   UNL     1      -2.875  -9.239   6.278  1.00  0.00     0.016 A 
ATOM     39  C   UNL     1      -2.078 -10.827   4.623  1.00  0.00     0.016 A 
ATOM     40  C   UNL     1      -4.182  -9.693   6.098  1.00  0.00     0.010 A 
ATOM     41  C   UNL     1      -3.384 -11.299   4.462  1.00  0.00     0.010 A 
ATOM     42  C   UNL     1      -4.434 -10.761   5.228  1.00  0.00    -0.014 A 
BRANCH  42  43
ATOM     43  C   UNL     1      -5.738 -11.462   5.287  1.00  0.00     0.031 A 
ATOM     44  C   UNL     1      -5.835 -12.708   6.125  1.00  0.00     0.074 A 
ATOM     45  C   UNL     1      -6.822 -11.001   4.641  1.00  0.00     0.049 A 
ATOM     46  N   UNL     1      -6.851 -13.511   6.313  1.00  0.00    -0.248 NA
ATOM     47  C   UNL     1      -4.614 -13.099   6.848  1.00  0.00     0.031 C 
ATOM     48  C   UNL     1      -6.880  -9.774   3.850  1.00  0.00     0.029 A 
ATOM     49  N   UNL     1      -8.088 -11.522   4.554  1.00  0.00    -0.354 N 
ATOM     50  C   UNL     1      -6.389 -14.504   7.167  1.00  0.00     0.074 A 
ATOM     51  C   UNL     1      -4.994 -14.226   7.427  1.00  0.00     0.031 C 
ATOM     52  C   UNL     1      -8.126  -9.633   3.361  1.00  0.00     0.029 A 
ATOM     53  C   UNL     1      -8.936 -10.779   3.771  1.00  0.00     0.049 A 
ATOM     54  H   UNL     1      -8.363 -12.350   5.011  1.00  0.00     0.167 HD
ATOM     55  C   UNL     1      -7.064 -15.553   7.696  1.00  0.00     0.031 A 
ATOM     56  C   UNL     1     -10.214 -11.010   3.414  1.00  0.00     0.031 A 
ATOM     57  C   UNL     1      -8.441 -15.851   7.409  1.00  0.00     0.049 A 
ATOM     58  C   UNL     1     -10.911 -12.249   3.913  1.00  0.00     0.074 A 
ATOM     59  C   UNL     1      -9.219 -16.890   7.889  1.00  0.00     0.029 A 
ATOM     60  N   UNL     1      -9.243 -15.116   6.548  1.00  0.00    -0.354 N 
ATOM     61  N   UNL     1     -10.474 -13.175   4.733  1.00  0.00    -0.248 NA
ATOM     62  C   UNL     1     -12.285 -12.470   3.436  1.00  0.00     0.031 C 
ATOM     63  C   UNL     1     -10.469 -16.824   7.264  1.00  0.00     0.029 A 
ATOM     64  C   UNL     1     -10.496 -15.699   6.455  1.00  0.00     0.049 A 
ATOM     65  H   UNL     1      -8.963 -14.300   6.074  1.00  0.00     0.167 HD
ATOM     66  C   UNL     1     -11.528 -14.067   4.899  1.00  0.00     0.074 A 
ATOM     67  C   UNL     1     -12.628 -13.565   4.102  1.00  0.00     0.031 C 
ATOM     68  C   UNL     1     -11.582 -15.195   5.651  1.00  0.00     0.031 A 
BRANCH  55  69
ATOM     69  C   UNL     1      -6.287 -16.480   8.592  1.00  0.00    -0.014 A 
ATOM     70  C   UNL     1      -5.805 -16.061   9.844  1.00  0.00     0.009 A 
ATOM     71  C   UNL     1      -6.012 -17.789   8.166  1.00  0.00     0.009 A 
ATOM     72  C   UNL     1      -5.016 -16.912  10.621  1.00  0.00     0.001 A 
ATOM     73  C   UNL     1      -5.255 -18.651   8.962  1.00  0.00     0.001 A 
ATOM     74  C   UNL     1      -4.743 -18.206  10.180  1.00  0.00     0.000 A 
ENDBRANCH  55  69
BRANCH  56  75
ATOM     75  C   UNL     1     -10.927 -10.044   2.537  1.00  0.00    -0.014 A 
ATOM     76  C   UNL     1     -11.984  -9.272   3.042  1.00  0.00     0.009 A 
ATOM     77  C   UNL     1     -10.562  -9.892   1.190  1.00  0.00     0.009 A 
ATOM     78  C   UNL     1     -12.670  -8.380   2.215  1.00  0.00     0.001 A 
ATOM     79  C   UNL     1     -11.230  -8.978   0.372  1.00  0.00     0.001 A 
ATOM     80  C   UNL     1     -12.288  -8.228   0.883  1.00  0.00     0.000 A 
ENDBRANCH  56  75
BRANCH  68  81
ATOM     81  C   UNL     1     -12.887 -15.944   5.684  1.00  0.00    -0.014 A 
ATOM     82  C   UNL     1     -13.360 -16.650   4.566  1.00  0.00     0.009 A 
ATOM     83  C   UNL     1     -13.636 -15.978   6.872  1.00  0.00     0.009 A 
ATOM     84  C   UNL     1     -14.572 -17.342   4.628  1.00  0.00     0.001 A 
ATOM     85  C   UNL     1     -14.829 -16.699   6.941  1.00  0.00     0.001 A 
ATOM     86  C   UNL     1     -15.302 -17.372   5.816  1.00  0.00     0.000 A 
ENDBRANCH  68  81
ENDBRANCH  42  43
ENDBRANCH  35  37
ENDBRANCH  34  35
ENDBRANCH  33  34
ENDBRANCH  32  33
ENDBRANCH  31  32
ENDBRANCH  30  31
ENDBRANCH  29  30
ENDBRANCH   1  29
TORSDOF 23
