REMARK SMILES C=CCN(CC(=O)OCCOCCOCCOCCOC(=O)c1ccc(-c2c3nc(c(-c4ccccc4)c4ccc([nH]4)c(-c4ccccc4)c4nc(c(-c5ccccc5)c5ccc2[nH]5)C=C4)C=C3)cc1)C(=O)c1cn(C2C[NH2+]C2)nn1
REMARK SMILES IDX 13 1 12 2 11 3 10 4 9 5 8 6 6 7 7 8 5 9 4 10 3 11 2 12 1 13
REMARK SMILES IDX 71 14 72 15 73 16 74 17 81 18 75 19 80 20 76 21 77 22 79 23
REMARK SMILES IDX 78 24 14 27 15 28 16 29 17 30 18 31 19 32 20 33 21 34 22 35
REMARK SMILES IDX 23 36 24 37 70 38 25 39 69 40 26 41 27 42 28 43 63 44 29 45
REMARK SMILES IDX 68 46 62 47 64 48 30 49 67 50 61 51 60 52 31 54 53 55 38 56
REMARK SMILES IDX 52 57 39 58 42 59 51 60 65 61 40 62 41 63 50 65 66 66 43 67
REMARK SMILES IDX 32 68 33 69 37 70 34 71 36 72 35 73 54 74 55 75 59 76 56 77
REMARK SMILES IDX 58 78 57 79 44 80 45 81 49 82 46 83 48 84 47 85
REMARK H PARENT 78 25 78 26 64 53 42 64
REMARK Flexibility Score: inf
ROOT
ATOM      1  C   UNL     1      -3.938  -0.612   2.566  1.00  0.00     0.188 C 
ENDROOT
BRANCH   1   2
ATOM      2  C   UNL     1      -4.878   0.028   3.596  1.00  0.00     0.188 C 
BRANCH   2   3
ATOM      3  O   UNL     1      -6.221  -0.010   3.127  1.00  0.00    -0.376 OA
BRANCH   3   4
ATOM      4  C   UNL     1      -6.712   1.243   2.662  1.00  0.00     0.202 C 
BRANCH   4   5
ATOM      5  C   UNL     1      -5.966   1.816   1.441  1.00  0.00     0.261 C 
BRANCH   5   6
ATOM      6  O   UNL     1      -4.522   1.922   1.629  1.00  0.00    -0.462 OA
BRANCH   6   7
ATOM      7  C   UNL     1      -4.012   3.059   2.153  1.00  0.00     0.325 C 
ATOM      8  O   UNL     1      -4.681   4.073   2.320  1.00  0.00    -0.250 OA
BRANCH   7   9
ATOM      9  C   UNL     1      -2.514   2.968   2.586  1.00  0.00     0.242 C 
BRANCH   9  10
ATOM     10  N   UNL     1      -1.627   1.782   2.445  1.00  0.00    -0.322 N 
BRANCH  10  11
ATOM     11  C   UNL     1      -1.342   1.301   1.089  1.00  0.00     0.147 C 
BRANCH  11  12
ATOM     12  C   UNL     1       0.119   1.407   0.755  1.00  0.00    -0.014 C 
ATOM     13  C   UNL     1       0.815   0.428   0.155  1.00  0.00     0.006 C 
ENDBRANCH  11  12
ENDBRANCH  10  11
BRANCH  10  14
ATOM     14  C   UNL     1      -1.043   1.062   3.518  1.00  0.00     0.276 C 
ATOM     15  O   UNL     1      -0.273   0.121   3.330  1.00  0.00    -0.267 OA
BRANCH  14  16
ATOM     16  C   UNL     1      -1.493   1.322   4.879  1.00  0.00     0.170 A 
ATOM     17  C   UNL     1      -2.320   0.495   5.608  1.00  0.00     0.145 A 
ATOM     18  N   UNL     1      -1.083   2.346   5.691  1.00  0.00    -0.125 NA
ATOM     19  N   UNL     1      -2.494   1.127   6.799  1.00  0.00    -0.237 N 
ATOM     20  N   UNL     1      -1.674   2.196   6.878  1.00  0.00    -0.066 NA
BRANCH  19  21
ATOM     21  C   UNL     1      -3.557   0.915   7.742  1.00  0.00     0.218 C 
ATOM     22  C   UNL     1      -4.755   1.804   7.335  1.00  0.00     0.294 C 
ATOM     23  C   UNL     1      -4.537  -0.257   7.543  1.00  0.00     0.294 C 
ATOM     24  N   UNL     1      -5.668   0.691   7.643  1.00  0.00    -0.342 N 
ATOM     25  H   UNL     1      -6.397   0.545   6.945  1.00  0.00     0.346 HD
ATOM     26  H   UNL     1      -6.251   0.715   8.479  1.00  0.00     0.346 HD
ENDBRANCH  19  21
ENDBRANCH  14  16
ENDBRANCH  10  14
ENDBRANCH   9  10
ENDBRANCH   7   9
ENDBRANCH   6   7
ENDBRANCH   5   6
ENDBRANCH   4   5
ENDBRANCH   3   4
ENDBRANCH   2   3
ENDBRANCH   1   2
BRANCH   1  27
ATOM     27  O   UNL     1      -3.870  -2.020   2.499  1.00  0.00    -0.377 OA
BRANCH  27  28
ATOM     28  C   UNL     1      -5.037  -2.700   2.869  1.00  0.00     0.188 C 
BRANCH  28  29
ATOM     29  C   UNL     1      -5.113  -3.079   4.359  1.00  0.00     0.188 C 
BRANCH  29  30
ATOM     30  O   UNL     1      -4.033  -2.847   5.265  1.00  0.00    -0.376 OA
BRANCH  30  31
ATOM     31  C   UNL     1      -2.663  -2.969   4.905  1.00  0.00     0.202 C 
BRANCH  31  32
ATOM     32  C   UNL     1      -2.086  -4.346   4.619  1.00  0.00     0.261 C 
BRANCH  32  33
ATOM     33  O   UNL     1      -2.606  -4.886   3.408  1.00  0.00    -0.460 OA
BRANCH  33  34
ATOM     34  C   UNL     1      -3.590  -5.804   3.565  1.00  0.00     0.338 C 
ATOM     35  O   UNL     1      -4.014  -6.278   4.589  1.00  0.00    -0.246 OA
BRANCH  34  36
ATOM     36  C   UNL     1      -4.229  -5.967   2.245  1.00  0.00     0.060 A 
ATOM     37  C   UNL     1      -5.632  -5.949   2.195  1.00  0.00     0.016 A 
ATOM     38  C   UNL     1      -3.462  -6.018   1.079  1.00  0.00     0.016 A 
ATOM     39  C   UNL     1      -6.277  -5.972   0.967  1.00  0.00     0.010 A 
ATOM     40  C   UNL     1      -4.106  -6.101  -0.147  1.00  0.00     0.010 A 
ATOM     41  C   UNL     1      -5.510  -6.111  -0.194  1.00  0.00    -0.014 A 
BRANCH  41  42
ATOM     42  C   UNL     1      -6.154  -6.615  -1.415  1.00  0.00     0.031 A 
ATOM     43  C   UNL     1      -6.221  -8.106  -1.560  1.00  0.00     0.074 A 
ATOM     44  C   UNL     1      -6.611  -5.781  -2.359  1.00  0.00     0.049 A 
ATOM     45  N   UNL     1      -6.614  -8.823  -2.576  1.00  0.00    -0.248 NA
ATOM     46  C   UNL     1      -5.764  -8.895  -0.400  1.00  0.00     0.031 C 
ATOM     47  C   UNL     1      -6.638  -4.322  -2.268  1.00  0.00     0.029 A 
ATOM     48  N   UNL     1      -7.128  -6.057  -3.595  1.00  0.00    -0.354 N 
ATOM     49  C   UNL     1      -6.429 -10.143  -2.183  1.00  0.00     0.074 A 
ATOM     50  C   UNL     1      -5.874 -10.131  -0.852  1.00  0.00     0.031 C 
ATOM     51  C   UNL     1      -7.137  -3.828  -3.415  1.00  0.00     0.029 A 
ATOM     52  C   UNL     1      -7.416  -4.934  -4.328  1.00  0.00     0.049 A 
ATOM     53  H   UNL     1      -7.278  -6.972  -3.926  1.00  0.00     0.167 HD
ATOM     54  C   UNL     1      -6.693 -11.267  -2.884  1.00  0.00     0.031 A 
ATOM     55  C   UNL     1      -7.829  -4.832  -5.604  1.00  0.00     0.031 A 
ATOM     56  C   UNL     1      -7.205 -11.250  -4.223  1.00  0.00     0.049 A 
ATOM     57  C   UNL     1      -8.021  -6.096  -6.401  1.00  0.00     0.074 A 
ATOM     58  C   UNL     1      -7.524 -12.317  -5.039  1.00  0.00     0.029 A 
ATOM     59  N   UNL     1      -7.453 -10.092  -4.948  1.00  0.00    -0.354 N 
ATOM     60  N   UNL     1      -7.878  -7.345  -6.021  1.00  0.00    -0.248 NA
ATOM     61  C   UNL     1      -8.429  -5.939  -7.803  1.00  0.00     0.031 C 
ATOM     62  C   UNL     1      -7.901 -11.805  -6.283  1.00  0.00     0.029 A 
ATOM     63  C   UNL     1      -7.889 -10.419  -6.216  1.00  0.00     0.049 A 
ATOM     64  H   UNL     1      -7.335  -9.176  -4.608  1.00  0.00     0.167 HD
ATOM     65  C   UNL     1      -8.218  -8.121  -7.121  1.00  0.00     0.074 A 
ATOM     66  C   UNL     1      -8.573  -7.201  -8.184  1.00  0.00     0.031 C 
ATOM     67  C   UNL     1      -8.247  -9.472  -7.243  1.00  0.00     0.031 A 
BRANCH  54  68
ATOM     68  C   UNL     1      -6.359 -12.577  -2.230  1.00  0.00    -0.014 A 
ATOM     69  C   UNL     1      -7.062 -13.040  -1.105  1.00  0.00     0.009 A 
ATOM     70  C   UNL     1      -5.303 -13.351  -2.735  1.00  0.00     0.009 A 
ATOM     71  C   UNL     1      -6.683 -14.226  -0.473  1.00  0.00     0.001 A 
ATOM     72  C   UNL     1      -4.949 -14.553  -2.122  1.00  0.00     0.001 A 
ATOM     73  C   UNL     1      -5.630 -14.984  -0.985  1.00  0.00     0.000 A 
ENDBRANCH  54  68
BRANCH  55  74
ATOM     74  C   UNL     1      -8.082  -3.496  -6.205  1.00  0.00    -0.014 A 
ATOM     75  C   UNL     1      -9.389  -3.104  -6.530  1.00  0.00     0.009 A 
ATOM     76  C   UNL     1      -7.026  -2.605  -6.455  1.00  0.00     0.009 A 
ATOM     77  C   UNL     1      -9.631  -1.857  -7.112  1.00  0.00     0.001 A 
ATOM     78  C   UNL     1      -7.274  -1.348  -7.011  1.00  0.00     0.001 A 
ATOM     79  C   UNL     1      -8.575  -0.979  -7.347  1.00  0.00     0.000 A 
ENDBRANCH  55  74
BRANCH  67  80
ATOM     80  C   UNL     1      -8.734 -10.040  -8.545  1.00  0.00    -0.014 A 
ATOM     81  C   UNL     1      -7.944 -10.005  -9.702  1.00  0.00     0.009 A 
ATOM     82  C   UNL     1      -9.969 -10.708  -8.578  1.00  0.00     0.009 A 
ATOM     83  C   UNL     1      -8.392 -10.615 -10.876  1.00  0.00     0.001 A 
ATOM     84  C   UNL     1     -10.399 -11.344  -9.742  1.00  0.00     0.001 A 
ATOM     85  C   UNL     1      -9.613 -11.291 -10.891  1.00  0.00     0.000 A 
ENDBRANCH  67  80
ENDBRANCH  41  42
ENDBRANCH  34  36
ENDBRANCH  33  34
ENDBRANCH  32  33
ENDBRANCH  31  32
ENDBRANCH  30  31
ENDBRANCH  29  30
ENDBRANCH  28  29
ENDBRANCH  27  28
ENDBRANCH   1  27
TORSDOF 26
