REMARK SMILES Cc1cc(C)n(C)c(=O)c1C(=O)[NH+]1CCC2(CC1)C[NH2+][C@@H](C(=O)OCCOCCOCCOCCOC(=O)c1ccc(-c3c4nc(c(-c5ccccc5)c5ccc([nH]5)c(-c5ccccc5)c5nc(c(-c6ccccc6)c6ccc3[nH]6)C=C5)C=C4)cc1)C2
REMARK SMILES IDX 30 1 29 2 28 3 27 4 26 5 25 6 24 7 22 8 23 9 21 10 13 11
REMARK SMILES IDX 14 12 18 13 15 15 17 16 16 17 19 18 87 19 20 20 11 23 12 24
REMARK SMILES IDX 10 25 1 26 2 27 3 28 4 29 8 30 5 31 6 32 9 33 7 34 31 35
REMARK SMILES IDX 32 36 33 37 34 38 35 39 36 40 37 41 38 42 39 43 40 44 86 45
REMARK SMILES IDX 41 46 85 47 42 48 43 49 44 50 79 51 45 52 84 53 78 54 80 55
REMARK SMILES IDX 46 56 83 57 77 58 76 59 47 61 69 62 54 63 68 64 55 65 58 66
REMARK SMILES IDX 67 67 81 68 56 69 57 70 66 72 82 73 59 74 48 75 49 76 53 77
REMARK SMILES IDX 50 78 52 79 51 80 70 81 71 82 75 83 72 84 74 85 73 86 60 87
REMARK SMILES IDX 61 88 65 89 62 90 64 91 63 92
REMARK H PARENT 13 14 20 21 20 22 80 60 58 71
REMARK Flexibility Score: inf
ROOT
ATOM      1  O   UNL     1       7.457  -3.478  -2.297  1.00  0.00    -0.377 OA
ENDROOT
BRANCH   1   2
ATOM      2  C   UNL     1       7.811  -2.794  -1.115  1.00  0.00     0.188 C 
BRANCH   2   3
ATOM      3  C   UNL     1       8.490  -3.670  -0.052  1.00  0.00     0.188 C 
BRANCH   3   4
ATOM      4  O   UNL     1       9.085  -4.915  -0.403  1.00  0.00    -0.376 OA
BRANCH   4   5
ATOM      5  C   UNL     1       8.426  -5.816  -1.284  1.00  0.00     0.202 C 
BRANCH   5   6
ATOM      6  C   UNL     1       6.956  -6.212  -1.067  1.00  0.00     0.261 C 
BRANCH   6   7
ATOM      7  O   UNL     1       6.115  -5.177  -0.542  1.00  0.00    -0.459 OA
BRANCH   7   8
ATOM      8  C   UNL     1       5.685  -5.340   0.734  1.00  0.00     0.364 C 
ATOM      9  O   UNL     1       5.915  -6.325   1.429  1.00  0.00    -0.245 OA
BRANCH   8  10
ATOM     10  C   UNL     1       4.869  -4.150   1.254  1.00  0.00     0.294 C 
ATOM     11  N   UNL     1       3.281   0.737   0.121  1.00  0.00    -0.267 N 
ATOM     12  C   UNL     1       4.328   0.345   1.052  1.00  0.00     0.271 C 
ATOM     13  C   UNL     1       3.087  -0.209  -0.973  1.00  0.00     0.271 C 
ATOM     14  H   UNL     1       2.414   0.373  -0.170  1.00  0.00     0.357 HD
ATOM     15  C   UNL     1       3.869  -0.913   1.779  1.00  0.00     0.075 C 
ATOM     16  C   UNL     1       2.871  -1.663  -0.494  1.00  0.00     0.075 C 
ATOM     17  C   UNL     1       3.591  -2.098   0.823  1.00  0.00     0.036 C 
ATOM     18  C   UNL     1       2.792  -3.188   1.582  1.00  0.00     0.268 C 
ATOM     19  C   UNL     1       4.907  -2.832   0.496  1.00  0.00     0.090 C 
ATOM     20  N   UNL     1       3.430  -4.457   1.244  1.00  0.00    -0.334 N 
ATOM     21  H   UNL     1       3.135  -4.776   0.322  1.00  0.00     0.347 HD
ATOM     22  H   UNL     1       3.185  -5.203   1.895  1.00  0.00     0.347 HD
BRANCH  11  23
ATOM     23  C   UNL     1       2.721   2.002   0.282  1.00  0.00     0.350 C 
ATOM     24  O   UNL     1       3.357   2.872   0.885  1.00  0.00    -0.225 OA
BRANCH  23  25
ATOM     25  C   UNL     1       1.296   2.312  -0.118  1.00  0.00     0.147 A 
ATOM     26  C   UNL     1       0.276   0.052   0.537  1.00  0.00     0.045 C 
ATOM     27  C   UNL     1       0.258   1.456   0.024  1.00  0.00    -0.027 A 
ATOM     28  C   UNL     1      -1.105   1.888  -0.204  1.00  0.00     0.026 A 
ATOM     29  C   UNL     1      -1.434   3.182  -0.271  1.00  0.00     0.018 A 
ATOM     30  C   UNL     1       0.938   3.772  -0.382  1.00  0.00     0.267 A 
ATOM     31  C   UNL     1      -2.892   3.547  -0.332  1.00  0.00     0.064 C 
ATOM     32  N   UNL     1      -0.424   4.133  -0.291  1.00  0.00    -0.315 N 
ATOM     33  O   UNL     1       1.810   4.598  -0.649  1.00  0.00    -0.268 OA
ATOM     34  C   UNL     1      -0.753   5.553  -0.267  1.00  0.00     0.153 C 
ENDBRANCH  23  25
ENDBRANCH  11  23
ENDBRANCH   8  10
ENDBRANCH   7   8
ENDBRANCH   6   7
ENDBRANCH   5   6
ENDBRANCH   4   5
ENDBRANCH   3   4
ENDBRANCH   2   3
ENDBRANCH   1   2
BRANCH   1  35
ATOM     35  C   UNL     1       8.243  -3.153  -3.434  1.00  0.00     0.188 C 
BRANCH  35  36
ATOM     36  C   UNL     1       9.771  -3.028  -3.227  1.00  0.00     0.188 C 
BRANCH  36  37
ATOM     37  O   UNL     1      10.165  -2.165  -2.167  1.00  0.00    -0.376 OA
BRANCH  37  38
ATOM     38  C   UNL     1      10.491  -0.811  -2.456  1.00  0.00     0.202 C 
BRANCH  38  39
ATOM     39  C   UNL     1       9.385   0.124  -2.983  1.00  0.00     0.261 C 
BRANCH  39  40
ATOM     40  O   UNL     1       8.706  -0.291  -4.177  1.00  0.00    -0.460 OA
BRANCH  40  41
ATOM     41  C   UNL     1       9.445  -0.492  -5.286  1.00  0.00     0.338 C 
ATOM     42  O   UNL     1      10.640  -0.288  -5.421  1.00  0.00    -0.246 OA
BRANCH  41  43
ATOM     43  C   UNL     1       8.607  -1.224  -6.259  1.00  0.00     0.060 A 
ATOM     44  C   UNL     1       9.028  -2.490  -6.691  1.00  0.00     0.016 A 
ATOM     45  C   UNL     1       7.411  -0.679  -6.731  1.00  0.00     0.016 A 
ATOM     46  C   UNL     1       8.276  -3.199  -7.625  1.00  0.00     0.010 A 
ATOM     47  C   UNL     1       6.678  -1.371  -7.699  1.00  0.00     0.010 A 
ATOM     48  C   UNL     1       7.131  -2.614  -8.177  1.00  0.00    -0.014 A 
BRANCH  48  49
ATOM     49  C   UNL     1       6.580  -3.161  -9.438  1.00  0.00     0.031 A 
ATOM     50  C   UNL     1       7.079  -2.573 -10.729  1.00  0.00     0.074 A 
ATOM     51  C   UNL     1       5.704  -4.179  -9.451  1.00  0.00     0.049 A 
ATOM     52  N   UNL     1       6.716  -2.833 -11.958  1.00  0.00    -0.248 NA
ATOM     53  C   UNL     1       8.140  -1.557 -10.615  1.00  0.00     0.031 C 
ATOM     54  C   UNL     1       5.220  -4.901  -8.277  1.00  0.00     0.029 A 
ATOM     55  N   UNL     1       5.071  -4.784 -10.508  1.00  0.00    -0.354 N 
ATOM     56  C   UNL     1       7.503  -2.014 -12.759  1.00  0.00     0.074 A 
ATOM     57  C   UNL     1       8.334  -1.224 -11.880  1.00  0.00     0.031 C 
ATOM     58  C   UNL     1       4.364  -5.858  -8.680  1.00  0.00     0.029 A 
ATOM     59  C   UNL     1       4.209  -5.784 -10.133  1.00  0.00     0.049 A 
ATOM     60  H   UNL     1       5.221  -4.525 -11.446  1.00  0.00     0.167 HD
ATOM     61  C   UNL     1       7.539  -1.933 -14.109  1.00  0.00     0.031 A 
ATOM     62  C   UNL     1       3.378  -6.538 -10.879  1.00  0.00     0.031 A 
ATOM     63  C   UNL     1       6.688  -2.693 -14.983  1.00  0.00     0.049 A 
ATOM     64  C   UNL     1       3.325  -6.326 -12.370  1.00  0.00     0.074 A 
ATOM     65  C   UNL     1       6.617  -2.657 -16.363  1.00  0.00     0.029 A 
ATOM     66  N   UNL     1       5.755  -3.626 -14.556  1.00  0.00    -0.354 N 
ATOM     67  N   UNL     1       4.048  -5.528 -13.119  1.00  0.00    -0.248 NA
ATOM     68  C   UNL     1       2.339  -7.122 -13.116  1.00  0.00     0.031 C 
ATOM     69  C   UNL     1       5.599  -3.525 -16.769  1.00  0.00     0.029 A 
ATOM     70  C   UNL     1       5.085  -4.154 -15.646  1.00  0.00     0.049 A 
ATOM     71  H   UNL     1       5.594  -3.875 -13.617  1.00  0.00     0.167 HD
ATOM     72  C   UNL     1       3.624  -5.745 -14.426  1.00  0.00     0.074 A 
ATOM     73  C   UNL     1       2.593  -6.760 -14.367  1.00  0.00     0.031 C 
ATOM     74  C   UNL     1       4.053  -5.157 -15.571  1.00  0.00     0.031 A 
BRANCH  61  75
ATOM     75  C   UNL     1       8.511  -0.958 -14.712  1.00  0.00    -0.014 A 
ATOM     76  C   UNL     1       9.896  -1.181 -14.655  1.00  0.00     0.009 A 
ATOM     77  C   UNL     1       8.036   0.193 -15.359  1.00  0.00     0.009 A 
ATOM     78  C   UNL     1      10.786  -0.256 -15.203  1.00  0.00     0.001 A 
ATOM     79  C   UNL     1       8.927   1.101 -15.935  1.00  0.00     0.001 A 
ATOM     80  C   UNL     1      10.300   0.880 -15.849  1.00  0.00     0.000 A 
ENDBRANCH  61  75
BRANCH  62  81
ATOM     81  C   UNL     1       2.525  -7.567 -10.227  1.00  0.00    -0.014 A 
ATOM     82  C   UNL     1       2.771  -8.932 -10.444  1.00  0.00     0.009 A 
ATOM     83  C   UNL     1       1.470  -7.196  -9.379  1.00  0.00     0.009 A 
ATOM     84  C   UNL     1       1.974  -9.902  -9.832  1.00  0.00     0.001 A 
ATOM     85  C   UNL     1       0.692  -8.168  -8.745  1.00  0.00     0.001 A 
ATOM     86  C   UNL     1       0.942  -9.520  -8.976  1.00  0.00     0.000 A 
ENDBRANCH  62  81
BRANCH  74  87
ATOM     87  C   UNL     1       3.427  -5.610 -16.863  1.00  0.00    -0.014 A 
ATOM     88  C   UNL     1       2.101  -5.284 -17.186  1.00  0.00     0.009 A 
ATOM     89  C   UNL     1       4.199  -6.317 -17.800  1.00  0.00     0.009 A 
ATOM     90  C   UNL     1       1.552  -5.684 -18.406  1.00  0.00     0.001 A 
ATOM     91  C   UNL     1       3.658  -6.686 -19.033  1.00  0.00     0.001 A 
ATOM     92  C   UNL     1       2.333  -6.377 -19.331  1.00  0.00     0.000 A 
ENDBRANCH  74  87
ENDBRANCH  48  49
ENDBRANCH  41  43
ENDBRANCH  40  41
ENDBRANCH  39  40
ENDBRANCH  38  39
ENDBRANCH  37  38
ENDBRANCH  36  37
ENDBRANCH  35  36
ENDBRANCH   1  35
TORSDOF 22
