REMARK SMILES O=C(CS[C@@H]1CCS(=O)(=O)C1)Nc1nc(CC(=O)OCCOCCOCCOCCOC(=O)c2ccc(-c3c4nc(c(-c5ccccc5)c5ccc([nH]5)c(-c5ccccc5)c5nc(c(-c6ccccc6)c6ccc3[nH]6)C=C5)C=C4)cc2)cs1
REMARK SMILES IDX 23 1 22 2 21 3 20 4 19 5 17 6 18 7 16 8 15 9 13 10 14 11
REMARK SMILES IDX 83 12 82 13 12 14 1 15 2 16 3 18 4 19 5 20 6 21 11 22 7 23
REMARK SMILES IDX 8 24 9 25 10 26 24 27 25 28 26 29 27 30 28 31 29 32 30 33
REMARK SMILES IDX 31 34 32 35 33 36 34 37 35 38 81 39 36 40 80 41 37 42 38 43
REMARK SMILES IDX 39 44 74 45 40 46 79 47 73 48 75 49 41 50 78 51 72 52 71 53
REMARK SMILES IDX 42 55 64 56 49 57 63 58 50 59 53 60 62 61 76 62 51 63 52 64
REMARK SMILES IDX 61 66 77 67 54 68 43 69 44 70 48 71 45 72 47 73 46 74 65 75
REMARK SMILES IDX 66 76 70 77 67 78 69 79 68 80 55 81 56 82 60 83 57 84 59 85
REMARK SMILES IDX 58 86
REMARK H PARENT 12 17 75 54 53 65
REMARK Flexibility Score: inf
ROOT
ATOM      1  C   UNL     1       0.137   0.435   7.740  1.00  0.00     0.188 C 
ENDROOT
BRANCH   1   2
ATOM      2  O   UNL     1       0.024  -0.628   8.675  1.00  0.00    -0.376 OA
BRANCH   2   3
ATOM      3  C   UNL     1       0.637  -1.878   8.401  1.00  0.00     0.202 C 
BRANCH   3   4
ATOM      4  C   UNL     1       0.296  -2.635   7.098  1.00  0.00     0.261 C 
BRANCH   4   5
ATOM      5  O   UNL     1       0.342  -1.896   5.851  1.00  0.00    -0.463 OA
BRANCH   5   6
ATOM      6  C   UNL     1      -0.840  -1.679   5.223  1.00  0.00     0.311 C 
ATOM      7  O   UNL     1      -1.916  -2.078   5.670  1.00  0.00    -0.252 OA
BRANCH   6   8
ATOM      8  C   UNL     1      -0.813  -0.896   3.920  1.00  0.00     0.179 C 
BRANCH   8   9
ATOM      9  C   UNL     1       0.431  -0.209   3.432  1.00  0.00     0.065 A 
ATOM     10  C   UNL     1       2.162   0.005   2.072  1.00  0.00     0.189 A 
ATOM     11  N   UNL     1       1.181  -0.794   2.414  1.00  0.00    -0.224 NA
ATOM     12  S   UNL     1       2.372   1.395   3.034  1.00  0.00    -0.105 S 
ATOM     13  C   UNL     1       0.817   1.100   3.697  1.00  0.00     0.093 A 
BRANCH  10  14
ATOM     14  N   UNL     1       2.965  -0.023   0.964  1.00  0.00    -0.301 N 
ATOM     15  O   UNL     1       1.280  -0.795  -0.443  1.00  0.00    -0.274 OA
ATOM     16  C   UNL     1       2.434  -0.420  -0.246  1.00  0.00     0.236 C 
ATOM     17  H   UNL     1       3.912   0.237   1.030  1.00  0.00     0.172 HD
BRANCH  16  18
ATOM     18  C   UNL     1       3.389  -0.303  -1.419  1.00  0.00     0.170 C 
BRANCH  18  19
ATOM     19  S   UNL     1       4.237   1.312  -1.532  1.00  0.00    -0.148 SA
BRANCH  19  20
ATOM     20  C   UNL     1       2.838   2.467  -1.880  1.00  0.00     0.063 C 
ATOM     21  C   UNL     1       3.381   3.765  -2.511  1.00  0.00     0.031 C 
ATOM     22  C   UNL     1       2.105   2.949  -0.632  1.00  0.00     0.151 C 
ATOM     23  C   UNL     1       4.012   4.623  -1.409  1.00  0.00     0.138 C 
ATOM     24  S   UNL     1       3.179   4.165   0.104  1.00  0.00     0.151 S 
ATOM     25  O   UNL     1       4.119   3.484   0.972  1.00  0.00    -0.229 OA
ATOM     26  O   UNL     1       2.374   5.273   0.571  1.00  0.00    -0.229 OA
ENDBRANCH  19  20
ENDBRANCH  18  19
ENDBRANCH  16  18
ENDBRANCH  10  14
ENDBRANCH   8   9
ENDBRANCH   6   8
ENDBRANCH   5   6
ENDBRANCH   4   5
ENDBRANCH   3   4
ENDBRANCH   2   3
ENDBRANCH   1   2
BRANCH   1  27
ATOM     27  C   UNL     1       1.363   0.535   6.822  1.00  0.00     0.188 C 
BRANCH  27  28
ATOM     28  O   UNL     1       2.400  -0.391   7.058  1.00  0.00    -0.377 OA
BRANCH  28  29
ATOM     29  C   UNL     1       3.516   0.063   7.796  1.00  0.00     0.188 C 
BRANCH  29  30
ATOM     30  C   UNL     1       3.236   1.013   8.968  1.00  0.00     0.188 C 
BRANCH  30  31
ATOM     31  O   UNL     1       2.481   2.161   8.598  1.00  0.00    -0.376 OA
BRANCH  31  32
ATOM     32  C   UNL     1       3.173   3.371   8.320  1.00  0.00     0.202 C 
BRANCH  32  33
ATOM     33  C   UNL     1       4.014   3.436   7.033  1.00  0.00     0.261 C 
BRANCH  33  34
ATOM     34  O   UNL     1       5.076   2.479   6.900  1.00  0.00    -0.460 OA
BRANCH  34  35
ATOM     35  C   UNL     1       6.025   2.436   7.862  1.00  0.00     0.338 C 
ATOM     36  O   UNL     1       6.130   3.161   8.824  1.00  0.00    -0.246 OA
BRANCH  35  37
ATOM     37  C   UNL     1       6.815   1.200   7.647  1.00  0.00     0.060 A 
ATOM     38  C   UNL     1       6.857   0.241   8.668  1.00  0.00     0.016 A 
ATOM     39  C   UNL     1       7.492   0.982   6.445  1.00  0.00     0.016 A 
ATOM     40  C   UNL     1       7.606  -0.925   8.502  1.00  0.00     0.010 A 
ATOM     41  C   UNL     1       8.263  -0.174   6.290  1.00  0.00     0.010 A 
ATOM     42  C   UNL     1       8.349  -1.117   7.331  1.00  0.00    -0.014 A 
BRANCH  42  43
ATOM     43  C   UNL     1       9.373  -2.189   7.277  1.00  0.00     0.031 A 
ATOM     44  C   UNL     1      10.801  -1.825   7.579  1.00  0.00     0.074 A 
ATOM     45  C   UNL     1       9.049  -3.461   6.983  1.00  0.00     0.049 A 
ATOM     46  N   UNL     1      11.874  -2.572   7.556  1.00  0.00    -0.248 NA
ATOM     47  C   UNL     1      11.050  -0.423   7.956  1.00  0.00     0.031 C 
ATOM     48  C   UNL     1       7.699  -3.953   6.718  1.00  0.00     0.029 A 
ATOM     49  N   UNL     1       9.847  -4.571   6.852  1.00  0.00    -0.354 N 
ATOM     50  C   UNL     1      12.924  -1.731   7.902  1.00  0.00     0.074 A 
ATOM     51  C   UNL     1      12.366  -0.412   8.102  1.00  0.00     0.031 C 
ATOM     52  C   UNL     1       7.764  -5.269   6.443  1.00  0.00     0.029 A 
ATOM     53  C   UNL     1       9.161  -5.700   6.479  1.00  0.00     0.049 A 
ATOM     54  H   UNL     1      10.818  -4.558   7.011  1.00  0.00     0.167 HD
ATOM     55  C   UNL     1      14.238  -2.028   8.042  1.00  0.00     0.031 A 
ATOM     56  C   UNL     1       9.613  -6.933   6.175  1.00  0.00     0.031 A 
ATOM     57  C   UNL     1      14.797  -3.335   7.822  1.00  0.00     0.049 A 
ATOM     58  C   UNL     1      11.090  -7.221   6.257  1.00  0.00     0.074 A 
ATOM     59  C   UNL     1      16.112  -3.742   7.956  1.00  0.00     0.029 A 
ATOM     60  N   UNL     1      14.073  -4.442   7.408  1.00  0.00    -0.354 N 
ATOM     61  N   UNL     1      12.071  -6.427   6.617  1.00  0.00    -0.248 NA
ATOM     62  C   UNL     1      11.522  -8.580   5.896  1.00  0.00     0.031 C 
ATOM     63  C   UNL     1      16.197  -5.079   7.555  1.00  0.00     0.029 A 
ATOM     64  C   UNL     1      14.921  -5.525   7.246  1.00  0.00     0.049 A 
ATOM     65  H   UNL     1      13.101  -4.457   7.253  1.00  0.00     0.167 HD
ATOM     66  C   UNL     1      13.227  -7.198   6.558  1.00  0.00     0.074 A 
ATOM     67  C   UNL     1      12.824  -8.525   6.142  1.00  0.00     0.031 C 
ATOM     68  C   UNL     1      14.507  -6.840   6.829  1.00  0.00     0.031 A 
BRANCH  55  69
ATOM     69  C   UNL     1      15.166  -0.902   8.402  1.00  0.00    -0.014 A 
ATOM     70  C   UNL     1      15.138  -0.302   9.672  1.00  0.00     0.009 A 
ATOM     71  C   UNL     1      16.102  -0.447   7.459  1.00  0.00     0.009 A 
ATOM     72  C   UNL     1      16.000   0.755   9.974  1.00  0.00     0.001 A 
ATOM     73  C   UNL     1      16.984   0.586   7.775  1.00  0.00     0.001 A 
ATOM     74  C   UNL     1      16.926   1.194   9.027  1.00  0.00     0.000 A 
ENDBRANCH  55  69
BRANCH  56  75
ATOM     75  C   UNL     1       8.662  -7.990   5.736  1.00  0.00    -0.014 A 
ATOM     76  C   UNL     1       8.420  -9.119   6.533  1.00  0.00     0.009 A 
ATOM     77  C   UNL     1       8.007  -7.885   4.498  1.00  0.00     0.009 A 
ATOM     78  C   UNL     1       7.564 -10.131   6.089  1.00  0.00     0.001 A 
ATOM     79  C   UNL     1       7.127  -8.883   4.071  1.00  0.00     0.001 A 
ATOM     80  C   UNL     1       6.915 -10.009   4.862  1.00  0.00     0.000 A 
ENDBRANCH  56  75
BRANCH  68  81
ATOM     81  C   UNL     1      15.563  -7.908   6.727  1.00  0.00    -0.014 A 
ATOM     82  C   UNL     1      15.965  -8.430   5.488  1.00  0.00     0.009 A 
ATOM     83  C   UNL     1      16.203  -8.360   7.893  1.00  0.00     0.009 A 
ATOM     84  C   UNL     1      16.959  -9.410   5.423  1.00  0.00     0.001 A 
ATOM     85  C   UNL     1      17.220  -9.314   7.822  1.00  0.00     0.001 A 
ATOM     86  C   UNL     1      17.589  -9.845   6.588  1.00  0.00     0.000 A 
ENDBRANCH  68  81
ENDBRANCH  42  43
ENDBRANCH  35  37
ENDBRANCH  34  35
ENDBRANCH  33  34
ENDBRANCH  32  33
ENDBRANCH  31  32
ENDBRANCH  30  31
ENDBRANCH  29  30
ENDBRANCH  28  29
ENDBRANCH  27  28
ENDBRANCH   1  27
TORSDOF 25
