REMARK SMILES C=C(C(=O)OCCOCCOCCOCCOC(=O)c1ccc(-c2c3nc(c(-c4ccccc4)c4ccc([nH]4)c(-c4ccccc4)c4nc(c(-c5ccccc5)c5ccc2[nH]5)C=C4)C=C3)cc1)[C@@H]1CC[C@]2(C)C[C@@H](O)CC(=C)[C@H]2C1
REMARK SMILES IDX 11 1 10 2 9 3 8 4 7 5 6 6 5 7 3 8 4 9 2 10 1 11 68 12 69 13
REMARK SMILES IDX 80 14 70 15 79 16 71 17 77 18 72 19 73 20 76 21 78 22 74 23
REMARK SMILES IDX 75 24 12 26 13 27 14 28 15 29 16 30 17 31 18 32 19 33 20 34
REMARK SMILES IDX 21 35 67 36 22 37 66 38 23 39 24 40 25 41 60 42 26 43 65 44
REMARK SMILES IDX 59 45 61 46 27 47 64 48 58 49 57 50 28 52 50 53 35 54 49 55
REMARK SMILES IDX 36 56 39 57 48 58 62 59 37 60 38 61 47 63 63 64 40 65 29 66
REMARK SMILES IDX 30 67 34 68 31 69 33 70 32 71 51 72 52 73 56 74 53 75 55 76
REMARK SMILES IDX 54 77 41 78 42 79 46 80 43 81 45 82 44 83
REMARK H PARENT 75 25 61 51 39 62
REMARK Flexibility Score: inf
ROOT
ATOM      1  O   UNL     1      -2.253  -2.390  -2.045  1.00  0.00    -0.377 OA
ENDROOT
BRANCH   1   2
ATOM      2  C   UNL     1      -1.597  -2.041  -0.836  1.00  0.00     0.188 C 
BRANCH   2   3
ATOM      3  C   UNL     1      -2.387  -1.804   0.464  1.00  0.00     0.188 C 
BRANCH   3   4
ATOM      4  O   UNL     1      -3.627  -1.123   0.317  1.00  0.00    -0.376 OA
BRANCH   4   5
ATOM      5  C   UNL     1      -3.735   0.123   0.993  1.00  0.00     0.202 C 
BRANCH   5   6
ATOM      6  C   UNL     1      -2.971   1.227   0.258  1.00  0.00     0.261 C 
BRANCH   6   7
ATOM      7  O   UNL     1      -1.554   0.975   0.234  1.00  0.00    -0.460 OA
BRANCH   7   8
ATOM      8  C   UNL     1      -0.902   1.053   1.426  1.00  0.00     0.333 C 
ATOM      9  O   UNL     1      -1.378   1.513   2.448  1.00  0.00    -0.247 OA
BRANCH   8  10
ATOM     10  C   UNL     1       0.419   0.349   1.321  1.00  0.00     0.033 C 
ATOM     11  C   UNL     1       1.085   0.522   0.159  1.00  0.00     0.020 C 
BRANCH  10  12
ATOM     12  C   UNL     1       1.032  -0.430   2.498  1.00  0.00     0.026 C 
ATOM     13  C   UNL     1       1.626  -1.816   2.110  1.00  0.00     0.009 C 
ATOM     14  C   UNL     1       0.231  -0.568   3.819  1.00  0.00     0.017 C 
ATOM     15  C   UNL     1       0.678  -3.015   2.228  1.00  0.00     0.008 C 
ATOM     16  C   UNL     1      -0.786  -1.728   3.819  1.00  0.00     0.021 C 
ATOM     17  C   UNL     1      -0.109  -3.104   3.560  1.00  0.00    -0.024 C 
ATOM     18  C   UNL     1      -1.742  -1.823   4.995  1.00  0.00    -0.071 C 
ATOM     19  C   UNL     1       0.874  -3.490   4.691  1.00  0.00     0.012 C 
ATOM     20  C   UNL     1      -1.188  -4.230   3.419  1.00  0.00     0.039 C 
ATOM     21  C   UNL     1      -2.869  -2.809   4.750  1.00  0.00     0.062 C 
ATOM     22  C   UNL     1      -1.653  -1.118   6.133  1.00  0.00     0.008 C 
ATOM     23  C   UNL     1      -2.325  -4.213   4.454  1.00  0.00     0.119 C 
BRANCH  23  24
ATOM     24  O   UNL     1      -1.903  -4.856   5.657  1.00  0.00    -0.393 OA
ATOM     25  H   UNL     1      -1.165  -4.361   6.046  1.00  0.00     0.210 HD
ENDBRANCH  23  24
ENDBRANCH  10  12
ENDBRANCH   8  10
ENDBRANCH   7   8
ENDBRANCH   6   7
ENDBRANCH   5   6
ENDBRANCH   4   5
ENDBRANCH   3   4
ENDBRANCH   2   3
ENDBRANCH   1   2
BRANCH   1  26
ATOM     26  C   UNL     1      -3.658  -2.536  -2.000  1.00  0.00     0.188 C 
BRANCH  26  27
ATOM     27  C   UNL     1      -4.181  -3.723  -1.168  1.00  0.00     0.188 C 
BRANCH  27  28
ATOM     28  O   UNL     1      -3.168  -4.397  -0.421  1.00  0.00    -0.376 OA
BRANCH  28  29
ATOM     29  C   UNL     1      -2.866  -5.725  -0.828  1.00  0.00     0.202 C 
BRANCH  29  30
ATOM     30  C   UNL     1      -1.936  -5.816  -2.042  1.00  0.00     0.261 C 
BRANCH  30  31
ATOM     31  O   UNL     1      -2.419  -5.180  -3.234  1.00  0.00    -0.460 OA
BRANCH  31  32
ATOM     32  C   UNL     1      -3.572  -5.625  -3.779  1.00  0.00     0.338 C 
ATOM     33  O   UNL     1      -4.254  -6.563  -3.408  1.00  0.00    -0.246 OA
BRANCH  32  34
ATOM     34  C   UNL     1      -3.980  -4.617  -4.780  1.00  0.00     0.060 A 
ATOM     35  C   UNL     1      -5.250  -4.029  -4.676  1.00  0.00     0.016 A 
ATOM     36  C   UNL     1      -3.062  -4.157  -5.728  1.00  0.00     0.016 A 
ATOM     37  C   UNL     1      -5.583  -2.943  -5.489  1.00  0.00     0.010 A 
ATOM     38  C   UNL     1      -3.415  -3.107  -6.574  1.00  0.00     0.010 A 
ATOM     39  C   UNL     1      -4.675  -2.496  -6.459  1.00  0.00    -0.014 A 
BRANCH  39  40
ATOM     40  C   UNL     1      -5.102  -1.545  -7.508  1.00  0.00     0.031 A 
ATOM     41  C   UNL     1      -5.740  -2.122  -8.739  1.00  0.00     0.074 A 
ATOM     42  C   UNL     1      -4.865  -0.225  -7.412  1.00  0.00     0.049 A 
ATOM     43  N   UNL     1      -6.078  -1.529  -9.853  1.00  0.00    -0.248 NA
ATOM     44  C   UNL     1      -6.024  -3.568  -8.711  1.00  0.00     0.031 C 
ATOM     45  C   UNL     1      -4.279   0.455  -6.257  1.00  0.00     0.029 A 
ATOM     46  N   UNL     1      -5.068   0.780  -8.327  1.00  0.00    -0.354 N 
ATOM     47  C   UNL     1      -6.599  -2.531 -10.661  1.00  0.00     0.074 A 
ATOM     48  C   UNL     1      -6.530  -3.767  -9.918  1.00  0.00     0.031 C 
ATOM     49  C   UNL     1      -4.140   1.762  -6.547  1.00  0.00     0.029 A 
ATOM     50  C   UNL     1      -4.590   2.002  -7.918  1.00  0.00     0.049 A 
ATOM     51  H   UNL     1      -5.513   0.638  -9.193  1.00  0.00     0.167 HD
ATOM     52  C   UNL     1      -7.080  -2.431 -11.920  1.00  0.00     0.031 A 
ATOM     53  C   UNL     1      -4.489   3.165  -8.593  1.00  0.00     0.031 A 
ATOM     54  C   UNL     1      -7.122  -1.208 -12.670  1.00  0.00     0.049 A 
ATOM     55  C   UNL     1      -4.958   3.228 -10.027  1.00  0.00     0.074 A 
ATOM     56  C   UNL     1      -7.628  -0.996 -13.939  1.00  0.00     0.029 A 
ATOM     57  N   UNL     1      -6.617   0.002 -12.225  1.00  0.00    -0.354 N 
ATOM     58  N   UNL     1      -5.512   2.291 -10.759  1.00  0.00    -0.248 NA
ATOM     59  C   UNL     1      -4.780   4.509 -10.729  1.00  0.00     0.031 C 
ATOM     60  C   UNL     1      -7.370   0.332 -14.289  1.00  0.00     0.029 A 
ATOM     61  C   UNL     1      -6.757   0.958 -13.214  1.00  0.00     0.049 A 
ATOM     62  H   UNL     1      -6.218   0.158 -11.339  1.00  0.00     0.167 HD
ATOM     63  C   UNL     1      -5.767   2.875 -11.995  1.00  0.00     0.074 A 
ATOM     64  C   UNL     1      -5.325   4.250 -11.910  1.00  0.00     0.031 C 
ATOM     65  C   UNL     1      -6.314   2.322 -13.105  1.00  0.00     0.031 A 
BRANCH  52  66
ATOM     66  C   UNL     1      -7.553  -3.691 -12.582  1.00  0.00    -0.014 A 
ATOM     67  C   UNL     1      -8.762  -4.299 -12.214  1.00  0.00     0.009 A 
ATOM     68  C   UNL     1      -6.790  -4.254 -13.617  1.00  0.00     0.009 A 
ATOM     69  C   UNL     1      -9.190  -5.460 -12.860  1.00  0.00     0.001 A 
ATOM     70  C   UNL     1      -7.233  -5.400 -14.276  1.00  0.00     0.001 A 
ATOM     71  C   UNL     1      -8.429  -6.005 -13.895  1.00  0.00     0.000 A 
ENDBRANCH  52  66
BRANCH  53  72
ATOM     72  C   UNL     1      -3.864   4.359  -7.962  1.00  0.00    -0.014 A 
ATOM     73  C   UNL     1      -4.621   5.508  -7.685  1.00  0.00     0.009 A 
ATOM     74  C   UNL     1      -2.486   4.378  -7.690  1.00  0.00     0.009 A 
ATOM     75  C   UNL     1      -4.007   6.659  -7.183  1.00  0.00     0.001 A 
ATOM     76  C   UNL     1      -1.880   5.520  -7.159  1.00  0.00     0.001 A 
ATOM     77  C   UNL     1      -2.639   6.663  -6.918  1.00  0.00     0.000 A 
ENDBRANCH  53  72
BRANCH  65  78
ATOM     78  C   UNL     1      -6.492   3.205 -14.308  1.00  0.00    -0.014 A 
ATOM     79  C   UNL     1      -5.397   3.583 -15.098  1.00  0.00     0.009 A 
ATOM     80  C   UNL     1      -7.783   3.597 -14.696  1.00  0.00     0.009 A 
ATOM     81  C   UNL     1      -5.590   4.357 -16.244  1.00  0.00     0.001 A 
ATOM     82  C   UNL     1      -7.975   4.346 -15.858  1.00  0.00     0.001 A 
ATOM     83  C   UNL     1      -6.878   4.730 -16.627  1.00  0.00     0.000 A 
ENDBRANCH  65  78
ENDBRANCH  39  40
ENDBRANCH  32  34
ENDBRANCH  31  32
ENDBRANCH  30  31
ENDBRANCH  29  30
ENDBRANCH  28  29
ENDBRANCH  27  28
ENDBRANCH  26  27
ENDBRANCH   1  26
TORSDOF 22
