REMARK SMILES CCCCCCNC(=O)Nc1cccc(-c2ccc([C@@H](C)C(=O)OCCOCCOCCOCCOC(=O)c3ccc(-c4c5nc(c(-c6ccccc6)c6ccc([nH]6)c(-c6ccccc6)c6nc(c(-c7ccccc7)c7ccc4[nH]7)C=C6)C=C5)cc3)cc2F)c1
REMARK SMILES IDX 27 1 26 2 25 3 24 4 22 5 23 6 20 7 21 8 19 9 16 10 17 11
REMARK SMILES IDX 88 12 18 13 87 14 89 15 15 16 11 17 12 18 90 19 13 20 14 21
REMARK SMILES IDX 10 22 7 23 8 24 9 26 6 28 5 29 4 30 3 31 2 32 1 33 28 34
REMARK SMILES IDX 29 35 30 36 31 37 32 38 33 39 34 40 35 41 36 42 37 43 38 44
REMARK SMILES IDX 39 45 40 46 86 47 41 48 85 49 42 50 43 51 44 52 79 53 45 54
REMARK SMILES IDX 84 55 78 56 80 57 46 58 83 59 77 60 76 61 47 63 69 64 54 65
REMARK SMILES IDX 68 66 55 67 58 68 67 69 81 70 56 71 57 72 66 74 82 75 59 76
REMARK SMILES IDX 48 77 49 78 53 79 50 80 52 81 51 82 70 83 71 84 75 85 72 86
REMARK SMILES IDX 74 87 73 88 60 89 61 90 65 91 62 92 64 93 63 94
REMARK H PARENT 7 25 10 27 80 62 58 73
REMARK Flexibility Score: inf
ROOT
ATOM      1  O   UNL     1       2.325  -6.184   0.500  1.00  0.00    -0.376 OA
ENDROOT
BRANCH   1   2
ATOM      2  C   UNL     1       2.143  -5.560  -0.764  1.00  0.00     0.202 C 
BRANCH   2   3
ATOM      3  C   UNL     1       0.901  -5.969  -1.551  1.00  0.00     0.261 C 
BRANCH   3   4
ATOM      4  O   UNL     1      -0.344  -5.701  -0.883  1.00  0.00    -0.463 OA
BRANCH   4   5
ATOM      5  C   UNL     1      -0.886  -6.773  -0.245  1.00  0.00     0.313 C 
ATOM      6  O   UNL     1      -0.329  -7.860  -0.120  1.00  0.00    -0.252 OA
BRANCH   5   7
ATOM      7  C   UNL     1      -2.326  -6.570   0.176  1.00  0.00     0.126 C 
ATOM      8  C   UNL     1      -3.211  -6.789  -1.053  1.00  0.00     0.025 C 
BRANCH   7   9
ATOM      9  C   UNL     1      -2.704  -5.308   0.942  1.00  0.00    -0.031 A 
ATOM     10  C   UNL     1      -3.909  -3.125   2.360  1.00  0.00     0.018 A 
ATOM     11  C   UNL     1      -3.533  -3.014   1.009  1.00  0.00     0.012 A 
ATOM     12  C   UNL     1      -3.586  -4.327   2.998  1.00  0.00     0.131 A 
ATOM     13  C   UNL     1      -2.932  -4.080   0.314  1.00  0.00     0.005 A 
ATOM     14  C   UNL     1      -2.995  -5.396   2.313  1.00  0.00     0.044 A 
ATOM     15  F   UNL     1      -3.887  -4.506   4.294  1.00  0.00    -0.206 F 
BRANCH  10  16
ATOM     16  C   UNL     1      -4.600  -2.017   3.059  1.00  0.00    -0.013 A 
ATOM     17  C   UNL     1      -4.660  -0.378   4.871  1.00  0.00     0.043 A 
ATOM     18  C   UNL     1      -5.768   0.252   4.309  1.00  0.00     0.026 A 
ATOM     19  C   UNL     1      -4.149  -1.557   4.308  1.00  0.00     0.035 A 
ATOM     20  C   UNL     1      -6.247  -0.200   3.082  1.00  0.00     0.003 A 
ATOM     21  C   UNL     1      -5.652  -1.304   2.454  1.00  0.00     0.009 A 
BRANCH  17  22
ATOM     22  N   UNL     1      -3.942   0.312   5.857  1.00  0.00    -0.308 N 
ATOM     23  N   UNL     1      -1.914   0.747   4.690  1.00  0.00    -0.338 N 
ATOM     24  C   UNL     1      -2.624   0.669   5.851  1.00  0.00     0.319 C 
ATOM     25  H   UNL     1      -0.953   0.934   4.793  1.00  0.00     0.165 HD
ATOM     26  O   UNL     1      -2.084   1.032   6.898  1.00  0.00    -0.249 OA
ATOM     27  H   UNL     1      -4.453   0.573   6.657  1.00  0.00     0.171 HD
BRANCH  23  28
ATOM     28  C   UNL     1      -2.377   0.593   3.320  1.00  0.00     0.117 C 
BRANCH  28  29
ATOM     29  C   UNL     1      -1.611   1.327   2.241  1.00  0.00     0.021 C 
BRANCH  29  30
ATOM     30  C   UNL     1      -0.268   0.705   1.919  1.00  0.00     0.002 C 
BRANCH  30  31
ATOM     31  C   UNL     1      -0.204  -0.741   1.443  1.00  0.00    -0.000 C 
BRANCH  31  32
ATOM     32  C   UNL     1      -0.797  -0.992   0.061  1.00  0.00    -0.003 C 
ATOM     33  C   UNL     1       0.009  -0.352  -1.053  1.00  0.00     0.004 C 
ENDBRANCH  31  32
ENDBRANCH  30  31
ENDBRANCH  29  30
ENDBRANCH  28  29
ENDBRANCH  23  28
ENDBRANCH  17  22
ENDBRANCH  10  16
ENDBRANCH   7   9
ENDBRANCH   5   7
ENDBRANCH   4   5
ENDBRANCH   3   4
ENDBRANCH   2   3
ENDBRANCH   1   2
BRANCH   1  34
ATOM     34  C   UNL     1       1.578  -5.727   1.630  1.00  0.00     0.188 C 
BRANCH  34  35
ATOM     35  C   UNL     1       1.057  -4.284   1.635  1.00  0.00     0.188 C 
BRANCH  35  36
ATOM     36  O   UNL     1       1.977  -3.316   1.137  1.00  0.00    -0.377 OA
BRANCH  36  37
ATOM     37  C   UNL     1       3.253  -3.306   1.769  1.00  0.00     0.188 C 
BRANCH  37  38
ATOM     38  C   UNL     1       3.207  -2.488   3.043  1.00  0.00     0.188 C 
BRANCH  38  39
ATOM     39  O   UNL     1       2.446  -3.106   4.077  1.00  0.00    -0.376 OA
BRANCH  39  40
ATOM     40  C   UNL     1       2.486  -2.358   5.299  1.00  0.00     0.202 C 
BRANCH  40  41
ATOM     41  C   UNL     1       1.616  -1.090   5.309  1.00  0.00     0.261 C 
BRANCH  41  42
ATOM     42  O   UNL     1       1.938  -0.032   4.375  1.00  0.00    -0.460 OA
BRANCH  42  43
ATOM     43  C   UNL     1       3.204   0.399   4.165  1.00  0.00     0.338 C 
ATOM     44  O   UNL     1       4.215   0.041   4.739  1.00  0.00    -0.246 OA
BRANCH  43  45
ATOM     45  C   UNL     1       3.168   1.236   2.935  1.00  0.00     0.060 A 
ATOM     46  C   UNL     1       3.916   0.885   1.801  1.00  0.00     0.016 A 
ATOM     47  C   UNL     1       2.287   2.311   2.865  1.00  0.00     0.016 A 
ATOM     48  C   UNL     1       3.773   1.601   0.594  1.00  0.00     0.010 A 
ATOM     49  C   UNL     1       2.095   2.968   1.646  1.00  0.00     0.010 A 
ATOM     50  C   UNL     1       2.860   2.659   0.498  1.00  0.00    -0.014 A 
BRANCH  50  51
ATOM     51  C   UNL     1       2.771   3.589  -0.680  1.00  0.00     0.031 A 
ATOM     52  C   UNL     1       2.948   5.068  -0.412  1.00  0.00     0.074 A 
ATOM     53  C   UNL     1       2.450   3.219  -1.939  1.00  0.00     0.049 A 
ATOM     54  N   UNL     1       2.661   6.100  -1.165  1.00  0.00    -0.248 NA
ATOM     55  C   UNL     1       3.450   5.424   0.926  1.00  0.00     0.031 C 
ATOM     56  C   UNL     1       2.239   1.857  -2.418  1.00  0.00     0.029 A 
ATOM     57  N   UNL     1       2.198   3.995  -3.053  1.00  0.00    -0.354 N 
ATOM     58  C   UNL     1       2.871   7.209  -0.357  1.00  0.00     0.074 A 
ATOM     59  C   UNL     1       3.193   6.718   0.963  1.00  0.00     0.031 C 
ATOM     60  C   UNL     1       1.834   1.892  -3.702  1.00  0.00     0.029 A 
ATOM     61  C   UNL     1       1.772   3.281  -4.150  1.00  0.00     0.049 A 
ATOM     62  H   UNL     1       2.313   4.973  -3.062  1.00  0.00     0.167 HD
ATOM     63  C   UNL     1       2.877   8.524  -0.677  1.00  0.00     0.031 A 
ATOM     64  C   UNL     1       1.380   3.691  -5.375  1.00  0.00     0.031 A 
ATOM     65  C   UNL     1       2.698   9.038  -2.002  1.00  0.00     0.049 A 
ATOM     66  C   UNL     1       1.433   5.153  -5.743  1.00  0.00     0.074 A 
ATOM     67  C   UNL     1       2.840  10.340  -2.447  1.00  0.00     0.029 A 
ATOM     68  N   UNL     1       2.369   8.267  -3.102  1.00  0.00    -0.354 N 
ATOM     69  N   UNL     1       1.728   6.185  -4.992  1.00  0.00    -0.248 NA
ATOM     70  C   UNL     1       1.143   5.498  -7.146  1.00  0.00     0.031 C 
ATOM     71  C   UNL     1       2.579  10.360  -3.822  1.00  0.00     0.029 A 
ATOM     72  C   UNL     1       2.303   9.065  -4.230  1.00  0.00     0.049 A 
ATOM     73  H   UNL     1       2.206   7.296  -3.085  1.00  0.00     0.167 HD
ATOM     74  C   UNL     1       1.720   7.287  -5.841  1.00  0.00     0.074 A 
ATOM     75  C   UNL     1       1.375   6.804  -7.160  1.00  0.00     0.031 C 
ATOM     76  C   UNL     1       1.994   8.582  -5.549  1.00  0.00     0.031 A 
BRANCH  63  77
ATOM     77  C   UNL     1       3.141   9.483   0.449  1.00  0.00    -0.014 A 
ATOM     78  C   UNL     1       4.395   9.530   1.082  1.00  0.00     0.009 A 
ATOM     79  C   UNL     1       2.106  10.301   0.923  1.00  0.00     0.009 A 
ATOM     80  C   UNL     1       4.581  10.309   2.223  1.00  0.00     0.001 A 
ATOM     81  C   UNL     1       2.309  11.113   2.039  1.00  0.00     0.001 A 
ATOM     82  C   UNL     1       3.538  11.099   2.701  1.00  0.00     0.000 A 
ENDBRANCH  63  77
BRANCH  64  83
ATOM     83  C   UNL     1       0.944   2.701  -6.396  1.00  0.00    -0.014 A 
ATOM     84  C   UNL     1       1.814   2.320  -7.430  1.00  0.00     0.009 A 
ATOM     85  C   UNL     1      -0.357   2.178  -6.376  1.00  0.00     0.009 A 
ATOM     86  C   UNL     1       1.380   1.459  -8.441  1.00  0.00     0.001 A 
ATOM     87  C   UNL     1      -0.783   1.303  -7.380  1.00  0.00     0.001 A 
ATOM     88  C   UNL     1       0.082   0.951  -8.415  1.00  0.00     0.000 A 
ENDBRANCH  64  83
BRANCH  76  89
ATOM     89  C   UNL     1       2.016   9.573  -6.677  1.00  0.00    -0.014 A 
ATOM     90  C   UNL     1       0.833  10.052  -7.258  1.00  0.00     0.009 A 
ATOM     91  C   UNL     1       3.246  10.098  -7.107  1.00  0.00     0.009 A 
ATOM     92  C   UNL     1       0.883  11.025  -8.259  1.00  0.00     0.001 A 
ATOM     93  C   UNL     1       3.292  11.086  -8.091  1.00  0.00     0.001 A 
ATOM     94  C   UNL     1       2.111  11.546  -8.669  1.00  0.00     0.000 A 
ENDBRANCH  76  89
ENDBRANCH  50  51
ENDBRANCH  43  45
ENDBRANCH  42  43
ENDBRANCH  41  42
ENDBRANCH  40  41
ENDBRANCH  39  40
ENDBRANCH  38  39
ENDBRANCH  37  38
ENDBRANCH  36  37
ENDBRANCH  35  36
ENDBRANCH  34  35
ENDBRANCH   1  34
TORSDOF 28
