REMARK SMILES Cc1nc(CN(CC(=O)OCCOCCOCCOCCOC(=O)c2ccc(-c3c4nc(c(-c5ccccc5)c5ccc([nH]5)c(-c5ccccc5)c5nc(c(-c6ccccc6)c6ccc3[nH]6)C=C5)C=C4)cc2)c2cccc(Cl)c2)sc1C
REMARK SMILES IDX 15 1 14 2 13 3 12 4 11 5 10 6 8 7 9 8 7 9 6 10 5 11 4 12
REMARK SMILES IDX 1 13 2 14 3 15 81 16 80 17 82 18 73 19 74 20 79 21 75 22
REMARK SMILES IDX 77 23 76 24 78 25 16 26 17 27 18 28 19 29 20 30 21 31 22 32
REMARK SMILES IDX 23 33 24 34 25 35 26 36 72 37 27 38 71 39 28 40 29 41 30 42
REMARK SMILES IDX 65 43 31 44 70 45 64 46 66 47 32 48 69 49 63 50 62 51 33 53
REMARK SMILES IDX 55 54 40 55 54 56 41 57 44 58 53 59 67 60 42 61 43 62 52 64
REMARK SMILES IDX 68 65 45 66 34 67 35 68 39 69 36 70 38 71 37 72 56 73 57 74
REMARK SMILES IDX 61 75 58 76 60 77 59 78 46 79 47 80 51 81 48 82 50 83 49 84
REMARK H PARENT 66 52 44 63
REMARK Flexibility Score: inf
ROOT
ATOM      1  C   UNL     1      -3.612   4.139   3.170  1.00  0.00     0.188 C 
ENDROOT
BRANCH   1   2
ATOM      2  C   UNL     1      -3.060   5.473   3.722  1.00  0.00     0.188 C 
BRANCH   2   3
ATOM      3  O   UNL     1      -3.992   6.533   3.614  1.00  0.00    -0.376 OA
BRANCH   3   4
ATOM      4  C   UNL     1      -3.918   7.393   2.493  1.00  0.00     0.202 C 
BRANCH   4   5
ATOM      5  C   UNL     1      -3.711   6.822   1.075  1.00  0.00     0.261 C 
BRANCH   5   6
ATOM      6  O   UNL     1      -2.761   5.743   0.915  1.00  0.00    -0.462 OA
BRANCH   6   7
ATOM      7  C   UNL     1      -1.436   6.032   0.900  1.00  0.00     0.325 C 
ATOM      8  O   UNL     1      -1.007   7.181   0.928  1.00  0.00    -0.250 OA
BRANCH   7   9
ATOM      9  C   UNL     1      -0.515   4.795   0.802  1.00  0.00     0.239 C 
BRANCH   9  10
ATOM     10  N   UNL     1      -1.074   3.475   1.228  1.00  0.00    -0.354 N 
BRANCH  10  11
ATOM     11  C   UNL     1      -1.607   2.634   0.112  1.00  0.00     0.184 C 
BRANCH  11  12
ATOM     12  C   UNL     1      -0.683   1.520  -0.363  1.00  0.00     0.112 A 
ATOM     13  C   UNL     1       2.646   0.216  -0.130  1.00  0.00     0.068 C 
ATOM     14  C   UNL     1       1.179   0.326  -0.340  1.00  0.00     0.051 A 
ATOM     15  N   UNL     1       0.633   1.598  -0.376  1.00  0.00    -0.244 NA
ATOM     16  C   UNL     1       0.258  -0.706  -0.422  1.00  0.00     0.025 A 
ATOM     17  S   UNL     1      -1.308  -0.055  -0.690  1.00  0.00    -0.122 S 
ATOM     18  C   UNL     1       0.469  -2.173  -0.277  1.00  0.00     0.058 C 
ENDBRANCH  11  12
ENDBRANCH  10  11
BRANCH  10  19
ATOM     19  C   UNL     1      -0.727   2.867   2.447  1.00  0.00     0.039 A 
ATOM     20  C   UNL     1      -0.191   3.587   3.530  1.00  0.00     0.026 A 
ATOM     21  C   UNL     1      -0.991   1.505   2.722  1.00  0.00     0.046 A 
ATOM     22  C   UNL     1       0.042   3.000   4.789  1.00  0.00     0.004 A 
ATOM     23  C   UNL     1      -0.705   0.898   3.951  1.00  0.00     0.043 A 
ATOM     24  C   UNL     1      -0.204   1.648   4.999  1.00  0.00     0.020 A 
ATOM     25  Cl  UNL     1      -1.004  -0.785   4.163  1.00  0.00    -0.084 Cl
ENDBRANCH  10  19
ENDBRANCH   9  10
ENDBRANCH   7   9
ENDBRANCH   6   7
ENDBRANCH   5   6
ENDBRANCH   4   5
ENDBRANCH   3   4
ENDBRANCH   2   3
ENDBRANCH   1   2
BRANCH   1  26
ATOM     26  O   UNL     1      -4.819   3.587   3.667  1.00  0.00    -0.377 OA
BRANCH  26  27
ATOM     27  C   UNL     1      -5.795   4.502   4.087  1.00  0.00     0.188 C 
BRANCH  27  28
ATOM     28  C   UNL     1      -5.737   4.776   5.596  1.00  0.00     0.188 C 
BRANCH  28  29
ATOM     29  O   UNL     1      -4.526   4.658   6.320  1.00  0.00    -0.376 OA
BRANCH  29  30
ATOM     30  C   UNL     1      -3.758   3.466   6.413  1.00  0.00     0.202 C 
BRANCH  30  31
ATOM     31  C   UNL     1      -4.248   2.014   6.274  1.00  0.00     0.261 C 
BRANCH  31  32
ATOM     32  O   UNL     1      -5.415   1.777   5.504  1.00  0.00    -0.460 OA
BRANCH  32  33
ATOM     33  C   UNL     1      -6.563   1.697   6.201  1.00  0.00     0.338 C 
ATOM     34  O   UNL     1      -6.720   1.788   7.407  1.00  0.00    -0.246 OA
BRANCH  33  35
ATOM     35  C   UNL     1      -7.655   1.693   5.219  1.00  0.00     0.060 A 
ATOM     36  C   UNL     1      -8.596   2.727   5.286  1.00  0.00     0.016 A 
ATOM     37  C   UNL     1      -7.719   0.717   4.221  1.00  0.00     0.016 A 
ATOM     38  C   UNL     1      -9.609   2.797   4.344  1.00  0.00     0.010 A 
ATOM     39  C   UNL     1      -8.770   0.754   3.308  1.00  0.00     0.010 A 
ATOM     40  C   UNL     1      -9.726   1.781   3.391  1.00  0.00    -0.014 A 
BRANCH  40  41
ATOM     41  C   UNL     1     -11.004   1.664   2.671  1.00  0.00     0.031 A 
ATOM     42  C   UNL     1     -12.075   0.828   3.304  1.00  0.00     0.074 A 
ATOM     43  C   UNL     1     -11.219   2.335   1.530  1.00  0.00     0.049 A 
ATOM     44  N   UNL     1     -13.293   0.593   2.897  1.00  0.00    -0.248 NA
ATOM     45  C   UNL     1     -11.720   0.170   4.574  1.00  0.00     0.031 C 
ATOM     46  C   UNL     1     -10.256   3.215   0.872  1.00  0.00     0.029 A 
ATOM     47  N   UNL     1     -12.327   2.375   0.729  1.00  0.00    -0.354 N 
ATOM     48  C   UNL     1     -13.847  -0.242   3.858  1.00  0.00     0.074 A 
ATOM     49  C   UNL     1     -12.826  -0.499   4.848  1.00  0.00     0.031 C 
ATOM     50  C   UNL     1     -10.815   3.700  -0.251  1.00  0.00     0.029 A 
ATOM     51  C   UNL     1     -12.157   3.140  -0.396  1.00  0.00     0.049 A 
ATOM     52  H   UNL     1     -13.164   1.901   0.939  1.00  0.00     0.167 HD
ATOM     53  C   UNL     1     -15.098  -0.752   3.907  1.00  0.00     0.031 A 
ATOM     54  C   UNL     1     -12.991   3.339  -1.434  1.00  0.00     0.031 A 
ATOM     55  C   UNL     1     -16.085  -0.522   2.889  1.00  0.00     0.049 A 
ATOM     56  C   UNL     1     -14.350   2.694  -1.405  1.00  0.00     0.074 A 
ATOM     57  C   UNL     1     -17.387  -0.982   2.828  1.00  0.00     0.029 A 
ATOM     58  N   UNL     1     -15.864   0.220   1.736  1.00  0.00    -0.354 N 
ATOM     59  N   UNL     1     -14.884   1.931  -0.480  1.00  0.00    -0.248 NA
ATOM     60  C   UNL     1     -15.225   2.947  -2.557  1.00  0.00     0.031 C 
ATOM     61  C   UNL     1     -17.929  -0.579   1.602  1.00  0.00     0.029 A 
ATOM     62  C   UNL     1     -16.992   0.198   0.936  1.00  0.00     0.049 A 
ATOM     63  H   UNL     1     -15.027   0.692   1.520  1.00  0.00     0.167 HD
ATOM     64  C   UNL     1     -16.165   1.629  -0.925  1.00  0.00     0.074 A 
ATOM     65  C   UNL     1     -16.330   2.306  -2.197  1.00  0.00     0.031 C 
ATOM     66  C   UNL     1     -17.121   0.867  -0.336  1.00  0.00     0.031 A 
BRANCH  53  67
ATOM     67  C   UNL     1     -15.416  -1.663   5.060  1.00  0.00    -0.014 A 
ATOM     68  C   UNL     1     -15.482  -1.188   6.381  1.00  0.00     0.009 A 
ATOM     69  C   UNL     1     -15.611  -3.032   4.823  1.00  0.00     0.009 A 
ATOM     70  C   UNL     1     -15.678  -2.075   7.443  1.00  0.00     0.001 A 
ATOM     71  C   UNL     1     -15.843  -3.910   5.882  1.00  0.00     0.001 A 
ATOM     72  C   UNL     1     -15.861  -3.434   7.192  1.00  0.00     0.000 A 
ENDBRANCH  53  67
BRANCH  54  73
ATOM     73  C   UNL     1     -12.540   4.162  -2.585  1.00  0.00    -0.014 A 
ATOM     74  C   UNL     1     -13.087   5.429  -2.827  1.00  0.00     0.009 A 
ATOM     75  C   UNL     1     -11.521   3.690  -3.430  1.00  0.00     0.009 A 
ATOM     76  C   UNL     1     -12.630   6.203  -3.898  1.00  0.00     0.001 A 
ATOM     77  C   UNL     1     -11.047   4.477  -4.481  1.00  0.00     0.001 A 
ATOM     78  C   UNL     1     -11.605   5.731  -4.718  1.00  0.00     0.000 A 
ENDBRANCH  54  73
BRANCH  66  79
ATOM     79  C   UNL     1     -18.439   0.745  -1.050  1.00  0.00    -0.014 A 
ATOM     80  C   UNL     1     -18.565  -0.001  -2.232  1.00  0.00     0.009 A 
ATOM     81  C   UNL     1     -19.583   1.343  -0.497  1.00  0.00     0.009 A 
ATOM     82  C   UNL     1     -19.805  -0.116  -2.863  1.00  0.00     0.001 A 
ATOM     83  C   UNL     1     -20.827   1.196  -1.111  1.00  0.00     0.001 A 
ATOM     84  C   UNL     1     -20.935   0.476  -2.299  1.00  0.00     0.000 A 
ENDBRANCH  66  79
ENDBRANCH  40  41
ENDBRANCH  33  35
ENDBRANCH  32  33
ENDBRANCH  31  32
ENDBRANCH  30  31
ENDBRANCH  29  30
ENDBRANCH  28  29
ENDBRANCH  27  28
ENDBRANCH  26  27
ENDBRANCH   1  26
TORSDOF 24
