REMARK SMILES O=C(OCCOCCOCCOCCOC(=O)[C@H]1[C@@H](C(=O)NNC(=O)c2ccccc2Cl)[C@H]2C=C[C@@H]1C2)c1ccc(-c2c3nc(c(-c4ccccc4)c4ccc([nH]4)c(-c4ccccc4)c4nc(c(-c5ccccc5)c5ccc2[nH]5)C=C4)C=C3)cc1
REMARK SMILES IDX 10 1 9 2 8 3 7 4 6 5 5 6 4 7 3 8 2 9 1 10 38 11 39 12 85 13
REMARK SMILES IDX 40 14 84 15 41 16 42 17 43 18 78 19 44 20 83 21 77 22 79 23
REMARK SMILES IDX 45 24 82 25 76 26 75 27 46 29 68 30 53 31 67 32 54 33 57 34
REMARK SMILES IDX 66 35 80 36 55 37 56 38 65 40 81 41 58 42 47 43 48 44 52 45
REMARK SMILES IDX 49 46 51 47 50 48 69 49 70 50 74 51 71 52 73 53 72 54 59 55
REMARK SMILES IDX 60 56 64 57 61 58 63 59 62 60 11 61 12 62 13 63 14 64 15 65
REMARK SMILES IDX 16 66 17 67 18 68 19 69 36 70 33 71 35 72 37 73 34 74 20 75
REMARK SMILES IDX 21 76 22 77 23 79 24 80 25 82 26 83 27 84 31 85 28 86 30 87
REMARK SMILES IDX 32 88 29 89
REMARK H PARENT 79 28 57 39 22 78 23 81
REMARK Flexibility Score: inf
ROOT
ATOM      1  C   UNL     1       4.285   4.488  -6.491  1.00  0.00     0.188 C 
ENDROOT
BRANCH   1   2
ATOM      2  O   UNL     1       5.077   5.406  -7.227  1.00  0.00    -0.377 OA
BRANCH   2   3
ATOM      3  C   UNL     1       4.766   5.482  -8.610  1.00  0.00     0.188 C 
BRANCH   3   4
ATOM      4  C   UNL     1       4.738   4.127  -9.315  1.00  0.00     0.188 C 
BRANCH   4   5
ATOM      5  O   UNL     1       3.678   3.338  -8.787  1.00  0.00    -0.376 OA
BRANCH   5   6
ATOM      6  C   UNL     1       3.897   1.939  -8.627  1.00  0.00     0.202 C 
BRANCH   6   7
ATOM      7  C   UNL     1       3.891   1.155  -9.930  1.00  0.00     0.261 C 
BRANCH   7   8
ATOM      8  O   UNL     1       4.040   1.965 -11.108  1.00  0.00    -0.460 OA
BRANCH   8   9
ATOM      9  C   UNL     1       3.150   2.761 -11.745  1.00  0.00     0.338 C 
ATOM     10  O   UNL     1       3.537   3.389 -12.731  1.00  0.00    -0.246 OA
BRANCH   9  11
ATOM     11  C   UNL     1       1.717   2.920 -11.363  1.00  0.00     0.060 A 
ATOM     12  C   UNL     1       1.206   2.892 -10.067  1.00  0.00     0.016 A 
ATOM     13  C   UNL     1       0.825   3.230 -12.401  1.00  0.00     0.016 A 
ATOM     14  C   UNL     1      -0.131   3.091  -9.792  1.00  0.00     0.010 A 
ATOM     15  C   UNL     1      -0.529   3.457 -12.140  1.00  0.00     0.010 A 
ATOM     16  C   UNL     1      -1.008   3.350 -10.830  1.00  0.00    -0.014 A 
BRANCH  16  17
ATOM     17  C   UNL     1      -2.437   3.251 -10.518  1.00  0.00     0.031 A 
ATOM     18  C   UNL     1      -3.146   2.025 -10.998  1.00  0.00     0.074 A 
ATOM     19  C   UNL     1      -3.010   4.128  -9.678  1.00  0.00     0.049 A 
ATOM     20  N   UNL     1      -4.417   1.744 -10.977  1.00  0.00    -0.248 NA
ATOM     21  C   UNL     1      -2.301   0.962 -11.578  1.00  0.00     0.031 C 
ATOM     22  C   UNL     1      -2.322   5.233  -9.001  1.00  0.00     0.029 A 
ATOM     23  N   UNL     1      -4.295   4.207  -9.222  1.00  0.00    -0.354 N 
ATOM     24  C   UNL     1      -4.531   0.516 -11.614  1.00  0.00     0.074 A 
ATOM     25  C   UNL     1      -3.205   0.089 -11.989  1.00  0.00     0.031 C 
ATOM     26  C   UNL     1      -3.194   5.870  -8.204  1.00  0.00     0.029 A 
ATOM     27  C   UNL     1      -4.513   5.284  -8.397  1.00  0.00     0.049 A 
ATOM     28  H   UNL     1      -4.995   3.557  -9.460  1.00  0.00     0.167 HD
ATOM     29  C   UNL     1      -5.663  -0.171 -11.882  1.00  0.00     0.031 A 
ATOM     30  C   UNL     1      -5.672   5.769  -7.919  1.00  0.00     0.031 A 
ATOM     31  C   UNL     1      -6.957   0.303 -11.483  1.00  0.00     0.049 A 
ATOM     32  C   UNL     1      -6.931   5.053  -8.322  1.00  0.00     0.074 A 
ATOM     33  C   UNL     1      -8.200  -0.239 -11.742  1.00  0.00     0.029 A 
ATOM     34  N   UNL     1      -7.161   1.450 -10.724  1.00  0.00    -0.354 N 
ATOM     35  N   UNL     1      -7.063   3.952  -9.028  1.00  0.00    -0.248 NA
ATOM     36  C   UNL     1      -8.197   5.649  -7.888  1.00  0.00     0.031 C 
ATOM     37  C   UNL     1      -9.159   0.611 -11.180  1.00  0.00     0.029 A 
ATOM     38  C   UNL     1      -8.511   1.643 -10.514  1.00  0.00     0.049 A 
ATOM     39  H   UNL     1      -6.447   2.037 -10.386  1.00  0.00     0.167 HD
ATOM     40  C   UNL     1      -8.426   3.713  -9.110  1.00  0.00     0.074 A 
ATOM     41  C   UNL     1      -9.074   4.773  -8.359  1.00  0.00     0.031 C 
ATOM     42  C   UNL     1      -9.093   2.718  -9.748  1.00  0.00     0.031 A 
BRANCH  29  43
ATOM     43  C   UNL     1      -5.527  -1.406 -12.723  1.00  0.00    -0.014 A 
ATOM     44  C   UNL     1      -4.921  -2.577 -12.240  1.00  0.00     0.009 A 
ATOM     45  C   UNL     1      -5.962  -1.371 -14.058  1.00  0.00     0.009 A 
ATOM     46  C   UNL     1      -4.715  -3.668 -13.088  1.00  0.00     0.001 A 
ATOM     47  C   UNL     1      -5.782  -2.473 -14.895  1.00  0.00     0.001 A 
ATOM     48  C   UNL     1      -5.147  -3.616 -14.413  1.00  0.00     0.000 A 
ENDBRANCH  29  43
BRANCH  30  49
ATOM     49  C   UNL     1      -5.698   7.019  -7.113  1.00  0.00    -0.014 A 
ATOM     50  C   UNL     1      -6.136   7.015  -5.781  1.00  0.00     0.009 A 
ATOM     51  C   UNL     1      -5.289   8.239  -7.681  1.00  0.00     0.009 A 
ATOM     52  C   UNL     1      -6.187   8.204  -5.046  1.00  0.00     0.001 A 
ATOM     53  C   UNL     1      -5.309   9.420  -6.935  1.00  0.00     0.001 A 
ATOM     54  C   UNL     1      -5.769   9.403  -5.621  1.00  0.00     0.000 A 
ENDBRANCH  30  49
BRANCH  42  55
ATOM     55  C   UNL     1     -10.585   2.714  -9.606  1.00  0.00    -0.014 A 
ATOM     56  C   UNL     1     -11.385   3.653 -10.273  1.00  0.00     0.009 A 
ATOM     57  C   UNL     1     -11.194   1.716  -8.830  1.00  0.00     0.009 A 
ATOM     58  C   UNL     1     -12.772   3.611 -10.136  1.00  0.00     0.001 A 
ATOM     59  C   UNL     1     -12.581   1.655  -8.726  1.00  0.00     0.001 A 
ATOM     60  C   UNL     1     -13.368   2.609  -9.370  1.00  0.00     0.000 A 
ENDBRANCH  42  55
ENDBRANCH  16  17
ENDBRANCH   9  11
ENDBRANCH   8   9
ENDBRANCH   7   8
ENDBRANCH   6   7
ENDBRANCH   5   6
ENDBRANCH   4   5
ENDBRANCH   3   4
ENDBRANCH   2   3
ENDBRANCH   1   2
BRANCH   1  61
ATOM     61  C   UNL     1       2.776   4.731  -6.382  1.00  0.00     0.188 C 
BRANCH  61  62
ATOM     62  O   UNL     1       2.409   6.056  -6.724  1.00  0.00    -0.376 OA
BRANCH  62  63
ATOM     63  C   UNL     1       2.323   6.943  -5.615  1.00  0.00     0.202 C 
BRANCH  63  64
ATOM     64  C   UNL     1       3.650   7.341  -4.945  1.00  0.00     0.261 C 
BRANCH  64  65
ATOM     65  O   UNL     1       4.476   6.333  -4.302  1.00  0.00    -0.463 OA
BRANCH  65  66
ATOM     66  C   UNL     1       3.990   5.399  -3.453  1.00  0.00     0.310 C 
ATOM     67  O   UNL     1       2.819   5.339  -3.084  1.00  0.00    -0.252 OA
BRANCH  66  68
ATOM     68  C   UNL     1       5.055   4.415  -2.961  1.00  0.00     0.119 C 
ATOM     69  C   UNL     1       5.030   2.858  -3.275  1.00  0.00     0.102 C 
ATOM     70  C   UNL     1       6.553   4.804  -3.210  1.00  0.00     0.027 C 
ATOM     71  C   UNL     1       6.565   2.590  -3.539  1.00  0.00     0.025 C 
ATOM     72  C   UNL     1       6.990   4.568  -4.635  1.00  0.00    -0.027 C 
ATOM     73  C   UNL     1       7.245   3.579  -2.591  1.00  0.00     0.017 C 
ATOM     74  C   UNL     1       7.002   3.243  -4.833  1.00  0.00    -0.027 C 
BRANCH  69  75
ATOM     75  C   UNL     1       4.222   2.157  -4.384  1.00  0.00     0.242 C 
ATOM     76  O   UNL     1       4.785   1.534  -5.295  1.00  0.00    -0.273 OA
ATOM     77  N   UNL     1       2.863   2.086  -4.439  1.00  0.00    -0.267 N 
ATOM     78  H   UNL     1       2.458   2.030  -5.334  1.00  0.00     0.191 HD
BRANCH  77  79
ATOM     79  N   UNL     1       1.996   2.085  -3.365  1.00  0.00    -0.263 N 
ATOM     80  C   UNL     1       0.677   1.642  -3.415  1.00  0.00     0.271 C 
ATOM     81  H   UNL     1       2.334   2.420  -2.503  1.00  0.00     0.191 HD
ATOM     82  O   UNL     1       0.026   1.594  -2.370  1.00  0.00    -0.267 OA
BRANCH  80  83
ATOM     83  C   UNL     1      -0.036   1.308  -4.688  1.00  0.00     0.060 A 
ATOM     84  C   UNL     1      -1.287   1.933  -4.865  1.00  0.00     0.015 A 
ATOM     85  C   UNL     1       0.360   0.352  -5.634  1.00  0.00     0.053 A 
ATOM     86  C   UNL     1      -2.092   1.655  -5.978  1.00  0.00     0.001 A 
ATOM     87  C   UNL     1      -0.441   0.092  -6.762  1.00  0.00     0.021 A 
ATOM     88  Cl  UNL     1       1.780  -0.614  -5.466  1.00  0.00    -0.083 Cl
ATOM     89  C   UNL     1      -1.663   0.742  -6.934  1.00  0.00     0.002 A 
ENDBRANCH  80  83
ENDBRANCH  77  79
ENDBRANCH  69  75
ENDBRANCH  66  68
ENDBRANCH  65  66
ENDBRANCH  64  65
ENDBRANCH  63  64
ENDBRANCH  62  63
ENDBRANCH  61  62
ENDBRANCH   1  61
TORSDOF 23
