REMARK SMILES O=C(CCC(=O)N1N=C(c2ccc(F)cc2)C[C@@H]1c1ccc2nccnc2c1)OCCOCCOCCOCCOC(=O)c1ccc(-c2c3nc(c(-c4ccccc4)c4ccc([nH]4)c(-c4ccccc4)c4nc(c(-c5ccccc5)c5ccc2[nH]5)C=C4)C=C3)cc1
REMARK SMILES IDX 34 1 33 2 32 3 31 4 30 5 29 6 2 7 1 8 3 9 4 10 5 11 6 12
REMARK SMILES IDX 7 13 8 14 18 15 9 16 17 17 19 18 20 19 28 20 21 21 27 22
REMARK SMILES IDX 22 23 26 24 23 25 25 26 24 27 10 28 11 29 16 30 12 31 15 32
REMARK SMILES IDX 13 33 14 34 35 35 36 36 37 37 38 38 39 39 40 40 41 41 42 42
REMARK SMILES IDX 43 43 44 44 45 45 91 46 46 47 90 48 47 49 48 50 49 51 84 52
REMARK SMILES IDX 50 53 89 54 83 55 85 56 51 57 88 58 82 59 81 60 52 62 74 63
REMARK SMILES IDX 59 64 73 65 60 66 63 67 72 68 86 69 61 70 62 71 71 73 87 74
REMARK SMILES IDX 64 75 53 76 54 77 58 78 55 79 57 80 56 81 75 82 76 83 80 84
REMARK SMILES IDX 77 85 79 86 78 87 65 88 66 89 70 90 67 91 69 92 68 93
REMARK H PARENT 85 61 63 72
REMARK Flexibility Score: inf
ROOT
ATOM      1  C   UNL     1       2.458  -0.869   1.927  1.00  0.00     0.188 C 
ENDROOT
BRANCH   1   2
ATOM      2  C   UNL     1       2.858  -2.375   1.623  1.00  0.00     0.188 C 
BRANCH   2   3
ATOM      3  O   UNL     1       3.049  -2.693   0.235  1.00  0.00    -0.376 OA
BRANCH   3   4
ATOM      4  C   UNL     1       4.401  -2.892  -0.178  1.00  0.00     0.202 C 
BRANCH   4   5
ATOM      5  C   UNL     1       4.626  -2.177  -1.513  1.00  0.00     0.261 C 
BRANCH   5   6
ATOM      6  O   UNL     1       4.038  -0.870  -1.458  1.00  0.00    -0.463 OA
BRANCH   6   7
ATOM      7  C   UNL     1       2.779  -0.720  -1.921  1.00  0.00     0.306 C 
ATOM      8  O   UNL     1       1.792  -0.504  -1.232  1.00  0.00    -0.252 OA
BRANCH   7   9
ATOM      9  C   UNL     1       2.780  -0.511  -3.387  1.00  0.00     0.132 C 
BRANCH   9  10
ATOM     10  C   UNL     1       3.582   0.719  -3.780  1.00  0.00     0.114 C 
BRANCH  10  11
ATOM     11  C   UNL     1       3.556   1.968  -2.897  1.00  0.00     0.243 C 
ATOM     12  O   UNL     1       3.055   3.003  -3.362  1.00  0.00    -0.273 OA
BRANCH  11  13
ATOM     13  N   UNL     1       4.246   1.980  -1.647  1.00  0.00    -0.225 N 
ATOM     14  N   UNL     1       5.211   3.027  -1.664  1.00  0.00    -0.174 NA
ATOM     15  C   UNL     1       3.375   2.221  -0.454  1.00  0.00     0.147 C 
ATOM     16  C   UNL     1       4.662   4.032  -1.045  1.00  0.00     0.071 C 
ATOM     17  C   UNL     1       3.354   3.749  -0.377  1.00  0.00     0.091 C 
BRANCH  15  18
ATOM     18  C   UNL     1       3.764   1.589   0.902  1.00  0.00    -0.021 A 
ATOM     19  C   UNL     1       2.981   2.294   2.309  1.00  0.00     0.008 A 
ATOM     20  C   UNL     1       4.639   0.054   1.042  1.00  0.00     0.036 A 
ATOM     21  C   UNL     1       3.039   1.570   3.892  1.00  0.00     0.031 A 
ATOM     22  C   UNL     1       4.805  -0.810   2.624  1.00  0.00     0.089 A 
ATOM     23  C   UNL     1       3.991   0.118   4.184  1.00  0.00     0.089 A 
ATOM     24  N   UNL     1       6.043  -1.950   2.908  1.00  0.00    -0.253 NA
ATOM     25  N   UNL     1       4.795  -0.210   5.715  1.00  0.00    -0.253 NA
ATOM     26  C   UNL     1       6.657  -2.172   4.478  1.00  0.00     0.132 A 
ATOM     27  C   UNL     1       6.089  -1.348   5.820  1.00  0.00     0.132 A 
ENDBRANCH  15  18
BRANCH  16  28
ATOM     28  C   UNL     1       5.099   5.427  -1.188  1.00  0.00    -0.002 A 
ATOM     29  C   UNL     1       5.467   6.213  -0.094  1.00  0.00     0.013 A 
ATOM     30  C   UNL     1       4.988   5.988  -2.467  1.00  0.00     0.013 A 
ATOM     31  C   UNL     1       5.764   7.565  -0.300  1.00  0.00     0.040 A 
ATOM     32  C   UNL     1       5.266   7.340  -2.661  1.00  0.00     0.040 A 
ATOM     33  C   UNL     1       5.660   8.115  -1.577  1.00  0.00     0.123 A 
ATOM     34  F   UNL     1       5.932   9.413  -1.764  1.00  0.00    -0.207 F 
ENDBRANCH  16  28
ENDBRANCH  11  13
ENDBRANCH  10  11
ENDBRANCH   9  10
ENDBRANCH   7   9
ENDBRANCH   6   7
ENDBRANCH   5   6
ENDBRANCH   4   5
ENDBRANCH   3   4
ENDBRANCH   2   3
ENDBRANCH   1   2
BRANCH   1  35
ATOM     35  O   UNL     1       3.289   0.331   2.416  1.00  0.00    -0.377 OA
BRANCH  35  36
ATOM     36  C   UNL     1       5.054   1.155   2.850  1.00  0.00     0.188 C 
BRANCH  36  37
ATOM     37  C   UNL     1       5.948   0.010   4.029  1.00  0.00     0.188 C 
BRANCH  37  38
ATOM     38  O   UNL     1       4.773  -1.592   4.387  1.00  0.00    -0.376 OA
BRANCH  38  39
ATOM     39  C   UNL     1       3.378  -1.949   5.133  1.00  0.00     0.202 C 
BRANCH  39  40
ATOM     40  C   UNL     1       2.871  -1.438   6.580  1.00  0.00     0.261 C 
BRANCH  40  41
ATOM     41  O   UNL     1       2.635   0.006   6.737  1.00  0.00    -0.460 OA
BRANCH  41  42
ATOM     42  C   UNL     1       3.284   0.581   7.800  1.00  0.00     0.338 C 
ATOM     43  O   UNL     1       3.562   0.025   8.854  1.00  0.00    -0.246 OA
BRANCH  42  44
ATOM     44  C   UNL     1       3.873   1.918   7.461  1.00  0.00     0.060 A 
ATOM     45  C   UNL     1       5.266   1.982   7.277  1.00  0.00     0.016 A 
ATOM     46  C   UNL     1       3.140   3.102   7.406  1.00  0.00     0.016 A 
ATOM     47  C   UNL     1       5.918   3.173   6.959  1.00  0.00     0.010 A 
ATOM     48  C   UNL     1       3.810   4.329   7.198  1.00  0.00     0.010 A 
ATOM     49  C   UNL     1       5.206   4.372   7.000  1.00  0.00    -0.014 A 
BRANCH  49  50
ATOM     50  C   UNL     1       5.979   5.633   7.181  1.00  0.00     0.031 A 
ATOM     51  C   UNL     1       6.583   5.885   8.544  1.00  0.00     0.074 A 
ATOM     52  C   UNL     1       6.204   6.517   6.191  1.00  0.00     0.049 A 
ATOM     53  N   UNL     1       7.273   6.911   8.976  1.00  0.00    -0.248 NA
ATOM     54  C   UNL     1       6.402   4.820   9.546  1.00  0.00     0.031 C 
ATOM     55  C   UNL     1       5.797   6.366   4.797  1.00  0.00     0.029 A 
ATOM     56  N   UNL     1       6.844   7.735   6.225  1.00  0.00    -0.354 N 
ATOM     57  C   UNL     1       7.609   6.606  10.291  1.00  0.00     0.074 A 
ATOM     58  C   UNL     1       7.065   5.301  10.582  1.00  0.00     0.031 C 
ATOM     59  C   UNL     1       6.176   7.463   4.113  1.00  0.00     0.029 A 
ATOM     60  C   UNL     1       6.820   8.407   5.027  1.00  0.00     0.049 A 
ATOM     61  H   UNL     1       7.280   8.091   7.032  1.00  0.00     0.167 HD
ATOM     62  C   UNL     1       8.281   7.351  11.199  1.00  0.00     0.031 A 
ATOM     63  C   UNL     1       7.239   9.651   4.716  1.00  0.00     0.031 A 
ATOM     64  C   UNL     1       8.747   8.686  10.967  1.00  0.00     0.049 A 
ATOM     65  C   UNL     1       7.847  10.528   5.783  1.00  0.00     0.074 A 
ATOM     66  C   UNL     1       9.364   9.552  11.851  1.00  0.00     0.029 A 
ATOM     67  N   UNL     1       8.620   9.358   9.764  1.00  0.00    -0.354 N 
ATOM     68  N   UNL     1       8.126  10.242   7.031  1.00  0.00    -0.248 NA
ATOM     69  C   UNL     1       8.184  11.909   5.396  1.00  0.00     0.031 C 
ATOM     70  C   UNL     1       9.568  10.770  11.193  1.00  0.00     0.029 A 
ATOM     71  C   UNL     1       9.124  10.640   9.887  1.00  0.00     0.049 A 
ATOM     72  H   UNL     1       8.229   8.981   8.943  1.00  0.00     0.167 HD
ATOM     73  C   UNL     1       8.692  11.393   7.569  1.00  0.00     0.074 A 
ATOM     74  C   UNL     1       8.722  12.382   6.512  1.00  0.00     0.031 C 
ATOM     75  C   UNL     1       9.149  11.611   8.826  1.00  0.00     0.031 A 
BRANCH  62  76
ATOM     76  C   UNL     1       8.449   6.746  12.561  1.00  0.00    -0.014 A 
ATOM     77  C   UNL     1       9.392   5.733  12.794  1.00  0.00     0.009 A 
ATOM     78  C   UNL     1       7.611   7.158  13.608  1.00  0.00     0.009 A 
ATOM     79  C   UNL     1       9.465   5.117  14.045  1.00  0.00     0.001 A 
ATOM     80  C   UNL     1       7.701   6.554  14.861  1.00  0.00     0.001 A 
ATOM     81  C   UNL     1       8.619   5.527  15.076  1.00  0.00     0.000 A 
ENDBRANCH  62  76
BRANCH  63  82
ATOM     82  C   UNL     1       7.052  10.188   3.341  1.00  0.00    -0.014 A 
ATOM     83  C   UNL     1       8.155  10.402   2.500  1.00  0.00     0.009 A 
ATOM     84  C   UNL     1       5.772  10.543   2.885  1.00  0.00     0.009 A 
ATOM     85  C   UNL     1       7.982  10.976   1.238  1.00  0.00     0.001 A 
ATOM     86  C   UNL     1       5.600  11.097   1.615  1.00  0.00     0.001 A 
ATOM     87  C   UNL     1       6.705  11.320   0.796  1.00  0.00     0.000 A 
ENDBRANCH  63  82
BRANCH  75  88
ATOM     88  C   UNL     1       9.757  12.951   9.125  1.00  0.00    -0.014 A 
ATOM     89  C   UNL     1       8.959  14.089   9.312  1.00  0.00     0.009 A 
ATOM     90  C   UNL     1      11.148  13.058   9.286  1.00  0.00     0.009 A 
ATOM     91  C   UNL     1       9.546  15.316   9.632  1.00  0.00     0.001 A 
ATOM     92  C   UNL     1      11.729  14.280   9.628  1.00  0.00     0.001 A 
ATOM     93  C   UNL     1      10.928  15.409   9.794  1.00  0.00     0.000 A 
ENDBRANCH  75  88
ENDBRANCH  49  50
ENDBRANCH  42  44
ENDBRANCH  41  42
ENDBRANCH  40  41
ENDBRANCH  39  40
ENDBRANCH  38  39
ENDBRANCH  37  38
ENDBRANCH  36  37
ENDBRANCH  35  36
ENDBRANCH   1  35
TORSDOF 25
