REMARK SMILES CCCc1cc(OC(F)(F)F)cc2c1O[C@@H](C(F)(F)F)C(C(=O)OCCOCCOCCOCCOC(=O)c1ccc(-c3c4nc(c(-c5ccccc5)c5ccc([nH]5)c(-c5ccccc5)c5nc(c(-c6ccccc6)c6ccc3[nH]6)C=C5)C=C4)cc1)=C2
REMARK SMILES IDX 30 1 29 2 28 3 27 4 26 5 25 6 24 7 22 8 23 9 21 10 4 11 5 12
REMARK SMILES IDX 14 13 6 14 13 15 15 16 12 17 87 18 16 19 3 20 2 21 1 22 7 23
REMARK SMILES IDX 8 24 9 25 10 26 11 27 17 28 18 29 19 30 20 31 31 32 32 33
REMARK SMILES IDX 33 34 34 35 35 36 36 37 37 38 38 39 39 40 40 41 86 42 41 43
REMARK SMILES IDX 85 44 42 45 43 46 44 47 79 48 45 49 84 50 78 51 80 52 46 53
REMARK SMILES IDX 83 54 77 55 76 56 47 58 69 59 54 60 68 61 55 62 58 63 67 64
REMARK SMILES IDX 81 65 56 66 57 67 66 69 82 70 59 71 48 72 49 73 53 74 50 75
REMARK SMILES IDX 52 76 51 77 70 78 71 79 75 80 72 81 74 82 73 83 60 84 61 85
REMARK SMILES IDX 65 86 62 87 64 88 63 89
REMARK H PARENT 80 57 58 68
REMARK Flexibility Score: inf
ROOT
ATOM      1  O   UNL     1      -2.204  -8.275   4.691  1.00  0.00    -0.377 OA
ENDROOT
BRANCH   1   2
ATOM      2  C   UNL     1      -1.759  -8.262   3.348  1.00  0.00     0.188 C 
BRANCH   2   3
ATOM      3  C   UNL     1      -0.799  -9.381   2.911  1.00  0.00     0.188 C 
BRANCH   3   4
ATOM      4  O   UNL     1      -0.431 -10.278   3.956  1.00  0.00    -0.376 OA
BRANCH   4   5
ATOM      5  C   UNL     1       0.920 -10.190   4.393  1.00  0.00     0.202 C 
BRANCH   5   6
ATOM      6  C   UNL     1       1.158  -9.026   5.359  1.00  0.00     0.261 C 
BRANCH   6   7
ATOM      7  O   UNL     1       0.943  -7.737   4.764  1.00  0.00    -0.460 OA
BRANCH   7   8
ATOM      8  C   UNL     1       1.809  -7.358   3.797  1.00  0.00     0.338 C 
ATOM      9  O   UNL     1       2.784  -7.980   3.417  1.00  0.00    -0.246 OA
BRANCH   8  10
ATOM     10  C   UNL     1       1.321  -6.120   3.170  1.00  0.00     0.087 C 
ATOM     11  C   UNL     1       0.422  -2.501   1.278  1.00  0.00    -0.002 A 
ATOM     12  C   UNL     1      -0.260  -1.516   2.010  1.00  0.00     0.054 A 
ATOM     13  C   UNL     1       0.747  -3.699   1.935  1.00  0.00     0.131 A 
ATOM     14  C   UNL     1      -0.548  -1.692   3.369  1.00  0.00     0.130 A 
ATOM     15  C   UNL     1       0.448  -3.894   3.292  1.00  0.00     0.021 A 
ATOM     16  O   UNL     1       1.424  -4.654   1.215  1.00  0.00    -0.475 OA
ATOM     17  C   UNL     1      -0.211  -2.891   4.000  1.00  0.00     0.058 A 
ATOM     18  C   UNL     1       0.912  -5.109   3.954  1.00  0.00     0.027 C 
ATOM     19  C   UNL     1       1.205  -6.018   1.668  1.00  0.00     0.316 C 
BRANCH  11  20
ATOM     20  C   UNL     1       0.813  -2.340  -0.179  1.00  0.00     0.039 C 
BRANCH  20  21
ATOM     21  C   UNL     1       0.510  -1.014  -0.887  1.00  0.00     0.001 C 
ATOM     22  C   UNL     1       1.429   0.124  -0.463  1.00  0.00     0.004 C 
ENDBRANCH  20  21
ENDBRANCH  11  20
BRANCH  14  23
ATOM     23  O   UNL     1      -1.159  -0.770   4.172  1.00  0.00    -0.406 OA
BRANCH  23  24
ATOM     24  C   UNL     1      -0.980   0.594   3.817  1.00  0.00     0.573 C 
ATOM     25  F   UNL     1       0.313   0.869   3.539  1.00  0.00    -0.132 F 
ATOM     26  F   UNL     1      -1.748   0.917   2.755  1.00  0.00    -0.132 F 
ATOM     27  F   UNL     1      -1.358   1.366   4.859  1.00  0.00    -0.132 F 
ENDBRANCH  23  24
ENDBRANCH  14  23
BRANCH  19  28
ATOM     28  C   UNL     1       2.058  -6.954   0.796  1.00  0.00     0.430 C 
ATOM     29  F   UNL     1       1.722  -8.252   0.986  1.00  0.00    -0.167 F 
ATOM     30  F   UNL     1       1.824  -6.704  -0.520  1.00  0.00    -0.167 F 
ATOM     31  F   UNL     1       3.381  -6.813   1.000  1.00  0.00    -0.167 F 
ENDBRANCH  19  28
ENDBRANCH   8  10
ENDBRANCH   7   8
ENDBRANCH   6   7
ENDBRANCH   5   6
ENDBRANCH   4   5
ENDBRANCH   3   4
ENDBRANCH   2   3
ENDBRANCH   1   2
BRANCH   1  32
ATOM     32  C   UNL     1      -2.839  -9.440   5.207  1.00  0.00     0.188 C 
BRANCH  32  33
ATOM     33  C   UNL     1      -3.353 -10.568   4.288  1.00  0.00     0.188 C 
BRANCH  33  34
ATOM     34  O   UNL     1      -3.719 -10.151   2.977  1.00  0.00    -0.376 OA
BRANCH  34  35
ATOM     35  C   UNL     1      -5.107 -10.187   2.673  1.00  0.00     0.202 C 
BRANCH  35  36
ATOM     36  C   UNL     1      -5.851  -8.951   3.185  1.00  0.00     0.261 C 
BRANCH  36  37
ATOM     37  O   UNL     1      -5.884  -8.835   4.615  1.00  0.00    -0.460 OA
BRANCH  37  38
ATOM     38  C   UNL     1      -6.508  -9.827   5.287  1.00  0.00     0.338 C 
ATOM     39  O   UNL     1      -7.095 -10.786   4.821  1.00  0.00    -0.246 OA
BRANCH  38  40
ATOM     40  C   UNL     1      -6.214  -9.652   6.720  1.00  0.00     0.060 A 
ATOM     41  C   UNL     1      -5.644 -10.719   7.424  1.00  0.00     0.016 A 
ATOM     42  C   UNL     1      -6.500  -8.443   7.358  1.00  0.00     0.016 A 
ATOM     43  C   UNL     1      -5.396 -10.591   8.790  1.00  0.00     0.010 A 
ATOM     44  C   UNL     1      -6.269  -8.322   8.727  1.00  0.00     0.010 A 
ATOM     45  C   UNL     1      -5.751  -9.408   9.453  1.00  0.00    -0.014 A 
BRANCH  45  46
ATOM     46  C   UNL     1      -5.790  -9.379  10.931  1.00  0.00     0.031 A 
ATOM     47  C   UNL     1      -7.086  -9.727  11.610  1.00  0.00     0.074 A 
ATOM     48  C   UNL     1      -4.708  -9.050  11.656  1.00  0.00     0.049 A 
ATOM     49  N   UNL     1      -7.375  -9.748  12.885  1.00  0.00    -0.248 NA
ATOM     50  C   UNL     1      -8.206 -10.099  10.729  1.00  0.00     0.031 C 
ATOM     51  C   UNL     1      -3.390  -8.723  11.116  1.00  0.00     0.029 A 
ATOM     52  N   UNL     1      -4.559  -8.932  13.014  1.00  0.00    -0.354 N 
ATOM     53  C   UNL     1      -8.706 -10.137  12.958  1.00  0.00     0.074 A 
ATOM     54  C   UNL     1      -9.177 -10.313  11.603  1.00  0.00     0.031 C 
ATOM     55  C   UNL     1      -2.564  -8.432  12.138  1.00  0.00     0.029 A 
ATOM     56  C   UNL     1      -3.304  -8.528  13.395  1.00  0.00     0.049 A 
ATOM     57  H   UNL     1      -5.283  -9.119  13.654  1.00  0.00     0.167 HD
ATOM     58  C   UNL     1      -9.470 -10.336  14.057  1.00  0.00     0.031 A 
ATOM     59  C   UNL     1      -2.817  -8.254  14.621  1.00  0.00     0.031 A 
ATOM     60  C   UNL     1      -9.015 -10.134  15.404  1.00  0.00     0.049 A 
ATOM     61  C   UNL     1      -3.711  -8.405  15.824  1.00  0.00     0.074 A 
ATOM     62  C   UNL     1      -9.712 -10.315  16.585  1.00  0.00     0.029 A 
ATOM     63  N   UNL     1      -7.748  -9.692  15.746  1.00  0.00    -0.354 N 
ATOM     64  N   UNL     1      -4.957  -8.809  15.885  1.00  0.00    -0.248 NA
ATOM     65  C   UNL     1      -3.126  -8.065  17.130  1.00  0.00     0.031 C 
ATOM     66  C   UNL     1      -8.878  -9.935  17.643  1.00  0.00     0.029 A 
ATOM     67  C   UNL     1      -7.648  -9.568  17.120  1.00  0.00     0.049 A 
ATOM     68  H   UNL     1      -7.026  -9.495  15.107  1.00  0.00     0.167 HD
ATOM     69  C   UNL     1      -5.294  -8.800  17.233  1.00  0.00     0.074 A 
ATOM     70  C   UNL     1      -4.120  -8.359  17.956  1.00  0.00     0.031 C 
ATOM     71  C   UNL     1      -6.470  -9.129  17.821  1.00  0.00     0.031 A 
BRANCH  58  72
ATOM     72  C   UNL     1     -10.890 -10.765  13.832  1.00  0.00    -0.014 A 
ATOM     73  C   UNL     1     -11.195 -12.069  13.409  1.00  0.00     0.009 A 
ATOM     74  C   UNL     1     -11.936  -9.857  14.052  1.00  0.00     0.009 A 
ATOM     75  C   UNL     1     -12.520 -12.445  13.182  1.00  0.00     0.001 A 
ATOM     76  C   UNL     1     -13.261 -10.243  13.847  1.00  0.00     0.001 A 
ATOM     77  C   UNL     1     -13.551 -11.533  13.405  1.00  0.00     0.000 A 
ENDBRANCH  58  72
BRANCH  59  78
ATOM     78  C   UNL     1      -1.414  -7.793  14.781  1.00  0.00    -0.014 A 
ATOM     79  C   UNL     1      -0.452  -8.627  15.370  1.00  0.00     0.009 A 
ATOM     80  C   UNL     1      -1.039  -6.504  14.373  1.00  0.00     0.009 A 
ATOM     81  C   UNL     1       0.853  -8.168  15.570  1.00  0.00     0.001 A 
ATOM     82  C   UNL     1       0.272  -6.058  14.552  1.00  0.00     0.001 A 
ATOM     83  C   UNL     1       1.214  -6.886  15.158  1.00  0.00     0.000 A 
ENDBRANCH  59  78
BRANCH  71  84
ATOM     84  C   UNL     1      -6.535  -9.060  19.320  1.00  0.00    -0.014 A 
ATOM     85  C   UNL     1      -6.603  -7.830  19.991  1.00  0.00     0.009 A 
ATOM     86  C   UNL     1      -6.581 -10.248  20.067  1.00  0.00     0.009 A 
ATOM     87  C   UNL     1      -6.686  -7.791  21.384  1.00  0.00     0.001 A 
ATOM     88  C   UNL     1      -6.690 -10.206  21.458  1.00  0.00     0.001 A 
ATOM     89  C   UNL     1      -6.735  -8.978  22.115  1.00  0.00     0.000 A 
ENDBRANCH  71  84
ENDBRANCH  45  46
ENDBRANCH  38  40
ENDBRANCH  37  38
ENDBRANCH  36  37
ENDBRANCH  35  36
ENDBRANCH  34  35
ENDBRANCH  33  34
ENDBRANCH  32  33
ENDBRANCH   1  32
TORSDOF 25
