REMARK SMILES CNc1nccc(-c2cc(C(=O)OCCOCCOCCOCCOC(=O)c3ccc(-c4c5nc(c(-c6ccccc6)c6ccc([nH]6)c(-c6ccccc6)c6nc(c(-c7ccccc7)c7ccc4[nH]7)C=C6)C=C5)cc3)ccn2)n1
REMARK SMILES IDX 19 1 18 2 17 3 16 4 15 5 14 6 13 7 11 8 12 9 10 10 8 11 9 12
REMARK SMILES IDX 78 13 77 14 76 15 7 16 3 17 4 18 79 19 5 20 6 21 2 22 1 23
REMARK SMILES IDX 20 25 21 26 22 27 23 28 24 29 25 30 26 31 27 32 28 33 29 34
REMARK SMILES IDX 75 35 30 36 74 37 31 38 32 39 33 40 68 41 34 42 73 43 67 44
REMARK SMILES IDX 69 45 35 46 72 47 66 48 65 49 36 51 58 52 43 53 57 54 44 55
REMARK SMILES IDX 47 56 56 57 70 58 45 59 46 60 55 62 71 63 48 64 37 65 38 66
REMARK SMILES IDX 42 67 39 68 41 69 40 70 59 71 60 72 64 73 61 74 63 75 62 76
REMARK SMILES IDX 49 77 50 78 54 79 51 80 53 81 52 82
REMARK H PARENT 2 24 69 50 47 61
REMARK Flexibility Score: inf
ROOT
ATOM      1  O   UNL     1      -2.318   6.610  -2.111  1.00  0.00    -0.377 OA
ENDROOT
BRANCH   1   2
ATOM      2  C   UNL     1      -3.408   5.773  -2.467  1.00  0.00     0.188 C 
BRANCH   2   3
ATOM      3  C   UNL     1      -4.777   6.483  -2.482  1.00  0.00     0.188 C 
BRANCH   3   4
ATOM      4  O   UNL     1      -4.668   7.894  -2.538  1.00  0.00    -0.376 OA
BRANCH   4   5
ATOM      5  C   UNL     1      -4.771   8.673  -1.361  1.00  0.00     0.202 C 
BRANCH   5   6
ATOM      6  C   UNL     1      -4.037   8.316  -0.055  1.00  0.00     0.261 C 
BRANCH   6   7
ATOM      7  O   UNL     1      -3.883   6.931   0.260  1.00  0.00    -0.460 OA
BRANCH   7   8
ATOM      8  C   UNL     1      -4.963   6.261   0.716  1.00  0.00     0.338 C 
ATOM      9  O   UNL     1      -6.068   6.709   0.930  1.00  0.00    -0.246 OA
BRANCH   8  10
ATOM     10  C   UNL     1      -4.612   4.819   0.704  1.00  0.00     0.063 A 
ATOM     11  C   UNL     1      -3.085   3.014   1.112  1.00  0.00     0.090 A 
ATOM     12  C   UNL     1      -3.373   4.376   1.168  1.00  0.00     0.046 A 
ATOM     13  N   UNL     1      -3.949   2.131   0.544  1.00  0.00    -0.255 NA
ATOM     14  C   UNL     1      -5.126   2.596   0.070  1.00  0.00     0.112 A 
ATOM     15  C   UNL     1      -5.517   3.917   0.154  1.00  0.00     0.036 A 
BRANCH  11  16
ATOM     16  C   UNL     1      -1.926   2.445   1.831  1.00  0.00     0.094 A 
ATOM     17  C   UNL     1      -0.179   0.948   1.913  1.00  0.00     0.222 A 
ATOM     18  N   UNL     1       0.084   1.231   3.196  1.00  0.00    -0.222 NA
ATOM     19  N   UNL     1      -1.158   1.524   1.199  1.00  0.00    -0.211 NA
ATOM     20  C   UNL     1      -0.666   2.172   3.782  1.00  0.00     0.117 A 
ATOM     21  C   UNL     1      -1.687   2.819   3.143  1.00  0.00     0.051 A 
BRANCH  17  22
ATOM     22  N   UNL     1       0.679   0.039   1.359  1.00  0.00    -0.357 N 
ATOM     23  C   UNL     1       0.929  -0.009  -0.051  1.00  0.00     0.143 C 
ATOM     24  H   UNL     1       1.139  -0.602   1.947  1.00  0.00     0.163 HD
ENDBRANCH  17  22
ENDBRANCH  11  16
ENDBRANCH   8  10
ENDBRANCH   7   8
ENDBRANCH   6   7
ENDBRANCH   5   6
ENDBRANCH   4   5
ENDBRANCH   3   4
ENDBRANCH   2   3
ENDBRANCH   1   2
BRANCH   1  25
ATOM     25  C   UNL     1      -1.861   7.582  -3.053  1.00  0.00     0.188 C 
BRANCH  25  26
ATOM     26  C   UNL     1      -2.610   7.907  -4.372  1.00  0.00     0.188 C 
BRANCH  26  27
ATOM     27  O   UNL     1      -3.360   6.832  -4.913  1.00  0.00    -0.376 OA
BRANCH  27  28
ATOM     28  C   UNL     1      -2.880   6.186  -6.077  1.00  0.00     0.202 C 
BRANCH  28  29
ATOM     29  C   UNL     1      -1.581   5.386  -5.924  1.00  0.00     0.261 C 
BRANCH  29  30
ATOM     30  O   UNL     1      -0.466   6.105  -5.380  1.00  0.00    -0.460 OA
BRANCH  30  31
ATOM     31  C   UNL     1       0.029   7.122  -6.123  1.00  0.00     0.338 C 
ATOM     32  O   UNL     1      -0.353   7.495  -7.210  1.00  0.00    -0.246 OA
BRANCH  31  33
ATOM     33  C   UNL     1       1.023   7.832  -5.289  1.00  0.00     0.060 A 
ATOM     34  C   UNL     1       0.822   9.187  -4.997  1.00  0.00     0.016 A 
ATOM     35  C   UNL     1       2.143   7.157  -4.799  1.00  0.00     0.016 A 
ATOM     36  C   UNL     1       1.770   9.884  -4.247  1.00  0.00     0.010 A 
ATOM     37  C   UNL     1       3.099   7.861  -4.065  1.00  0.00     0.010 A 
ATOM     38  C   UNL     1       2.936   9.236  -3.821  1.00  0.00    -0.014 A 
BRANCH  38  39
ATOM     39  C   UNL     1       4.078  10.032  -3.311  1.00  0.00     0.031 A 
ATOM     40  C   UNL     1       5.192  10.365  -4.266  1.00  0.00     0.074 A 
ATOM     41  C   UNL     1       4.124  10.465  -2.040  1.00  0.00     0.049 A 
ATOM     42  N   UNL     1       6.314  11.000  -4.047  1.00  0.00    -0.248 NA
ATOM     43  C   UNL     1       5.015   9.916  -5.658  1.00  0.00     0.031 C 
ATOM     44  C   UNL     1       3.088  10.254  -1.032  1.00  0.00     0.029 A 
ATOM     45  N   UNL     1       5.099  11.174  -1.381  1.00  0.00    -0.354 N 
ATOM     46  C   UNL     1       6.980  11.015  -5.266  1.00  0.00     0.074 A 
ATOM     47  C   UNL     1       6.154  10.300  -6.213  1.00  0.00     0.031 C 
ATOM     48  C   UNL     1       3.486  10.816   0.124  1.00  0.00     0.029 A 
ATOM     49  C   UNL     1       4.819  11.390  -0.054  1.00  0.00     0.049 A 
ATOM     50  H   UNL     1       5.920  11.496  -1.819  1.00  0.00     0.167 HD
ATOM     51  C   UNL     1       8.172  11.579  -5.574  1.00  0.00     0.031 A 
ATOM     52  C   UNL     1       5.566  11.966   0.909  1.00  0.00     0.031 A 
ATOM     53  C   UNL     1       9.002  12.274  -4.628  1.00  0.00     0.049 A 
ATOM     54  C   UNL     1       6.930  12.507   0.562  1.00  0.00     0.074 A 
ATOM     55  C   UNL     1      10.222  12.890  -4.843  1.00  0.00     0.029 A 
ATOM     56  N   UNL     1       8.701  12.436  -3.285  1.00  0.00    -0.354 N 
ATOM     57  N   UNL     1       7.539  12.539  -0.598  1.00  0.00    -0.248 NA
ATOM     58  C   UNL     1       7.705  13.100   1.662  1.00  0.00     0.031 C 
ATOM     59  C   UNL     1      10.691  13.367  -3.615  1.00  0.00     0.029 A 
ATOM     60  C   UNL     1       9.728  13.116  -2.652  1.00  0.00     0.049 A 
ATOM     61  H   UNL     1       7.880  12.115  -2.847  1.00  0.00     0.167 HD
ATOM     62  C   UNL     1       8.749  13.187  -0.376  1.00  0.00     0.074 A 
ATOM     63  C   UNL     1       8.781  13.542   1.028  1.00  0.00     0.031 C 
ATOM     64  C   UNL     1       9.744  13.467  -1.254  1.00  0.00     0.031 A 
BRANCH  51  65
ATOM     65  C   UNL     1       8.665  11.425  -6.986  1.00  0.00    -0.014 A 
ATOM     66  C   UNL     1       8.043  12.086  -8.058  1.00  0.00     0.009 A 
ATOM     67  C   UNL     1       9.789  10.625  -7.245  1.00  0.00     0.009 A 
ATOM     68  C   UNL     1       8.513  11.918  -9.362  1.00  0.00     0.001 A 
ATOM     69  C   UNL     1      10.277  10.485  -8.544  1.00  0.00     0.001 A 
ATOM     70  C   UNL     1       9.633  11.123  -9.603  1.00  0.00     0.000 A 
ENDBRANCH  51  65
BRANCH  52  71
ATOM     71  C   UNL     1       5.057  12.044   2.305  1.00  0.00    -0.014 A 
ATOM     72  C   UNL     1       4.753  13.283   2.890  1.00  0.00     0.009 A 
ATOM     73  C   UNL     1       4.904  10.879   3.073  1.00  0.00     0.009 A 
ATOM     74  C   UNL     1       4.338  13.355   4.223  1.00  0.00     0.001 A 
ATOM     75  C   UNL     1       4.457  10.951   4.394  1.00  0.00     0.001 A 
ATOM     76  C   UNL     1       4.186  12.189   4.971  1.00  0.00     0.000 A 
ENDBRANCH  52  71
BRANCH  64  77
ATOM     77  C   UNL     1      10.928  14.242  -0.741  1.00  0.00    -0.014 A 
ATOM     78  C   UNL     1      11.857  13.670   0.141  1.00  0.00     0.009 A 
ATOM     79  C   UNL     1      11.139  15.556  -1.190  1.00  0.00     0.009 A 
ATOM     80  C   UNL     1      12.951  14.412   0.593  1.00  0.00     0.001 A 
ATOM     81  C   UNL     1      12.252  16.282  -0.765  1.00  0.00     0.001 A 
ATOM     82  C   UNL     1      13.151  15.714   0.135  1.00  0.00     0.000 A 
ENDBRANCH  64  77
ENDBRANCH  38  39
ENDBRANCH  31  33
ENDBRANCH  30  31
ENDBRANCH  29  30
ENDBRANCH  28  29
ENDBRANCH  27  28
ENDBRANCH  26  27
ENDBRANCH  25  26
ENDBRANCH   1  25
TORSDOF 22
