REMARK SMILES C[C@H](C(=O)OCCOCCOCCOCCOC(=O)c1ccc(-c2c3nc(c(-c4ccccc4)c4ccc([nH]4)c(-c4ccccc4)c4nc(c(-c5ccccc5)c5ccc2[nH]5)C=C4)C=C3)cc1)N1CCc2ccccc21
REMARK SMILES IDX 12 1 11 2 10 3 9 4 8 5 7 6 6 7 5 8 3 9 4 10 2 11 1 12 68 13
REMARK SMILES IDX 69 14 76 15 70 16 71 17 75 18 72 19 74 20 73 21 13 22 14 23
REMARK SMILES IDX 15 24 16 25 17 26 18 27 19 28 20 29 21 30 67 31 22 32 66 33
REMARK SMILES IDX 23 34 24 35 25 36 60 37 26 38 65 39 59 40 61 41 27 42 64 43
REMARK SMILES IDX 58 44 57 45 28 47 50 48 35 49 49 50 36 51 39 52 48 53 62 54
REMARK SMILES IDX 37 55 38 56 47 58 63 59 40 60 29 61 30 62 34 63 31 64 33 65
REMARK SMILES IDX 32 66 51 67 52 68 56 69 53 70 55 71 54 72 41 73 42 74 46 75
REMARK SMILES IDX 43 76 45 77 44 78
REMARK H PARENT 61 46 39 57
REMARK Flexibility Score: inf
ROOT
ATOM      1  C   UNL     1      -1.340  -1.730   2.585  1.00  0.00     0.188 C 
ENDROOT
BRANCH   1   2
ATOM      2  O   UNL     1      -0.316  -1.303   1.690  1.00  0.00    -0.377 OA
BRANCH   2   3
ATOM      3  C   UNL     1       0.617  -2.270   1.222  1.00  0.00     0.188 C 
BRANCH   3   4
ATOM      4  C   UNL     1       2.054  -1.760   1.192  1.00  0.00     0.188 C 
BRANCH   4   5
ATOM      5  O   UNL     1       2.532  -1.220   2.421  1.00  0.00    -0.376 OA
BRANCH   5   6
ATOM      6  C   UNL     1       1.891  -0.023   2.868  1.00  0.00     0.202 C 
BRANCH   6   7
ATOM      7  C   UNL     1       1.847   1.165   1.886  1.00  0.00     0.261 C 
BRANCH   7   8
ATOM      8  O   UNL     1       1.025   0.966   0.708  1.00  0.00    -0.462 OA
BRANCH   8   9
ATOM      9  C   UNL     1       1.629   1.178  -0.504  1.00  0.00     0.328 C 
ATOM     10  O   UNL     1       2.800   1.529  -0.627  1.00  0.00    -0.250 OA
BRANCH   9  11
ATOM     11  C   UNL     1       0.662   1.006  -1.696  1.00  0.00     0.189 C 
ATOM     12  C   UNL     1       1.311   1.511  -2.988  1.00  0.00     0.044 C 
BRANCH  11  13
ATOM     13  N   UNL     1       0.158  -0.351  -1.926  1.00  0.00    -0.358 N 
ATOM     14  C   UNL     1      -1.278  -0.640  -1.948  1.00  0.00     0.122 C 
ATOM     15  C   UNL     1       0.828  -1.530  -2.169  1.00  0.00     0.041 A 
ATOM     16  C   UNL     1      -1.450  -2.064  -2.516  1.00  0.00     0.059 C 
ATOM     17  C   UNL     1      -0.055  -2.589  -2.420  1.00  0.00    -0.023 A 
ATOM     18  C   UNL     1       2.186  -1.786  -2.121  1.00  0.00     0.026 A 
ATOM     19  C   UNL     1       0.373  -3.903  -2.543  1.00  0.00     0.006 A 
ATOM     20  C   UNL     1       2.638  -3.109  -2.217  1.00  0.00     0.002 A 
ATOM     21  C   UNL     1       1.735  -4.163  -2.409  1.00  0.00     0.000 A 
ENDBRANCH  11  13
ENDBRANCH   9  11
ENDBRANCH   8   9
ENDBRANCH   7   8
ENDBRANCH   6   7
ENDBRANCH   5   6
ENDBRANCH   4   5
ENDBRANCH   3   4
ENDBRANCH   2   3
ENDBRANCH   1   2
BRANCH   1  22
ATOM     22  C   UNL     1      -1.299  -3.186   3.063  1.00  0.00     0.188 C 
BRANCH  22  23
ATOM     23  O   UNL     1      -1.476  -4.208   2.078  1.00  0.00    -0.376 OA
BRANCH  23  24
ATOM     24  C   UNL     1      -2.273  -3.924   0.931  1.00  0.00     0.202 C 
BRANCH  24  25
ATOM     25  C   UNL     1      -3.778  -4.104   1.129  1.00  0.00     0.261 C 
BRANCH  25  26
ATOM     26  O   UNL     1      -4.311  -3.101   2.006  1.00  0.00    -0.460 OA
BRANCH  26  27
ATOM     27  C   UNL     1      -4.466  -3.490   3.295  1.00  0.00     0.338 C 
ATOM     28  O   UNL     1      -4.286  -4.592   3.770  1.00  0.00    -0.246 OA
BRANCH  27  29
ATOM     29  C   UNL     1      -4.715  -2.286   4.108  1.00  0.00     0.060 A 
ATOM     30  C   UNL     1      -3.939  -2.084   5.258  1.00  0.00     0.016 A 
ATOM     31  C   UNL     1      -5.729  -1.393   3.761  1.00  0.00     0.016 A 
ATOM     32  C   UNL     1      -4.192  -0.998   6.084  1.00  0.00     0.010 A 
ATOM     33  C   UNL     1      -6.009  -0.325   4.609  1.00  0.00     0.010 A 
ATOM     34  C   UNL     1      -5.264  -0.152   5.789  1.00  0.00    -0.014 A 
BRANCH  34  35
ATOM     35  C   UNL     1      -5.763   0.755   6.838  1.00  0.00     0.031 A 
ATOM     36  C   UNL     1      -6.893   0.270   7.700  1.00  0.00     0.074 A 
ATOM     37  C   UNL     1      -5.206   1.960   7.027  1.00  0.00     0.049 A 
ATOM     38  N   UNL     1      -7.546   0.898   8.641  1.00  0.00    -0.248 NA
ATOM     39  C   UNL     1      -7.349  -1.112   7.466  1.00  0.00     0.031 C 
ATOM     40  C   UNL     1      -4.061   2.491   6.290  1.00  0.00     0.029 A 
ATOM     41  N   UNL     1      -5.541   2.958   7.902  1.00  0.00    -0.354 N 
ATOM     42  C   UNL     1      -8.499  -0.004   9.096  1.00  0.00     0.074 A 
ATOM     43  C   UNL     1      -8.358  -1.212   8.316  1.00  0.00     0.031 C 
ATOM     44  C   UNL     1      -3.794   3.730   6.739  1.00  0.00     0.029 A 
ATOM     45  C   UNL     1      -4.775   4.087   7.761  1.00  0.00     0.049 A 
ATOM     46  H   UNL     1      -6.261   2.873   8.569  1.00  0.00     0.167 HD
ATOM     47  C   UNL     1      -9.413   0.165  10.079  1.00  0.00     0.031 A 
ATOM     48  C   UNL     1      -4.881   5.280   8.373  1.00  0.00     0.031 A 
ATOM     49  C   UNL     1      -9.552   1.381  10.832  1.00  0.00     0.049 A 
ATOM     50  C   UNL     1      -5.968   5.475   9.398  1.00  0.00     0.074 A 
ATOM     51  C   UNL     1     -10.436   1.664  11.857  1.00  0.00     0.029 A 
ATOM     52  N   UNL     1      -8.789   2.522  10.629  1.00  0.00    -0.354 N 
ATOM     53  N   UNL     1      -6.857   4.615   9.837  1.00  0.00    -0.248 NA
ATOM     54  C   UNL     1      -6.062   6.804  10.015  1.00  0.00     0.031 C 
ATOM     55  C   UNL     1     -10.254   3.000  12.227  1.00  0.00     0.029 A 
ATOM     56  C   UNL     1      -9.205   3.524  11.486  1.00  0.00     0.049 A 
ATOM     57  H   UNL     1      -8.060   2.605   9.973  1.00  0.00     0.167 HD
ATOM     58  C   UNL     1      -7.592   5.287  10.806  1.00  0.00     0.074 A 
ATOM     59  C   UNL     1      -7.033   6.622  10.898  1.00  0.00     0.031 C 
ATOM     60  C   UNL     1      -8.631   4.844  11.556  1.00  0.00     0.031 A 
BRANCH  47  61
ATOM     61  C   UNL     1     -10.361  -0.970  10.348  1.00  0.00    -0.014 A 
ATOM     62  C   UNL     1      -9.925  -2.175  10.921  1.00  0.00     0.009 A 
ATOM     63  C   UNL     1     -11.721  -0.822  10.034  1.00  0.00     0.009 A 
ATOM     64  C   UNL     1     -10.826  -3.221  11.141  1.00  0.00     0.001 A 
ATOM     65  C   UNL     1     -12.625  -1.856  10.284  1.00  0.00     0.001 A 
ATOM     66  C   UNL     1     -12.175  -3.057  10.828  1.00  0.00     0.000 A 
ENDBRANCH  47  61
BRANCH  48  67
ATOM     67  C   UNL     1      -3.954   6.387   8.023  1.00  0.00    -0.014 A 
ATOM     68  C   UNL     1      -3.022   6.864   8.957  1.00  0.00     0.009 A 
ATOM     69  C   UNL     1      -4.006   6.986   6.754  1.00  0.00     0.009 A 
ATOM     70  C   UNL     1      -2.184   7.935   8.639  1.00  0.00     0.001 A 
ATOM     71  C   UNL     1      -3.144   8.035   6.427  1.00  0.00     0.001 A 
ATOM     72  C   UNL     1      -2.242   8.516   7.374  1.00  0.00     0.000 A 
ENDBRANCH  48  67
BRANCH  60  73
ATOM     73  C   UNL     1      -9.198   5.795  12.574  1.00  0.00    -0.014 A 
ATOM     74  C   UNL     1      -9.941   6.922  12.192  1.00  0.00     0.009 A 
ATOM     75  C   UNL     1      -9.023   5.526  13.941  1.00  0.00     0.009 A 
ATOM     76  C   UNL     1     -10.463   7.782  13.160  1.00  0.00     0.001 A 
ATOM     77  C   UNL     1      -9.577   6.367  14.906  1.00  0.00     0.001 A 
ATOM     78  C   UNL     1     -10.287   7.501  14.515  1.00  0.00     0.000 A 
ENDBRANCH  60  73
ENDBRANCH  34  35
ENDBRANCH  27  29
ENDBRANCH  26  27
ENDBRANCH  25  26
ENDBRANCH  24  25
ENDBRANCH  23  24
ENDBRANCH  22  23
ENDBRANCH   1  22
TORSDOF 21
