REMARK SMILES C[C@H](c1ccc(Br)s1)[NH+]1CCC(CC(=O)OCCOCCOCCOCCOC(=O)c2ccc(-c3c4nc(c(-c5ccccc5)c5ccc([nH]5)c(-c5ccccc5)c5nc(c(-c6ccccc6)c6ccc3[nH]6)C=C5)C=C4)cc2)CC1
REMARK SMILES IDX 21 1 20 2 19 3 18 4 17 5 16 6 14 7 15 8 13 9 12 10 9 11
REMARK SMILES IDX 10 12 80 13 11 15 79 16 2 17 1 18 3 19 4 20 8 21 5 22 6 23
REMARK SMILES IDX 7 24 22 25 23 26 24 27 25 28 26 29 27 30 28 31 29 32 30 33
REMARK SMILES IDX 31 34 32 35 78 36 33 37 77 38 34 39 35 40 36 41 71 42 37 43
REMARK SMILES IDX 76 44 70 45 72 46 38 47 75 48 69 49 68 50 39 52 61 53 46 54
REMARK SMILES IDX 60 55 47 56 50 57 59 58 73 59 48 60 49 61 58 63 74 64 51 65
REMARK SMILES IDX 40 66 41 67 45 68 42 69 44 70 43 71 62 72 63 73 67 74 64 75
REMARK SMILES IDX 66 76 65 77 52 78 53 79 57 80 54 81 56 82 55 83
REMARK H PARENT 9 14 72 51 50 62
REMARK Flexibility Score: inf
ROOT
ATOM      1  C   UNL     1      -4.813   2.441  -3.015  1.00  0.00     0.188 C 
ENDROOT
BRANCH   1   2
ATOM      2  C   UNL     1      -6.336   2.578  -3.120  1.00  0.00     0.188 C 
BRANCH   2   3
ATOM      3  O   UNL     1      -6.891   3.869  -3.241  1.00  0.00    -0.376 OA
BRANCH   3   4
ATOM      4  C   UNL     1      -6.931   4.755  -2.132  1.00  0.00     0.202 C 
BRANCH   4   5
ATOM      5  C   UNL     1      -6.749   4.344  -0.658  1.00  0.00     0.261 C 
BRANCH   5   6
ATOM      6  O   UNL     1      -5.827   3.284  -0.369  1.00  0.00    -0.463 OA
BRANCH   6   7
ATOM      7  C   UNL     1      -6.339   2.208   0.269  1.00  0.00     0.306 C 
ATOM      8  O   UNL     1      -7.530   2.069   0.534  1.00  0.00    -0.252 OA
BRANCH   7   9
ATOM      9  C   UNL     1      -5.338   1.128   0.631  1.00  0.00     0.126 C 
BRANCH   9  10
ATOM     10  C   UNL     1      -3.848   1.220   0.278  1.00  0.00     0.011 C 
ATOM     11  N   UNL     1      -0.943   1.175   0.768  1.00  0.00    -0.328 N 
ATOM     12  C   UNL     1      -1.628   2.402   0.359  1.00  0.00     0.263 C 
ATOM     13  C   UNL     1      -1.659  -0.044   0.382  1.00  0.00     0.263 C 
ATOM     14  H   UNL     1      -1.001   1.200   1.786  1.00  0.00     0.348 HD
ATOM     15  C   UNL     1      -3.099   2.438   0.811  1.00  0.00     0.066 C 
ATOM     16  C   UNL     1      -3.130  -0.036   0.794  1.00  0.00     0.066 C 
BRANCH  11  17
ATOM     17  C   UNL     1       0.536   1.141   0.599  1.00  0.00     0.222 C 
ATOM     18  C   UNL     1       1.209   2.420   0.059  1.00  0.00     0.082 C 
BRANCH  17  19
ATOM     19  C   UNL     1       1.077  -0.046  -0.195  1.00  0.00     0.063 A 
ATOM     20  C   UNL     1       0.968  -0.322  -1.550  1.00  0.00     0.023 A 
ATOM     21  S   UNL     1       1.980  -1.274   0.608  1.00  0.00    -0.127 S 
ATOM     22  C   UNL     1       1.573  -1.565  -1.908  1.00  0.00     0.028 A 
ATOM     23  C   UNL     1       2.148  -2.167  -0.819  1.00  0.00     0.070 A 
ATOM     24  Br  UNL     1       3.033  -3.816  -0.895  1.00  0.00    -0.039 Br
ENDBRANCH  17  19
ENDBRANCH  11  17
ENDBRANCH   9  10
ENDBRANCH   7   9
ENDBRANCH   6   7
ENDBRANCH   5   6
ENDBRANCH   4   5
ENDBRANCH   3   4
ENDBRANCH   2   3
ENDBRANCH   1   2
BRANCH   1  25
ATOM     25  O   UNL     1      -4.114   3.499  -2.388  1.00  0.00    -0.377 OA
BRANCH  25  26
ATOM     26  C   UNL     1      -3.793   4.667  -3.136  1.00  0.00     0.188 C 
BRANCH  26  27
ATOM     27  C   UNL     1      -4.285   4.857  -4.586  1.00  0.00     0.188 C 
BRANCH  27  28
ATOM     28  O   UNL     1      -4.341   3.676  -5.368  1.00  0.00    -0.376 OA
BRANCH  28  29
ATOM     29  C   UNL     1      -3.231   3.350  -6.192  1.00  0.00     0.202 C 
BRANCH  29  30
ATOM     30  C   UNL     1      -1.895   3.064  -5.488  1.00  0.00     0.261 C 
BRANCH  30  31
ATOM     31  O   UNL     1      -1.317   4.166  -4.769  1.00  0.00    -0.460 OA
BRANCH  31  32
ATOM     32  C   UNL     1      -1.088   5.301  -5.454  1.00  0.00     0.338 C 
ATOM     33  O   UNL     1      -1.241   5.491  -6.653  1.00  0.00    -0.246 OA
BRANCH  32  34
ATOM     34  C   UNL     1      -0.776   6.369  -4.491  1.00  0.00     0.060 A 
ATOM     35  C   UNL     1      -1.589   7.510  -4.466  1.00  0.00     0.016 A 
ATOM     36  C   UNL     1       0.344   6.273  -3.663  1.00  0.00     0.016 A 
ATOM     37  C   UNL     1      -1.238   8.595  -3.667  1.00  0.00     0.010 A 
ATOM     38  C   UNL     1       0.705   7.368  -2.874  1.00  0.00     0.010 A 
ATOM     39  C   UNL     1      -0.053   8.552  -2.920  1.00  0.00    -0.014 A 
BRANCH  39  40
ATOM     40  C   UNL     1       0.524   9.821  -2.418  1.00  0.00     0.031 A 
ATOM     41  C   UNL     1       1.585  10.491  -3.252  1.00  0.00     0.074 A 
ATOM     42  C   UNL     1       0.089  10.398  -1.285  1.00  0.00     0.049 A 
ATOM     43  N   UNL     1       2.251  11.594  -3.024  1.00  0.00    -0.248 NA
ATOM     44  C   UNL     1       1.942   9.824  -4.516  1.00  0.00     0.031 C 
ATOM     45  C   UNL     1      -0.972   9.883  -0.423  1.00  0.00     0.029 A 
ATOM     46  N   UNL     1       0.495  11.555  -0.670  1.00  0.00    -0.354 N 
ATOM     47  C   UNL     1       3.110  11.743  -4.106  1.00  0.00     0.074 A 
ATOM     48  C   UNL     1       2.907  10.605  -4.973  1.00  0.00     0.031 C 
ATOM     49  C   UNL     1      -1.132  10.722   0.616  1.00  0.00     0.029 A 
ATOM     50  C   UNL     1      -0.162  11.811   0.508  1.00  0.00     0.049 A 
ATOM     51  H   UNL     1       1.191  12.146  -1.038  1.00  0.00     0.167 HD
ATOM     52  C   UNL     1       3.985  12.743  -4.363  1.00  0.00     0.031 A 
ATOM     53  C   UNL     1       0.015  12.803   1.403  1.00  0.00     0.031 A 
ATOM     54  C   UNL     1       4.197  13.869  -3.496  1.00  0.00     0.049 A 
ATOM     55  C   UNL     1       1.057  13.860   1.138  1.00  0.00     0.074 A 
ATOM     56  C   UNL     1       5.058  14.939  -3.666  1.00  0.00     0.029 A 
ATOM     57  N   UNL     1       3.544  14.067  -2.289  1.00  0.00    -0.354 N 
ATOM     58  N   UNL     1       1.852  14.000   0.104  1.00  0.00    -0.248 NA
ATOM     59  C   UNL     1       1.215  14.903   2.162  1.00  0.00     0.031 C 
ATOM     60  C   UNL     1       4.971  15.752  -2.532  1.00  0.00     0.029 A 
ATOM     61  C   UNL     1       4.001  15.228  -1.691  1.00  0.00     0.049 A 
ATOM     62  H   UNL     1       2.857  13.470  -1.914  1.00  0.00     0.167 HD
ATOM     63  C   UNL     1       2.574  15.166   0.335  1.00  0.00     0.074 A 
ATOM     64  C   UNL     1       2.115  15.698   1.601  1.00  0.00     0.031 C 
ATOM     65  C   UNL     1       3.528  15.748  -0.434  1.00  0.00     0.031 A 
BRANCH  52  66
ATOM     66  C   UNL     1       4.810  12.634  -5.616  1.00  0.00    -0.014 A 
ATOM     67  C   UNL     1       4.235  12.775  -6.889  1.00  0.00     0.009 A 
ATOM     68  C   UNL     1       6.191  12.402  -5.518  1.00  0.00     0.009 A 
ATOM     69  C   UNL     1       5.019  12.649  -8.038  1.00  0.00     0.001 A 
ATOM     70  C   UNL     1       6.978  12.309  -6.667  1.00  0.00     0.001 A 
ATOM     71  C   UNL     1       6.391  12.421  -7.926  1.00  0.00     0.000 A 
ENDBRANCH  52  66
BRANCH  53  72
ATOM     72  C   UNL     1      -0.799  12.841   2.648  1.00  0.00    -0.014 A 
ATOM     73  C   UNL     1      -1.735  13.864   2.864  1.00  0.00     0.009 A 
ATOM     74  C   UNL     1      -0.618  11.869   3.644  1.00  0.00     0.009 A 
ATOM     75  C   UNL     1      -2.450  13.930   4.062  1.00  0.00     0.001 A 
ATOM     76  C   UNL     1      -1.357  11.918   4.828  1.00  0.00     0.001 A 
ATOM     77  C   UNL     1      -2.264  12.954   5.041  1.00  0.00     0.000 A 
ENDBRANCH  53  72
BRANCH  65  78
ATOM     78  C   UNL     1       4.098  17.058   0.039  1.00  0.00    -0.014 A 
ATOM     79  C   UNL     1       4.944  17.135   1.155  1.00  0.00     0.009 A 
ATOM     80  C   UNL     1       3.814  18.231  -0.680  1.00  0.00     0.009 A 
ATOM     81  C   UNL     1       5.462  18.366   1.565  1.00  0.00     0.001 A 
ATOM     82  C   UNL     1       4.361  19.454  -0.290  1.00  0.00     0.001 A 
ATOM     83  C   UNL     1       5.175  19.522   0.839  1.00  0.00     0.000 A 
ENDBRANCH  65  78
ENDBRANCH  39  40
ENDBRANCH  32  34
ENDBRANCH  31  32
ENDBRANCH  30  31
ENDBRANCH  29  30
ENDBRANCH  28  29
ENDBRANCH  27  28
ENDBRANCH  26  27
ENDBRANCH  25  26
ENDBRANCH   1  25
TORSDOF 23
