REMARK SMILES CCc1nc(-c2cccnc2)nc(Oc2ccc(C(=O)OCCOCCOCCOCCOC(=O)c3ccc(-c4c5nc(c(-c6ccccc6)c6ccc([nH]6)c(-c6ccccc6)c6nc(c(-c7ccccc7)c7ccc4[nH]7)C=C6)C=C5)cc3)cc2)c1C
REMARK SMILES IDX 26 1 25 2 24 3 23 4 22 5 21 6 19 7 20 8 18 9 15 10 16 11
REMARK SMILES IDX 85 12 17 13 84 14 14 15 13 16 3 17 4 18 86 19 5 20 87 21
REMARK SMILES IDX 12 22 2 23 1 24 6 25 7 26 11 27 8 28 10 29 9 30 27 31 28 32
REMARK SMILES IDX 29 33 30 34 31 35 32 36 33 37 34 38 35 39 36 40 37 41 83 42
REMARK SMILES IDX 38 43 82 44 39 45 40 46 41 47 76 48 42 49 81 50 75 51 77 52
REMARK SMILES IDX 43 53 80 54 74 55 73 56 44 58 66 59 51 60 65 61 52 62 55 63
REMARK SMILES IDX 64 64 78 65 53 66 54 67 63 69 79 70 56 71 45 72 46 73 50 74
REMARK SMILES IDX 47 75 49 76 48 77 67 78 68 79 72 80 69 81 71 82 70 83 57 84
REMARK SMILES IDX 58 85 62 86 59 87 61 88 60 89
REMARK H PARENT 77 57 55 68
REMARK Flexibility Score: inf
ROOT
ATOM      1  C   UNL     1       6.051  -3.059   8.213  1.00  0.00     0.188 C 
ENDROOT
BRANCH   1   2
ATOM      2  C   UNL     1       5.092  -4.054   8.899  1.00  0.00     0.188 C 
BRANCH   2   3
ATOM      3  O   UNL     1       5.541  -5.396   8.826  1.00  0.00    -0.376 OA
BRANCH   3   4
ATOM      4  C   UNL     1       4.932  -6.307   7.930  1.00  0.00     0.202 C 
BRANCH   4   5
ATOM      5  C   UNL     1       4.798  -5.991   6.430  1.00  0.00     0.261 C 
BRANCH   5   6
ATOM      6  O   UNL     1       4.591  -4.623   6.085  1.00  0.00    -0.460 OA
BRANCH   6   7
ATOM      7  C   UNL     1       3.346  -4.141   6.258  1.00  0.00     0.338 C 
ATOM      8  O   UNL     1       2.360  -4.767   6.604  1.00  0.00    -0.246 OA
BRANCH   7   9
ATOM      9  C   UNL     1       3.392  -2.666   6.131  1.00  0.00     0.060 A 
ATOM     10  C   UNL     1       3.099   0.037   5.692  1.00  0.00     0.129 A 
ATOM     11  C   UNL     1       2.438  -0.543   6.776  1.00  0.00     0.048 A 
ATOM     12  C   UNL     1       4.086  -0.654   4.986  1.00  0.00     0.048 A 
ATOM     13  C   UNL     1       2.563  -1.914   6.977  1.00  0.00     0.019 A 
ATOM     14  C   UNL     1       4.223  -2.026   5.198  1.00  0.00     0.019 A 
BRANCH  10  15
ATOM     15  O   UNL     1       2.670   1.264   5.276  1.00  0.00    -0.439 OA
BRANCH  15  16
ATOM     16  C   UNL     1       1.884   1.368   4.140  1.00  0.00     0.226 A 
ATOM     17  C   UNL     1       0.719   0.752   2.177  1.00  0.00     0.051 A 
ATOM     18  N   UNL     1       0.473   2.046   1.913  1.00  0.00    -0.233 NA
ATOM     19  C   UNL     1       1.318   0.340   3.367  1.00  0.00     0.033 A 
ATOM     20  C   UNL     1       0.934   2.953   2.779  1.00  0.00     0.165 A 
ATOM     21  C   UNL     1       1.296  -1.123   3.684  1.00  0.00     0.052 C 
ATOM     22  N   UNL     1       1.688   2.673   3.846  1.00  0.00    -0.193 NA
BRANCH  17  23
ATOM     23  C   UNL     1       0.271  -0.204   1.093  1.00  0.00     0.053 C 
ATOM     24  C   UNL     1       0.894   0.135  -0.255  1.00  0.00     0.011 C 
ENDBRANCH  17  23
BRANCH  20  25
ATOM     25  C   UNL     1       0.530   4.330   2.542  1.00  0.00     0.038 A 
ATOM     26  C   UNL     1       1.434   5.396   2.510  1.00  0.00     0.015 A 
ATOM     27  C   UNL     1      -0.808   4.638   2.295  1.00  0.00     0.123 A 
ATOM     28  C   UNL     1       0.982   6.682   2.213  1.00  0.00     0.021 A 
ATOM     29  N   UNL     1      -1.283   5.879   2.022  1.00  0.00    -0.264 NA
ATOM     30  C   UNL     1      -0.371   6.870   1.979  1.00  0.00     0.111 A 
ENDBRANCH  20  25
ENDBRANCH  15  16
ENDBRANCH  10  15
ENDBRANCH   7   9
ENDBRANCH   6   7
ENDBRANCH   5   6
ENDBRANCH   4   5
ENDBRANCH   3   4
ENDBRANCH   2   3
ENDBRANCH   1   2
BRANCH   1  31
ATOM     31  O   UNL     1       6.962  -3.615   7.278  1.00  0.00    -0.377 OA
BRANCH  31  32
ATOM     32  C   UNL     1       7.967  -4.518   7.740  1.00  0.00     0.188 C 
BRANCH  32  33
ATOM     33  C   UNL     1       8.190  -4.839   9.241  1.00  0.00     0.188 C 
BRANCH  33  34
ATOM     34  O   UNL     1       7.701  -3.865  10.148  1.00  0.00    -0.376 OA
BRANCH  34  35
ATOM     35  C   UNL     1       8.640  -3.020  10.787  1.00  0.00     0.202 C 
BRANCH  35  36
ATOM     36  C   UNL     1       9.415  -2.053   9.882  1.00  0.00     0.261 C 
BRANCH  36  37
ATOM     37  O   UNL     1      10.158  -2.656   8.812  1.00  0.00    -0.460 OA
BRANCH  37  38
ATOM     38  C   UNL     1      11.164  -3.493   9.143  1.00  0.00     0.338 C 
ATOM     39  O   UNL     1      11.541  -3.794  10.263  1.00  0.00    -0.246 OA
BRANCH  38  40
ATOM     40  C   UNL     1      11.623  -4.140   7.898  1.00  0.00     0.060 A 
ATOM     41  C   UNL     1      11.498  -5.529   7.755  1.00  0.00     0.016 A 
ATOM     42  C   UNL     1      12.141  -3.364   6.859  1.00  0.00     0.016 A 
ATOM     43  C   UNL     1      11.907  -6.148   6.573  1.00  0.00     0.010 A 
ATOM     44  C   UNL     1      12.572  -3.988   5.688  1.00  0.00     0.010 A 
ATOM     45  C   UNL     1      12.478  -5.384   5.547  1.00  0.00    -0.014 A 
BRANCH  45  46
ATOM     46  C   UNL     1      13.130  -6.044   4.392  1.00  0.00     0.031 A 
ATOM     47  C   UNL     1      14.624  -6.212   4.414  1.00  0.00     0.074 A 
ATOM     48  C   UNL     1      12.419  -6.467   3.333  1.00  0.00     0.049 A 
ATOM     49  N   UNL     1      15.423  -6.661   3.482  1.00  0.00    -0.248 NA
ATOM     50  C   UNL     1      15.306  -5.814   5.657  1.00  0.00     0.031 C 
ATOM     51  C   UNL     1      10.963  -6.409   3.209  1.00  0.00     0.029 A 
ATOM     52  N   UNL     1      12.837  -7.018   2.146  1.00  0.00    -0.354 N 
ATOM     53  C   UNL     1      16.702  -6.587   4.019  1.00  0.00     0.074 A 
ATOM     54  C   UNL     1      16.575  -6.029   5.347  1.00  0.00     0.031 C 
ATOM     55  C   UNL     1      10.611  -6.892   2.005  1.00  0.00     0.029 A 
ATOM     56  C   UNL     1      11.816  -7.249   1.258  1.00  0.00     0.049 A 
ATOM     57  H   UNL     1      13.779  -7.227   1.952  1.00  0.00     0.167 HD
ATOM     58  C   UNL     1      17.878  -6.952   3.457  1.00  0.00     0.031 A 
ATOM     59  C   UNL     1      11.854  -7.669  -0.022  1.00  0.00     0.031 A 
ATOM     60  C   UNL     1      18.006  -7.485   2.127  1.00  0.00     0.049 A 
ATOM     61  C   UNL     1      13.185  -7.970  -0.663  1.00  0.00     0.074 A 
ATOM     62  C   UNL     1      19.152  -7.899   1.472  1.00  0.00     0.029 A 
ATOM     63  N   UNL     1      16.952  -7.664   1.245  1.00  0.00    -0.354 N 
ATOM     64  N   UNL     1      14.386  -7.925  -0.139  1.00  0.00    -0.248 NA
ATOM     65  C   UNL     1      13.163  -8.382  -2.075  1.00  0.00     0.031 C 
ATOM     66  C   UNL     1      18.801  -8.263   0.168  1.00  0.00     0.029 A 
ATOM     67  C   UNL     1      17.427  -8.146   0.036  1.00  0.00     0.049 A 
ATOM     68  H   UNL     1      16.007  -7.477   1.447  1.00  0.00     0.167 HD
ATOM     69  C   UNL     1      15.257  -8.329  -1.145  1.00  0.00     0.074 A 
ATOM     70  C   UNL     1      14.445  -8.630  -2.306  1.00  0.00     0.031 C 
ATOM     71  C   UNL     1      16.607  -8.441  -1.111  1.00  0.00     0.031 A 
BRANCH  58  72
ATOM     72  C   UNL     1      19.128  -6.740   4.265  1.00  0.00    -0.014 A 
ATOM     73  C   UNL     1      19.408  -7.519   5.400  1.00  0.00     0.009 A 
ATOM     74  C   UNL     1      20.055  -5.764   3.866  1.00  0.00     0.009 A 
ATOM     75  C   UNL     1      20.573  -7.299   6.137  1.00  0.00     0.001 A 
ATOM     76  C   UNL     1      21.234  -5.569   4.587  1.00  0.00     0.001 A 
ATOM     77  C   UNL     1      21.487  -6.329   5.727  1.00  0.00     0.000 A 
ENDBRANCH  58  72
BRANCH  59  78
ATOM     78  C   UNL     1      10.595  -7.796  -0.806  1.00  0.00    -0.014 A 
ATOM     79  C   UNL     1      10.134  -9.054  -1.224  1.00  0.00     0.009 A 
ATOM     80  C   UNL     1       9.861  -6.654  -1.166  1.00  0.00     0.009 A 
ATOM     81  C   UNL     1       8.981  -9.162  -2.006  1.00  0.00     0.001 A 
ATOM     82  C   UNL     1       8.692  -6.768  -1.920  1.00  0.00     0.001 A 
ATOM     83  C   UNL     1       8.258  -8.021  -2.348  1.00  0.00     0.000 A 
ENDBRANCH  59  78
BRANCH  71  84
ATOM     84  C   UNL     1      17.296  -8.944  -2.350  1.00  0.00    -0.014 A 
ATOM     85  C   UNL     1      17.403  -8.150  -3.502  1.00  0.00     0.009 A 
ATOM     86  C   UNL     1      17.901 -10.211  -2.341  1.00  0.00     0.009 A 
ATOM     87  C   UNL     1      18.077  -8.627  -4.629  1.00  0.00     0.001 A 
ATOM     88  C   UNL     1      18.602 -10.672  -3.457  1.00  0.00     0.001 A 
ATOM     89  C   UNL     1      18.682  -9.883  -4.603  1.00  0.00     0.000 A 
ENDBRANCH  71  84
ENDBRANCH  45  46
ENDBRANCH  38  40
ENDBRANCH  37  38
ENDBRANCH  36  37
ENDBRANCH  35  36
ENDBRANCH  34  35
ENDBRANCH  33  34
ENDBRANCH  32  33
ENDBRANCH  31  32
ENDBRANCH   1  31
TORSDOF 24
