REMARK SMILES C[C@H]1C[N@H+]2CCC[C@@H]2CN1c1cc(Cl)ccc1C(=O)OCCOCCOCCOCCOC(=O)c1ccc(-c2c3nc(c(-c4ccccc4)c4ccc([nH]4)c(-c4ccccc4)c4nc(c(-c5ccccc5)c5ccc2[nH]5)C=C4)C=C3)cc1
REMARK SMILES IDX 27 1 26 2 25 3 24 4 23 5 22 6 21 7 20 8 18 9 19 10 17 11
REMARK SMILES IDX 11 12 12 13 13 14 16 15 14 16 15 17 10 18 1 19 2 20 3 21
REMARK SMILES IDX 4 22 9 23 5 24 8 25 6 27 7 28 28 29 29 30 30 31 31 32 32 33
REMARK SMILES IDX 33 34 34 35 35 36 36 37 82 38 37 39 81 40 38 41 39 42 40 43
REMARK SMILES IDX 75 44 41 45 80 46 74 47 76 48 42 49 79 50 73 51 72 52 43 54
REMARK SMILES IDX 65 55 50 56 64 57 51 58 54 59 63 60 77 61 52 62 53 63 62 65
REMARK SMILES IDX 78 66 55 67 44 68 45 69 49 70 46 71 48 72 47 73 66 74 67 75
REMARK SMILES IDX 71 76 68 77 70 78 69 79 56 80 57 81 61 82 58 83 60 84 59 85
REMARK H PARENT 4 26 76 53 54 64
REMARK Flexibility Score: inf
ROOT
ATOM      1  C   UNL     1       2.432   2.027  -3.515  1.00  0.00     0.188 C 
ENDROOT
BRANCH   1   2
ATOM      2  O   UNL     1       1.206   1.564  -2.967  1.00  0.00    -0.377 OA
BRANCH   2   3
ATOM      3  C   UNL     1       0.495   0.535  -3.627  1.00  0.00     0.188 C 
BRANCH   3   4
ATOM      4  C   UNL     1      -0.423   0.980  -4.788  1.00  0.00     0.188 C 
BRANCH   4   5
ATOM      5  O   UNL     1      -0.173   2.186  -5.494  1.00  0.00    -0.376 OA
BRANCH   5   6
ATOM      6  C   UNL     1      -0.244   3.451  -4.854  1.00  0.00     0.202 C 
BRANCH   6   7
ATOM      7  C   UNL     1      -1.168   3.735  -3.666  1.00  0.00     0.261 C 
BRANCH   7   8
ATOM      8  O   UNL     1      -1.259   2.670  -2.719  1.00  0.00    -0.460 OA
BRANCH   8   9
ATOM      9  C   UNL     1      -2.493   2.182  -2.481  1.00  0.00     0.340 C 
ATOM     10  O   UNL     1      -3.534   2.604  -2.962  1.00  0.00    -0.246 OA
BRANCH   9  11
ATOM     11  C   UNL     1      -2.445   0.925  -1.689  1.00  0.00     0.083 A 
ATOM     12  C   UNL     1      -1.726   0.710  -0.483  1.00  0.00     0.053 A 
ATOM     13  C   UNL     1      -1.935  -0.544   0.129  1.00  0.00     0.047 A 
ATOM     14  C   UNL     1      -2.673  -1.569  -0.474  1.00  0.00     0.043 A 
ATOM     15  C   UNL     1      -3.189  -0.118  -2.292  1.00  0.00     0.019 A 
ATOM     16  Cl  UNL     1      -2.819  -3.095   0.309  1.00  0.00    -0.084 Cl
ATOM     17  C   UNL     1      -3.277  -1.372  -1.703  1.00  0.00     0.021 A 
BRANCH  12  18
ATOM     18  N   UNL     1      -0.837   1.608   0.093  1.00  0.00    -0.356 N 
ATOM     19  C   UNL     1       1.071  -0.081   0.388  1.00  0.00     0.037 C 
ATOM     20  C   UNL     1       0.414   1.230   0.853  1.00  0.00     0.134 C 
ATOM     21  C   UNL     1       1.539   2.338   0.747  1.00  0.00     0.287 C 
ATOM     22  N   UNL     1       1.057   3.722   0.852  1.00  0.00    -0.329 N 
ATOM     23  C   UNL     1      -1.228   3.027   0.255  1.00  0.00     0.182 C 
ATOM     24  C   UNL     1       2.050   4.741   0.513  1.00  0.00     0.262 C 
ATOM     25  C   UNL     1      -0.025   3.891  -0.134  1.00  0.00     0.203 C 
ATOM     26  H   UNL     1       0.783   3.852   1.826  1.00  0.00     0.348 HD
ATOM     27  C   UNL     1       1.242   5.871  -0.138  1.00  0.00     0.068 C 
ATOM     28  C   UNL     1      -0.208   5.390  -0.121  1.00  0.00     0.073 C 
ENDBRANCH  12  18
ENDBRANCH   9  11
ENDBRANCH   8   9
ENDBRANCH   7   8
ENDBRANCH   6   7
ENDBRANCH   5   6
ENDBRANCH   4   5
ENDBRANCH   3   4
ENDBRANCH   2   3
ENDBRANCH   1   2
BRANCH   1  29
ATOM     29  C   UNL     1       2.812   1.764  -4.989  1.00  0.00     0.188 C 
BRANCH  29  30
ATOM     30  O   UNL     1       2.328   0.543  -5.519  1.00  0.00    -0.376 OA
BRANCH  30  31
ATOM     31  C   UNL     1       3.227  -0.536  -5.700  1.00  0.00     0.202 C 
BRANCH  31  32
ATOM     32  C   UNL     1       3.844  -1.154  -4.437  1.00  0.00     0.261 C 
BRANCH  32  33
ATOM     33  O   UNL     1       4.506  -0.238  -3.554  1.00  0.00    -0.460 OA
BRANCH  33  34
ATOM     34  C   UNL     1       5.618   0.356  -4.026  1.00  0.00     0.338 C 
ATOM     35  O   UNL     1       6.131   0.203  -5.128  1.00  0.00    -0.246 OA
BRANCH  34  36
ATOM     36  C   UNL     1       6.047   1.368  -3.048  1.00  0.00     0.060 A 
ATOM     37  C   UNL     1       6.115   2.709  -3.445  1.00  0.00     0.016 A 
ATOM     38  C   UNL     1       6.424   0.984  -1.758  1.00  0.00     0.016 A 
ATOM     39  C   UNL     1       6.628   3.665  -2.572  1.00  0.00     0.010 A 
ATOM     40  C   UNL     1       6.953   1.940  -0.890  1.00  0.00     0.010 A 
ATOM     41  C   UNL     1       7.107   3.272  -1.315  1.00  0.00    -0.014 A 
BRANCH  41  42
ATOM     42  C   UNL     1       7.991   4.191  -0.561  1.00  0.00     0.031 A 
ATOM     43  C   UNL     1       9.480   3.997  -0.682  1.00  0.00     0.074 A 
ATOM     44  C   UNL     1       7.495   5.203   0.171  1.00  0.00     0.049 A 
ATOM     45  N   UNL     1      10.454   4.657  -0.110  1.00  0.00    -0.248 NA
ATOM     46  C   UNL     1       9.929   2.910  -1.570  1.00  0.00     0.031 C 
ATOM     47  C   UNL     1       6.079   5.532   0.316  1.00  0.00     0.029 A 
ATOM     48  N   UNL     1       8.141   6.146   0.930  1.00  0.00    -0.354 N 
ATOM     49  C   UNL     1      11.626   4.061  -0.563  1.00  0.00     0.074 A 
ATOM     50  C   UNL     1      11.243   2.965  -1.423  1.00  0.00     0.031 C 
ATOM     51  C   UNL     1       5.961   6.603   1.119  1.00  0.00     0.029 A 
ATOM     52  C   UNL     1       7.290   7.012   1.571  1.00  0.00     0.049 A 
ATOM     53  H   UNL     1       9.121   6.196   1.008  1.00  0.00     0.167 HD
ATOM     54  C   UNL     1      12.908   4.402  -0.296  1.00  0.00     0.031 A 
ATOM     55  C   UNL     1       7.559   8.010   2.435  1.00  0.00     0.031 A 
ATOM     56  C   UNL     1      13.288   5.481   0.573  1.00  0.00     0.049 A 
ATOM     57  C   UNL     1       8.994   8.309   2.791  1.00  0.00     0.074 A 
ATOM     58  C   UNL     1      14.560   5.906   0.915  1.00  0.00     0.029 A 
ATOM     59  N   UNL     1      12.396   6.304   1.242  1.00  0.00    -0.354 N 
ATOM     60  N   UNL     1      10.094   7.747   2.349  1.00  0.00    -0.248 NA
ATOM     61  C   UNL     1       9.221   9.392   3.759  1.00  0.00     0.031 C 
ATOM     62  C   UNL     1      14.436   6.949   1.839  1.00  0.00     0.029 A 
ATOM     63  C   UNL     1      13.088   7.222   2.013  1.00  0.00     0.049 A 
ATOM     64  H   UNL     1      11.415   6.244   1.179  1.00  0.00     0.167 HD
ATOM     65  C   UNL     1      11.141   8.438   2.949  1.00  0.00     0.074 A 
ATOM     66  C   UNL     1      10.544   9.465   3.776  1.00  0.00     0.031 C 
ATOM     67  C   UNL     1      12.478   8.245   2.822  1.00  0.00     0.031 A 
BRANCH  54  68
ATOM     68  C   UNL     1      13.990   3.570  -0.927  1.00  0.00    -0.014 A 
ATOM     69  C   UNL     1      14.234   3.612  -2.310  1.00  0.00     0.009 A 
ATOM     70  C   UNL     1      14.793   2.747  -0.122  1.00  0.00     0.009 A 
ATOM     71  C   UNL     1      15.237   2.821  -2.876  1.00  0.00     0.001 A 
ATOM     72  C   UNL     1      15.816   1.983  -0.687  1.00  0.00     0.001 A 
ATOM     73  C   UNL     1      16.030   2.013  -2.064  1.00  0.00     0.000 A 
ENDBRANCH  54  68
BRANCH  55  74
ATOM     74  C   UNL     1       6.453   8.800   3.041  1.00  0.00    -0.014 A 
ATOM     75  C   UNL     1       6.299  10.163   2.745  1.00  0.00     0.009 A 
ATOM     76  C   UNL     1       5.570   8.202   3.954  1.00  0.00     0.009 A 
ATOM     77  C   UNL     1       5.309  10.919   3.378  1.00  0.00     0.001 A 
ATOM     78  C   UNL     1       4.559   8.952   4.559  1.00  0.00     0.001 A 
ATOM     79  C   UNL     1       4.438  10.312   4.282  1.00  0.00     0.000 A 
ENDBRANCH  55  74
BRANCH  67  80
ATOM     80  C   UNL     1      13.388   9.206   3.539  1.00  0.00    -0.014 A 
ATOM     81  C   UNL     1      13.505   9.211   4.937  1.00  0.00     0.009 A 
ATOM     82  C   UNL     1      14.171  10.099   2.789  1.00  0.00     0.009 A 
ATOM     83  C   UNL     1      14.355  10.122   5.571  1.00  0.00     0.001 A 
ATOM     84  C   UNL     1      15.046  10.982   3.422  1.00  0.00     0.001 A 
ATOM     85  C   UNL     1      15.128  11.002   4.813  1.00  0.00     0.000 A 
ENDBRANCH  67  80
ENDBRANCH  41  42
ENDBRANCH  34  36
ENDBRANCH  33  34
ENDBRANCH  32  33
ENDBRANCH  31  32
ENDBRANCH  30  31
ENDBRANCH  29  30
ENDBRANCH   1  29
TORSDOF 21
