REMARK SMILES CC1(C)[C@@]2(C(=O)OCCOCCOCCOCCOC(=O)c3ccc(-c4c5nc(c(-c6ccccc6)c6ccc([nH]6)c(-c6ccccc6)c6nc(c(-c7ccccc7)c7ccc4[nH]7)C=C6)C=C5)cc3)CC[C@]1(C)/C(=N/NC(=O)c1ccc(Cl)cc1)C2
REMARK SMILES IDX 13 1 12 2 11 3 10 4 9 5 8 6 7 7 5 8 6 9 4 10 1 11 2 12 3 13
REMARK SMILES IDX 72 14 70 15 86 16 71 17 73 18 74 19 75 20 76 21 77 22 78 24
REMARK SMILES IDX 79 25 80 26 85 27 81 28 84 29 82 30 83 31 14 32 15 33 16 34
REMARK SMILES IDX 17 35 18 36 19 37 20 38 21 39 22 40 23 41 69 42 24 43 68 44
REMARK SMILES IDX 25 45 26 46 27 47 62 48 28 49 67 50 61 51 63 52 29 53 66 54
REMARK SMILES IDX 60 55 59 56 30 58 52 59 37 60 51 61 38 62 41 63 50 64 64 65
REMARK SMILES IDX 39 66 40 67 49 69 65 70 42 71 31 72 32 73 36 74 33 75 35 76
REMARK SMILES IDX 34 77 53 78 54 79 58 80 55 81 57 82 56 83 43 84 44 85 48 86
REMARK SMILES IDX 45 87 47 88 46 89
REMARK H PARENT 76 23 63 57 41 68
REMARK Flexibility Score: inf
ROOT
ATOM      1  O   UNL     1      -5.238  -2.020   0.124  1.00  0.00    -0.377 OA
ENDROOT
BRANCH   1   2
ATOM      2  C   UNL     1      -3.818  -1.886   0.239  1.00  0.00     0.188 C 
BRANCH   2   3
ATOM      3  C   UNL     1      -3.296  -0.931   1.325  1.00  0.00     0.188 C 
BRANCH   3   4
ATOM      4  O   UNL     1      -3.865   0.380   1.360  1.00  0.00    -0.376 OA
BRANCH   4   5
ATOM      5  C   UNL     1      -4.198   1.000   0.121  1.00  0.00     0.202 C 
BRANCH   5   6
ATOM      6  C   UNL     1      -3.012   1.620  -0.608  1.00  0.00     0.261 C 
BRANCH   6   7
ATOM      7  O   UNL     1      -2.103   0.621  -1.099  1.00  0.00    -0.463 OA
BRANCH   7   8
ATOM      8  C   UNL     1      -0.929   0.491  -0.419  1.00  0.00     0.313 C 
ATOM      9  O   UNL     1      -0.623   1.120   0.582  1.00  0.00    -0.252 OA
BRANCH   8  10
ATOM     10  C   UNL     1      -0.019  -0.483  -1.131  1.00  0.00     0.079 C 
ATOM     11  C   UNL     1       2.149   0.102   0.195  1.00  0.00     0.013 C 
ATOM     12  C   UNL     1       1.231  -1.003  -0.367  1.00  0.00    -0.008 C 
ATOM     13  C   UNL     1       0.936  -1.969   0.804  1.00  0.00     0.013 C 
ATOM     14  C   UNL     1       1.777  -1.719  -1.645  1.00  0.00     0.014 C 
ATOM     15  C   UNL     1       0.591   0.224  -2.385  1.00  0.00     0.021 C 
ATOM     16  C   UNL     1      -0.699  -1.796  -1.601  1.00  0.00     0.073 C 
ATOM     17  C   UNL     1       1.857  -0.593  -2.690  1.00  0.00     0.014 C 
ATOM     18  C   UNL     1       3.046  -2.527  -1.480  1.00  0.00     0.018 C 
ATOM     19  C   UNL     1       0.527  -2.524  -2.086  1.00  0.00     0.046 C 
ATOM     20  N   UNL     1       0.687  -3.629  -2.737  1.00  0.00    -0.181 NA
BRANCH  20  21
ATOM     21  N   UNL     1      -0.251  -4.524  -3.124  1.00  0.00    -0.243 N 
ATOM     22  C   UNL     1      -1.559  -4.500  -3.543  1.00  0.00     0.271 C 
ATOM     23  H   UNL     1       0.101  -5.443  -3.100  1.00  0.00     0.194 HD
ATOM     24  O   UNL     1      -2.166  -5.567  -3.669  1.00  0.00    -0.267 OA
BRANCH  22  25
ATOM     25  C   UNL     1      -2.284  -3.274  -3.896  1.00  0.00     0.041 A 
ATOM     26  C   UNL     1      -3.580  -3.122  -3.380  1.00  0.00     0.015 A 
ATOM     27  C   UNL     1      -1.736  -2.296  -4.733  1.00  0.00     0.015 A 
ATOM     28  C   UNL     1      -4.295  -1.950  -3.621  1.00  0.00     0.021 A 
ATOM     29  C   UNL     1      -2.458  -1.120  -4.972  1.00  0.00     0.021 A 
ATOM     30  C   UNL     1      -3.723  -0.945  -4.399  1.00  0.00     0.041 A 
ATOM     31  Cl  UNL     1      -4.570   0.535  -4.627  1.00  0.00    -0.084 Cl
ENDBRANCH  22  25
ENDBRANCH  20  21
ENDBRANCH   8  10
ENDBRANCH   7   8
ENDBRANCH   6   7
ENDBRANCH   5   6
ENDBRANCH   4   5
ENDBRANCH   3   4
ENDBRANCH   2   3
ENDBRANCH   1   2
BRANCH   1  32
ATOM     32  C   UNL     1      -5.965  -1.971   1.347  1.00  0.00     0.188 C 
BRANCH  32  33
ATOM     33  C   UNL     1      -5.818  -3.196   2.254  1.00  0.00     0.188 C 
BRANCH  33  34
ATOM     34  O   UNL     1      -4.509  -3.762   2.228  1.00  0.00    -0.376 OA
BRANCH  34  35
ATOM     35  C   UNL     1      -4.521  -5.184   2.087  1.00  0.00     0.202 C 
BRANCH  35  36
ATOM     36  C   UNL     1      -4.508  -5.663   0.624  1.00  0.00     0.261 C 
BRANCH  36  37
ATOM     37  O   UNL     1      -5.477  -5.057  -0.249  1.00  0.00    -0.460 OA
BRANCH  37  38
ATOM     38  C   UNL     1      -6.764  -5.428  -0.079  1.00  0.00     0.338 C 
ATOM     39  O   UNL     1      -7.214  -6.153   0.790  1.00  0.00    -0.246 OA
BRANCH  38  40
ATOM     40  C   UNL     1      -7.589  -4.755  -1.101  1.00  0.00     0.060 A 
ATOM     41  C   UNL     1      -8.528  -3.795  -0.710  1.00  0.00     0.016 A 
ATOM     42  C   UNL     1      -7.493  -5.148  -2.438  1.00  0.00     0.016 A 
ATOM     43  C   UNL     1      -9.388  -3.232  -1.659  1.00  0.00     0.010 A 
ATOM     44  C   UNL     1      -8.369  -4.602  -3.382  1.00  0.00     0.010 A 
ATOM     45  C   UNL     1      -9.338  -3.661  -2.993  1.00  0.00    -0.014 A 
BRANCH  45  46
ATOM     46  C   UNL     1     -10.400  -3.257  -3.946  1.00  0.00     0.031 A 
ATOM     47  C   UNL     1     -11.620  -4.127  -4.085  1.00  0.00     0.074 A 
ATOM     48  C   UNL     1     -10.281  -2.146  -4.694  1.00  0.00     0.049 A 
ATOM     49  N   UNL     1     -12.655  -3.987  -4.875  1.00  0.00    -0.248 NA
ATOM     50  C   UNL     1     -11.679  -5.313  -3.215  1.00  0.00     0.031 C 
ATOM     51  C   UNL     1      -9.167  -1.203  -4.640  1.00  0.00     0.029 A 
ATOM     52  N   UNL     1     -11.112  -1.635  -5.662  1.00  0.00    -0.354 N 
ATOM     53  C   UNL     1     -13.486  -5.066  -4.599  1.00  0.00     0.074 A 
ATOM     54  C   UNL     1     -12.827  -5.861  -3.585  1.00  0.00     0.031 C 
ATOM     55  C   UNL     1      -9.373  -0.236  -5.552  1.00  0.00     0.029 A 
ATOM     56  C   UNL     1     -10.619  -0.507  -6.269  1.00  0.00     0.049 A 
ATOM     57  H   UNL     1     -11.979  -2.039  -5.897  1.00  0.00     0.167 HD
ATOM     58  C   UNL     1     -14.689  -5.371  -5.141  1.00  0.00     0.031 A 
ATOM     59  C   UNL     1     -11.106   0.211  -7.300  1.00  0.00     0.031 A 
ATOM     60  C   UNL     1     -15.333  -4.607  -6.175  1.00  0.00     0.049 A 
ATOM     61  C   UNL     1     -12.408  -0.193  -7.942  1.00  0.00     0.074 A 
ATOM     62  C   UNL     1     -16.562  -4.827  -6.771  1.00  0.00     0.029 A 
ATOM     63  N   UNL     1     -14.787  -3.488  -6.782  1.00  0.00    -0.354 N 
ATOM     64  N   UNL     1     -13.211  -1.182  -7.635  1.00  0.00    -0.248 NA
ATOM     65  C   UNL     1     -12.872   0.627  -9.073  1.00  0.00     0.031 C 
ATOM     66  C   UNL     1     -16.735  -3.873  -7.780  1.00  0.00     0.029 A 
ATOM     67  C   UNL     1     -15.638  -3.026  -7.772  1.00  0.00     0.049 A 
ATOM     68  H   UNL     1     -13.922  -3.081  -6.545  1.00  0.00     0.167 HD
ATOM     69  C   UNL     1     -14.284  -1.090  -8.514  1.00  0.00     0.074 A 
ATOM     70  C   UNL     1     -14.036   0.059  -9.360  1.00  0.00     0.031 C 
ATOM     71  C   UNL     1     -15.378  -1.885  -8.611  1.00  0.00     0.031 A 
BRANCH  58  72
ATOM     72  C   UNL     1     -15.365  -6.620  -4.650  1.00  0.00    -0.014 A 
ATOM     73  C   UNL     1     -15.944  -6.681  -3.373  1.00  0.00     0.009 A 
ATOM     74  C   UNL     1     -15.440  -7.744  -5.486  1.00  0.00     0.009 A 
ATOM     75  C   UNL     1     -16.554  -7.857  -2.930  1.00  0.00     0.001 A 
ATOM     76  C   UNL     1     -16.071  -8.910  -5.050  1.00  0.00     0.001 A 
ATOM     77  C   UNL     1     -16.619  -8.969  -3.769  1.00  0.00     0.000 A 
ENDBRANCH  58  72
BRANCH  59  78
ATOM     78  C   UNL     1     -10.343   1.377  -7.818  1.00  0.00    -0.014 A 
ATOM     79  C   UNL     1     -10.812   2.685  -7.628  1.00  0.00     0.009 A 
ATOM     80  C   UNL     1      -9.145   1.181  -8.523  1.00  0.00     0.009 A 
ATOM     81  C   UNL     1     -10.107   3.772  -8.151  1.00  0.00     0.001 A 
ATOM     82  C   UNL     1      -8.429   2.271  -9.022  1.00  0.00     0.001 A 
ATOM     83  C   UNL     1      -8.915   3.565  -8.843  1.00  0.00     0.000 A 
ENDBRANCH  59  78
BRANCH  71  84
ATOM     84  C   UNL     1     -16.407  -1.527  -9.647  1.00  0.00    -0.014 A 
ATOM     85  C   UNL     1     -16.173  -1.748 -11.013  1.00  0.00     0.009 A 
ATOM     86  C   UNL     1     -17.648  -1.009  -9.244  1.00  0.00     0.009 A 
ATOM     87  C   UNL     1     -17.154  -1.432 -11.957  1.00  0.00     0.001 A 
ATOM     88  C   UNL     1     -18.636  -0.719 -10.187  1.00  0.00     0.001 A 
ATOM     89  C   UNL     1     -18.385  -0.924 -11.543  1.00  0.00     0.000 A 
ENDBRANCH  71  84
ENDBRANCH  45  46
ENDBRANCH  38  40
ENDBRANCH  37  38
ENDBRANCH  36  37
ENDBRANCH  35  36
ENDBRANCH  34  35
ENDBRANCH  33  34
ENDBRANCH  32  33
ENDBRANCH   1  32
TORSDOF 22
