REMARK SMILES O=C(Cc1cccn1-c1ccc2c(c1)OCCO2)OCCOCCOCCOCCOC(=O)c1ccc(-c2c3nc(c(-c4ccccc4)c4ccc([nH]4)c(-c4ccccc4)c4nc(c(-c5ccccc5)c5ccc2[nH]5)C=C4)C=C3)cc1
REMARK SMILES IDX 25 1 24 2 23 3 22 4 21 5 20 6 19 7 2 8 1 9 3 10 4 11 5 12
REMARK SMILES IDX 8 13 6 14 7 15 9 16 10 17 14 18 11 19 13 20 12 21 15 22
REMARK SMILES IDX 18 23 16 24 17 25 26 26 27 27 28 28 29 29 30 30 31 31 32 32
REMARK SMILES IDX 33 33 34 34 35 35 81 36 36 37 80 38 37 39 38 40 39 41 74 42
REMARK SMILES IDX 40 43 79 44 73 45 75 46 41 47 78 48 72 49 71 50 42 52 64 53
REMARK SMILES IDX 49 54 63 55 50 56 53 57 62 58 76 59 51 60 52 61 61 63 77 64
REMARK SMILES IDX 54 65 43 66 44 67 48 68 45 69 47 70 46 71 65 72 66 73 70 74
REMARK SMILES IDX 67 75 69 76 68 77 55 78 56 79 60 80 57 81 59 82 58 83
REMARK H PARENT 75 51 53 62
REMARK Flexibility Score: inf
ROOT
ATOM      1  O   UNL     1       2.720  -1.970   3.223  1.00  0.00    -0.377 OA
ENDROOT
BRANCH   1   2
ATOM      2  C   UNL     1       1.969  -1.133   2.338  1.00  0.00     0.188 C 
BRANCH   2   3
ATOM      3  C   UNL     1       2.393  -1.276   0.875  1.00  0.00     0.188 C 
BRANCH   3   4
ATOM      4  O   UNL     1       3.799  -1.143   0.806  1.00  0.00    -0.376 OA
BRANCH   4   5
ATOM      5  C   UNL     1       4.427  -0.221  -0.049  1.00  0.00     0.202 C 
BRANCH   5   6
ATOM      6  C   UNL     1       3.885   1.201  -0.068  1.00  0.00     0.261 C 
BRANCH   6   7
ATOM      7  O   UNL     1       2.528   1.415  -0.526  1.00  0.00    -0.463 OA
BRANCH   7   8
ATOM      8  C   UNL     1       1.880   0.945  -1.616  1.00  0.00     0.311 C 
ATOM      9  O   UNL     1       0.699   1.251  -1.781  1.00  0.00    -0.252 OA
BRANCH   8  10
ATOM     10  C   UNL     1       2.558  -0.028  -2.561  1.00  0.00     0.177 C 
BRANCH  10  11
ATOM     11  C   UNL     1       3.765   0.557  -3.226  1.00  0.00     0.034 A 
ATOM     12  C   UNL     1       3.948   1.889  -3.570  1.00  0.00     0.024 A 
ATOM     13  N   UNL     1       4.944  -0.132  -3.527  1.00  0.00    -0.320 N 
ATOM     14  C   UNL     1       5.279   2.057  -3.977  1.00  0.00     0.020 A 
ATOM     15  C   UNL     1       5.872   0.820  -3.919  1.00  0.00     0.091 A 
BRANCH  13  16
ATOM     16  C   UNL     1       5.241  -1.531  -3.431  1.00  0.00     0.049 A 
ATOM     17  C   UNL     1       6.559  -1.932  -3.146  1.00  0.00     0.031 A 
ATOM     18  C   UNL     1       4.261  -2.512  -3.633  1.00  0.00     0.077 A 
ATOM     19  C   UNL     1       6.899  -3.286  -3.087  1.00  0.00     0.052 A 
ATOM     20  C   UNL     1       4.609  -3.869  -3.581  1.00  0.00     0.163 A 
ATOM     21  C   UNL     1       5.932  -4.251  -3.337  1.00  0.00     0.161 A 
ATOM     22  O   UNL     1       3.604  -4.776  -3.817  1.00  0.00    -0.486 OA
ATOM     23  O   UNL     1       6.355  -5.555  -3.342  1.00  0.00    -0.486 OA
ATOM     24  C   UNL     1       4.012  -6.122  -3.527  1.00  0.00     0.271 C 
ATOM     25  C   UNL     1       5.420  -6.389  -4.033  1.00  0.00     0.271 C 
ENDBRANCH  13  16
ENDBRANCH  10  11
ENDBRANCH   8  10
ENDBRANCH   7   8
ENDBRANCH   6   7
ENDBRANCH   5   6
ENDBRANCH   4   5
ENDBRANCH   3   4
ENDBRANCH   2   3
ENDBRANCH   1   2
BRANCH   1  26
ATOM     26  C   UNL     1       4.069  -1.558   3.413  1.00  0.00     0.188 C 
BRANCH  26  27
ATOM     27  C   UNL     1       5.191  -2.518   2.931  1.00  0.00     0.188 C 
BRANCH  27  28
ATOM     28  O   UNL     1       5.026  -3.740   2.215  1.00  0.00    -0.376 OA
BRANCH  28  29
ATOM     29  C   UNL     1       3.765  -4.321   1.945  1.00  0.00     0.202 C 
BRANCH  29  30
ATOM     30  C   UNL     1       3.082  -5.126   3.048  1.00  0.00     0.261 C 
BRANCH  30  31
ATOM     31  O   UNL     1       3.066  -4.443   4.288  1.00  0.00    -0.460 OA
BRANCH  31  32
ATOM     32  C   UNL     1       4.216  -4.553   4.948  1.00  0.00     0.338 C 
ATOM     33  O   UNL     1       5.215  -5.229   4.629  1.00  0.00    -0.246 OA
BRANCH  32  34
ATOM     34  C   UNL     1       4.160  -3.833   6.207  1.00  0.00     0.060 A 
ATOM     35  C   UNL     1       5.388  -3.629   6.842  1.00  0.00     0.016 A 
ATOM     36  C   UNL     1       2.936  -3.789   6.886  1.00  0.00     0.016 A 
ATOM     37  C   UNL     1       5.419  -3.688   8.209  1.00  0.00     0.010 A 
ATOM     38  C   UNL     1       2.970  -3.888   8.255  1.00  0.00     0.010 A 
ATOM     39  C   UNL     1       4.220  -3.937   8.884  1.00  0.00    -0.014 A 
BRANCH  39  40
ATOM     40  C   UNL     1       4.315  -4.289  10.297  1.00  0.00     0.031 A 
ATOM     41  C   UNL     1       4.283  -3.070  11.178  1.00  0.00     0.074 A 
ATOM     42  C   UNL     1       4.495  -5.615  10.561  1.00  0.00     0.049 A 
ATOM     43  N   UNL     1       4.768  -2.914  12.366  1.00  0.00    -0.248 NA
ATOM     44  C   UNL     1       3.695  -1.814  10.640  1.00  0.00     0.031 C 
ATOM     45  C   UNL     1       4.519  -6.676   9.528  1.00  0.00     0.029 A 
ATOM     46  N   UNL     1       4.708  -6.341  11.711  1.00  0.00    -0.354 N 
ATOM     47  C   UNL     1       4.404  -1.627  12.782  1.00  0.00     0.074 A 
ATOM     48  C   UNL     1       3.851  -0.956  11.645  1.00  0.00     0.031 C 
ATOM     49  C   UNL     1       4.791  -7.874  10.081  1.00  0.00     0.029 A 
ATOM     50  C   UNL     1       4.950  -7.720  11.513  1.00  0.00     0.049 A 
ATOM     51  H   UNL     1       4.693  -5.931  12.605  1.00  0.00     0.167 HD
ATOM     52  C   UNL     1       4.445  -1.231  14.080  1.00  0.00     0.031 A 
ATOM     53  C   UNL     1       5.293  -8.673  12.428  1.00  0.00     0.031 A 
ATOM     54  C   UNL     1       5.054  -2.216  14.910  1.00  0.00     0.049 A 
ATOM     55  C   UNL     1       5.267  -8.025  13.752  1.00  0.00     0.074 A 
ATOM     56  C   UNL     1       6.343  -2.664  15.049  1.00  0.00     0.029 A 
ATOM     57  N   UNL     1       4.214  -3.123  15.511  1.00  0.00    -0.354 N 
ATOM     58  N   UNL     1       4.192  -7.659  14.381  1.00  0.00    -0.248 NA
ATOM     59  C   UNL     1       6.535  -7.683  14.408  1.00  0.00     0.031 C 
ATOM     60  C   UNL     1       6.214  -4.034  15.386  1.00  0.00     0.029 A 
ATOM     61  C   UNL     1       4.856  -4.341  15.502  1.00  0.00     0.049 A 
ATOM     62  H   UNL     1       3.320  -2.936  15.879  1.00  0.00     0.167 HD
ATOM     63  C   UNL     1       4.663  -6.725  15.274  1.00  0.00     0.074 A 
ATOM     64  C   UNL     1       6.069  -7.004  15.455  1.00  0.00     0.031 C 
ATOM     65  C   UNL     1       4.034  -5.527  15.391  1.00  0.00     0.031 A 
BRANCH  52  66
ATOM     66  C   UNL     1       3.736  -0.073  14.706  1.00  0.00    -0.014 A 
ATOM     67  C   UNL     1       4.153   0.335  15.989  1.00  0.00     0.009 A 
ATOM     68  C   UNL     1       2.526   0.445  14.222  1.00  0.00     0.009 A 
ATOM     69  C   UNL     1       3.361   1.166  16.782  1.00  0.00     0.001 A 
ATOM     70  C   UNL     1       1.750   1.310  15.001  1.00  0.00     0.001 A 
ATOM     71  C   UNL     1       2.154   1.646  16.290  1.00  0.00     0.000 A 
ENDBRANCH  52  66
BRANCH  53  72
ATOM     72  C   UNL     1       5.726 -10.114  12.383  1.00  0.00    -0.014 A 
ATOM     73  C   UNL     1       5.756 -10.922  11.243  1.00  0.00     0.009 A 
ATOM     74  C   UNL     1       6.192 -10.726  13.577  1.00  0.00     0.009 A 
ATOM     75  C   UNL     1       6.285 -12.227  11.279  1.00  0.00     0.001 A 
ATOM     76  C   UNL     1       6.746 -12.009  13.615  1.00  0.00     0.001 A 
ATOM     77  C   UNL     1       6.803 -12.761  12.456  1.00  0.00     0.000 A 
ENDBRANCH  53  72
BRANCH  65  78
ATOM     78  C   UNL     1       2.598  -5.525  14.892  1.00  0.00    -0.014 A 
ATOM     79  C   UNL     1       1.618  -6.310  15.514  1.00  0.00     0.009 A 
ATOM     80  C   UNL     1       2.227  -4.844  13.719  1.00  0.00     0.009 A 
ATOM     81  C   UNL     1       0.330  -6.424  14.970  1.00  0.00     0.001 A 
ATOM     82  C   UNL     1       0.943  -4.950  13.173  1.00  0.00     0.001 A 
ATOM     83  C   UNL     1      -0.006  -5.747  13.799  1.00  0.00     0.000 A 
ENDBRANCH  65  78
ENDBRANCH  39  40
ENDBRANCH  32  34
ENDBRANCH  31  32
ENDBRANCH  30  31
ENDBRANCH  29  30
ENDBRANCH  28  29
ENDBRANCH  27  28
ENDBRANCH  26  27
ENDBRANCH   1  26
TORSDOF 22
