REMARK SMILES Nc1cccc(CC(=O)N2CC(C(=O)OCCOCCOCCOCCOC(=O)c3ccc(-c4c5nc(c(-c6ccccc6)c6ccc([nH]6)c(-c6ccccc6)c6nc(c(-c7ccccc7)c7ccc4[nH]7)C=C6)C=C5)cc3)C2)c1
REMARK SMILES IDX 20 1 19 2 18 3 17 4 16 5 15 6 13 7 14 8 12 9 8 10 9 11 10 12
REMARK SMILES IDX 11 13 78 14 7 15 6 16 2 17 3 18 79 19 4 20 5 21 1 22 21 25
REMARK SMILES IDX 22 26 23 27 24 28 25 29 26 30 27 31 28 32 29 33 30 34 31 35
REMARK SMILES IDX 77 36 32 37 76 38 33 39 34 40 35 41 70 42 36 43 75 44 69 45
REMARK SMILES IDX 71 46 37 47 74 48 68 49 67 50 38 52 60 53 45 54 59 55 46 56
REMARK SMILES IDX 49 57 58 58 72 59 47 60 48 61 57 63 73 64 50 65 39 66 40 67
REMARK SMILES IDX 44 68 41 69 43 70 42 71 61 72 62 73 66 74 63 75 65 76 64 77
REMARK SMILES IDX 51 78 52 79 56 80 53 81 55 82 54 83
REMARK H PARENT 1 23 1 24 71 51 49 62
REMARK Flexibility Score: inf
ROOT
ATOM      1  C   UNL     1       0.064   0.491  -5.617  1.00  0.00     0.188 C 
ENDROOT
BRANCH   1   2
ATOM      2  C   UNL     1      -0.873   0.497  -6.837  1.00  0.00     0.188 C 
BRANCH   2   3
ATOM      3  O   UNL     1      -0.428   0.992  -8.089  1.00  0.00    -0.376 OA
BRANCH   3   4
ATOM      4  C   UNL     1       0.166   2.273  -8.233  1.00  0.00     0.202 C 
BRANCH   4   5
ATOM      5  C   UNL     1      -0.221   3.512  -7.403  1.00  0.00     0.261 C 
BRANCH   5   6
ATOM      6  O   UNL     1      -0.604   3.278  -6.043  1.00  0.00    -0.463 OA
BRANCH   6   7
ATOM      7  C   UNL     1      -1.929   3.387  -5.759  1.00  0.00     0.312 C 
ATOM      8  O   UNL     1      -2.762   3.769  -6.581  1.00  0.00    -0.252 OA
BRANCH   7   9
ATOM      9  C   UNL     1      -2.295   2.914  -4.348  1.00  0.00     0.138 C 
ATOM     10  C   UNL     1      -2.815   2.910  -1.174  1.00  0.00     0.227 C 
ATOM     11  O   UNL     1      -4.032   2.920  -0.985  1.00  0.00    -0.275 OA
ATOM     12  N   UNL     1      -2.259   3.359  -2.346  1.00  0.00    -0.341 N 
ATOM     13  C   UNL     1      -2.947   3.981  -3.466  1.00  0.00     0.136 C 
ATOM     14  C   UNL     1      -1.267   2.725  -3.208  1.00  0.00     0.136 C 
BRANCH  10  15
ATOM     15  C   UNL     1      -1.849   2.564  -0.060  1.00  0.00     0.135 C 
BRANCH  15  16
ATOM     16  C   UNL     1      -1.151   1.231  -0.137  1.00  0.00    -0.037 A 
ATOM     17  C   UNL     1       0.945  -0.030  -0.081  1.00  0.00     0.032 A 
ATOM     18  C   UNL     1       0.211  -1.216  -0.085  1.00  0.00     0.025 A 
ATOM     19  C   UNL     1       0.255   1.183  -0.142  1.00  0.00     0.029 A 
ATOM     20  C   UNL     1      -1.186  -1.189  -0.084  1.00  0.00     0.002 A 
ATOM     21  C   UNL     1      -1.867   0.029  -0.103  1.00  0.00     0.004 A 
BRANCH  17  22
ATOM     22  N   UNL     1       2.330  -0.053  -0.140  1.00  0.00    -0.399 N 
ATOM     23  H   UNL     1       2.811  -0.911  -0.096  1.00  0.00     0.156 HD
ATOM     24  H   UNL     1       2.833   0.789  -0.225  1.00  0.00     0.156 HD
ENDBRANCH  17  22
ENDBRANCH  15  16
ENDBRANCH  10  15
ENDBRANCH   7   9
ENDBRANCH   6   7
ENDBRANCH   5   6
ENDBRANCH   4   5
ENDBRANCH   3   4
ENDBRANCH   2   3
ENDBRANCH   1   2
BRANCH   1  25
ATOM     25  O   UNL     1       1.160   1.377  -5.716  1.00  0.00    -0.377 OA
BRANCH  25  26
ATOM     26  C   UNL     1       2.390   0.844  -6.192  1.00  0.00     0.188 C 
BRANCH  26  27
ATOM     27  C   UNL     1       2.368  -0.316  -7.211  1.00  0.00     0.188 C 
BRANCH  27  28
ATOM     28  O   UNL     1       1.491  -1.380  -6.868  1.00  0.00    -0.376 OA
BRANCH  28  29
ATOM     29  C   UNL     1       2.034  -2.537  -6.250  1.00  0.00     0.202 C 
BRANCH  29  30
ATOM     30  C   UNL     1       2.626  -2.377  -4.840  1.00  0.00     0.261 C 
BRANCH  30  31
ATOM     31  O   UNL     1       3.699  -1.431  -4.704  1.00  0.00    -0.460 OA
BRANCH  31  32
ATOM     32  C   UNL     1       4.814  -1.628  -5.434  1.00  0.00     0.338 C 
ATOM     33  O   UNL     1       5.056  -2.568  -6.174  1.00  0.00    -0.246 OA
BRANCH  32  34
ATOM     34  C   UNL     1       5.636  -0.404  -5.341  1.00  0.00     0.060 A 
ATOM     35  C   UNL     1       5.952   0.292  -6.516  1.00  0.00     0.016 A 
ATOM     36  C   UNL     1       6.092   0.056  -4.104  1.00  0.00     0.016 A 
ATOM     37  C   UNL     1       6.763   1.427  -6.460  1.00  0.00     0.010 A 
ATOM     38  C   UNL     1       6.921   1.180  -4.051  1.00  0.00     0.010 A 
ATOM     39  C   UNL     1       7.291   1.848  -5.232  1.00  0.00    -0.014 A 
BRANCH  39  40
ATOM     40  C   UNL     1       8.384   2.851  -5.204  1.00  0.00     0.031 A 
ATOM     41  C   UNL     1       9.801   2.358  -5.082  1.00  0.00     0.074 A 
ATOM     42  C   UNL     1       8.135   4.168  -5.302  1.00  0.00     0.049 A 
ATOM     43  N   UNL     1      10.913   3.040  -4.984  1.00  0.00    -0.248 NA
ATOM     44  C   UNL     1       9.985   0.897  -5.065  1.00  0.00     0.031 C 
ATOM     45  C   UNL     1       6.817   4.773  -5.478  1.00  0.00     0.029 A 
ATOM     46  N   UNL     1       8.995   5.238  -5.260  1.00  0.00    -0.354 N 
ATOM     47  C   UNL     1      11.925   2.093  -4.880  1.00  0.00     0.074 A 
ATOM     48  C   UNL     1      11.294   0.792  -4.897  1.00  0.00     0.031 C 
ATOM     49  C   UNL     1       6.955   6.110  -5.521  1.00  0.00     0.029 A 
ATOM     50  C   UNL     1       8.363   6.455  -5.336  1.00  0.00     0.049 A 
ATOM     51  H   UNL     1       9.972   5.142  -5.183  1.00  0.00     0.167 HD
ATOM     52  C   UNL     1      13.262   2.287  -4.785  1.00  0.00     0.031 A 
ATOM     53  C   UNL     1       8.863   7.703  -5.240  1.00  0.00     0.031 A 
ATOM     54  C   UNL     1      13.889   3.581  -4.751  1.00  0.00     0.049 A 
ATOM     55  C   UNL     1      10.346   7.894  -5.041  1.00  0.00     0.074 A 
ATOM     56  C   UNL     1      15.238   3.882  -4.670  1.00  0.00     0.029 A 
ATOM     57  N   UNL     1      13.210   4.788  -4.786  1.00  0.00    -0.354 N 
ATOM     58  N   UNL     1      11.296   6.993  -4.970  1.00  0.00    -0.248 NA
ATOM     59  C   UNL     1      10.824   9.280  -4.917  1.00  0.00     0.031 C 
ATOM     60  C   UNL     1      15.369   5.271  -4.585  1.00  0.00     0.029 A 
ATOM     61  C   UNL     1      14.109   5.837  -4.692  1.00  0.00     0.049 A 
ATOM     62  H   UNL     1      12.234   4.886  -4.865  1.00  0.00     0.167 HD
ATOM     63  C   UNL     1      12.484   7.702  -4.828  1.00  0.00     0.074 A 
ATOM     64  C   UNL     1      12.136   9.107  -4.838  1.00  0.00     0.031 C 
ATOM     65  C   UNL     1      13.750   7.232  -4.704  1.00  0.00     0.031 A 
BRANCH  52  66
ATOM     66  C   UNL     1      14.132   1.066  -4.663  1.00  0.00    -0.014 A 
ATOM     67  C   UNL     1      14.311   0.180  -5.738  1.00  0.00     0.009 A 
ATOM     68  C   UNL     1      14.807   0.814  -3.458  1.00  0.00     0.009 A 
ATOM     69  C   UNL     1      15.118  -0.951  -5.595  1.00  0.00     0.001 A 
ATOM     70  C   UNL     1      15.639  -0.299  -3.329  1.00  0.00     0.001 A 
ATOM     71  C   UNL     1      15.786  -1.186  -4.394  1.00  0.00     0.000 A 
ENDBRANCH  52  66
BRANCH  53  72
ATOM     72  C   UNL     1       7.955   8.880  -5.304  1.00  0.00    -0.014 A 
ATOM     73  C   UNL     1       8.018   9.780  -6.379  1.00  0.00     0.009 A 
ATOM     74  C   UNL     1       7.039   9.128  -4.268  1.00  0.00     0.009 A 
ATOM     75  C   UNL     1       7.205  10.917  -6.401  1.00  0.00     0.001 A 
ATOM     76  C   UNL     1       6.204  10.247  -4.309  1.00  0.00     0.001 A 
ATOM     77  C   UNL     1       6.296  11.146  -5.369  1.00  0.00     0.000 A 
ENDBRANCH  53  72
BRANCH  65  78
ATOM     78  C   UNL     1      14.862   8.243  -4.615  1.00  0.00    -0.014 A 
ATOM     79  C   UNL     1      15.037   9.047  -3.478  1.00  0.00     0.009 A 
ATOM     80  C   UNL     1      15.778   8.357  -5.673  1.00  0.00     0.009 A 
ATOM     81  C   UNL     1      16.085   9.970  -3.419  1.00  0.00     0.001 A 
ATOM     82  C   UNL     1      16.844   9.255  -5.597  1.00  0.00     0.001 A 
ATOM     83  C   UNL     1      16.990  10.068  -4.476  1.00  0.00     0.000 A 
ENDBRANCH  65  78
ENDBRANCH  39  40
ENDBRANCH  32  34
ENDBRANCH  31  32
ENDBRANCH  30  31
ENDBRANCH  29  30
ENDBRANCH  28  29
ENDBRANCH  27  28
ENDBRANCH  26  27
ENDBRANCH  25  26
ENDBRANCH   1  25
TORSDOF 23
