REMARK SMILES C[C@]12C(=O)N(c3ccc(C(=O)OCCOCCOCCOCCOC(=O)c4ccc(-c5c6nc(c(-c7ccccc7)c7ccc([nH]7)c(-c7ccccc7)c7nc(c(-c8ccccc8)c8ccc5[nH]8)C=C7)C=C6)cc4)cc3)C(=O)[C@H]1[C@H]1c3ccccc3[C@@H]2c2ccccc21
REMARK SMILES IDX 19 1 18 2 17 3 16 4 15 5 14 6 13 7 12 8 10 9 11 10 9 11 6 12
REMARK SMILES IDX 7 13 76 14 8 15 75 16 5 17 1 18 2 19 3 20 79 21 87 22 4 23
REMARK SMILES IDX 77 24 80 25 86 26 88 27 78 28 81 29 93 30 85 31 89 32 82 33
REMARK SMILES IDX 92 34 84 35 90 36 83 37 91 38 20 39 21 40 22 41 23 42 24 43
REMARK SMILES IDX 25 44 26 45 27 46 28 47 74 48 29 49 73 50 30 51 31 52 32 53
REMARK SMILES IDX 67 54 33 55 72 56 66 57 68 58 34 59 71 60 65 61 64 62 35 64
REMARK SMILES IDX 57 65 42 66 56 67 43 68 46 69 55 70 69 71 44 72 45 73 54 75
REMARK SMILES IDX 70 76 47 77 36 78 37 79 41 80 38 81 40 82 39 83 58 84 59 85
REMARK SMILES IDX 63 86 60 87 62 88 61 89 48 90 49 91 53 92 50 93 52 94 51 95
REMARK H PARENT 68 63 46 74
REMARK Flexibility Score: inf
ROOT
ATOM      1  C   UNL     1       3.237   6.165  -9.522  1.00  0.00     0.188 C 
ENDROOT
BRANCH   1   2
ATOM      2  O   UNL     1       2.624   5.279  -8.592  1.00  0.00    -0.377 OA
BRANCH   2   3
ATOM      3  C   UNL     1       3.325   4.121  -8.173  1.00  0.00     0.188 C 
BRANCH   3   4
ATOM      4  C   UNL     1       3.719   3.115  -9.270  1.00  0.00     0.188 C 
BRANCH   4   5
ATOM      5  O   UNL     1       3.575   3.651 -10.577  1.00  0.00    -0.376 OA
BRANCH   5   6
ATOM      6  C   UNL     1       2.540   3.127 -11.389  1.00  0.00     0.202 C 
BRANCH   6   7
ATOM      7  C   UNL     1       1.075   3.277 -10.937  1.00  0.00     0.261 C 
BRANCH   7   8
ATOM      8  O   UNL     1       0.814   3.115  -9.537  1.00  0.00    -0.460 OA
BRANCH   8   9
ATOM      9  C   UNL     1       0.639   1.857  -9.087  1.00  0.00     0.338 C 
ATOM     10  O   UNL     1       0.675   0.829  -9.741  1.00  0.00    -0.246 OA
BRANCH   9  11
ATOM     11  C   UNL     1       0.621   1.895  -7.610  1.00  0.00     0.060 A 
ATOM     12  C   UNL     1       0.637   1.774  -4.801  1.00  0.00     0.052 A 
ATOM     13  C   UNL     1       1.667   1.191  -5.557  1.00  0.00     0.028 A 
ATOM     14  C   UNL     1      -0.336   2.526  -5.477  1.00  0.00     0.028 A 
ATOM     15  C   UNL     1       1.628   1.197  -6.947  1.00  0.00     0.018 A 
ATOM     16  C   UNL     1      -0.330   2.611  -6.880  1.00  0.00     0.018 A 
BRANCH  12  17
ATOM     17  N   UNL     1       0.481   1.366  -3.457  1.00  0.00    -0.250 N 
ATOM     18  C   UNL     1       1.104   0.117  -0.354  1.00  0.00     0.024 C 
ATOM     19  C   UNL     1       0.634  -0.191  -1.787  1.00  0.00     0.071 C 
ATOM     20  C   UNL     1       1.397   0.698  -2.727  1.00  0.00     0.241 C 
ATOM     21  C   UNL     1      -0.922   0.126  -1.882  1.00  0.00     0.107 C 
ATOM     22  C   UNL     1       1.044  -1.642  -2.271  1.00  0.00     0.066 C 
ATOM     23  O   UNL     1       2.619   0.755  -2.781  1.00  0.00    -0.273 OA
ATOM     24  C   UNL     1      -0.637   1.454  -2.703  1.00  0.00     0.238 C 
ATOM     25  C   UNL     1      -1.528  -1.312  -2.283  1.00  0.00     0.063 C 
ATOM     26  C   UNL     1       0.418  -1.838  -3.660  1.00  0.00    -0.036 A 
ATOM     27  C   UNL     1       0.343  -2.600  -1.336  1.00  0.00    -0.036 A 
ATOM     28  O   UNL     1      -1.313   2.474  -2.557  1.00  0.00    -0.274 OA
ATOM     29  C   UNL     1      -0.982  -1.644  -3.663  1.00  0.00    -0.036 A 
ATOM     30  C   UNL     1      -1.052  -2.397  -1.307  1.00  0.00    -0.036 A 
ATOM     31  C   UNL     1       1.091  -2.089  -4.846  1.00  0.00     0.005 A 
ATOM     32  C   UNL     1       0.945  -3.620  -0.613  1.00  0.00     0.005 A 
ATOM     33  C   UNL     1      -1.712  -1.675  -4.841  1.00  0.00     0.004 A 
ATOM     34  C   UNL     1      -1.855  -3.228  -0.539  1.00  0.00     0.004 A 
ATOM     35  C   UNL     1       0.358  -2.111  -6.037  1.00  0.00     0.000 A 
ATOM     36  C   UNL     1       0.135  -4.454   0.154  1.00  0.00     0.000 A 
ATOM     37  C   UNL     1      -1.030  -1.900  -6.035  1.00  0.00     0.000 A 
ATOM     38  C   UNL     1      -1.253  -4.259   0.192  1.00  0.00     0.000 A 
ENDBRANCH  12  17
ENDBRANCH   9  11
ENDBRANCH   8   9
ENDBRANCH   7   8
ENDBRANCH   6   7
ENDBRANCH   5   6
ENDBRANCH   4   5
ENDBRANCH   3   4
ENDBRANCH   2   3
ENDBRANCH   1   2
BRANCH   1  39
ATOM     39  C   UNL     1       4.747   6.118  -9.858  1.00  0.00     0.188 C 
BRANCH  39  40
ATOM     40  O   UNL     1       5.568   5.454  -8.908  1.00  0.00    -0.376 OA
BRANCH  40  41
ATOM     41  C   UNL     1       6.418   6.273  -8.118  1.00  0.00     0.202 C 
BRANCH  41  42
ATOM     42  C   UNL     1       5.698   7.045  -7.008  1.00  0.00     0.261 C 
BRANCH  42  43
ATOM     43  O   UNL     1       4.700   7.973  -7.457  1.00  0.00    -0.460 OA
BRANCH  43  44
ATOM     44  C   UNL     1       5.100   8.998  -8.241  1.00  0.00     0.338 C 
ATOM     45  O   UNL     1       6.233   9.250  -8.613  1.00  0.00    -0.246 OA
BRANCH  44  46
ATOM     46  C   UNL     1       3.880   9.670  -8.731  1.00  0.00     0.060 A 
ATOM     47  C   UNL     1       2.903  10.096  -7.827  1.00  0.00     0.016 A 
ATOM     48  C   UNL     1       3.685   9.817 -10.110  1.00  0.00     0.016 A 
ATOM     49  C   UNL     1       1.733  10.686  -8.306  1.00  0.00     0.010 A 
ATOM     50  C   UNL     1       2.508  10.399 -10.587  1.00  0.00     0.010 A 
ATOM     51  C   UNL     1       1.532  10.854  -9.687  1.00  0.00    -0.014 A 
BRANCH  51  52
ATOM     52  C   UNL     1       0.384  11.657 -10.169  1.00  0.00     0.031 A 
ATOM     53  C   UNL     1      -0.858  11.025 -10.718  1.00  0.00     0.074 A 
ATOM     54  C   UNL     1       0.489  12.998 -10.104  1.00  0.00     0.049 A 
ATOM     55  N   UNL     1      -1.962  11.609 -11.113  1.00  0.00    -0.248 NA
ATOM     56  C   UNL     1      -0.870   9.561 -10.844  1.00  0.00     0.031 C 
ATOM     57  C   UNL     1       1.657  13.720  -9.595  1.00  0.00     0.029 A 
ATOM     58  N   UNL     1      -0.392  13.989 -10.455  1.00  0.00    -0.354 N 
ATOM     59  C   UNL     1      -2.810  10.586 -11.517  1.00  0.00     0.074 A 
ATOM     60  C   UNL     1      -2.077   9.347 -11.358  1.00  0.00     0.031 C 
ATOM     61  C   UNL     1       1.413  15.037  -9.648  1.00  0.00     0.029 A 
ATOM     62  C   UNL     1       0.088  15.255 -10.223  1.00  0.00     0.049 A 
ATOM     63  H   UNL     1      -1.281  13.810 -10.838  1.00  0.00     0.167 HD
ATOM     64  C   UNL     1      -4.085  10.681 -11.963  1.00  0.00     0.031 A 
ATOM     65  C   UNL     1      -0.470  16.460 -10.444  1.00  0.00     0.031 A 
ATOM     66  C   UNL     1      -4.798  11.923 -12.136  1.00  0.00     0.049 A 
ATOM     67  C   UNL     1      -1.865  16.536 -10.995  1.00  0.00     0.074 A 
ATOM     68  C   UNL     1      -6.110  12.106 -12.540  1.00  0.00     0.029 A 
ATOM     69  N   UNL     1      -4.264  13.185 -11.931  1.00  0.00    -0.354 N 
ATOM     70  N   UNL     1      -2.683  15.557 -11.295  1.00  0.00    -0.248 NA
ATOM     71  C   UNL     1      -2.422  17.877 -11.224  1.00  0.00     0.031 C 
ATOM     72  C   UNL     1      -6.346  13.477 -12.654  1.00  0.00     0.029 A 
ATOM     73  C   UNL     1      -5.208  14.151 -12.241  1.00  0.00     0.049 A 
ATOM     74  H   UNL     1      -3.351  13.369 -11.612  1.00  0.00     0.167 HD
ATOM     75  C   UNL     1      -3.858  16.161 -11.723  1.00  0.00     0.074 A 
ATOM     76  C   UNL     1      -3.652  17.591 -11.631  1.00  0.00     0.031 C 
ATOM     77  C   UNL     1      -5.002  15.575 -12.150  1.00  0.00     0.031 A 
BRANCH  64  78
ATOM     78  C   UNL     1      -4.825   9.414 -12.298  1.00  0.00    -0.014 A 
ATOM     79  C   UNL     1      -5.208   9.157 -13.625  1.00  0.00     0.009 A 
ATOM     80  C   UNL     1      -5.275   8.555 -11.284  1.00  0.00     0.009 A 
ATOM     81  C   UNL     1      -6.045   8.080 -13.927  1.00  0.00     0.001 A 
ATOM     82  C   UNL     1      -6.090   7.463 -11.593  1.00  0.00     0.001 A 
ATOM     83  C   UNL     1      -6.485   7.234 -12.911  1.00  0.00     0.000 A 
ENDBRANCH  64  78
BRANCH  65  84
ATOM     84  C   UNL     1       0.298  17.687 -10.105  1.00  0.00    -0.014 A 
ATOM     85  C   UNL     1       1.454  18.026 -10.827  1.00  0.00     0.009 A 
ATOM     86  C   UNL     1      -0.084  18.490  -9.020  1.00  0.00     0.009 A 
ATOM     87  C   UNL     1       2.226  19.128 -10.454  1.00  0.00     0.001 A 
ATOM     88  C   UNL     1       0.673  19.611  -8.670  1.00  0.00     0.001 A 
ATOM     89  C   UNL     1       1.833  19.922  -9.380  1.00  0.00     0.000 A 
ENDBRANCH  65  84
BRANCH  77  90
ATOM     90  C   UNL     1      -6.150  16.463 -12.548  1.00  0.00    -0.014 A 
ATOM     91  C   UNL     1      -7.326  16.467 -11.780  1.00  0.00     0.009 A 
ATOM     92  C   UNL     1      -6.119  17.193 -13.746  1.00  0.00     0.009 A 
ATOM     93  C   UNL     1      -8.456  17.161 -12.215  1.00  0.00     0.001 A 
ATOM     94  C   UNL     1      -7.242  17.912 -14.163  1.00  0.00     0.001 A 
ATOM     95  C   UNL     1      -8.412  17.884 -13.405  1.00  0.00     0.000 A 
ENDBRANCH  77  90
ENDBRANCH  51  52
ENDBRANCH  44  46
ENDBRANCH  43  44
ENDBRANCH  42  43
ENDBRANCH  41  42
ENDBRANCH  40  41
ENDBRANCH  39  40
ENDBRANCH   1  39
TORSDOF 21
