REMARK SMILES C[C@@H]1Oc2ccccc2N(CC(=O)OCCOCCOCCOCCOC(=O)c2ccc(-c3c4nc(c(-c5ccccc5)c5ccc([nH]5)c(-c5ccccc5)c5nc(c(-c6ccccc6)c6ccc3[nH]6)C=C5)C=C4)cc2)C1=O
REMARK SMILES IDX 21 1 20 2 19 3 18 4 17 5 16 6 15 7 14 8 12 9 13 10 11 11
REMARK SMILES IDX 10 12 1 13 2 14 3 15 77 16 4 17 78 18 5 19 9 20 6 21 8 22
REMARK SMILES IDX 7 23 22 24 23 25 24 26 25 27 26 28 27 29 28 30 29 31 30 32
REMARK SMILES IDX 76 33 31 34 75 35 32 36 33 37 34 38 69 39 35 40 74 41 68 42
REMARK SMILES IDX 70 43 36 44 73 45 67 46 66 47 37 49 59 50 44 51 58 52 45 53
REMARK SMILES IDX 48 54 57 55 71 56 46 57 47 58 56 60 72 61 49 62 38 63 39 64
REMARK SMILES IDX 43 65 40 66 42 67 41 68 60 69 61 70 65 71 62 72 64 73 63 74
REMARK SMILES IDX 50 75 51 76 55 77 52 78 54 79 53 80
REMARK H PARENT 70 48 48 59
REMARK Flexibility Score: inf
ROOT
ATOM      1  C   UNL     1      -3.942   3.462   2.417  1.00  0.00     0.188 C 
ENDROOT
BRANCH   1   2
ATOM      2  O   UNL     1      -3.175   4.010   1.363  1.00  0.00    -0.377 OA
BRANCH   2   3
ATOM      3  C   UNL     1      -1.959   4.613   1.774  1.00  0.00     0.188 C 
BRANCH   3   4
ATOM      4  C   UNL     1      -1.903   6.142   1.598  1.00  0.00     0.188 C 
BRANCH   4   5
ATOM      5  O   UNL     1      -2.536   6.808   0.507  1.00  0.00    -0.376 OA
BRANCH   5   6
ATOM      6  C   UNL     1      -3.227   6.052  -0.470  1.00  0.00     0.202 C 
BRANCH   6   7
ATOM      7  C   UNL     1      -2.336   5.328  -1.492  1.00  0.00     0.261 C 
BRANCH   7   8
ATOM      8  O   UNL     1      -1.118   4.766  -0.958  1.00  0.00    -0.462 OA
BRANCH   8   9
ATOM      9  C   UNL     1       0.021   5.487  -1.134  1.00  0.00     0.326 C 
ATOM     10  O   UNL     1       0.080   6.540  -1.764  1.00  0.00    -0.250 OA
BRANCH   9  11
ATOM     11  C   UNL     1       1.276   4.873  -0.479  1.00  0.00     0.248 C 
BRANCH  11  12
ATOM     12  N   UNL     1       1.151   3.660   0.338  1.00  0.00    -0.294 N 
ATOM     13  C   UNL     1      -0.847   0.978   0.403  1.00  0.00     0.064 C 
ATOM     14  C   UNL     1       0.655   1.240   0.503  1.00  0.00     0.259 C 
ATOM     15  O   UNL     1       1.028   1.208   1.867  1.00  0.00    -0.479 OA
ATOM     16  C   UNL     1       1.002   2.463  -0.349  1.00  0.00     0.268 C 
ATOM     17  C   UNL     1       1.167   2.431   2.459  1.00  0.00     0.144 A 
ATOM     18  O   UNL     1       1.059   2.385  -1.578  1.00  0.00    -0.270 OA
ATOM     19  C   UNL     1       1.237   2.385   3.858  1.00  0.00     0.049 A 
ATOM     20  C   UNL     1       1.251   3.650   1.765  1.00  0.00     0.087 A 
ATOM     21  C   UNL     1       1.387   3.554   4.595  1.00  0.00     0.004 A 
ATOM     22  C   UNL     1       1.417   4.817   2.528  1.00  0.00     0.030 A 
ATOM     23  C   UNL     1       1.476   4.770   3.929  1.00  0.00     0.002 A 
ENDBRANCH  11  12
ENDBRANCH   9  11
ENDBRANCH   8   9
ENDBRANCH   7   8
ENDBRANCH   6   7
ENDBRANCH   5   6
ENDBRANCH   4   5
ENDBRANCH   3   4
ENDBRANCH   2   3
ENDBRANCH   1   2
BRANCH   1  24
ATOM     24  C   UNL     1      -4.461   4.524   3.390  1.00  0.00     0.188 C 
BRANCH  24  25
ATOM     25  O   UNL     1      -3.397   5.149   4.109  1.00  0.00    -0.376 OA
BRANCH  25  26
ATOM     26  C   UNL     1      -3.243   4.770   5.472  1.00  0.00     0.202 C 
BRANCH  26  27
ATOM     27  C   UNL     1      -2.481   3.456   5.696  1.00  0.00     0.261 C 
BRANCH  27  28
ATOM     28  O   UNL     1      -3.059   2.273   5.121  1.00  0.00    -0.460 OA
BRANCH  28  29
ATOM     29  C   UNL     1      -4.317   1.930   5.474  1.00  0.00     0.338 C 
ATOM     30  O   UNL     1      -5.031   2.485   6.289  1.00  0.00    -0.246 OA
BRANCH  29  31
ATOM     31  C   UNL     1      -4.765   0.886   4.522  1.00  0.00     0.060 A 
ATOM     32  C   UNL     1      -3.976  -0.240   4.266  1.00  0.00     0.016 A 
ATOM     33  C   UNL     1      -5.959   1.084   3.819  1.00  0.00     0.016 A 
ATOM     34  C   UNL     1      -4.390  -1.176   3.314  1.00  0.00     0.010 A 
ATOM     35  C   UNL     1      -6.360   0.159   2.852  1.00  0.00     0.010 A 
ATOM     36  C   UNL     1      -5.589  -0.987   2.606  1.00  0.00    -0.014 A 
BRANCH  36  37
ATOM     37  C   UNL     1      -6.132  -2.059   1.736  1.00  0.00     0.031 A 
ATOM     38  C   UNL     1      -6.013  -2.009   0.242  1.00  0.00     0.074 A 
ATOM     39  C   UNL     1      -6.798  -3.068   2.330  1.00  0.00     0.049 A 
ATOM     40  N   UNL     1      -6.478  -2.857  -0.641  1.00  0.00    -0.248 NA
ATOM     41  C   UNL     1      -5.285  -0.871  -0.340  1.00  0.00     0.031 C 
ATOM     42  C   UNL     1      -6.977  -3.212   3.777  1.00  0.00     0.029 A 
ATOM     43  N   UNL     1      -7.458  -4.149   1.802  1.00  0.00    -0.354 N 
ATOM     44  C   UNL     1      -6.092  -2.366  -1.881  1.00  0.00     0.074 A 
ATOM     45  C   UNL     1      -5.378  -1.130  -1.640  1.00  0.00     0.031 C 
ATOM     46  C   UNL     1      -7.705  -4.311   4.020  1.00  0.00     0.029 A 
ATOM     47  C   UNL     1      -8.074  -4.930   2.750  1.00  0.00     0.049 A 
ATOM     48  H   UNL     1      -7.488  -4.345   0.838  1.00  0.00     0.167 HD
ATOM     49  C   UNL     1      -6.311  -2.910  -3.102  1.00  0.00     0.031 A 
ATOM     50  C   UNL     1      -8.865  -6.013   2.619  1.00  0.00     0.031 A 
ATOM     51  C   UNL     1      -7.038  -4.134  -3.329  1.00  0.00     0.049 A 
ATOM     52  C   UNL     1      -9.140  -6.560   1.247  1.00  0.00     0.074 A 
ATOM     53  C   UNL     1      -7.272  -4.778  -4.533  1.00  0.00     0.029 A 
ATOM     54  N   UNL     1      -7.655  -4.890  -2.345  1.00  0.00    -0.354 N 
ATOM     55  N   UNL     1      -8.705  -6.124   0.090  1.00  0.00    -0.248 NA
ATOM     56  C   UNL     1      -9.997  -7.751   1.156  1.00  0.00     0.031 C 
ATOM     57  C   UNL     1      -8.088  -5.881  -4.287  1.00  0.00     0.029 A 
ATOM     58  C   UNL     1      -8.298  -5.973  -2.921  1.00  0.00     0.049 A 
ATOM     59  H   UNL     1      -7.638  -4.688  -1.381  1.00  0.00     0.167 HD
ATOM     60  C   UNL     1      -9.209  -7.001  -0.861  1.00  0.00     0.074 A 
ATOM     61  C   UNL     1      -9.976  -8.001  -0.147  1.00  0.00     0.031 C 
ATOM     62  C   UNL     1      -9.046  -6.974  -2.204  1.00  0.00     0.031 A 
BRANCH  49  63
ATOM     63  C   UNL     1      -5.761  -2.214  -4.317  1.00  0.00    -0.014 A 
ATOM     64  C   UNL     1      -6.640  -1.661  -5.264  1.00  0.00     0.009 A 
ATOM     65  C   UNL     1      -4.390  -2.264  -4.613  1.00  0.00     0.009 A 
ATOM     66  C   UNL     1      -6.162  -1.200  -6.493  1.00  0.00     0.001 A 
ATOM     67  C   UNL     1      -3.912  -1.779  -5.833  1.00  0.00     0.001 A 
ATOM     68  C   UNL     1      -4.799  -1.260  -6.776  1.00  0.00     0.000 A 
ENDBRANCH  49  63
BRANCH  50  69
ATOM     69  C   UNL     1      -9.438  -6.648   3.836  1.00  0.00    -0.014 A 
ATOM     70  C   UNL     1     -10.392  -5.967   4.612  1.00  0.00     0.009 A 
ATOM     71  C   UNL     1      -9.002  -7.912   4.258  1.00  0.00     0.009 A 
ATOM     72  C   UNL     1     -10.878  -6.527   5.795  1.00  0.00     0.001 A 
ATOM     73  C   UNL     1      -9.515  -8.485   5.424  1.00  0.00     0.001 A 
ATOM     74  C   UNL     1     -10.443  -7.789   6.197  1.00  0.00     0.000 A 
ENDBRANCH  50  69
BRANCH  62  75
ATOM     75  C   UNL     1      -9.675  -8.066  -3.025  1.00  0.00    -0.014 A 
ATOM     76  C   UNL     1      -8.855  -8.995  -3.686  1.00  0.00     0.009 A 
ATOM     77  C   UNL     1     -11.056  -8.078  -3.273  1.00  0.00     0.009 A 
ATOM     78  C   UNL     1      -9.399  -9.892  -4.607  1.00  0.00     0.001 A 
ATOM     79  C   UNL     1     -11.600  -8.996  -4.174  1.00  0.00     0.001 A 
ATOM     80  C   UNL     1     -10.771  -9.891  -4.851  1.00  0.00     0.000 A 
ENDBRANCH  62  75
ENDBRANCH  36  37
ENDBRANCH  29  31
ENDBRANCH  28  29
ENDBRANCH  27  28
ENDBRANCH  26  27
ENDBRANCH  25  26
ENDBRANCH  24  25
ENDBRANCH   1  24
TORSDOF 21
