REMARK SMILES CC(C)Cc1noc([C@@H]2CC=CC[C@H]2C(=O)OCCOCCOCCOCCOC(=O)c2ccc(-c3c4nc(c(-c5ccccc5)c5ccc([nH]5)c(-c5ccccc5)c5nc(c(-c6ccccc6)c6ccc3[nH]6)C=C5)C=C4)cc2)n1
REMARK SMILES IDX 22 1 21 2 20 3 19 4 18 5 17 6 15 7 16 8 14 9 9 10 10 11
REMARK SMILES IDX 11 12 13 13 12 14 8 15 5 16 6 17 80 18 7 19 4 20 2 21 1 22
REMARK SMILES IDX 3 23 23 24 24 25 25 26 26 27 27 28 28 29 29 30 30 31 31 32
REMARK SMILES IDX 32 33 33 34 79 35 34 36 78 37 35 38 36 39 37 40 72 41 38 42
REMARK SMILES IDX 77 43 71 44 73 45 39 46 76 47 70 48 69 49 40 51 62 52 47 53
REMARK SMILES IDX 61 54 48 55 51 56 60 57 74 58 49 59 50 60 59 62 75 63 52 64
REMARK SMILES IDX 41 65 42 66 46 67 43 68 45 69 44 70 63 71 64 72 68 73 65 74
REMARK SMILES IDX 67 75 66 76 53 77 54 78 58 79 55 80 57 81 56 82
REMARK H PARENT 73 50 51 61
REMARK Flexibility Score: inf
ROOT
ATOM      1  C   UNL     1       0.248   4.401   3.926  1.00  0.00     0.188 C 
ENDROOT
BRANCH   1   2
ATOM      2  C   UNL     1       1.312   3.749   4.798  1.00  0.00     0.188 C 
BRANCH   2   3
ATOM      3  O   UNL     1       2.503   3.402   4.140  1.00  0.00    -0.376 OA
BRANCH   3   4
ATOM      4  C   UNL     1       2.498   2.213   3.360  1.00  0.00     0.202 C 
BRANCH   4   5
ATOM      5  C   UNL     1       1.419   1.111   3.495  1.00  0.00     0.261 C 
BRANCH   5   6
ATOM      6  O   UNL     1       0.027   1.466   3.270  1.00  0.00    -0.463 OA
BRANCH   6   7
ATOM      7  C   UNL     1      -0.828   1.312   4.322  1.00  0.00     0.310 C 
ATOM      8  O   UNL     1      -0.459   1.020   5.457  1.00  0.00    -0.252 OA
BRANCH   7   9
ATOM      9  C   UNL     1      -2.312   1.319   3.969  1.00  0.00     0.116 C 
ATOM     10  C   UNL     1      -2.948   2.527   3.234  1.00  0.00     0.097 C 
ATOM     11  C   UNL     1      -4.424   2.230   2.834  1.00  0.00     0.041 C 
ATOM     12  C   UNL     1      -4.769   0.799   2.551  1.00  0.00    -0.030 C 
ATOM     13  C   UNL     1      -2.529  -0.018   3.234  1.00  0.00     0.043 C 
ATOM     14  C   UNL     1      -3.917  -0.214   2.727  1.00  0.00    -0.030 C 
BRANCH  10  15
ATOM     15  C   UNL     1      -2.981   3.824   4.017  1.00  0.00     0.230 A 
ATOM     16  C   UNL     1      -2.940   5.811   4.755  1.00  0.00     0.172 A 
ATOM     17  N   UNL     1      -3.130   5.074   5.857  1.00  0.00    -0.062 NA
ATOM     18  N   UNL     1      -2.897   5.070   3.587  1.00  0.00    -0.196 NA
ATOM     19  O   UNL     1      -3.158   3.757   5.374  1.00  0.00    -0.339 OA
BRANCH  16  20
ATOM     20  C   UNL     1      -2.825   7.307   4.764  1.00  0.00     0.084 C 
BRANCH  20  21
ATOM     21  C   UNL     1      -1.683   7.972   5.582  1.00  0.00    -0.010 C 
ATOM     22  C   UNL     1      -0.370   7.206   5.703  1.00  0.00     0.008 C 
ATOM     23  C   UNL     1      -1.339   9.354   4.997  1.00  0.00     0.008 C 
ENDBRANCH  20  21
ENDBRANCH  16  20
ENDBRANCH  10  15
ENDBRANCH   7   9
ENDBRANCH   6   7
ENDBRANCH   5   6
ENDBRANCH   4   5
ENDBRANCH   3   4
ENDBRANCH   2   3
ENDBRANCH   1   2
BRANCH   1  24
ATOM     24  O   UNL     1       0.015   3.951   2.599  1.00  0.00    -0.377 OA
BRANCH  24  25
ATOM     25  C   UNL     1       0.826   4.488   1.553  1.00  0.00     0.188 C 
BRANCH  25  26
ATOM     26  C   UNL     1       1.444   5.864   1.789  1.00  0.00     0.188 C 
BRANCH  26  27
ATOM     27  O   UNL     1       0.592   6.995   1.644  1.00  0.00    -0.376 OA
BRANCH  27  28
ATOM     28  C   UNL     1      -0.820   6.819   1.725  1.00  0.00     0.202 C 
BRANCH  28  29
ATOM     29  C   UNL     1      -1.523   8.093   1.240  1.00  0.00     0.261 C 
BRANCH  29  30
ATOM     30  O   UNL     1      -1.210   8.285  -0.144  1.00  0.00    -0.460 OA
BRANCH  30  31
ATOM     31  C   UNL     1       0.051   8.748  -0.340  1.00  0.00     0.338 C 
ATOM     32  O   UNL     1       0.645   9.579   0.327  1.00  0.00    -0.246 OA
BRANCH  31  33
ATOM     33  C   UNL     1       0.672   7.894  -1.372  1.00  0.00     0.060 A 
ATOM     34  C   UNL     1       2.032   7.575  -1.254  1.00  0.00     0.016 A 
ATOM     35  C   UNL     1      -0.095   7.377  -2.421  1.00  0.00     0.016 A 
ATOM     36  C   UNL     1       2.648   6.791  -2.224  1.00  0.00     0.010 A 
ATOM     37  C   UNL     1       0.517   6.606  -3.396  1.00  0.00     0.010 A 
ATOM     38  C   UNL     1       1.898   6.364  -3.326  1.00  0.00    -0.014 A 
BRANCH  38  39
ATOM     39  C   UNL     1       2.576   5.951  -4.566  1.00  0.00     0.031 A 
ATOM     40  C   UNL     1       2.838   7.028  -5.580  1.00  0.00     0.074 A 
ATOM     41  C   UNL     1       2.860   4.662  -4.801  1.00  0.00     0.049 A 
ATOM     42  N   UNL     1       3.277   6.926  -6.805  1.00  0.00    -0.248 NA
ATOM     43  C   UNL     1       2.537   8.410  -5.160  1.00  0.00     0.031 C 
ATOM     44  C   UNL     1       2.648   3.562  -3.861  1.00  0.00     0.029 A 
ATOM     45  N   UNL     1       3.363   4.061  -5.922  1.00  0.00    -0.354 N 
ATOM     46  C   UNL     1       3.289   8.225  -7.301  1.00  0.00     0.074 A 
ATOM     47  C   UNL     1       2.786   9.092  -6.264  1.00  0.00     0.031 C 
ATOM     48  C   UNL     1       3.000   2.409  -4.458  1.00  0.00     0.029 A 
ATOM     49  C   UNL     1       3.425   2.694  -5.826  1.00  0.00     0.049 A 
ATOM     50  H   UNL     1       3.651   4.561  -6.720  1.00  0.00     0.167 HD
ATOM     51  C   UNL     1       3.688   8.652  -8.520  1.00  0.00     0.031 A 
ATOM     52  C   UNL     1       3.764   1.785  -6.760  1.00  0.00     0.031 A 
ATOM     53  C   UNL     1       4.153   7.763  -9.546  1.00  0.00     0.049 A 
ATOM     54  C   UNL     1       4.156   2.278  -8.128  1.00  0.00     0.074 A 
ATOM     55  C   UNL     1       4.600   8.065 -10.817  1.00  0.00     0.029 A 
ATOM     56  N   UNL     1       4.216   6.383  -9.408  1.00  0.00    -0.354 N 
ATOM     57  N   UNL     1       4.208   3.511  -8.579  1.00  0.00    -0.248 NA
ATOM     58  C   UNL     1       4.542   1.260  -9.112  1.00  0.00     0.031 C 
ATOM     59  C   UNL     1       4.886   6.860 -11.468  1.00  0.00     0.029 A 
ATOM     60  C   UNL     1       4.674   5.814 -10.581  1.00  0.00     0.049 A 
ATOM     61  H   UNL     1       3.971   5.884  -8.596  1.00  0.00     0.167 HD
ATOM     62  C   UNL     1       4.658   3.419  -9.889  1.00  0.00     0.074 A 
ATOM     63  C   UNL     1       4.876   2.010 -10.154  1.00  0.00     0.031 C 
ATOM     64  C   UNL     1       4.874   4.404 -10.797  1.00  0.00     0.031 A 
BRANCH  51  65
ATOM     65  C   UNL     1       3.595  10.126  -8.799  1.00  0.00    -0.014 A 
ATOM     66  C   UNL     1       4.434  11.047  -8.149  1.00  0.00     0.009 A 
ATOM     67  C   UNL     1       2.649  10.605  -9.717  1.00  0.00     0.009 A 
ATOM     68  C   UNL     1       4.299  12.417  -8.382  1.00  0.00     0.001 A 
ATOM     69  C   UNL     1       2.537  11.974  -9.972  1.00  0.00     0.001 A 
ATOM     70  C   UNL     1       3.354  12.879  -9.297  1.00  0.00     0.000 A 
ENDBRANCH  51  65
BRANCH  52  71
ATOM     71  C   UNL     1       3.739   0.335  -6.434  1.00  0.00    -0.014 A 
ATOM     72  C   UNL     1       4.933  -0.394  -6.329  1.00  0.00     0.009 A 
ATOM     73  C   UNL     1       2.521  -0.328  -6.213  1.00  0.00     0.009 A 
ATOM     74  C   UNL     1       4.907  -1.759  -6.030  1.00  0.00     0.001 A 
ATOM     75  C   UNL     1       2.499  -1.687  -5.887  1.00  0.00     0.001 A 
ATOM     76  C   UNL     1       3.692  -2.402  -5.803  1.00  0.00     0.000 A 
ENDBRANCH  52  71
BRANCH  64  77
ATOM     77  C   UNL     1       5.400   3.989 -12.140  1.00  0.00    -0.014 A 
ATOM     78  C   UNL     1       4.574   3.356 -13.080  1.00  0.00     0.009 A 
ATOM     79  C   UNL     1       6.725   4.297 -12.488  1.00  0.00     0.009 A 
ATOM     80  C   UNL     1       5.075   3.013 -14.336  1.00  0.00     0.001 A 
ATOM     81  C   UNL     1       7.213   3.981 -13.754  1.00  0.00     0.001 A 
ATOM     82  C   UNL     1       6.391   3.332 -14.674  1.00  0.00     0.000 A 
ENDBRANCH  64  77
ENDBRANCH  38  39
ENDBRANCH  31  33
ENDBRANCH  30  31
ENDBRANCH  29  30
ENDBRANCH  28  29
ENDBRANCH  27  28
ENDBRANCH  26  27
ENDBRANCH  25  26
ENDBRANCH  24  25
ENDBRANCH   1  24
TORSDOF 23
