REMARK SMILES O=C(CSc1nc2cnccc2n1CCC1CC1)OCCOCCOCCOCCOC(=O)c1ccc(-c2c3nc(c(-c4ccccc4)c4ccc([nH]4)c(-c4ccccc4)c4nc(c(-c5ccccc5)c5ccc2[nH]5)C=C4)C=C3)cc1
REMARK SMILES IDX 23 1 22 2 21 3 20 4 19 5 2 6 1 7 3 8 4 9 5 10 6 11 13 12
REMARK SMILES IDX 7 13 12 14 8 15 11 16 9 17 10 18 14 19 15 20 16 21 17 22
REMARK SMILES IDX 18 23 24 24 25 25 26 26 27 27 28 28 29 29 30 30 31 31 32 32
REMARK SMILES IDX 33 33 34 34 35 35 81 36 36 37 80 38 37 39 38 40 39 41 74 42
REMARK SMILES IDX 40 43 79 44 73 45 75 46 41 47 78 48 72 49 71 50 42 52 64 53
REMARK SMILES IDX 49 54 63 55 50 56 53 57 62 58 76 59 51 60 52 61 61 63 77 64
REMARK SMILES IDX 54 65 43 66 44 67 48 68 45 69 47 70 46 71 65 72 66 73 70 74
REMARK SMILES IDX 67 75 69 76 68 77 55 78 56 79 60 80 57 81 59 82 58 83
REMARK H PARENT 75 51 53 62
REMARK Flexibility Score: inf
ROOT
ATOM      1  C   UNL     1       2.230   1.849  -0.006  1.00  0.00     0.188 C 
ENDROOT
BRANCH   1   2
ATOM      2  O   UNL     1       3.638   1.744  -0.083  1.00  0.00    -0.376 OA
BRANCH   2   3
ATOM      3  C   UNL     1       4.385   0.552   0.011  1.00  0.00     0.202 C 
BRANCH   3   4
ATOM      4  C   UNL     1       4.016  -0.708  -0.771  1.00  0.00     0.261 C 
BRANCH   4   5
ATOM      5  O   UNL     1       2.625  -1.030  -0.757  1.00  0.00    -0.463 OA
BRANCH   5   6
ATOM      6  C   UNL     1       2.123  -1.889   0.155  1.00  0.00     0.316 C 
ATOM      7  O   UNL     1       1.354  -2.783  -0.192  1.00  0.00    -0.251 OA
BRANCH   6   8
ATOM      8  C   UNL     1       2.216  -1.465   1.589  1.00  0.00     0.200 C 
BRANCH   8   9
ATOM      9  S   UNL     1       3.806  -1.610   2.432  1.00  0.00    -0.076 SA
BRANCH   9  10
ATOM     10  C   UNL     1       3.247  -2.207   3.950  1.00  0.00     0.169 A 
ATOM     11  N   UNL     1       3.457  -3.463   4.250  1.00  0.00    -0.221 NA
ATOM     12  N   UNL     1       2.180  -1.676   4.641  1.00  0.00    -0.319 N 
ATOM     13  C   UNL     1       2.276  -3.872   4.792  1.00  0.00     0.108 A 
ATOM     14  C   UNL     1       1.435  -2.782   5.031  1.00  0.00     0.072 A 
ATOM     15  C   UNL     1       1.808  -5.169   5.013  1.00  0.00     0.141 A 
ATOM     16  C   UNL     1       0.126  -2.962   5.475  1.00  0.00     0.049 A 
ATOM     17  N   UNL     1       0.530  -5.369   5.420  1.00  0.00    -0.262 NA
ATOM     18  C   UNL     1      -0.260  -4.290   5.628  1.00  0.00     0.113 A 
BRANCH  12  19
ATOM     19  C   UNL     1       1.697  -0.302   4.643  1.00  0.00     0.125 C 
BRANCH  19  20
ATOM     20  C   UNL     1       2.489   0.727   5.453  1.00  0.00     0.025 C 
BRANCH  20  21
ATOM     21  C   UNL     1       3.707   1.329   4.803  1.00  0.00    -0.009 C 
ATOM     22  C   UNL     1       3.813   1.732   3.353  1.00  0.00     0.004 C 
ATOM     23  C   UNL     1       3.653   2.791   4.388  1.00  0.00     0.004 C 
ENDBRANCH  20  21
ENDBRANCH  19  20
ENDBRANCH  12  19
ENDBRANCH   9  10
ENDBRANCH   8   9
ENDBRANCH   6   8
ENDBRANCH   5   6
ENDBRANCH   4   5
ENDBRANCH   3   4
ENDBRANCH   2   3
ENDBRANCH   1   2
BRANCH   1  24
ATOM     24  C   UNL     1       1.532   1.750  -1.355  1.00  0.00     0.188 C 
BRANCH  24  25
ATOM     25  O   UNL     1       2.044   2.723  -2.252  1.00  0.00    -0.377 OA
BRANCH  25  26
ATOM     26  C   UNL     1       3.362   2.437  -2.706  1.00  0.00     0.188 C 
BRANCH  26  27
ATOM     27  C   UNL     1       4.444   3.419  -2.193  1.00  0.00     0.188 C 
BRANCH  27  28
ATOM     28  O   UNL     1       4.163   4.810  -2.102  1.00  0.00    -0.376 OA
BRANCH  28  29
ATOM     29  C   UNL     1       3.207   5.346  -3.000  1.00  0.00     0.202 C 
BRANCH  29  30
ATOM     30  C   UNL     1       3.609   5.375  -4.485  1.00  0.00     0.261 C 
BRANCH  30  31
ATOM     31  O   UNL     1       4.103   4.108  -4.958  1.00  0.00    -0.460 OA
BRANCH  31  32
ATOM     32  C   UNL     1       5.346   4.085  -5.513  1.00  0.00     0.338 C 
ATOM     33  O   UNL     1       5.961   5.020  -5.964  1.00  0.00    -0.246 OA
BRANCH  32  34
ATOM     34  C   UNL     1       5.954   2.766  -5.170  1.00  0.00     0.060 A 
ATOM     35  C   UNL     1       5.248   1.567  -5.293  1.00  0.00     0.016 A 
ATOM     36  C   UNL     1       7.168   2.794  -4.464  1.00  0.00     0.016 A 
ATOM     37  C   UNL     1       5.705   0.434  -4.614  1.00  0.00     0.010 A 
ATOM     38  C   UNL     1       7.620   1.657  -3.784  1.00  0.00     0.010 A 
ATOM     39  C   UNL     1       6.873   0.479  -3.824  1.00  0.00    -0.014 A 
BRANCH  39  40
ATOM     40  C   UNL     1       7.335  -0.793  -3.232  1.00  0.00     0.031 A 
ATOM     41  C   UNL     1       7.599  -1.865  -4.240  1.00  0.00     0.074 A 
ATOM     42  C   UNL     1       7.710  -1.050  -1.960  1.00  0.00     0.049 A 
ATOM     43  N   UNL     1       7.124  -3.067  -4.306  1.00  0.00    -0.248 NA
ATOM     44  C   UNL     1       8.486  -1.494  -5.355  1.00  0.00     0.031 C 
ATOM     45  C   UNL     1       7.953  -0.098  -0.877  1.00  0.00     0.029 A 
ATOM     46  N   UNL     1       8.055  -2.257  -1.398  1.00  0.00    -0.354 N 
ATOM     47  C   UNL     1       7.749  -3.655  -5.405  1.00  0.00     0.074 A 
ATOM     48  C   UNL     1       8.491  -2.614  -6.071  1.00  0.00     0.031 C 
ATOM     49  C   UNL     1       8.582  -0.732   0.140  1.00  0.00     0.029 A 
ATOM     50  C   UNL     1       8.704  -2.147  -0.176  1.00  0.00     0.049 A 
ATOM     51  H   UNL     1       7.859  -3.123  -1.825  1.00  0.00     0.167 HD
ATOM     52  C   UNL     1       7.766  -4.993  -5.639  1.00  0.00     0.031 A 
ATOM     53  C   UNL     1       9.373  -3.119   0.493  1.00  0.00     0.031 A 
ATOM     54  C   UNL     1       6.755  -5.707  -4.920  1.00  0.00     0.049 A 
ATOM     55  C   UNL     1       9.005  -4.444  -0.059  1.00  0.00     0.074 A 
ATOM     56  C   UNL     1       5.377  -5.692  -4.896  1.00  0.00     0.029 A 
ATOM     57  N   UNL     1       7.149  -6.472  -3.852  1.00  0.00    -0.354 N 
ATOM     58  N   UNL     1       7.871  -5.055   0.120  1.00  0.00    -0.248 NA
ATOM     59  C   UNL     1       9.874  -5.022  -1.074  1.00  0.00     0.031 C 
ATOM     60  C   UNL     1       5.017  -6.093  -3.580  1.00  0.00     0.029 A 
ATOM     61  C   UNL     1       6.200  -6.330  -2.876  1.00  0.00     0.049 A 
ATOM     62  H   UNL     1       7.964  -7.022  -3.798  1.00  0.00     0.167 HD
ATOM     63  C   UNL     1       7.720  -5.870  -0.992  1.00  0.00     0.074 A 
ATOM     64  C   UNL     1       9.031  -5.894  -1.625  1.00  0.00     0.031 C 
ATOM     65  C   UNL     1       6.491  -6.234  -1.460  1.00  0.00     0.031 A 
BRANCH  52  66
ATOM     66  C   UNL     1       8.912  -5.694  -6.320  1.00  0.00    -0.014 A 
ATOM     67  C   UNL     1      10.207  -5.143  -6.385  1.00  0.00     0.009 A 
ATOM     68  C   UNL     1       8.777  -7.042  -6.694  1.00  0.00     0.009 A 
ATOM     69  C   UNL     1      11.306  -5.883  -6.827  1.00  0.00     0.001 A 
ATOM     70  C   UNL     1       9.886  -7.801  -7.089  1.00  0.00     0.001 A 
ATOM     71  C   UNL     1      11.149  -7.220  -7.160  1.00  0.00     0.000 A 
ENDBRANCH  52  66
BRANCH  53  72
ATOM     72  C   UNL     1      10.535  -2.976   1.407  1.00  0.00    -0.014 A 
ATOM     73  C   UNL     1      11.442  -1.912   1.248  1.00  0.00     0.009 A 
ATOM     74  C   UNL     1      10.907  -4.020   2.272  1.00  0.00     0.009 A 
ATOM     75  C   UNL     1      12.675  -1.895   1.909  1.00  0.00     0.001 A 
ATOM     76  C   UNL     1      12.148  -4.010   2.926  1.00  0.00     0.001 A 
ATOM     77  C   UNL     1      13.035  -2.952   2.737  1.00  0.00     0.000 A 
ENDBRANCH  53  72
BRANCH  65  78
ATOM     78  C   UNL     1       5.293  -6.188  -0.549  1.00  0.00    -0.014 A 
ATOM     79  C   UNL     1       4.426  -7.298  -0.551  1.00  0.00     0.009 A 
ATOM     80  C   UNL     1       4.897  -5.042   0.147  1.00  0.00     0.009 A 
ATOM     81  C   UNL     1       3.186  -7.252   0.089  1.00  0.00     0.001 A 
ATOM     82  C   UNL     1       3.675  -5.021   0.822  1.00  0.00     0.001 A 
ATOM     83  C   UNL     1       2.808  -6.107   0.774  1.00  0.00     0.000 A 
ENDBRANCH  65  78
ENDBRANCH  39  40
ENDBRANCH  32  34
ENDBRANCH  31  32
ENDBRANCH  30  31
ENDBRANCH  29  30
ENDBRANCH  28  29
ENDBRANCH  27  28
ENDBRANCH  26  27
ENDBRANCH  25  26
ENDBRANCH  24  25
ENDBRANCH   1  24
TORSDOF 25
