REMARK SMILES COc1ccc(F)c(NC(=O)N2CCCC[C@@H]2C(=O)OCCOCCOCCOCCOC(=O)c2ccc(-c3c4nc(c(-c5ccccc5)c5ccc([nH]5)c(-c5ccccc5)c5nc(c(-c6ccccc6)c6ccc3[nH]6)C=C5)C=C4)cc2)c1
REMARK SMILES IDX 25 1 24 2 23 3 22 4 21 5 20 6 18 7 19 8 17 9 12 10 13 11
REMARK SMILES IDX 14 12 16 13 15 14 10 15 9 16 11 18 8 19 3 20 4 21 83 22 5 23
REMARK SMILES IDX 6 24 7 25 2 26 1 27 26 28 27 29 28 30 29 31 30 32 31 33
REMARK SMILES IDX 32 34 33 35 34 36 35 37 36 38 82 39 37 40 81 41 38 42 39 43
REMARK SMILES IDX 40 44 75 45 41 46 80 47 74 48 76 49 42 50 79 51 73 52 72 53
REMARK SMILES IDX 43 55 65 56 50 57 64 58 51 59 54 60 63 61 77 62 52 63 53 64
REMARK SMILES IDX 62 66 78 67 55 68 44 69 45 70 49 71 46 72 48 73 47 74 66 75
REMARK SMILES IDX 67 76 71 77 68 78 70 79 69 80 56 81 57 82 61 83 58 84 60 85
REMARK SMILES IDX 59 86
REMARK H PARENT 9 17 76 54 54 65
REMARK Flexibility Score: inf
ROOT
ATOM      1  C   UNL     1      -1.373  -0.523   3.195  1.00  0.00     0.188 C 
ENDROOT
BRANCH   1   2
ATOM      2  C   UNL     1       0.022  -0.073   3.660  1.00  0.00     0.188 C 
BRANCH   2   3
ATOM      3  O   UNL     1       0.228  -0.151   5.061  1.00  0.00    -0.376 OA
BRANCH   3   4
ATOM      4  C   UNL     1       0.289   1.045   5.819  1.00  0.00     0.202 C 
BRANCH   4   5
ATOM      5  C   UNL     1      -1.030   1.821   6.098  1.00  0.00     0.261 C 
BRANCH   5   6
ATOM      6  O   UNL     1      -1.948   1.987   4.995  1.00  0.00    -0.462 OA
BRANCH   6   7
ATOM      7  C   UNL     1      -1.403   2.724   4.005  1.00  0.00     0.329 C 
ATOM      8  O   UNL     1      -0.251   3.113   4.127  1.00  0.00    -0.250 OA
BRANCH   7   9
ATOM      9  C   UNL     1      -2.248   2.937   2.723  1.00  0.00     0.196 C 
ATOM     10  N   UNL     1      -2.297   4.347   2.233  1.00  0.00    -0.311 N 
ATOM     11  C   UNL     1      -3.210   4.682   1.147  1.00  0.00     0.122 C 
ATOM     12  C   UNL     1      -4.577   4.021   1.247  1.00  0.00     0.022 C 
ATOM     13  C   UNL     1      -3.664   2.326   2.807  1.00  0.00     0.037 C 
ATOM     14  C   UNL     1      -4.433   2.531   1.502  1.00  0.00     0.005 C 
BRANCH  10  15
ATOM     15  C   UNL     1      -1.595   5.389   2.786  1.00  0.00     0.322 C 
ATOM     16  N   UNL     1      -0.234   5.384   2.812  1.00  0.00    -0.305 N 
ATOM     17  H   UNL     1       0.154   6.122   3.336  1.00  0.00     0.171 HD
ATOM     18  O   UNL     1      -2.196   6.345   3.283  1.00  0.00    -0.248 OA
BRANCH  16  19
ATOM     19  C   UNL     1       0.735   4.528   2.236  1.00  0.00     0.082 A 
ATOM     20  C   UNL     1       1.341   2.640   0.839  1.00  0.00     0.121 A 
ATOM     21  C   UNL     1       2.483   2.418   1.613  1.00  0.00     0.049 A 
ATOM     22  C   UNL     1       0.494   3.719   1.127  1.00  0.00     0.075 A 
ATOM     23  C   UNL     1       2.790   3.290   2.659  1.00  0.00     0.045 A 
ATOM     24  C   UNL     1       1.933   4.349   2.948  1.00  0.00     0.147 A 
ATOM     25  F   UNL     1       2.185   5.102   4.032  1.00  0.00    -0.205 F 
BRANCH  20  26
ATOM     26  O   UNL     1       0.937   1.860  -0.211  1.00  0.00    -0.497 OA
ATOM     27  C   UNL     1       1.323   0.491  -0.156  1.00  0.00     0.278 C 
ENDBRANCH  20  26
ENDBRANCH  16  19
ENDBRANCH  10  15
ENDBRANCH   7   9
ENDBRANCH   6   7
ENDBRANCH   5   6
ENDBRANCH   4   5
ENDBRANCH   3   4
ENDBRANCH   2   3
ENDBRANCH   1   2
BRANCH   1  28
ATOM     28  O   UNL     1      -2.404  -0.637   4.162  1.00  0.00    -0.377 OA
BRANCH  28  29
ATOM     29  C   UNL     1      -2.156  -1.359   5.367  1.00  0.00     0.188 C 
BRANCH  29  30
ATOM     30  C   UNL     1      -1.120  -2.505   5.390  1.00  0.00     0.188 C 
BRANCH  30  31
ATOM     31  O   UNL     1      -0.737  -2.974   4.110  1.00  0.00    -0.376 OA
BRANCH  31  32
ATOM     32  C   UNL     1      -1.406  -4.127   3.625  1.00  0.00     0.202 C 
BRANCH  32  33
ATOM     33  C   UNL     1      -2.937  -4.059   3.490  1.00  0.00     0.261 C 
BRANCH  33  34
ATOM     34  O   UNL     1      -3.686  -3.777   4.688  1.00  0.00    -0.460 OA
BRANCH  34  35
ATOM     35  C   UNL     1      -3.522  -4.580   5.760  1.00  0.00     0.338 C 
ATOM     36  O   UNL     1      -2.851  -5.598   5.823  1.00  0.00    -0.246 OA
BRANCH  35  37
ATOM     37  C   UNL     1      -4.117  -3.899   6.932  1.00  0.00     0.060 A 
ATOM     38  C   UNL     1      -3.300  -3.582   8.029  1.00  0.00     0.016 A 
ATOM     39  C   UNL     1      -5.471  -3.557   6.943  1.00  0.00     0.016 A 
ATOM     40  C   UNL     1      -3.844  -2.966   9.156  1.00  0.00     0.010 A 
ATOM     41  C   UNL     1      -6.022  -2.970   8.085  1.00  0.00     0.010 A 
ATOM     42  C   UNL     1      -5.219  -2.712   9.211  1.00  0.00    -0.014 A 
BRANCH  42  43
ATOM     43  C   UNL     1      -5.853  -2.423  10.521  1.00  0.00     0.031 A 
ATOM     44  C   UNL     1      -6.460  -3.575  11.276  1.00  0.00     0.074 A 
ATOM     45  C   UNL     1      -5.861  -1.188  11.051  1.00  0.00     0.049 A 
ATOM     46  N   UNL     1      -7.106  -3.578  12.414  1.00  0.00    -0.248 NA
ATOM     47  C   UNL     1      -6.318  -4.906  10.660  1.00  0.00     0.031 C 
ATOM     48  C   UNL     1      -5.249  -0.002  10.455  1.00  0.00     0.029 A 
ATOM     49  N   UNL     1      -6.412  -0.732  12.223  1.00  0.00    -0.354 N 
ATOM     50  C   UNL     1      -7.453  -4.904  12.643  1.00  0.00     0.074 A 
ATOM     51  C   UNL     1      -6.978  -5.672  11.515  1.00  0.00     0.031 C 
ATOM     52  C   UNL     1      -5.465   1.050  11.264  1.00  0.00     0.029 A 
ATOM     53  C   UNL     1      -6.261   0.620  12.413  1.00  0.00     0.049 A 
ATOM     54  H   UNL     1      -6.873  -1.319  12.866  1.00  0.00     0.167 HD
ATOM     55  C   UNL     1      -8.107  -5.438  13.701  1.00  0.00     0.031 A 
ATOM     56  C   UNL     1      -6.733   1.417  13.391  1.00  0.00     0.031 A 
ATOM     57  C   UNL     1      -8.598  -4.673  14.814  1.00  0.00     0.049 A 
ATOM     58  C   UNL     1      -7.549   0.815  14.507  1.00  0.00     0.074 A 
ATOM     59  C   UNL     1      -9.274  -5.119  15.935  1.00  0.00     0.029 A 
ATOM     60  N   UNL     1      -8.475  -3.298  14.939  1.00  0.00    -0.354 N 
ATOM     61  N   UNL     1      -7.863  -0.441  14.721  1.00  0.00    -0.248 NA
ATOM     62  C   UNL     1      -8.070   1.743  15.521  1.00  0.00     0.031 C 
ATOM     63  C   UNL     1      -9.617  -4.006  16.708  1.00  0.00     0.029 A 
ATOM     64  C   UNL     1      -9.088  -2.875  16.106  1.00  0.00     0.049 A 
ATOM     65  H   UNL     1      -8.019  -2.710  14.295  1.00  0.00     0.167 HD
ATOM     66  C   UNL     1      -8.585  -0.456  15.909  1.00  0.00     0.074 A 
ATOM     67  C   UNL     1      -8.649   0.913  16.377  1.00  0.00     0.031 C 
ATOM     68  C   UNL     1      -9.142  -1.508  16.559  1.00  0.00     0.031 A 
BRANCH  55  69
ATOM     69  C   UNL     1      -8.364  -6.920  13.678  1.00  0.00    -0.014 A 
ATOM     70  C   UNL     1      -7.320  -7.848  13.822  1.00  0.00     0.009 A 
ATOM     71  C   UNL     1      -9.677  -7.394  13.534  1.00  0.00     0.009 A 
ATOM     72  C   UNL     1      -7.584  -9.219  13.788  1.00  0.00     0.001 A 
ATOM     73  C   UNL     1      -9.942  -8.764  13.532  1.00  0.00     0.001 A 
ATOM     74  C   UNL     1      -8.894  -9.675  13.649  1.00  0.00     0.000 A 
ENDBRANCH  55  69
BRANCH  56  75
ATOM     75  C   UNL     1      -6.470   2.882  13.359  1.00  0.00    -0.014 A 
ATOM     76  C   UNL     1      -5.662   3.488  14.334  1.00  0.00     0.009 A 
ATOM     77  C   UNL     1      -7.055   3.689  12.370  1.00  0.00     0.009 A 
ATOM     78  C   UNL     1      -5.470   4.872  14.336  1.00  0.00     0.001 A 
ATOM     79  C   UNL     1      -6.834   5.068  12.354  1.00  0.00     0.001 A 
ATOM     80  C   UNL     1      -6.052   5.660  13.344  1.00  0.00     0.000 A 
ENDBRANCH  56  75
BRANCH  68  81
ATOM     81  C   UNL     1      -9.827  -1.232  17.870  1.00  0.00    -0.014 A 
ATOM     82  C   UNL     1     -11.043  -0.534  17.933  1.00  0.00     0.009 A 
ATOM     83  C   UNL     1      -9.263  -1.720  19.060  1.00  0.00     0.009 A 
ATOM     84  C   UNL     1     -11.658  -0.297  19.165  1.00  0.00     0.001 A 
ATOM     85  C   UNL     1      -9.898  -1.513  20.286  1.00  0.00     0.001 A 
ATOM     86  C   UNL     1     -11.089  -0.791  20.338  1.00  0.00     0.000 A 
ENDBRANCH  68  81
ENDBRANCH  42  43
ENDBRANCH  35  37
ENDBRANCH  34  35
ENDBRANCH  33  34
ENDBRANCH  32  33
ENDBRANCH  31  32
ENDBRANCH  30  31
ENDBRANCH  29  30
ENDBRANCH  28  29
ENDBRANCH   1  28
TORSDOF 23
