REMARK SMILES CC(C)[C@H](NC(=O)[C@H](C)NC(=O)C[NH3+])C(=O)OCCOCCOCCOCCOC(=O)c1ccc(-c2c3nc(c(-c4ccccc4)c4ccc([nH]4)c(-c4ccccc4)c4nc(c(-c5ccccc5)c5ccc2[nH]5)C=C4)C=C3)cc1
REMARK SMILES IDX 21 1 20 2 19 3 18 4 17 5 15 6 16 7 4 8 2 9 1 10 3 11 5 12
REMARK SMILES IDX 6 13 7 15 8 16 9 17 10 18 11 19 12 21 13 22 14 23 22 27
REMARK SMILES IDX 23 28 24 29 25 30 26 31 27 32 28 33 29 34 30 35 31 36 32 37
REMARK SMILES IDX 33 38 79 39 34 40 78 41 35 42 36 43 37 44 72 45 38 46 77 47
REMARK SMILES IDX 71 48 73 49 39 50 76 51 70 52 69 53 40 55 62 56 47 57 61 58
REMARK SMILES IDX 48 59 51 60 60 61 74 62 49 63 50 64 59 66 75 67 52 68 41 69
REMARK SMILES IDX 42 70 46 71 43 72 45 73 44 74 63 75 64 76 68 77 65 78 67 79
REMARK SMILES IDX 66 80 53 81 54 82 58 83 55 84 57 85 56 86
REMARK H PARENT 5 14 10 20 14 24 14 25 14 26 73 54 51 65
REMARK Flexibility Score: inf
ROOT
ATOM      1  C   UNL     1       2.548   2.284  -2.944  1.00  0.00     0.188 C 
ENDROOT
BRANCH   1   2
ATOM      2  O   UNL     1       3.135   2.293  -1.646  1.00  0.00    -0.376 OA
BRANCH   2   3
ATOM      3  C   UNL     1       2.814   1.180  -0.808  1.00  0.00     0.202 C 
BRANCH   3   4
ATOM      4  C   UNL     1       1.454   1.250  -0.098  1.00  0.00     0.261 C 
BRANCH   4   5
ATOM      5  O   UNL     1       0.295   0.783  -0.848  1.00  0.00    -0.462 OA
BRANCH   5   6
ATOM      6  C   UNL     1      -0.599   1.748  -1.187  1.00  0.00     0.328 C 
ATOM      7  O   UNL     1      -0.328   2.947  -1.197  1.00  0.00    -0.250 OA
BRANCH   6   8
ATOM      8  C   UNL     1      -2.067   1.281  -1.445  1.00  0.00     0.194 C 
BRANCH   8   9
ATOM      9  C   UNL     1      -2.764   0.807  -0.105  1.00  0.00     0.017 C 
ATOM     10  C   UNL     1      -3.310  -0.634  -0.149  1.00  0.00     0.010 C 
ATOM     11  C   UNL     1      -1.925   0.943   1.171  1.00  0.00     0.010 C 
ENDBRANCH   8   9
BRANCH   8  12
ATOM     12  N   UNL     1      -2.547   0.424  -2.562  1.00  0.00    -0.341 N 
ATOM     13  C   UNL     1      -2.269   0.262  -3.880  1.00  0.00     0.243 C 
ATOM     14  H   UNL     1      -3.258  -0.190  -2.265  1.00  0.00     0.164 HD
ATOM     15  O   UNL     1      -3.155  -0.220  -4.591  1.00  0.00    -0.273 OA
BRANCH  13  16
ATOM     16  C   UNL     1      -0.870   0.471  -4.431  1.00  0.00     0.168 C 
ATOM     17  C   UNL     1       0.053  -0.479  -3.675  1.00  0.00     0.041 C 
BRANCH  16  18
ATOM     18  N   UNL     1      -0.549   1.889  -4.329  1.00  0.00    -0.340 N 
ATOM     19  C   UNL     1      -0.188   2.783  -5.284  1.00  0.00     0.275 C 
ATOM     20  H   UNL     1      -0.603   2.259  -3.418  1.00  0.00     0.164 HD
ATOM     21  O   UNL     1      -0.230   3.980  -4.987  1.00  0.00    -0.268 OA
BRANCH  19  22
ATOM     22  C   UNL     1       0.334   2.334  -6.647  1.00  0.00     0.360 C 
BRANCH  22  23
ATOM     23  N   UNL     1       1.594   3.036  -6.948  1.00  0.00    -0.350 N 
ATOM     24  H   UNL     1       1.427   4.042  -6.963  1.00  0.00     0.344 HD
ATOM     25  H   UNL     1       1.941   2.735  -7.858  1.00  0.00     0.344 HD
ATOM     26  H   UNL     1       2.285   2.816  -6.231  1.00  0.00     0.344 HD
ENDBRANCH  22  23
ENDBRANCH  19  22
ENDBRANCH  16  18
ENDBRANCH  13  16
ENDBRANCH   8  12
ENDBRANCH   6   8
ENDBRANCH   5   6
ENDBRANCH   4   5
ENDBRANCH   3   4
ENDBRANCH   2   3
ENDBRANCH   1   2
BRANCH   1  27
ATOM     27  C   UNL     1       3.216   1.302  -3.913  1.00  0.00     0.188 C 
BRANCH  27  28
ATOM     28  O   UNL     1       3.016  -0.034  -3.480  1.00  0.00    -0.377 OA
BRANCH  28  29
ATOM     29  C   UNL     1       3.811  -1.069  -4.034  1.00  0.00     0.188 C 
BRANCH  29  30
ATOM     30  C   UNL     1       4.660  -0.768  -5.271  1.00  0.00     0.188 C 
BRANCH  30  31
ATOM     31  O   UNL     1       4.000  -0.256  -6.425  1.00  0.00    -0.376 OA
BRANCH  31  32
ATOM     32  C   UNL     1       2.709  -0.748  -6.771  1.00  0.00     0.202 C 
BRANCH  32  33
ATOM     33  C   UNL     1       2.643  -2.126  -7.428  1.00  0.00     0.261 C 
BRANCH  33  34
ATOM     34  O   UNL     1       2.762  -3.165  -6.447  1.00  0.00    -0.460 OA
BRANCH  34  35
ATOM     35  C   UNL     1       3.967  -3.775  -6.402  1.00  0.00     0.338 C 
ATOM     36  O   UNL     1       4.932  -3.584  -7.115  1.00  0.00    -0.246 OA
BRANCH  35  37
ATOM     37  C   UNL     1       4.009  -4.614  -5.197  1.00  0.00     0.060 A 
ATOM     38  C   UNL     1       5.061  -4.413  -4.295  1.00  0.00     0.016 A 
ATOM     39  C   UNL     1       3.074  -5.633  -5.006  1.00  0.00     0.016 A 
ATOM     40  C   UNL     1       5.218  -5.274  -3.219  1.00  0.00     0.010 A 
ATOM     41  C   UNL     1       3.247  -6.514  -3.942  1.00  0.00     0.010 A 
ATOM     42  C   UNL     1       4.349  -6.363  -3.084  1.00  0.00    -0.014 A 
BRANCH  42  43
ATOM     43  C   UNL     1       4.762  -7.488  -2.226  1.00  0.00     0.031 A 
ATOM     44  C   UNL     1       5.542  -8.600  -2.869  1.00  0.00     0.074 A 
ATOM     45  C   UNL     1       4.484  -7.490  -0.913  1.00  0.00     0.049 A 
ATOM     46  N   UNL     1       5.981  -9.714  -2.347  1.00  0.00    -0.248 NA
ATOM     47  C   UNL     1       5.875  -8.430  -4.295  1.00  0.00     0.031 C 
ATOM     48  C   UNL     1       3.799  -6.420  -0.190  1.00  0.00     0.029 A 
ATOM     49  N   UNL     1       4.749  -8.433   0.042  1.00  0.00    -0.354 N 
ATOM     50  C   UNL     1       6.636 -10.375  -3.380  1.00  0.00     0.074 A 
ATOM     51  C   UNL     1       6.517  -9.555  -4.563  1.00  0.00     0.031 C 
ATOM     52  C   UNL     1       3.684  -6.776   1.101  1.00  0.00     0.029 A 
ATOM     53  C   UNL     1       4.254  -8.109   1.280  1.00  0.00     0.049 A 
ATOM     54  H   UNL     1       5.245  -9.263  -0.141  1.00  0.00     0.167 HD
ATOM     55  C   UNL     1       7.280 -11.564  -3.341  1.00  0.00     0.031 A 
ATOM     56  C   UNL     1       4.244  -8.830   2.416  1.00  0.00     0.031 A 
ATOM     57  C   UNL     1       7.361 -12.381  -2.163  1.00  0.00     0.049 A 
ATOM     58  C   UNL     1       4.877 -10.197   2.406  1.00  0.00     0.074 A 
ATOM     59  C   UNL     1       7.968 -13.612  -2.004  1.00  0.00     0.029 A 
ATOM     60  N   UNL     1       6.804 -12.042  -0.938  1.00  0.00    -0.354 N 
ATOM     61  N   UNL     1       5.495 -10.816   1.428  1.00  0.00    -0.248 NA
ATOM     62  C   UNL     1       4.814 -10.962   3.658  1.00  0.00     0.031 C 
ATOM     63  C   UNL     1       7.729 -14.045  -0.696  1.00  0.00     0.029 A 
ATOM     64  C   UNL     1       7.031 -13.053  -0.023  1.00  0.00     0.049 A 
ATOM     65  H   UNL     1       6.318 -11.207  -0.749  1.00  0.00     0.167 HD
ATOM     66  C   UNL     1       5.923 -12.028   1.955  1.00  0.00     0.074 A 
ATOM     67  C   UNL     1       5.506 -12.048   3.343  1.00  0.00     0.031 C 
ATOM     68  C   UNL     1       6.603 -13.036   1.352  1.00  0.00     0.031 A 
BRANCH  55  69
ATOM     69  C   UNL     1       7.896 -12.060  -4.619  1.00  0.00    -0.014 A 
ATOM     70  C   UNL     1       9.037 -11.451  -5.166  1.00  0.00     0.009 A 
ATOM     71  C   UNL     1       7.331 -13.161  -5.281  1.00  0.00     0.009 A 
ATOM     72  C   UNL     1       9.581 -11.917  -6.365  1.00  0.00     0.001 A 
ATOM     73  C   UNL     1       7.893 -13.641  -6.465  1.00  0.00     0.001 A 
ATOM     74  C   UNL     1       9.012 -13.014  -7.011  1.00  0.00     0.000 A 
ENDBRANCH  55  69
BRANCH  56  75
ATOM     75  C   UNL     1       3.591  -8.296   3.640  1.00  0.00    -0.014 A 
ATOM     76  C   UNL     1       4.348  -7.974   4.776  1.00  0.00     0.009 A 
ATOM     77  C   UNL     1       2.198  -8.125   3.686  1.00  0.00     0.009 A 
ATOM     78  C   UNL     1       3.722  -7.522   5.941  1.00  0.00     0.001 A 
ATOM     79  C   UNL     1       1.577  -7.644   4.840  1.00  0.00     0.001 A 
ATOM     80  C   UNL     1       2.338  -7.353   5.970  1.00  0.00     0.000 A 
ENDBRANCH  56  75
BRANCH  68  81
ATOM     81  C   UNL     1       6.973 -14.216   2.205  1.00  0.00    -0.014 A 
ATOM     82  C   UNL     1       6.009 -15.139   2.634  1.00  0.00     0.009 A 
ATOM     83  C   UNL     1       8.320 -14.428   2.540  1.00  0.00     0.009 A 
ATOM     84  C   UNL     1       6.383 -16.235   3.414  1.00  0.00     0.001 A 
ATOM     85  C   UNL     1       8.695 -15.541   3.291  1.00  0.00     0.001 A 
ATOM     86  C   UNL     1       7.725 -16.437   3.736  1.00  0.00     0.000 A 
ENDBRANCH  68  81
ENDBRANCH  42  43
ENDBRANCH  35  37
ENDBRANCH  34  35
ENDBRANCH  33  34
ENDBRANCH  32  33
ENDBRANCH  31  32
ENDBRANCH  30  31
ENDBRANCH  29  30
ENDBRANCH  28  29
ENDBRANCH  27  28
ENDBRANCH   1  27
TORSDOF 26
