REMARK SMILES CSCC[C@@H](C(=O)OCCOCCOCCOCCOC(=O)c1ccc(-c2c3nc(c(-c4ccccc4)c4ccc([nH]4)c(-c4ccccc4)c4nc(c(-c5ccccc5)c5ccc2[nH]5)C=C4)C=C3)cc1)N1C(=O)/C(=C/c2ccccc2F)SC1=S
REMARK SMILES IDX 13 1 12 2 11 3 10 4 9 5 8 6 6 7 7 8 5 9 4 10 3 11 2 12 1 13
REMARK SMILES IDX 71 14 72 15 84 16 73 17 74 18 83 19 85 20 75 21 76 22 77 23
REMARK SMILES IDX 81 24 78 25 80 26 82 27 79 28 14 29 15 30 16 31 17 32 18 33
REMARK SMILES IDX 19 34 20 35 21 36 22 37 23 38 24 39 70 40 25 41 69 42 26 43
REMARK SMILES IDX 27 44 28 45 63 46 29 47 68 48 62 49 64 50 30 51 67 52 61 53
REMARK SMILES IDX 60 54 31 56 53 57 38 58 52 59 39 60 42 61 51 62 65 63 40 64
REMARK SMILES IDX 41 65 50 67 66 68 43 69 32 70 33 71 37 72 34 73 36 74 35 75
REMARK SMILES IDX 54 76 55 77 59 78 56 79 58 80 57 81 44 82 45 83 49 84 46 85
REMARK SMILES IDX 48 86 47 87
REMARK H PARENT 64 55 42 66
REMARK Flexibility Score: inf
ROOT
ATOM      1  C   UNL     1       3.029   4.746  -0.312  1.00  0.00     0.188 C 
ENDROOT
BRANCH   1   2
ATOM      2  C   UNL     1       3.838   4.556   0.983  1.00  0.00     0.188 C 
BRANCH   2   3
ATOM      3  O   UNL     1       5.046   3.840   0.801  1.00  0.00    -0.376 OA
BRANCH   3   4
ATOM      4  C   UNL     1       5.062   2.492   1.230  1.00  0.00     0.202 C 
BRANCH   4   5
ATOM      5  C   UNL     1       4.140   1.511   0.489  1.00  0.00     0.261 C 
BRANCH   5   6
ATOM      6  O   UNL     1       2.760   1.900   0.327  1.00  0.00    -0.462 OA
BRANCH   6   7
ATOM      7  C   UNL     1       1.976   1.921   1.426  1.00  0.00     0.329 C 
ATOM      8  O   UNL     1       2.418   1.703   2.550  1.00  0.00    -0.250 OA
BRANCH   7   9
ATOM      9  C   UNL     1       0.479   2.238   1.136  1.00  0.00     0.202 C 
BRANCH   9  10
ATOM     10  C   UNL     1      -0.004   2.592  -0.286  1.00  0.00     0.048 C 
BRANCH  10  11
ATOM     11  C   UNL     1       0.473   1.773  -1.489  1.00  0.00     0.072 C 
BRANCH  11  12
ATOM     12  S   UNL     1      -0.216   0.097  -1.597  1.00  0.00    -0.165 SA
ATOM     13  C   UNL     1       0.920  -0.800  -0.518  1.00  0.00     0.085 C 
ENDBRANCH  11  12
ENDBRANCH  10  11
ENDBRANCH   9  10
BRANCH   9  14
ATOM     14  N   UNL     1       0.068   3.187   2.226  1.00  0.00    -0.278 N 
ATOM     15  C   UNL     1      -0.234   2.598   3.454  1.00  0.00     0.266 C 
ATOM     16  C   UNL     1       0.057   4.570   2.244  1.00  0.00     0.149 C 
ATOM     17  O   UNL     1      -0.394   1.402   3.660  1.00  0.00    -0.268 OA
ATOM     18  C   UNL     1      -0.399   3.633   4.504  1.00  0.00     0.081 C 
ATOM     19  S   UNL     1       0.116   5.147   3.903  1.00  0.00    -0.054 SA
ATOM     20  S   UNL     1      -0.082   5.697   1.027  1.00  0.00    -0.052 S 
ATOM     21  C   UNL     1      -0.942   3.368   5.698  1.00  0.00     0.032 C 
BRANCH  21  22
ATOM     22  C   UNL     1      -1.270   4.377   6.713  1.00  0.00     0.012 A 
ATOM     23  C   UNL     1      -0.741   4.257   8.001  1.00  0.00     0.011 A 
ATOM     24  C   UNL     1      -2.140   5.443   6.438  1.00  0.00     0.130 A 
ATOM     25  C   UNL     1      -1.063   5.200   8.982  1.00  0.00     0.001 A 
ATOM     26  C   UNL     1      -2.450   6.391   7.407  1.00  0.00     0.040 A 
ATOM     27  F   UNL     1      -2.706   5.565   5.227  1.00  0.00    -0.206 F 
ATOM     28  C   UNL     1      -1.912   6.268   8.684  1.00  0.00     0.003 A 
ENDBRANCH  21  22
ENDBRANCH   9  14
ENDBRANCH   7   9
ENDBRANCH   6   7
ENDBRANCH   5   6
ENDBRANCH   4   5
ENDBRANCH   3   4
ENDBRANCH   2   3
ENDBRANCH   1   2
BRANCH   1  29
ATOM     29  O   UNL     1       3.537   4.381  -1.585  1.00  0.00    -0.377 OA
BRANCH  29  30
ATOM     30  C   UNL     1       4.929   4.487  -1.821  1.00  0.00     0.188 C 
BRANCH  30  31
ATOM     31  C   UNL     1       5.680   5.738  -1.321  1.00  0.00     0.188 C 
BRANCH  31  32
ATOM     32  O   UNL     1       4.887   6.657  -0.584  1.00  0.00    -0.376 OA
BRANCH  32  33
ATOM     33  C   UNL     1       4.503   7.856  -1.241  1.00  0.00     0.202 C 
BRANCH  33  34
ATOM     34  C   UNL     1       3.500   7.707  -2.394  1.00  0.00     0.261 C 
BRANCH  34  35
ATOM     35  O   UNL     1       3.927   6.879  -3.486  1.00  0.00    -0.460 OA
BRANCH  35  36
ATOM     36  C   UNL     1       5.037   7.248  -4.160  1.00  0.00     0.338 C 
ATOM     37  O   UNL     1       5.732   8.230  -3.974  1.00  0.00    -0.246 OA
BRANCH  36  38
ATOM     38  C   UNL     1       5.380   6.127  -5.054  1.00  0.00     0.060 A 
ATOM     39  C   UNL     1       6.585   5.439  -4.858  1.00  0.00     0.016 A 
ATOM     40  C   UNL     1       4.476   5.716  -6.035  1.00  0.00     0.016 A 
ATOM     41  C   UNL     1       6.879   4.317  -5.632  1.00  0.00     0.010 A 
ATOM     42  C   UNL     1       4.790   4.620  -6.837  1.00  0.00     0.010 A 
ATOM     43  C   UNL     1       5.995   3.921  -6.644  1.00  0.00    -0.014 A 
BRANCH  43  44
ATOM     44  C   UNL     1       6.395   2.885  -7.620  1.00  0.00     0.031 A 
ATOM     45  C   UNL     1       7.051   3.333  -8.894  1.00  0.00     0.074 A 
ATOM     46  C   UNL     1       6.148   1.582  -7.398  1.00  0.00     0.049 A 
ATOM     47  N   UNL     1       7.382   2.631  -9.946  1.00  0.00    -0.248 NA
ATOM     48  C   UNL     1       7.372   4.767  -8.998  1.00  0.00     0.031 C 
ATOM     49  C   UNL     1       5.559   1.024  -6.182  1.00  0.00     0.029 A 
ATOM     50  N   UNL     1       6.345   0.492  -8.209  1.00  0.00    -0.354 N 
ATOM     51  C   UNL     1       7.931   3.539 -10.842  1.00  0.00     0.074 A 
ATOM     52  C   UNL     1       7.886   4.841 -10.216  1.00  0.00     0.031 C 
ATOM     53  C   UNL     1       5.414  -0.304  -6.340  1.00  0.00     0.029 A 
ATOM     54  C   UNL     1       5.858  -0.679  -7.681  1.00  0.00     0.049 A 
ATOM     55  H   UNL     1       6.792   0.545  -9.085  1.00  0.00     0.167 HD
ATOM     56  C   UNL     1       8.418   3.306 -12.081  1.00  0.00     0.031 A 
ATOM     57  C   UNL     1       5.745  -1.902  -8.238  1.00  0.00     0.031 A 
ATOM     58  C   UNL     1       8.447   2.012 -12.706  1.00  0.00     0.049 A 
ATOM     59  C   UNL     1       6.215  -2.112  -9.657  1.00  0.00     0.074 A 
ATOM     60  C   UNL     1       8.959   1.669 -13.944  1.00  0.00     0.029 A 
ATOM     61  N   UNL     1       7.924   0.857 -12.149  1.00  0.00    -0.354 N 
ATOM     62  N   UNL     1       6.788  -1.261 -10.474  1.00  0.00    -0.248 NA
ATOM     63  C   UNL     1       6.016  -3.451 -10.232  1.00  0.00     0.031 C 
ATOM     64  C   UNL     1       8.679   0.319 -14.168  1.00  0.00     0.029 A 
ATOM     65  C   UNL     1       8.056  -0.192 -13.041  1.00  0.00     0.049 A 
ATOM     66  H   UNL     1       7.520   0.792 -11.254  1.00  0.00     0.167 HD
ATOM     67  C   UNL     1       7.038  -1.967 -11.645  1.00  0.00     0.074 A 
ATOM     68  C   UNL     1       6.576  -3.321 -11.427  1.00  0.00     0.031 C 
ATOM     69  C   UNL     1       7.594  -1.534 -12.803  1.00  0.00     0.031 A 
BRANCH  56  70
ATOM     70  C   UNL     1       8.915   4.481 -12.871  1.00  0.00    -0.014 A 
ATOM     71  C   UNL     1      10.131   5.109 -12.566  1.00  0.00     0.009 A 
ATOM     72  C   UNL     1       8.180   4.920 -13.984  1.00  0.00     0.009 A 
ATOM     73  C   UNL     1      10.594   6.165 -13.354  1.00  0.00     0.001 A 
ATOM     74  C   UNL     1       8.657   5.958 -14.784  1.00  0.00     0.001 A 
ATOM     75  C   UNL     1       9.862   6.582 -14.466  1.00  0.00     0.000 A 
ENDBRANCH  56  70
BRANCH  57  76
ATOM     76  C   UNL     1       5.095  -3.016  -7.495  1.00  0.00    -0.014 A 
ATOM     77  C   UNL     1       5.821  -4.162  -7.131  1.00  0.00     0.009 A 
ATOM     78  C   UNL     1       3.722  -2.967  -7.202  1.00  0.00     0.009 A 
ATOM     79  C   UNL     1       5.178  -5.247  -6.528  1.00  0.00     0.001 A 
ATOM     80  C   UNL     1       3.090  -4.039  -6.568  1.00  0.00     0.001 A 
ATOM     81  C   UNL     1       3.815  -5.184  -6.245  1.00  0.00     0.000 A 
ENDBRANCH  57  76
BRANCH  69  82
ATOM     82  C   UNL     1       7.763  -2.534 -13.912  1.00  0.00    -0.014 A 
ATOM     83  C   UNL     1       6.660  -3.000 -14.645  1.00  0.00     0.009 A 
ATOM     84  C   UNL     1       9.050  -2.961 -14.275  1.00  0.00     0.009 A 
ATOM     85  C   UNL     1       6.843  -3.894 -15.702  1.00  0.00     0.001 A 
ATOM     86  C   UNL     1       9.232  -3.829 -15.352  1.00  0.00     0.001 A 
ATOM     87  C   UNL     1       8.128  -4.301 -16.059  1.00  0.00     0.000 A 
ENDBRANCH  69  82
ENDBRANCH  43  44
ENDBRANCH  36  38
ENDBRANCH  35  36
ENDBRANCH  34  35
ENDBRANCH  33  34
ENDBRANCH  32  33
ENDBRANCH  31  32
ENDBRANCH  30  31
ENDBRANCH  29  30
ENDBRANCH   1  29
TORSDOF 25
