REMARK SMILES CN1C(=O)C[C@@H](C(=O)OCCOCCOCCOCCOC(=O)c2ccc(-c3c4nc(c(-c5ccccc5)c5ccc([nH]5)c(-c5ccccc5)c5nc(c(-c6ccccc6)c6ccc3[nH]6)C=C5)C=C4)cc2)C12CCN(c1ccc(Cl)cn1)CC2
REMARK SMILES IDX 16 1 15 2 14 3 13 4 12 5 11 6 10 7 9 8 7 9 8 10 6 11 1 12
REMARK SMILES IDX 2 13 3 14 72 15 4 16 5 17 73 18 84 19 74 20 83 21 75 22
REMARK SMILES IDX 76 23 77 24 82 25 78 26 81 27 79 28 80 29 17 30 18 31 19 32
REMARK SMILES IDX 20 33 21 34 22 35 23 36 24 37 25 38 71 39 26 40 70 41 27 42
REMARK SMILES IDX 28 43 29 44 64 45 30 46 69 47 63 48 65 49 31 50 68 51 62 52
REMARK SMILES IDX 61 53 32 55 54 56 39 57 53 58 40 59 43 60 52 61 66 62 41 63
REMARK SMILES IDX 42 64 51 66 67 67 44 68 33 69 34 70 38 71 35 72 37 73 36 74
REMARK SMILES IDX 55 75 56 76 60 77 57 78 59 79 58 80 45 81 46 82 50 83 47 84
REMARK SMILES IDX 49 85 48 86
REMARK H PARENT 65 54 43 65
REMARK Flexibility Score: inf
ROOT
ATOM      1  C   UNL     1       3.605  -1.735  -5.401  1.00  0.00     0.188 C 
ENDROOT
BRANCH   1   2
ATOM      2  O   UNL     1       2.562  -2.459  -4.746  1.00  0.00    -0.377 OA
BRANCH   2   3
ATOM      3  C   UNL     1       2.373  -3.841  -5.001  1.00  0.00     0.188 C 
BRANCH   3   4
ATOM      4  C   UNL     1       1.200  -4.220  -5.901  1.00  0.00     0.188 C 
BRANCH   4   5
ATOM      5  O   UNL     1       0.885  -3.362  -6.975  1.00  0.00    -0.376 OA
BRANCH   5   6
ATOM      6  C   UNL     1       0.469  -2.030  -6.692  1.00  0.00     0.202 C 
BRANCH   6   7
ATOM      7  C   UNL     1      -0.480  -1.699  -5.518  1.00  0.00     0.261 C 
BRANCH   7   8
ATOM      8  O   UNL     1       0.054  -1.807  -4.164  1.00  0.00    -0.463 OA
BRANCH   8   9
ATOM      9  C   UNL     1      -0.487  -2.787  -3.411  1.00  0.00     0.311 C 
ATOM     10  O   UNL     1      -1.291  -3.607  -3.864  1.00  0.00    -0.252 OA
BRANCH   9  11
ATOM     11  C   UNL     1      -0.198  -2.833  -1.915  1.00  0.00     0.134 C 
ATOM     12  C   UNL     1       0.773   0.188   0.147  1.00  0.00     0.147 C 
ATOM     13  N   UNL     1       0.188  -0.885  -0.645  1.00  0.00    -0.339 N 
ATOM     14  C   UNL     1      -1.187  -0.969  -0.779  1.00  0.00     0.223 C 
ATOM     15  C   UNL     1       0.888  -2.132  -1.037  1.00  0.00     0.060 C 
ATOM     16  O   UNL     1      -2.002  -0.120  -0.459  1.00  0.00    -0.275 OA
ATOM     17  C   UNL     1      -1.524  -2.336  -1.292  1.00  0.00     0.118 C 
ATOM     18  C   UNL     1       2.243  -1.788  -1.670  1.00  0.00     0.051 C 
ATOM     19  C   UNL     1       1.123  -3.018   0.248  1.00  0.00     0.051 C 
ATOM     20  C   UNL     1       3.290  -2.884  -1.676  1.00  0.00     0.120 C 
ATOM     21  C   UNL     1       2.147  -4.153   0.056  1.00  0.00     0.120 C 
ATOM     22  N   UNL     1       3.391  -3.538  -0.378  1.00  0.00    -0.356 N 
BRANCH  22  23
ATOM     23  C   UNL     1       4.573  -4.284  -0.285  1.00  0.00     0.128 A 
ATOM     24  C   UNL     1       5.774  -3.586  -0.098  1.00  0.00     0.048 A 
ATOM     25  N   UNL     1       4.568  -5.613  -0.519  1.00  0.00    -0.238 NA
ATOM     26  C   UNL     1       6.998  -4.243  -0.206  1.00  0.00     0.026 A 
ATOM     27  C   UNL     1       5.776  -6.237  -0.615  1.00  0.00     0.134 A 
ATOM     28  C   UNL     1       7.000  -5.597  -0.489  1.00  0.00     0.059 A 
ATOM     29  Cl  UNL     1       8.479  -6.438  -0.705  1.00  0.00    -0.083 Cl
ENDBRANCH  22  23
ENDBRANCH   9  11
ENDBRANCH   8   9
ENDBRANCH   7   8
ENDBRANCH   6   7
ENDBRANCH   5   6
ENDBRANCH   4   5
ENDBRANCH   3   4
ENDBRANCH   2   3
ENDBRANCH   1   2
BRANCH   1  30
ATOM     30  C   UNL     1       4.590  -2.496  -6.292  1.00  0.00     0.188 C 
BRANCH  30  31
ATOM     31  O   UNL     1       5.445  -3.470  -5.688  1.00  0.00    -0.376 OA
BRANCH  31  32
ATOM     32  C   UNL     1       5.720  -3.378  -4.295  1.00  0.00     0.202 C 
BRANCH  32  33
ATOM     33  C   UNL     1       6.908  -2.498  -3.915  1.00  0.00     0.261 C 
BRANCH  33  34
ATOM     34  O   UNL     1       6.603  -1.106  -4.091  1.00  0.00    -0.460 OA
BRANCH  34  35
ATOM     35  C   UNL     1       7.071  -0.570  -5.241  1.00  0.00     0.338 C 
ATOM     36  O   UNL     1       7.757  -1.111  -6.087  1.00  0.00    -0.246 OA
BRANCH  35  37
ATOM     37  C   UNL     1       6.492   0.772  -5.425  1.00  0.00     0.060 A 
ATOM     38  C   UNL     1       5.972   1.079  -6.687  1.00  0.00     0.016 A 
ATOM     39  C   UNL     1       6.536   1.735  -4.413  1.00  0.00     0.016 A 
ATOM     40  C   UNL     1       5.549   2.372  -6.966  1.00  0.00     0.010 A 
ATOM     41  C   UNL     1       6.123   3.037  -4.697  1.00  0.00     0.010 A 
ATOM     42  C   UNL     1       5.676   3.366  -5.989  1.00  0.00    -0.014 A 
BRANCH  42  43
ATOM     43  C   UNL     1       5.546   4.780  -6.394  1.00  0.00     0.031 A 
ATOM     44  C   UNL     1       6.800   5.546  -6.715  1.00  0.00     0.074 A 
ATOM     45  C   UNL     1       4.336   5.347  -6.526  1.00  0.00     0.049 A 
ATOM     46  N   UNL     1       6.940   6.794  -7.077  1.00  0.00    -0.248 NA
ATOM     47  C   UNL     1       8.067   4.801  -6.614  1.00  0.00     0.031 C 
ATOM     48  C   UNL     1       3.058   4.673  -6.303  1.00  0.00     0.029 A 
ATOM     49  N   UNL     1       3.990   6.623  -6.884  1.00  0.00    -0.354 N 
ATOM     50  C   UNL     1       8.307   6.985  -7.238  1.00  0.00     0.074 A 
ATOM     51  C   UNL     1       8.956   5.737  -6.907  1.00  0.00     0.031 C 
ATOM     52  C   UNL     1       2.062   5.549  -6.523  1.00  0.00     0.029 A 
ATOM     53  C   UNL     1       2.637   6.848  -6.866  1.00  0.00     0.049 A 
ATOM     54  H   UNL     1       4.649   7.312  -7.131  1.00  0.00     0.167 HD
ATOM     55  C   UNL     1       8.961   8.102  -7.632  1.00  0.00     0.031 A 
ATOM     56  C   UNL     1       1.948   7.984  -7.080  1.00  0.00     0.031 A 
ATOM     57  C   UNL     1       8.304   9.344  -7.939  1.00  0.00     0.049 A 
ATOM     58  C   UNL     1       2.705   9.239  -7.426  1.00  0.00     0.074 A 
ATOM     59  C   UNL     1       8.866  10.539  -8.350  1.00  0.00     0.029 A 
ATOM     60  N   UNL     1       6.935   9.548  -7.859  1.00  0.00    -0.354 N 
ATOM     61  N   UNL     1       3.996   9.407  -7.592  1.00  0.00    -0.248 NA
ATOM     62  C   UNL     1       1.909  10.457  -7.622  1.00  0.00     0.031 C 
ATOM     63  C   UNL     1       7.841  11.485  -8.456  1.00  0.00     0.029 A 
ATOM     64  C   UNL     1       6.634  10.860  -8.181  1.00  0.00     0.049 A 
ATOM     65  H   UNL     1       6.274   8.861  -7.610  1.00  0.00     0.167 HD
ATOM     66  C   UNL     1       4.164  10.742  -7.939  1.00  0.00     0.074 A 
ATOM     67  C   UNL     1       2.841  11.332  -7.977  1.00  0.00     0.031 C 
ATOM     68  C   UNL     1       5.307  11.421  -8.206  1.00  0.00     0.031 A 
BRANCH  55  69
ATOM     69  C   UNL     1      10.462   8.039  -7.700  1.00  0.00    -0.014 A 
ATOM     70  C   UNL     1      11.122   7.284  -8.683  1.00  0.00     0.009 A 
ATOM     71  C   UNL     1      11.229   8.763  -6.774  1.00  0.00     0.009 A 
ATOM     72  C   UNL     1      12.518   7.226  -8.713  1.00  0.00     0.001 A 
ATOM     73  C   UNL     1      12.624   8.728  -6.825  1.00  0.00     0.001 A 
ATOM     74  C   UNL     1      13.267   7.952  -7.788  1.00  0.00     0.000 A 
ENDBRANCH  55  69
BRANCH  56  75
ATOM     75  C   UNL     1       0.467   7.996  -6.946  1.00  0.00    -0.014 A 
ATOM     76  C   UNL     1      -0.355   8.198  -8.064  1.00  0.00     0.009 A 
ATOM     77  C   UNL     1      -0.133   7.814  -5.689  1.00  0.00     0.009 A 
ATOM     78  C   UNL     1      -1.745   8.244  -7.922  1.00  0.00     0.001 A 
ATOM     79  C   UNL     1      -1.522   7.828  -5.555  1.00  0.00     0.001 A 
ATOM     80  C   UNL     1      -2.327   8.054  -6.670  1.00  0.00     0.000 A 
ENDBRANCH  56  75
BRANCH  68  81
ATOM     81  C   UNL     1       5.171  12.867  -8.595  1.00  0.00    -0.014 A 
ATOM     82  C   UNL     1       4.803  13.845  -7.659  1.00  0.00     0.009 A 
ATOM     83  C   UNL     1       5.459  13.259  -9.912  1.00  0.00     0.009 A 
ATOM     84  C   UNL     1       4.690  15.182  -8.044  1.00  0.00     0.001 A 
ATOM     85  C   UNL     1       5.378  14.600 -10.286  1.00  0.00     0.001 A 
ATOM     86  C   UNL     1       4.983  15.559  -9.355  1.00  0.00     0.000 A 
ENDBRANCH  68  81
ENDBRANCH  42  43
ENDBRANCH  35  37
ENDBRANCH  34  35
ENDBRANCH  33  34
ENDBRANCH  32  33
ENDBRANCH  31  32
ENDBRANCH  30  31
ENDBRANCH   1  30
TORSDOF 21
