REMARK SMILES CC1CC[NH+]([C@H](c2ccc(F)cc2)c2ccc([C@@H](C)C(=O)OCCOCCOCCOCCOC(=O)c3ccc(-c4c5nc(c(-c6ccccc6)c6ccc([nH]6)c(-c6ccccc6)c6nc(c(-c7ccccc7)c7ccc4[nH]7)C=C6)C=C5)cc3)cc2-c2ccc(C(F)(F)F)cc2)CC1
REMARK SMILES IDX 27 1 26 2 25 3 24 4 23 5 22 6 20 7 21 8 18 9 19 10 17 11
REMARK SMILES IDX 14 12 15 13 86 14 16 15 85 16 6 17 5 18 1 19 2 20 3 21 98 22
REMARK SMILES IDX 4 23 97 24 7 26 8 27 13 28 9 29 12 30 10 31 11 32 87 33
REMARK SMILES IDX 88 34 96 35 89 36 95 37 90 38 91 39 92 40 93 41 94 42 28 43
REMARK SMILES IDX 29 44 30 45 31 46 32 47 33 48 34 49 35 50 36 51 37 52 38 53
REMARK SMILES IDX 84 54 39 55 83 56 40 57 41 58 42 59 77 60 43 61 82 62 76 63
REMARK SMILES IDX 78 64 44 65 81 66 75 67 74 68 45 70 67 71 52 72 66 73 53 74
REMARK SMILES IDX 56 75 65 76 79 77 54 78 55 79 64 81 80 82 57 83 46 84 47 85
REMARK SMILES IDX 51 86 48 87 50 88 49 89 68 90 69 91 73 92 70 93 72 94 71 95
REMARK SMILES IDX 58 96 59 97 63 98 60 99 62 100 61 101
REMARK H PARENT 5 25 78 69 56 80
REMARK Flexibility Score: inf
ROOT
ATOM      1  C   UNL     1       3.346   5.297  -1.169  1.00  0.00     0.188 C 
ENDROOT
BRANCH   1   2
ATOM      2  C   UNL     1       4.419   6.397  -1.137  1.00  0.00     0.188 C 
BRANCH   2   3
ATOM      3  O   UNL     1       4.094   7.754  -1.409  1.00  0.00    -0.376 OA
BRANCH   3   4
ATOM      4  C   UNL     1       3.111   8.084  -2.378  1.00  0.00     0.202 C 
BRANCH   4   5
ATOM      5  C   UNL     1       3.208   7.539  -3.814  1.00  0.00     0.261 C 
BRANCH   5   6
ATOM      6  O   UNL     1       3.494   6.134  -3.958  1.00  0.00    -0.463 OA
BRANCH   6   7
ATOM      7  C   UNL     1       4.763   5.812  -4.304  1.00  0.00     0.313 C 
ATOM      8  O   UNL     1       5.641   6.649  -4.506  1.00  0.00    -0.252 OA
BRANCH   7   9
ATOM      9  C   UNL     1       5.041   4.318  -4.491  1.00  0.00     0.126 C 
ATOM     10  C   UNL     1       5.150   4.056  -5.991  1.00  0.00     0.025 C 
BRANCH   9  11
ATOM     11  C   UNL     1       4.164   3.269  -3.805  1.00  0.00    -0.033 A 
ATOM     12  C   UNL     1       2.562   1.268  -2.435  1.00  0.00     0.022 A 
ATOM     13  C   UNL     1       2.015   2.258  -3.288  1.00  0.00     0.011 A 
ATOM     14  C   UNL     1       3.974   1.310  -2.260  1.00  0.00    -0.009 A 
ATOM     15  C   UNL     1       2.786   3.212  -3.974  1.00  0.00     0.005 A 
ATOM     16  C   UNL     1       4.736   2.304  -2.948  1.00  0.00     0.013 A 
BRANCH  12  17
ATOM     17  C   UNL     1       1.670   0.122  -1.839  1.00  0.00     0.247 C 
BRANCH  17  18
ATOM     18  N   UNL     1       0.241   0.025  -2.307  1.00  0.00    -0.325 N 
ATOM     19  C   UNL     1      -3.338   1.310  -4.529  1.00  0.00     0.008 C 
ATOM     20  C   UNL     1      -1.949   1.132  -3.925  1.00  0.00    -0.003 C 
ATOM     21  C   UNL     1      -1.293  -0.183  -4.330  1.00  0.00     0.065 C 
ATOM     22  C   UNL     1      -2.038   1.133  -2.410  1.00  0.00     0.065 C 
ATOM     23  C   UNL     1       0.115  -0.310  -3.730  1.00  0.00     0.263 C 
ATOM     24  C   UNL     1      -0.666   1.031  -1.759  1.00  0.00     0.263 C 
ATOM     25  H   UNL     1      -0.141  -0.807  -1.858  1.00  0.00     0.348 HD
ENDBRANCH  17  18
BRANCH  17  26
ATOM     26  C   UNL     1       1.752  -0.084  -0.307  1.00  0.00     0.014 A 
ATOM     27  C   UNL     1       1.352   0.908   0.599  1.00  0.00     0.013 A 
ATOM     28  C   UNL     1       2.166  -1.321   0.230  1.00  0.00     0.013 A 
ATOM     29  C   UNL     1       1.322   0.662   1.976  1.00  0.00     0.040 A 
ATOM     30  C   UNL     1       2.217  -1.537   1.613  1.00  0.00     0.040 A 
ATOM     31  C   UNL     1       1.782  -0.544   2.474  1.00  0.00     0.123 A 
ATOM     32  F   UNL     1       1.796  -0.750   3.798  1.00  0.00    -0.207 F 
ENDBRANCH  17  26
ENDBRANCH  12  17
BRANCH  14  33
ATOM     33  C   UNL     1       4.716   0.383  -1.381  1.00  0.00    -0.018 A 
ATOM     34  C   UNL     1       5.257   0.837  -0.166  1.00  0.00     0.009 A 
ATOM     35  C   UNL     1       4.909  -0.963  -1.726  1.00  0.00     0.009 A 
ATOM     36  C   UNL     1       5.921  -0.038   0.702  1.00  0.00     0.014 A 
ATOM     37  C   UNL     1       5.561  -1.844  -0.853  1.00  0.00     0.014 A 
ATOM     38  C   UNL     1       6.058  -1.395   0.378  1.00  0.00     0.056 A 
BRANCH  38  39
ATOM     39  C   UNL     1       6.733  -2.340   1.343  1.00  0.00     0.416 C 
ATOM     40  F   UNL     1       8.078  -2.140   1.414  1.00  0.00    -0.166 F 
ATOM     41  F   UNL     1       6.268  -2.211   2.617  1.00  0.00    -0.166 F 
ATOM     42  F   UNL     1       6.566  -3.654   1.022  1.00  0.00    -0.166 F 
ENDBRANCH  38  39
ENDBRANCH  14  33
ENDBRANCH   9  11
ENDBRANCH   7   9
ENDBRANCH   6   7
ENDBRANCH   5   6
ENDBRANCH   4   5
ENDBRANCH   3   4
ENDBRANCH   2   3
ENDBRANCH   1   2
BRANCH   1  43
ATOM     43  O   UNL     1       2.083   5.699  -1.663  1.00  0.00    -0.377 OA
BRANCH  43  44
ATOM     44  C   UNL     1       1.070   5.883  -0.688  1.00  0.00     0.188 C 
BRANCH  44  45
ATOM     45  C   UNL     1       1.457   6.673   0.580  1.00  0.00     0.188 C 
BRANCH  45  46
ATOM     46  O   UNL     1       2.621   6.185   1.235  1.00  0.00    -0.376 OA
BRANCH  46  47
ATOM     47  C   UNL     1       2.445   5.344   2.364  1.00  0.00     0.202 C 
BRANCH  47  48
ATOM     48  C   UNL     1       1.800   3.980   2.119  1.00  0.00     0.261 C 
BRANCH  48  49
ATOM     49  O   UNL     1       0.517   3.986   1.466  1.00  0.00    -0.460 OA
BRANCH  49  50
ATOM     50  C   UNL     1      -0.555   4.455   2.128  1.00  0.00     0.338 C 
ATOM     51  O   UNL     1      -0.586   4.846   3.287  1.00  0.00    -0.246 OA
BRANCH  50  52
ATOM     52  C   UNL     1      -1.672   4.576   1.163  1.00  0.00     0.060 A 
ATOM     53  C   UNL     1      -2.099   5.849   0.761  1.00  0.00     0.016 A 
ATOM     54  C   UNL     1      -2.313   3.441   0.664  1.00  0.00     0.016 A 
ATOM     55  C   UNL     1      -3.176   5.994  -0.122  1.00  0.00     0.010 A 
ATOM     56  C   UNL     1      -3.411   3.593  -0.196  1.00  0.00     0.010 A 
ATOM     57  C   UNL     1      -3.867   4.868  -0.582  1.00  0.00    -0.014 A 
BRANCH  57  58
ATOM     58  C   UNL     1      -5.178   5.017  -1.275  1.00  0.00     0.031 A 
ATOM     59  C   UNL     1      -6.433   4.699  -0.501  1.00  0.00     0.074 A 
ATOM     60  C   UNL     1      -5.281   5.441  -2.549  1.00  0.00     0.049 A 
ATOM     61  N   UNL     1      -7.684   4.727  -0.888  1.00  0.00    -0.248 NA
ATOM     62  C   UNL     1      -6.246   4.280   0.898  1.00  0.00     0.031 C 
ATOM     63  C   UNL     1      -4.165   5.811  -3.417  1.00  0.00     0.029 A 
ATOM     64  N   UNL     1      -6.394   5.630  -3.337  1.00  0.00    -0.354 N 
ATOM     65  C   UNL     1      -8.425   4.309   0.211  1.00  0.00     0.074 A 
ATOM     66  C   UNL     1      -7.484   3.989   1.260  1.00  0.00     0.031 C 
ATOM     67  C   UNL     1      -4.650   6.189  -4.615  1.00  0.00     0.029 A 
ATOM     68  C   UNL     1      -6.107   6.058  -4.611  1.00  0.00     0.049 A 
ATOM     69  H   UNL     1      -7.312   5.474  -3.016  1.00  0.00     0.167 HD
ATOM     70  C   UNL     1      -9.768   4.211   0.350  1.00  0.00     0.031 A 
ATOM     71  C   UNL     1      -6.921   6.302  -5.659  1.00  0.00     0.031 A 
ATOM     72  C   UNL     1     -10.715   4.524  -0.685  1.00  0.00     0.049 A 
ATOM     73  C   UNL     1      -8.412   6.130  -5.506  1.00  0.00     0.074 A 
ATOM     74  C   UNL     1     -12.097   4.487  -0.627  1.00  0.00     0.029 A 
ATOM     75  N   UNL     1     -10.377   4.922  -1.968  1.00  0.00    -0.354 N 
ATOM     76  N   UNL     1      -9.101   5.775  -4.448  1.00  0.00    -0.248 NA
ATOM     77  C   UNL     1      -9.239   6.401  -6.694  1.00  0.00     0.031 C 
ATOM     78  C   UNL     1     -12.595   4.798  -1.897  1.00  0.00     0.029 A 
ATOM     79  C   UNL     1     -11.524   5.101  -2.723  1.00  0.00     0.049 A 
ATOM     80  H   UNL     1      -9.459   5.058  -2.295  1.00  0.00     0.167 HD
ATOM     81  C   UNL     1     -10.438   5.808  -4.833  1.00  0.00     0.074 A 
ATOM     82  C   UNL     1     -10.465   6.232  -6.217  1.00  0.00     0.031 C 
ATOM     83  C   UNL     1     -11.543   5.518  -4.102  1.00  0.00     0.031 A 
BRANCH  70  84
ATOM     84  C   UNL     1     -10.284   3.702   1.669  1.00  0.00    -0.014 A 
ATOM     85  C   UNL     1     -10.159   4.455   2.848  1.00  0.00     0.009 A 
ATOM     86  C   UNL     1     -10.899   2.442   1.732  1.00  0.00     0.009 A 
ATOM     87  C   UNL     1     -10.590   3.934   4.070  1.00  0.00     0.001 A 
ATOM     88  C   UNL     1     -11.363   1.939   2.949  1.00  0.00     0.001 A 
ATOM     89  C   UNL     1     -11.194   2.679   4.118  1.00  0.00     0.000 A 
ENDBRANCH  70  84
BRANCH  71  90
ATOM     90  C   UNL     1      -6.348   6.733  -6.965  1.00  0.00    -0.014 A 
ATOM     91  C   UNL     1      -6.562   8.032  -7.452  1.00  0.00     0.009 A 
ATOM     92  C   UNL     1      -5.598   5.836  -7.742  1.00  0.00     0.009 A 
ATOM     93  C   UNL     1      -6.052   8.417  -8.696  1.00  0.00     0.001 A 
ATOM     94  C   UNL     1      -5.064   6.233  -8.971  1.00  0.00     0.001 A 
ATOM     95  C   UNL     1      -5.298   7.520  -9.450  1.00  0.00     0.000 A 
ENDBRANCH  71  90
BRANCH  83  96
ATOM     96  C   UNL     1     -12.884   5.682  -4.766  1.00  0.00    -0.014 A 
ATOM     97  C   UNL     1     -13.320   4.804  -5.771  1.00  0.00     0.009 A 
ATOM     98  C   UNL     1     -13.750   6.701  -4.336  1.00  0.00     0.009 A 
ATOM     99  C   UNL     1     -14.580   4.964  -6.352  1.00  0.00     0.001 A 
ATOM    100  C   UNL     1     -15.022   6.838  -4.895  1.00  0.00     0.001 A 
ATOM    101  C   UNL     1     -15.432   5.976  -5.910  1.00  0.00     0.000 A 
ENDBRANCH  83  96
ENDBRANCH  57  58
ENDBRANCH  50  52
ENDBRANCH  49  50
ENDBRANCH  48  49
ENDBRANCH  47  48
ENDBRANCH  46  47
ENDBRANCH  45  46
ENDBRANCH  44  45
ENDBRANCH  43  44
ENDBRANCH   1  43
TORSDOF 26
