REMARK SMILES CCOc1cc2c(cc1/C=C1/C(=O)N(c3cccc(C(=O)OCCOCCOCCOCCOC(=O)c4ccc(-c5c6nc(c(-c7ccccc7)c7ccc([nH]7)c(-c7ccccc7)c7nc(c(-c8ccccc8)c8ccc5[nH]8)C=C7)C=C6)cc4)c3)C(=S)N=C1O)OCO2
REMARK SMILES IDX 27 1 26 2 25 3 24 4 23 5 22 6 20 7 21 8 19 9 15 10 16 11
REMARK SMILES IDX 85 12 17 13 18 14 14 15 10 16 11 17 12 18 89 19 13 20 88 21
REMARK SMILES IDX 86 22 87 23 9 24 4 25 5 26 6 27 8 28 7 29 93 30 91 31 92 32
REMARK SMILES IDX 3 33 2 34 1 35 90 36 28 38 29 39 30 40 31 41 32 42 33 43
REMARK SMILES IDX 34 44 35 45 36 46 37 47 38 48 84 49 39 50 83 51 40 52 41 53
REMARK SMILES IDX 42 54 77 55 43 56 82 57 76 58 78 59 44 60 81 61 75 62 74 63
REMARK SMILES IDX 45 65 67 66 52 67 66 68 53 69 56 70 65 71 79 72 54 73 55 74
REMARK SMILES IDX 64 76 80 77 57 78 46 79 47 80 51 81 48 82 50 83 49 84 68 85
REMARK SMILES IDX 69 86 73 87 70 88 72 89 71 90 58 91 59 92 63 93 60 94 62 95
REMARK SMILES IDX 61 96
REMARK H PARENT 90 37 78 64 56 75
REMARK Flexibility Score: inf
ROOT
ATOM      1  C   UNL     1       0.314   1.192 -12.435  1.00  0.00     0.188 C 
ENDROOT
BRANCH   1   2
ATOM      2  C   UNL     1      -1.085   1.075 -13.073  1.00  0.00     0.188 C 
BRANCH   2   3
ATOM      3  O   UNL     1      -1.812   2.290 -13.066  1.00  0.00    -0.376 OA
BRANCH   3   4
ATOM      4  C   UNL     1      -2.798   2.539 -12.082  1.00  0.00     0.202 C 
BRANCH   4   5
ATOM      5  C   UNL     1      -2.560   2.257 -10.590  1.00  0.00     0.261 C 
BRANCH   5   6
ATOM      6  O   UNL     1      -1.806   1.088 -10.265  1.00  0.00    -0.460 OA
BRANCH   6   7
ATOM      7  C   UNL     1      -2.417  -0.112 -10.384  1.00  0.00     0.338 C 
ATOM      8  O   UNL     1      -3.569  -0.318 -10.707  1.00  0.00    -0.246 OA
BRANCH   7   9
ATOM      9  C   UNL     1      -1.349  -1.141 -10.295  1.00  0.00     0.062 A 
ATOM     10  C   UNL     1       0.779  -1.909  -9.390  1.00  0.00     0.052 A 
ATOM     11  C   UNL     1       0.770  -2.947 -10.340  1.00  0.00     0.027 A 
ATOM     12  C   UNL     1      -0.292  -1.005  -9.386  1.00  0.00     0.042 A 
ATOM     13  C   UNL     1      -0.279  -3.077 -11.257  1.00  0.00     0.003 A 
ATOM     14  C   UNL     1      -1.346  -2.183 -11.227  1.00  0.00     0.016 A 
BRANCH  10  15
ATOM     15  N   UNL     1       1.829  -1.815  -8.401  1.00  0.00    -0.251 N 
ATOM     16  C   UNL     1       2.244  -1.084  -4.838  1.00  0.00     0.031 C 
ATOM     17  C   UNL     1       2.529  -1.594  -6.061  1.00  0.00     0.103 C 
ATOM     18  C   UNL     1       1.427  -1.590  -7.071  1.00  0.00     0.270 C 
ATOM     19  C   UNL     1       3.757  -2.204  -6.560  1.00  0.00     0.226 C 
ATOM     20  O   UNL     1       0.263  -1.431  -6.700  1.00  0.00    -0.268 OA
ATOM     21  N   UNL     1       4.070  -2.391  -7.785  1.00  0.00    -0.184 NA
ATOM     22  C   UNL     1       3.186  -1.983  -8.756  1.00  0.00     0.210 C 
ATOM     23  S   UNL     1       3.822  -1.676 -10.304  1.00  0.00    -0.038 S 
BRANCH  16  24
ATOM     24  C   UNL     1       3.072  -0.984  -3.613  1.00  0.00     0.021 A 
ATOM     25  C   UNL     1       2.495  -1.140  -2.322  1.00  0.00     0.130 A 
ATOM     26  C   UNL     1       3.293  -1.296  -1.182  1.00  0.00     0.097 A 
ATOM     27  C   UNL     1       4.651  -1.175  -1.331  1.00  0.00     0.169 A 
ATOM     28  C   UNL     1       4.451  -0.736  -3.688  1.00  0.00     0.062 A 
ATOM     29  C   UNL     1       5.212  -0.875  -2.545  1.00  0.00     0.166 A 
ATOM     30  O   UNL     1       5.577  -1.318  -0.348  1.00  0.00    -0.453 OA
ATOM     31  O   UNL     1       6.567  -0.788  -2.481  1.00  0.00    -0.454 OA
ATOM     32  C   UNL     1       6.794  -1.149  -1.102  1.00  0.00     0.468 C 
BRANCH  25  33
ATOM     33  O   UNL     1       1.132  -1.217  -2.154  1.00  0.00    -0.493 OA
BRANCH  33  34
ATOM     34  C   UNL     1       0.582   0.022  -1.663  1.00  0.00     0.226 C 
ATOM     35  C   UNL     1       0.618   0.133  -0.143  1.00  0.00     0.049 C 
ENDBRANCH  33  34
ENDBRANCH  25  33
ENDBRANCH  16  24
BRANCH  19  36
ATOM     36  O   UNL     1       4.620  -2.675  -5.661  1.00  0.00    -0.493 OA
ATOM     37  H   UNL     1       4.447  -2.570  -4.746  1.00  0.00     0.295 HD
ENDBRANCH  19  36
ENDBRANCH  10  15
ENDBRANCH   7   9
ENDBRANCH   6   7
ENDBRANCH   5   6
ENDBRANCH   4   5
ENDBRANCH   3   4
ENDBRANCH   2   3
ENDBRANCH   1   2
BRANCH   1  38
ATOM     38  O   UNL     1       0.512   2.311 -11.584  1.00  0.00    -0.377 OA
BRANCH  38  39
ATOM     39  C   UNL     1       0.530   3.625 -12.143  1.00  0.00     0.188 C 
BRANCH  39  40
ATOM     40  C   UNL     1       0.298   3.922 -13.648  1.00  0.00     0.188 C 
BRANCH  40  41
ATOM     41  O   UNL     1       0.527   2.832 -14.523  1.00  0.00    -0.376 OA
BRANCH  41  42
ATOM     42  C   UNL     1       1.673   2.842 -15.351  1.00  0.00     0.202 C 
BRANCH  42  43
ATOM     43  C   UNL     1       3.032   2.780 -14.642  1.00  0.00     0.261 C 
BRANCH  43  44
ATOM     44  O   UNL     1       3.244   3.771 -13.627  1.00  0.00    -0.460 OA
BRANCH  44  45
ATOM     45  C   UNL     1       3.331   5.052 -14.052  1.00  0.00     0.338 C 
ATOM     46  O   UNL     1       3.275   5.454 -15.194  1.00  0.00    -0.246 OA
BRANCH  45  47
ATOM     47  C   UNL     1       3.314   5.925 -12.860  1.00  0.00     0.060 A 
ATOM     48  C   UNL     1       2.310   6.895 -12.759  1.00  0.00     0.016 A 
ATOM     49  C   UNL     1       4.290   5.805 -11.867  1.00  0.00     0.016 A 
ATOM     50  C   UNL     1       2.318   7.795 -11.697  1.00  0.00     0.010 A 
ATOM     51  C   UNL     1       4.309   6.721 -10.812  1.00  0.00     0.010 A 
ATOM     52  C   UNL     1       3.355   7.752 -10.755  1.00  0.00    -0.014 A 
BRANCH  52  53
ATOM     53  C   UNL     1       3.565   8.934  -9.886  1.00  0.00     0.031 A 
ATOM     54  C   UNL     1       4.583   9.957 -10.317  1.00  0.00     0.074 A 
ATOM     55  C   UNL     1       2.811   9.147  -8.793  1.00  0.00     0.049 A 
ATOM     56  N   UNL     1       4.899  11.101  -9.764  1.00  0.00    -0.248 NA
ATOM     57  C   UNL     1       5.344   9.651 -11.541  1.00  0.00     0.031 C 
ATOM     58  C   UNL     1       1.760   8.259  -8.300  1.00  0.00     0.029 A 
ATOM     59  N   UNL     1       2.812  10.195  -7.907  1.00  0.00    -0.354 N 
ATOM     60  C   UNL     1       5.893  11.644 -10.569  1.00  0.00     0.074 A 
ATOM     61  C   UNL     1       6.157  10.692 -11.624  1.00  0.00     0.031 C 
ATOM     62  C   UNL     1       1.211   8.806  -7.200  1.00  0.00     0.029 A 
ATOM     63  C   UNL     1       1.890  10.065  -6.899  1.00  0.00     0.049 A 
ATOM     64  H   UNL     1       3.417  10.968  -7.988  1.00  0.00     0.167 HD
ATOM     65  C   UNL     1       6.523  12.836 -10.452  1.00  0.00     0.031 A 
ATOM     66  C   UNL     1       1.632  10.868  -5.848  1.00  0.00     0.031 A 
ATOM     67  C   UNL     1       6.271  13.781  -9.398  1.00  0.00     0.049 A 
ATOM     68  C   UNL     1       2.404  12.154  -5.697  1.00  0.00     0.074 A 
ATOM     69  C   UNL     1       6.851  15.020  -9.194  1.00  0.00     0.029 A 
ATOM     70  N   UNL     1       5.370  13.585  -8.363  1.00  0.00    -0.354 N 
ATOM     71  N   UNL     1       3.320  12.671  -6.482  1.00  0.00    -0.248 NA
ATOM     72  C   UNL     1       2.090  12.976  -4.520  1.00  0.00     0.031 C 
ATOM     73  C   UNL     1       6.349  15.546  -8.000  1.00  0.00     0.029 A 
ATOM     74  C   UNL     1       5.400  14.668  -7.501  1.00  0.00     0.049 A 
ATOM     75  H   UNL     1       4.794  12.793  -8.258  1.00  0.00     0.167 HD
ATOM     76  C   UNL     1       3.665  13.892  -5.911  1.00  0.00     0.074 A 
ATOM     77  C   UNL     1       2.842  14.046  -4.729  1.00  0.00     0.031 C 
ATOM     78  C   UNL     1       4.579  14.804  -6.325  1.00  0.00     0.031 A 
BRANCH  65  79
ATOM     79  C   UNL     1       7.579  13.165 -11.472  1.00  0.00    -0.014 A 
ATOM     80  C   UNL     1       7.248  13.447 -12.807  1.00  0.00     0.009 A 
ATOM     81  C   UNL     1       8.926  13.218 -11.082  1.00  0.00     0.009 A 
ATOM     82  C   UNL     1       8.248  13.744 -13.736  1.00  0.00     0.001 A 
ATOM     83  C   UNL     1       9.920  13.546 -12.005  1.00  0.00     0.001 A 
ATOM     84  C   UNL     1       9.581  13.800 -13.333  1.00  0.00     0.000 A 
ENDBRANCH  65  79
BRANCH  66  85
ATOM     85  C   UNL     1       0.611  10.481  -4.837  1.00  0.00    -0.014 A 
ATOM     86  C   UNL     1      -0.564  11.231  -4.672  1.00  0.00     0.009 A 
ATOM     87  C   UNL     1       0.833   9.380  -3.995  1.00  0.00     0.009 A 
ATOM     88  C   UNL     1      -1.473  10.910  -3.660  1.00  0.00     0.001 A 
ATOM     89  C   UNL     1      -0.094   9.040  -3.008  1.00  0.00     0.001 A 
ATOM     90  C   UNL     1      -1.240   9.814  -2.832  1.00  0.00     0.000 A 
ENDBRANCH  66  85
BRANCH  78  91
ATOM     91  C   UNL     1       4.703  16.070  -5.519  1.00  0.00    -0.014 A 
ATOM     92  C   UNL     1       5.225  16.065  -4.215  1.00  0.00     0.009 A 
ATOM     93  C   UNL     1       4.303  17.292  -6.082  1.00  0.00     0.009 A 
ATOM     94  C   UNL     1       5.292  17.247  -3.475  1.00  0.00     0.001 A 
ATOM     95  C   UNL     1       4.408  18.479  -5.355  1.00  0.00     0.001 A 
ATOM     96  C   UNL     1       4.887  18.453  -4.047  1.00  0.00     0.000 A 
ENDBRANCH  78  91
ENDBRANCH  52  53
ENDBRANCH  45  47
ENDBRANCH  44  45
ENDBRANCH  43  44
ENDBRANCH  42  43
ENDBRANCH  41  42
ENDBRANCH  40  41
ENDBRANCH  39  40
ENDBRANCH  38  39
ENDBRANCH   1  38
TORSDOF 25
