REMARK SMILES Cc1c(-c2nn(-c3ccccc3)cc2/C=N/O)nnn1-c1ccc(C(=O)OCCOCCOCCOCCOC(=O)c2ccc(-c3c4nc(c(-c5ccccc5)c5ccc([nH]5)c(-c5ccccc5)c5nc(c(-c6ccccc6)c6ccc3[nH]6)C=C5)C=C4)cc2)cc1
REMARK SMILES IDX 32 1 31 2 30 3 29 4 28 5 27 6 25 7 26 8 24 9 21 10 22 11
REMARK SMILES IDX 91 12 23 13 90 14 20 15 1 16 2 17 3 18 18 19 19 20 4 21 5 22
REMARK SMILES IDX 14 23 6 24 13 25 15 26 16 27 17 28 7 30 8 31 12 32 9 33
REMARK SMILES IDX 11 34 10 35 33 36 34 37 35 38 36 39 37 40 38 41 39 42 40 43
REMARK SMILES IDX 41 44 42 45 43 46 89 47 44 48 88 49 45 50 46 51 47 52 82 53
REMARK SMILES IDX 48 54 87 55 81 56 83 57 49 58 86 59 80 60 79 61 50 63 72 64
REMARK SMILES IDX 57 65 71 66 58 67 61 68 70 69 84 70 59 71 60 72 69 74 85 75
REMARK SMILES IDX 62 76 51 77 52 78 56 79 53 80 55 81 54 82 73 83 74 84 78 85
REMARK SMILES IDX 75 86 77 87 76 88 63 89 64 90 68 91 65 92 67 93 66 94
REMARK H PARENT 17 29 83 62 61 73
REMARK Flexibility Score: inf
ROOT
ATOM      1  C   UNL     1      -6.235   0.321  -2.823  1.00  0.00     0.188 C 
ENDROOT
BRANCH   1   2
ATOM      2  C   UNL     1      -6.956   0.996  -1.634  1.00  0.00     0.188 C 
BRANCH   2   3
ATOM      3  O   UNL     1      -7.643   2.182  -1.984  1.00  0.00    -0.376 OA
BRANCH   3   4
ATOM      4  C   UNL     1      -7.171   3.422  -1.512  1.00  0.00     0.202 C 
BRANCH   4   5
ATOM      5  C   UNL     1      -5.751   3.846  -1.906  1.00  0.00     0.261 C 
BRANCH   5   6
ATOM      6  O   UNL     1      -4.736   2.840  -1.784  1.00  0.00    -0.460 OA
BRANCH   6   7
ATOM      7  C   UNL     1      -4.372   2.497  -0.534  1.00  0.00     0.338 C 
ATOM      8  O   UNL     1      -4.809   2.969   0.513  1.00  0.00    -0.246 OA
BRANCH   7   9
ATOM      9  C   UNL     1      -3.481   1.320  -0.602  1.00  0.00     0.060 A 
ATOM     10  C   UNL     1      -1.707  -0.822  -0.539  1.00  0.00     0.067 A 
ATOM     11  C   UNL     1      -2.834  -0.842   0.289  1.00  0.00     0.029 A 
ATOM     12  C   UNL     1      -1.537   0.199  -1.486  1.00  0.00     0.029 A 
ATOM     13  C   UNL     1      -3.700   0.252   0.281  1.00  0.00     0.018 A 
ATOM     14  C   UNL     1      -2.437   1.264  -1.530  1.00  0.00     0.018 A 
BRANCH  10  15
ATOM     15  N   UNL     1      -0.683  -1.770  -0.318  1.00  0.00    -0.217 N 
ATOM     16  C   UNL     1       1.293  -0.179  -0.120  1.00  0.00     0.069 C 
ATOM     17  C   UNL     1       0.670  -1.523  -0.167  1.00  0.00     0.071 A 
ATOM     18  C   UNL     1       1.195  -2.775   0.085  1.00  0.00     0.137 A 
ATOM     19  N   UNL     1       0.196  -3.702   0.147  1.00  0.00    -0.128 NA
ATOM     20  N   UNL     1      -0.957  -3.066  -0.032  1.00  0.00    -0.061 NA
BRANCH  18  21
ATOM     21  C   UNL     1       2.589  -3.116   0.350  1.00  0.00     0.124 A 
ATOM     22  N   UNL     1       3.197  -2.798   1.501  1.00  0.00    -0.165 NA
ATOM     23  C   UNL     1       3.472  -3.705  -0.585  1.00  0.00     0.044 A 
ATOM     24  N   UNL     1       4.502  -3.069   1.277  1.00  0.00    -0.240 N 
ATOM     25  C   UNL     1       4.706  -3.610   0.028  1.00  0.00     0.125 A 
BRANCH  23  26
ATOM     26  C   UNL     1       3.243  -4.273  -1.888  1.00  0.00     0.166 C 
ATOM     27  N   UNL     1       2.071  -4.207  -2.427  1.00  0.00    -0.097 NA
BRANCH  27  28
ATOM     28  O   UNL     1       2.091  -4.862  -3.663  1.00  0.00    -0.411 OA
ATOM     29  H   UNL     1       1.312  -4.903  -4.183  1.00  0.00     0.330 HD
ENDBRANCH  27  28
ENDBRANCH  23  26
BRANCH  24  30
ATOM     30  C   UNL     1       5.490  -2.773   2.244  1.00  0.00     0.065 A 
ATOM     31  C   UNL     1       5.191  -2.927   3.603  1.00  0.00     0.028 A 
ATOM     32  C   UNL     1       6.757  -2.328   1.845  1.00  0.00     0.028 A 
ATOM     33  C   UNL     1       6.177  -2.675   4.559  1.00  0.00     0.002 A 
ATOM     34  C   UNL     1       7.718  -2.024   2.812  1.00  0.00     0.002 A 
ATOM     35  C   UNL     1       7.433  -2.213   4.165  1.00  0.00     0.000 A 
ENDBRANCH  24  30
ENDBRANCH  18  21
ENDBRANCH  10  15
ENDBRANCH   7   9
ENDBRANCH   6   7
ENDBRANCH   5   6
ENDBRANCH   4   5
ENDBRANCH   3   4
ENDBRANCH   2   3
ENDBRANCH   1   2
BRANCH   1  36
ATOM     36  O   UNL     1      -6.200   0.941  -4.103  1.00  0.00    -0.377 OA
BRANCH  36  37
ATOM     37  C   UNL     1      -7.338   1.632  -4.609  1.00  0.00     0.188 C 
BRANCH  37  38
ATOM     38  C   UNL     1      -8.792   1.210  -4.259  1.00  0.00     0.188 C 
BRANCH  38  39
ATOM     39  O   UNL     1      -8.916   0.217  -3.257  1.00  0.00    -0.376 OA
BRANCH  39  40
ATOM     40  C   UNL     1      -9.322  -1.107  -3.529  1.00  0.00     0.202 C 
BRANCH  40  41
ATOM     41  C   UNL     1      -8.524  -1.938  -4.524  1.00  0.00     0.261 C 
BRANCH  41  42
ATOM     42  O   UNL     1      -7.992  -1.187  -5.594  1.00  0.00    -0.460 OA
BRANCH  42  43
ATOM     43  C   UNL     1      -8.888  -0.793  -6.504  1.00  0.00     0.338 C 
ATOM     44  O   UNL     1     -10.118  -0.862  -6.421  1.00  0.00    -0.246 OA
BRANCH  43  45
ATOM     45  C   UNL     1      -8.165  -0.392  -7.705  1.00  0.00     0.060 A 
ATOM     46  C   UNL     1      -8.950   0.087  -8.752  1.00  0.00     0.016 A 
ATOM     47  C   UNL     1      -6.888  -0.943  -7.898  1.00  0.00     0.016 A 
ATOM     48  C   UNL     1      -8.598  -0.296 -10.019  1.00  0.00     0.010 A 
ATOM     49  C   UNL     1      -6.559  -1.359  -9.157  1.00  0.00     0.010 A 
ATOM     50  C   UNL     1      -7.478  -1.122 -10.171  1.00  0.00    -0.014 A 
BRANCH  50  51
ATOM     51  C   UNL     1      -7.261  -1.712 -11.463  1.00  0.00     0.031 A 
ATOM     52  C   UNL     1      -6.637  -0.777 -12.405  1.00  0.00     0.074 A 
ATOM     53  C   UNL     1      -7.544  -2.995 -11.738  1.00  0.00     0.049 A 
ATOM     54  N   UNL     1      -7.219  -0.142 -13.363  1.00  0.00    -0.248 NA
ATOM     55  C   UNL     1      -5.263  -0.344 -12.118  1.00  0.00     0.031 C 
ATOM     56  C   UNL     1      -7.880  -4.085 -10.821  1.00  0.00     0.029 A 
ATOM     57  N   UNL     1      -7.479  -3.610 -12.944  1.00  0.00    -0.354 N 
ATOM     58  C   UNL     1      -6.223   0.630 -13.938  1.00  0.00     0.074 A 
ATOM     59  C   UNL     1      -5.123   0.638 -13.007  1.00  0.00     0.031 C 
ATOM     60  C   UNL     1      -7.759  -5.264 -11.480  1.00  0.00     0.029 A 
ATOM     61  C   UNL     1      -7.477  -4.992 -12.882  1.00  0.00     0.049 A 
ATOM     62  H   UNL     1      -7.437  -3.114 -13.794  1.00  0.00     0.167 HD
ATOM     63  C   UNL     1      -6.263   0.950 -15.257  1.00  0.00     0.031 A 
ATOM     64  C   UNL     1      -7.180  -5.823 -13.909  1.00  0.00     0.031 A 
ATOM     65  C   UNL     1      -7.572   0.733 -15.822  1.00  0.00     0.049 A 
ATOM     66  C   UNL     1      -7.330  -5.051 -15.169  1.00  0.00     0.074 A 
ATOM     67  C   UNL     1      -8.838   1.222 -15.560  1.00  0.00     0.029 A 
ATOM     68  N   UNL     1      -7.755  -0.419 -16.551  1.00  0.00    -0.354 N 
ATOM     69  N   UNL     1      -8.478  -4.637 -15.624  1.00  0.00    -0.248 NA
ATOM     70  C   UNL     1      -6.168  -4.348 -15.693  1.00  0.00     0.031 C 
ATOM     71  C   UNL     1      -9.712   0.111 -15.747  1.00  0.00     0.029 A 
ATOM     72  C   UNL     1      -8.945  -0.979 -16.164  1.00  0.00     0.049 A 
ATOM     73  H   UNL     1      -7.140  -0.778 -17.231  1.00  0.00     0.167 HD
ATOM     74  C   UNL     1      -8.227  -3.367 -16.125  1.00  0.00     0.074 A 
ATOM     75  C   UNL     1      -6.772  -3.289 -16.243  1.00  0.00     0.031 C 
ATOM     76  C   UNL     1      -9.196  -2.404 -16.121  1.00  0.00     0.031 A 
BRANCH  63  77
ATOM     77  C   UNL     1      -5.020   1.017 -16.105  1.00  0.00    -0.014 A 
ATOM     78  C   UNL     1      -5.148   1.394 -17.450  1.00  0.00     0.009 A 
ATOM     79  C   UNL     1      -3.784   0.463 -15.717  1.00  0.00     0.009 A 
ATOM     80  C   UNL     1      -4.119   1.159 -18.368  1.00  0.00     0.001 A 
ATOM     81  C   UNL     1      -2.738   0.269 -16.619  1.00  0.00     0.001 A 
ATOM     82  C   UNL     1      -2.918   0.591 -17.954  1.00  0.00     0.000 A 
ENDBRANCH  63  77
BRANCH  64  83
ATOM     83  C   UNL     1      -6.487  -7.126 -13.863  1.00  0.00    -0.014 A 
ATOM     84  C   UNL     1      -6.522  -7.994 -14.965  1.00  0.00     0.009 A 
ATOM     85  C   UNL     1      -5.559  -7.399 -12.841  1.00  0.00     0.009 A 
ATOM     86  C   UNL     1      -5.630  -9.070 -15.061  1.00  0.00     0.001 A 
ATOM     87  C   UNL     1      -4.671  -8.476 -12.935  1.00  0.00     0.001 A 
ATOM     88  C   UNL     1      -4.697  -9.302 -14.053  1.00  0.00     0.000 A 
ENDBRANCH  64  83
BRANCH  76  89
ATOM     89  C   UNL     1     -10.606  -2.829 -15.784  1.00  0.00    -0.014 A 
ATOM     90  C   UNL     1     -10.960  -3.401 -14.548  1.00  0.00     0.009 A 
ATOM     91  C   UNL     1     -11.631  -2.511 -16.686  1.00  0.00     0.009 A 
ATOM     92  C   UNL     1     -12.298  -3.675 -14.242  1.00  0.00     0.001 A 
ATOM     93  C   UNL     1     -12.968  -2.765 -16.371  1.00  0.00     0.001 A 
ATOM     94  C   UNL     1     -13.301  -3.353 -15.153  1.00  0.00     0.000 A 
ENDBRANCH  76  89
ENDBRANCH  50  51
ENDBRANCH  43  45
ENDBRANCH  42  43
ENDBRANCH  41  42
ENDBRANCH  40  41
ENDBRANCH  39  40
ENDBRANCH  38  39
ENDBRANCH  37  38
ENDBRANCH  36  37
ENDBRANCH   1  36
TORSDOF 25
