REMARK SMILES Cc1cccc(O[C@H](C)C(=O)NNC(=O)[C@H]2[C@@H]3CC[C@@H](C3)[C@@H]2C(=O)OCCOCCOCCOCCOC(=O)c2ccc(-c3c4nc(c(-c5ccccc5)c5ccc([nH]5)c(-c5ccccc5)c5nc(c(-c6ccccc6)c6ccc3[nH]6)C=C5)C=C4)cc2)c1
REMARK SMILES IDX 29 1 28 2 27 3 26 4 25 5 23 6 24 7 22 8 16 9 17 10 18 11
REMARK SMILES IDX 21 12 20 13 19 14 14 15 13 16 15 18 12 19 10 20 11 21 8 23
REMARK SMILES IDX 9 24 7 25 6 26 1 27 2 28 3 29 88 30 4 31 5 32 30 33 31 34
REMARK SMILES IDX 32 35 33 36 34 37 35 38 36 39 37 40 38 41 39 42 40 43 41 44
REMARK SMILES IDX 87 45 42 46 86 47 43 48 44 49 45 50 80 51 46 52 85 53 79 54
REMARK SMILES IDX 81 55 47 56 84 57 78 58 77 59 48 61 70 62 55 63 69 64 56 65
REMARK SMILES IDX 59 66 68 67 82 68 57 69 58 70 67 72 83 73 60 74 49 75 50 76
REMARK SMILES IDX 54 77 51 78 53 79 52 80 71 81 72 82 76 83 73 84 75 85 74 86
REMARK SMILES IDX 61 87 62 88 66 89 63 90 65 91 64 92
REMARK H PARENT 13 17 12 22 81 60 59 71
REMARK Flexibility Score: inf
ROOT
ATOM      1  C   UNL     1       6.213   2.361   0.861  1.00  0.00     0.188 C 
ENDROOT
BRANCH   1   2
ATOM      2  O   UNL     1       7.470   2.587  -0.307  1.00  0.00    -0.376 OA
BRANCH   2   3
ATOM      3  C   UNL     1       7.717   3.537  -1.760  1.00  0.00     0.202 C 
BRANCH   3   4
ATOM      4  C   UNL     1       6.653   3.800  -3.322  1.00  0.00     0.261 C 
BRANCH   4   5
ATOM      5  O   UNL     1       5.146   2.959  -3.794  1.00  0.00    -0.463 OA
BRANCH   5   6
ATOM      6  C   UNL     1       4.568   1.682  -4.073  1.00  0.00     0.310 C 
ATOM      7  O   UNL     1       5.149   0.615  -4.274  1.00  0.00    -0.252 OA
BRANCH   6   8
ATOM      8  C   UNL     1       3.034   1.402  -3.893  1.00  0.00     0.115 C 
ATOM      9  C   UNL     1       2.745   0.227  -2.868  1.00  0.00     0.098 C 
ATOM     10  C   UNL     1       1.811  -0.722  -3.663  1.00  0.00     0.003 C 
ATOM     11  C   UNL     1       2.651  -1.469  -4.719  1.00  0.00     0.005 C 
ATOM     12  C   UNL     1       1.026   0.240  -4.548  1.00  0.00     0.009 C 
ATOM     13  C   UNL     1       2.288   0.873  -5.159  1.00  0.00     0.004 C 
ATOM     14  C   UNL     1       2.905  -0.387  -5.776  1.00  0.00     0.005 C 
BRANCH   9  15
ATOM     15  C   UNL     1       2.224   0.415  -1.426  1.00  0.00     0.242 C 
ATOM     16  N   UNL     1       1.236   1.262  -1.008  1.00  0.00    -0.267 N 
ATOM     17  H   UNL     1       1.026   1.237  -0.046  1.00  0.00     0.191 HD
ATOM     18  O   UNL     1       2.690  -0.322  -0.540  1.00  0.00    -0.273 OA
BRANCH  16  19
ATOM     19  N   UNL     1       0.497   2.144  -1.759  1.00  0.00    -0.264 N 
ATOM     20  C   UNL     1      -0.277   3.168  -1.300  1.00  0.00     0.279 C 
ATOM     21  O   UNL     1      -0.485   4.080  -2.117  1.00  0.00    -0.269 OA
ATOM     22  H   UNL     1       0.531   2.024  -2.736  1.00  0.00     0.191 HD
BRANCH  20  23
ATOM     23  C   UNL     1      -1.003   3.212   0.078  1.00  0.00     0.260 C 
ATOM     24  C   UNL     1      -2.434   2.670  -0.043  1.00  0.00     0.064 C 
BRANCH  23  25
ATOM     25  O   UNL     1      -0.405   3.078   1.351  1.00  0.00    -0.481 OA
BRANCH  25  26
ATOM     26  C   UNL     1      -0.169   1.915   2.006  1.00  0.00     0.120 A 
ATOM     27  C   UNL     1       1.703   1.174   5.257  1.00  0.00     0.044 C 
ATOM     28  C   UNL     1       0.939   0.986   3.981  1.00  0.00    -0.047 A 
ATOM     29  C   UNL     1       0.742  -0.296   3.469  1.00  0.00     0.003 A 
ATOM     30  C   UNL     1       0.461   2.079   3.248  1.00  0.00     0.049 A 
ATOM     31  C   UNL     1       0.045  -0.473   2.275  1.00  0.00     0.004 A 
ATOM     32  C   UNL     1      -0.418   0.628   1.550  1.00  0.00     0.046 A 
ENDBRANCH  25  26
ENDBRANCH  23  25
ENDBRANCH  20  23
ENDBRANCH  16  19
ENDBRANCH   9  15
ENDBRANCH   6   8
ENDBRANCH   5   6
ENDBRANCH   4   5
ENDBRANCH   3   4
ENDBRANCH   2   3
ENDBRANCH   1   2
BRANCH   1  33
ATOM     33  C   UNL     1       4.518   2.145   0.793  1.00  0.00     0.188 C 
BRANCH  33  34
ATOM     34  O   UNL     1       3.412   3.030   0.480  1.00  0.00    -0.377 OA
BRANCH  34  35
ATOM     35  C   UNL     1       3.108   4.321   1.009  1.00  0.00     0.188 C 
BRANCH  35  36
ATOM     36  C   UNL     1       3.192   4.508   2.497  1.00  0.00     0.188 C 
BRANCH  36  37
ATOM     37  O   UNL     1       4.422   3.944   2.895  1.00  0.00    -0.376 OA
BRANCH  37  38
ATOM     38  C   UNL     1       4.476   3.562   4.252  1.00  0.00     0.202 C 
BRANCH  38  39
ATOM     39  C   UNL     1       4.739   4.769   5.144  1.00  0.00     0.261 C 
BRANCH  39  40
ATOM     40  O   UNL     1       5.949   5.414   4.685  1.00  0.00    -0.460 OA
BRANCH  40  41
ATOM     41  C   UNL     1       5.743   6.508   3.890  1.00  0.00     0.338 C 
ATOM     42  O   UNL     1       4.977   7.418   4.136  1.00  0.00    -0.246 OA
BRANCH  41  43
ATOM     43  C   UNL     1       6.326   6.259   2.537  1.00  0.00     0.060 A 
ATOM     44  C   UNL     1       5.774   6.852   1.418  1.00  0.00     0.016 A 
ATOM     45  C   UNL     1       7.252   5.280   2.291  1.00  0.00     0.016 A 
ATOM     46  C   UNL     1       5.809   6.173   0.169  1.00  0.00     0.010 A 
ATOM     47  C   UNL     1       7.307   4.699   0.997  1.00  0.00     0.010 A 
ATOM     48  C   UNL     1       6.282   4.857  -0.003  1.00  0.00    -0.014 A 
BRANCH  48  49
ATOM     49  C   UNL     1       5.470   3.636  -1.113  1.00  0.00     0.031 A 
ATOM     50  C   UNL     1       6.049   1.871  -1.730  1.00  0.00     0.074 A 
ATOM     51  C   UNL     1       4.427   4.312  -1.700  1.00  0.00     0.049 A 
ATOM     52  N   UNL     1       6.768   1.725  -2.878  1.00  0.00    -0.248 NA
ATOM     53  C   UNL     1       6.451   0.505  -1.091  1.00  0.00     0.031 C 
ATOM     54  C   UNL     1       3.239   3.814  -2.316  1.00  0.00     0.029 A 
ATOM     55  N   UNL     1       4.386   5.636  -2.143  1.00  0.00    -0.354 N 
ATOM     56  C   UNL     1       7.500   0.603  -3.134  1.00  0.00     0.074 A 
ATOM     57  C   UNL     1       7.400  -0.070  -1.879  1.00  0.00     0.031 C 
ATOM     58  C   UNL     1       2.897   4.556  -3.387  1.00  0.00     0.029 A 
ATOM     59  C   UNL     1       3.806   5.661  -3.409  1.00  0.00     0.049 A 
ATOM     60  H   UNL     1       4.711   6.419  -1.643  1.00  0.00     0.167 HD
ATOM     61  C   UNL     1       8.071   0.302  -4.359  1.00  0.00     0.031 A 
ATOM     62  C   UNL     1       3.853   6.621  -4.347  1.00  0.00     0.031 A 
ATOM     63  C   UNL     1       7.500   0.976  -5.558  1.00  0.00     0.049 A 
ATOM     64  C   UNL     1       4.529   6.120  -5.603  1.00  0.00     0.074 A 
ATOM     65  C   UNL     1       6.544   0.500  -6.453  1.00  0.00     0.029 A 
ATOM     66  N   UNL     1       7.696   2.303  -5.938  1.00  0.00    -0.354 N 
ATOM     67  N   UNL     1       5.201   5.001  -5.746  1.00  0.00    -0.248 NA
ATOM     68  C   UNL     1       4.450   6.893  -6.838  1.00  0.00     0.031 C 
ATOM     69  C   UNL     1       5.944   1.593  -7.114  1.00  0.00     0.029 A 
ATOM     70  C   UNL     1       6.675   2.724  -6.802  1.00  0.00     0.049 A 
ATOM     71  H   UNL     1       8.446   2.866  -5.641  1.00  0.00     0.167 HD
ATOM     72  C   UNL     1       5.742   4.961  -7.023  1.00  0.00     0.074 A 
ATOM     73  C   UNL     1       5.167   6.129  -7.675  1.00  0.00     0.031 C 
ATOM     74  C   UNL     1       6.630   4.017  -7.487  1.00  0.00     0.031 A 
BRANCH  61  75
ATOM     75  C   UNL     1       8.874  -0.981  -4.515  1.00  0.00    -0.014 A 
ATOM     76  C   UNL     1       8.579  -1.917  -5.528  1.00  0.00     0.009 A 
ATOM     77  C   UNL     1       9.933  -1.310  -3.655  1.00  0.00     0.009 A 
ATOM     78  C   UNL     1       9.200  -3.170  -5.595  1.00  0.00     0.001 A 
ATOM     79  C   UNL     1      10.557  -2.569  -3.713  1.00  0.00     0.001 A 
ATOM     80  C   UNL     1      10.168  -3.510  -4.663  1.00  0.00     0.000 A 
ENDBRANCH  61  75
BRANCH  62  81
ATOM     81  C   UNL     1       3.892   7.957  -3.692  1.00  0.00    -0.014 A 
ATOM     82  C   UNL     1       2.661   8.310  -3.078  1.00  0.00     0.009 A 
ATOM     83  C   UNL     1       5.074   8.492  -3.165  1.00  0.00     0.009 A 
ATOM     84  C   UNL     1       2.634   8.982  -1.855  1.00  0.00     0.001 A 
ATOM     85  C   UNL     1       5.035   9.200  -1.952  1.00  0.00     0.001 A 
ATOM     86  C   UNL     1       3.827   9.395  -1.274  1.00  0.00     0.000 A 
ENDBRANCH  62  81
BRANCH  74  87
ATOM     87  C   UNL     1       7.424   4.080  -8.799  1.00  0.00    -0.014 A 
ATOM     88  C   UNL     1       7.512   5.179  -9.659  1.00  0.00     0.009 A 
ATOM     89  C   UNL     1       8.215   2.960  -9.168  1.00  0.00     0.009 A 
ATOM     90  C   UNL     1       8.285   5.143 -10.834  1.00  0.00     0.001 A 
ATOM     91  C   UNL     1       9.016   2.928 -10.312  1.00  0.00     0.001 A 
ATOM     92  C   UNL     1       9.041   4.022 -11.156  1.00  0.00     0.000 A 
ENDBRANCH  74  87
ENDBRANCH  48  49
ENDBRANCH  41  43
ENDBRANCH  40  41
ENDBRANCH  39  40
ENDBRANCH  38  39
ENDBRANCH  37  38
ENDBRANCH  36  37
ENDBRANCH  35  36
ENDBRANCH  34  35
ENDBRANCH  33  34
ENDBRANCH   1  33
TORSDOF 25
