REMARK SMILES O=C(OCCOCCOCCOCCOC(=O)C1(C/C=C/c2ccccc2)Cc2ccccc2C1)c1ccc(-c2c3nc(c(-c4ccccc4)c4ccc([nH]4)c(-c4ccccc4)c4nc(c(-c5ccccc5)c5ccc2[nH]5)C=C4)C=C3)cc1
REMARK SMILES IDX 10 1 9 2 8 3 7 4 6 5 5 6 4 7 3 8 2 9 1 10 36 11 37 12 83 13
REMARK SMILES IDX 38 14 82 15 39 16 40 17 41 18 76 19 42 20 81 21 75 22 77 23
REMARK SMILES IDX 43 24 80 25 74 26 73 27 44 29 66 30 51 31 65 32 52 33 55 34
REMARK SMILES IDX 64 35 78 36 53 37 54 38 63 40 79 41 56 42 45 43 46 44 50 45
REMARK SMILES IDX 47 46 49 47 48 48 67 49 68 50 72 51 69 52 71 53 70 54 57 55
REMARK SMILES IDX 58 56 62 57 59 58 61 59 60 60 11 61 12 62 13 63 14 64 15 65
REMARK SMILES IDX 16 66 17 67 18 68 28 69 35 70 29 71 34 72 30 73 33 74 31 75
REMARK SMILES IDX 32 76 19 77 20 78 21 79 22 80 23 81 27 82 24 83 26 84 25 85
REMARK H PARENT 77 28 55 39
REMARK Flexibility Score: inf
ROOT
ATOM      1  C   UNL     1       4.595  -2.384   2.285  1.00  0.00     0.188 C 
ENDROOT
BRANCH   1   2
ATOM      2  O   UNL     1       3.251  -2.231   2.745  1.00  0.00    -0.377 OA
BRANCH   2   3
ATOM      3  C   UNL     1       2.257  -1.762   1.846  1.00  0.00     0.188 C 
BRANCH   3   4
ATOM      4  C   UNL     1       2.567  -0.388   1.292  1.00  0.00     0.188 C 
BRANCH   4   5
ATOM      5  O   UNL     1       3.849  -0.444   0.705  1.00  0.00    -0.376 OA
BRANCH   5   6
ATOM      6  C   UNL     1       4.739   0.647   0.833  1.00  0.00     0.202 C 
BRANCH   6   7
ATOM      7  C   UNL     1       4.224   1.984   0.339  1.00  0.00     0.261 C 
BRANCH   7   8
ATOM      8  O   UNL     1       2.881   2.007  -0.183  1.00  0.00    -0.460 OA
BRANCH   8   9
ATOM      9  C   UNL     1       2.296   1.492  -1.285  1.00  0.00     0.338 C 
ATOM     10  O   UNL     1       1.095   1.698  -1.454  1.00  0.00    -0.246 OA
BRANCH   9  11
ATOM     11  C   UNL     1       2.997   0.706  -2.334  1.00  0.00     0.060 A 
ATOM     12  C   UNL     1       3.994  -0.233  -2.103  1.00  0.00     0.016 A 
ATOM     13  C   UNL     1       2.511   0.817  -3.644  1.00  0.00     0.016 A 
ATOM     14  C   UNL     1       4.586  -0.959  -3.107  1.00  0.00     0.010 A 
ATOM     15  C   UNL     1       3.054   0.044  -4.673  1.00  0.00     0.010 A 
ATOM     16  C   UNL     1       4.117  -0.823  -4.396  1.00  0.00    -0.014 A 
BRANCH  16  17
ATOM     17  C   UNL     1       4.915  -1.470  -5.435  1.00  0.00     0.031 A 
ATOM     18  C   UNL     1       5.795  -0.583  -6.249  1.00  0.00     0.074 A 
ATOM     19  C   UNL     1       4.980  -2.811  -5.486  1.00  0.00     0.049 A 
ATOM     20  N   UNL     1       6.499  -0.868  -7.304  1.00  0.00    -0.248 NA
ATOM     21  C   UNL     1       5.905   0.821  -5.805  1.00  0.00     0.031 C 
ATOM     22  C   UNL     1       4.318  -3.735  -4.555  1.00  0.00     0.029 A 
ATOM     23  N   UNL     1       5.661  -3.631  -6.338  1.00  0.00    -0.354 N 
ATOM     24  C   UNL     1       7.074   0.333  -7.693  1.00  0.00     0.074 A 
ATOM     25  C   UNL     1       6.665   1.346  -6.751  1.00  0.00     0.031 C 
ATOM     26  C   UNL     1       4.627  -4.996  -4.894  1.00  0.00     0.029 A 
ATOM     27  C   UNL     1       5.417  -4.964  -6.115  1.00  0.00     0.049 A 
ATOM     28  H   UNL     1       6.266  -3.301  -7.040  1.00  0.00     0.167 HD
ATOM     29  C   UNL     1       7.848   0.553  -8.776  1.00  0.00     0.031 A 
ATOM     30  C   UNL     1       5.742  -6.023  -6.877  1.00  0.00     0.031 A 
ATOM     31  C   UNL     1       8.212  -0.500  -9.678  1.00  0.00     0.049 A 
ATOM     32  C   UNL     1       6.485  -5.734  -8.153  1.00  0.00     0.074 A 
ATOM     33  C   UNL     1       8.928  -0.428 -10.855  1.00  0.00     0.029 A 
ATOM     34  N   UNL     1       7.872  -1.835  -9.485  1.00  0.00    -0.354 N 
ATOM     35  N   UNL     1       6.952  -4.587  -8.593  1.00  0.00    -0.248 NA
ATOM     36  C   UNL     1       6.723  -6.869  -9.050  1.00  0.00     0.031 C 
ATOM     37  C   UNL     1       8.963  -1.712 -11.407  1.00  0.00     0.029 A 
ATOM     38  C   UNL     1       8.332  -2.595 -10.539  1.00  0.00     0.049 A 
ATOM     39  H   UNL     1       7.375  -2.185  -8.710  1.00  0.00     0.167 HD
ATOM     40  C   UNL     1       7.553  -4.862  -9.811  1.00  0.00     0.074 A 
ATOM     41  C   UNL     1       7.411  -6.291 -10.025  1.00  0.00     0.031 C 
ATOM     42  C   UNL     1       8.162  -4.020 -10.683  1.00  0.00     0.031 A 
BRANCH  29  43
ATOM     43  C   UNL     1       8.207   1.977  -9.079  1.00  0.00    -0.014 A 
ATOM     44  C   UNL     1       9.117   2.704  -8.296  1.00  0.00     0.009 A 
ATOM     45  C   UNL     1       7.564   2.623 -10.147  1.00  0.00     0.009 A 
ATOM     46  C   UNL     1       9.347   4.058  -8.556  1.00  0.00     0.001 A 
ATOM     47  C   UNL     1       7.816   3.967 -10.422  1.00  0.00     0.001 A 
ATOM     48  C   UNL     1       8.699   4.686  -9.620  1.00  0.00     0.000 A 
ENDBRANCH  29  43
BRANCH  30  49
ATOM     49  C   UNL     1       5.268  -7.390  -6.529  1.00  0.00    -0.014 A 
ATOM     50  C   UNL     1       6.175  -8.426  -6.263  1.00  0.00     0.009 A 
ATOM     51  C   UNL     1       3.892  -7.676  -6.487  1.00  0.00     0.009 A 
ATOM     52  C   UNL     1       5.715  -9.720  -5.997  1.00  0.00     0.001 A 
ATOM     53  C   UNL     1       3.434  -8.961  -6.187  1.00  0.00     0.001 A 
ATOM     54  C   UNL     1       4.347  -9.986  -5.957  1.00  0.00     0.000 A 
ENDBRANCH  30  49
BRANCH  42  55
ATOM     55  C   UNL     1       8.745  -4.640 -11.915  1.00  0.00    -0.014 A 
ATOM     56  C   UNL     1       7.924  -5.078 -12.964  1.00  0.00     0.009 A 
ATOM     57  C   UNL     1      10.139  -4.707 -12.053  1.00  0.00     0.009 A 
ATOM     58  C   UNL     1       8.495  -5.594 -14.127  1.00  0.00     0.001 A 
ATOM     59  C   UNL     1      10.705  -5.190 -13.230  1.00  0.00     0.001 A 
ATOM     60  C   UNL     1       9.883  -5.639 -14.262  1.00  0.00     0.000 A 
ENDBRANCH  42  55
ENDBRANCH  16  17
ENDBRANCH   9  11
ENDBRANCH   8   9
ENDBRANCH   7   8
ENDBRANCH   6   7
ENDBRANCH   5   6
ENDBRANCH   4   5
ENDBRANCH   3   4
ENDBRANCH   2   3
ENDBRANCH   1   2
BRANCH   1  61
ATOM     61  C   UNL     1       4.967  -3.366   1.168  1.00  0.00     0.188 C 
BRANCH  61  62
ATOM     62  O   UNL     1       3.915  -3.679   0.289  1.00  0.00    -0.376 OA
BRANCH  62  63
ATOM     63  C   UNL     1       3.155  -4.850   0.564  1.00  0.00     0.202 C 
BRANCH  63  64
ATOM     64  C   UNL     1       3.041  -5.493   1.973  1.00  0.00     0.261 C 
BRANCH  64  65
ATOM     65  O   UNL     1       3.491  -4.698   3.086  1.00  0.00    -0.463 OA
BRANCH  65  66
ATOM     66  C   UNL     1       4.022  -5.341   4.148  1.00  0.00     0.313 C 
ATOM     67  O   UNL     1       4.043  -6.574   4.226  1.00  0.00    -0.252 OA
BRANCH  66  68
ATOM     68  C   UNL     1       4.652  -4.437   5.236  1.00  0.00     0.079 C 
ATOM     69  C   UNL     1       4.108  -2.980   5.369  1.00  0.00     0.055 C 
ATOM     70  C   UNL     1       4.221  -5.086   6.591  1.00  0.00     0.055 C 
ATOM     71  C   UNL     1       4.118  -2.724   6.839  1.00  0.00    -0.044 A 
ATOM     72  C   UNL     1       4.130  -3.926   7.533  1.00  0.00    -0.044 A 
ATOM     73  C   UNL     1       4.068  -1.500   7.487  1.00  0.00     0.004 A 
ATOM     74  C   UNL     1       4.008  -3.939   8.907  1.00  0.00     0.004 A 
ATOM     75  C   UNL     1       3.986  -1.501   8.877  1.00  0.00     0.000 A 
ATOM     76  C   UNL     1       3.935  -2.715   9.580  1.00  0.00     0.000 A 
BRANCH  68  77
ATOM     77  C   UNL     1       6.214  -4.375   5.070  1.00  0.00     0.047 C 
BRANCH  77  78
ATOM     78  C   UNL     1       6.873  -5.675   4.706  1.00  0.00    -0.025 C 
ATOM     79  C   UNL     1       7.562  -5.893   3.572  1.00  0.00     0.004 C 
BRANCH  79  80
ATOM     80  C   UNL     1       7.966  -7.247   3.174  1.00  0.00    -0.026 A 
ATOM     81  C   UNL     1       9.255  -7.510   2.699  1.00  0.00     0.008 A 
ATOM     82  C   UNL     1       7.027  -8.289   3.200  1.00  0.00     0.008 A 
ATOM     83  C   UNL     1       9.603  -8.803   2.294  1.00  0.00     0.001 A 
ATOM     84  C   UNL     1       7.373  -9.576   2.794  1.00  0.00     0.001 A 
ATOM     85  C   UNL     1       8.664  -9.835   2.345  1.00  0.00     0.000 A 
ENDBRANCH  79  80
ENDBRANCH  77  78
ENDBRANCH  68  77
ENDBRANCH  66  68
ENDBRANCH  65  66
ENDBRANCH  64  65
ENDBRANCH  63  64
ENDBRANCH  62  63
ENDBRANCH  61  62
ENDBRANCH   1  61
TORSDOF 23
