REMARK SMILES Cc1cnn(C2(C(=O)OCCOCCOCCOCCOC(=O)c3ccc(-c4c5nc(c(-c6ccccc6)c6ccc([nH]6)c(-c6ccccc6)c6nc(c(-c7ccccc7)c7ccc4[nH]7)C=C6)C=C5)cc3)CCN(C(=O)c3cc4ccccc4[nH]3)CC2)c1
REMARK SMILES IDX 16 1 15 2 14 3 13 4 12 5 11 6 10 7 9 8 7 9 8 10 6 11 72 12
REMARK SMILES IDX 87 13 73 14 86 15 74 16 75 17 76 18 5 19 1 20 2 21 3 22
REMARK SMILES IDX 88 23 4 24 77 25 78 26 85 27 79 28 84 29 80 31 83 32 81 33
REMARK SMILES IDX 82 34 17 35 18 36 19 37 20 38 21 39 22 40 23 41 24 42 25 43
REMARK SMILES IDX 71 44 26 45 70 46 27 47 28 48 29 49 64 50 30 51 69 52 63 53
REMARK SMILES IDX 65 54 31 55 68 56 62 57 61 58 32 60 54 61 39 62 53 63 40 64
REMARK SMILES IDX 43 65 52 66 66 67 41 68 42 69 51 71 67 72 44 73 33 74 34 75
REMARK SMILES IDX 38 76 35 77 37 78 36 79 55 80 56 81 60 82 57 83 59 84 58 85
REMARK SMILES IDX 45 86 46 87 50 88 47 89 49 90 48 91
REMARK H PARENT 85 30 65 59 43 70
REMARK Flexibility Score: inf
ROOT
ATOM      1  C   UNL     1       0.542  -7.446  -5.319  1.00  0.00     0.188 C 
ENDROOT
BRANCH   1   2
ATOM      2  O   UNL     1      -0.220  -6.612  -4.458  1.00  0.00    -0.377 OA
BRANCH   2   3
ATOM      3  C   UNL     1       0.532  -5.694  -3.686  1.00  0.00     0.188 C 
BRANCH   3   4
ATOM      4  C   UNL     1       0.841  -6.135  -2.244  1.00  0.00     0.188 C 
BRANCH   4   5
ATOM      5  O   UNL     1       0.483  -7.440  -1.815  1.00  0.00    -0.376 OA
BRANCH   5   6
ATOM      6  C   UNL     1      -0.796  -7.950  -2.156  1.00  0.00     0.202 C 
BRANCH   6   7
ATOM      7  C   UNL     1      -2.071  -7.087  -2.052  1.00  0.00     0.261 C 
BRANCH   7   8
ATOM      8  O   UNL     1      -1.973  -5.700  -2.438  1.00  0.00    -0.461 OA
BRANCH   8   9
ATOM      9  C   UNL     1      -2.085  -4.782  -1.439  1.00  0.00     0.334 C 
ATOM     10  O   UNL     1      -2.326  -5.095  -0.273  1.00  0.00    -0.249 OA
BRANCH   9  11
ATOM     11  C   UNL     1      -2.039  -3.297  -1.917  1.00  0.00     0.163 C 
ATOM     12  C   UNL     1      -1.742  -3.055  -3.421  1.00  0.00     0.064 C 
ATOM     13  C   UNL     1      -3.485  -2.875  -1.584  1.00  0.00     0.064 C 
ATOM     14  C   UNL     1      -2.267  -1.736  -3.977  1.00  0.00     0.123 C 
ATOM     15  C   UNL     1      -3.970  -1.595  -2.220  1.00  0.00     0.123 C 
ATOM     16  N   UNL     1      -3.661  -1.539  -3.643  1.00  0.00    -0.337 N 
ATOM     17  C   UNL     1      -4.587  -1.333  -4.671  1.00  0.00     0.270 C 
ATOM     18  O   UNL     1      -4.298  -1.519  -5.854  1.00  0.00    -0.267 OA
BRANCH  11  19
ATOM     19  N   UNL     1      -1.008  -2.596  -1.122  1.00  0.00    -0.255 N 
ATOM     20  C   UNL     1       0.987   0.160   0.232  1.00  0.00     0.048 C 
ATOM     21  C   UNL     1       0.352  -1.090  -0.233  1.00  0.00    -0.013 A 
ATOM     22  C   UNL     1       0.850  -2.396  -0.102  1.00  0.00     0.138 A 
ATOM     23  C   UNL     1      -0.843  -1.252  -0.904  1.00  0.00     0.113 A 
ATOM     24  N   UNL     1       0.074  -3.288  -0.708  1.00  0.00    -0.180 NA
ENDBRANCH  11  19
BRANCH  17  25
ATOM     25  C   UNL     1      -5.926  -0.959  -4.287  1.00  0.00     0.105 A 
ATOM     26  C   UNL     1      -6.380  -0.100  -3.301  1.00  0.00     0.042 A 
ATOM     27  N   UNL     1      -7.049  -1.457  -4.908  1.00  0.00    -0.351 N 
ATOM     28  C   UNL     1      -7.747  -0.395  -3.082  1.00  0.00     0.000 A 
ATOM     29  C   UNL     1      -8.157  -1.222  -4.125  1.00  0.00     0.046 A 
ATOM     30  H   UNL     1      -7.059  -1.912  -5.781  1.00  0.00     0.167 HD
ATOM     31  C   UNL     1      -8.659  -0.061  -2.067  1.00  0.00     0.010 A 
ATOM     32  C   UNL     1      -9.469  -1.689  -4.240  1.00  0.00     0.026 A 
ATOM     33  C   UNL     1      -9.962  -0.561  -2.139  1.00  0.00     0.001 A 
ATOM     34  C   UNL     1     -10.362  -1.347  -3.219  1.00  0.00     0.002 A 
ENDBRANCH  17  25
ENDBRANCH   9  11
ENDBRANCH   8   9
ENDBRANCH   7   8
ENDBRANCH   6   7
ENDBRANCH   5   6
ENDBRANCH   4   5
ENDBRANCH   3   4
ENDBRANCH   2   3
ENDBRANCH   1   2
BRANCH   1  35
ATOM     35  C   UNL     1       1.866  -8.031  -4.774  1.00  0.00     0.188 C 
BRANCH  35  36
ATOM     36  O   UNL     1       2.693  -7.111  -4.063  1.00  0.00    -0.376 OA
BRANCH  36  37
ATOM     37  C   UNL     1       3.844  -6.537  -4.661  1.00  0.00     0.202 C 
BRANCH  37  38
ATOM     38  C   UNL     1       3.601  -5.426  -5.684  1.00  0.00     0.261 C 
BRANCH  38  39
ATOM     39  O   UNL     1       2.659  -5.763  -6.686  1.00  0.00    -0.460 OA
BRANCH  39  40
ATOM     40  C   UNL     1       2.983  -6.833  -7.435  1.00  0.00     0.338 C 
ATOM     41  O   UNL     1       3.931  -7.583  -7.292  1.00  0.00    -0.246 OA
BRANCH  40  42
ATOM     42  C   UNL     1       2.058  -6.903  -8.566  1.00  0.00     0.060 A 
ATOM     43  C   UNL     1       2.233  -7.996  -9.411  1.00  0.00     0.016 A 
ATOM     44  C   UNL     1       1.367  -5.743  -8.950  1.00  0.00     0.016 A 
ATOM     45  C   UNL     1       2.008  -7.794 -10.746  1.00  0.00     0.010 A 
ATOM     46  C   UNL     1       1.155  -5.538 -10.287  1.00  0.00     0.010 A 
ATOM     47  C   UNL     1       1.594  -6.523 -11.162  1.00  0.00    -0.014 A 
BRANCH  47  48
ATOM     48  C   UNL     1       1.662  -6.252 -12.571  1.00  0.00     0.031 A 
ATOM     49  C   UNL     1       0.570  -6.863 -13.336  1.00  0.00     0.074 A 
ATOM     50  C   UNL     1       2.631  -5.501 -13.119  1.00  0.00     0.049 A 
ATOM     51  N   UNL     1       0.649  -7.881 -14.122  1.00  0.00    -0.248 NA
ATOM     52  C   UNL     1      -0.791  -6.389 -13.061  1.00  0.00     0.031 C 
ATOM     53  C   UNL     1       3.596  -4.618 -12.462  1.00  0.00     0.029 A 
ATOM     54  N   UNL     1       2.872  -5.306 -14.438  1.00  0.00    -0.354 N 
ATOM     55  C   UNL     1      -0.640  -8.076 -14.591  1.00  0.00     0.074 A 
ATOM     56  C   UNL     1      -1.504  -7.253 -13.780  1.00  0.00     0.031 C 
ATOM     57  C   UNL     1       4.151  -3.809 -13.395  1.00  0.00     0.029 A 
ATOM     58  C   UNL     1       3.679  -4.217 -14.710  1.00  0.00     0.049 A 
ATOM     59  H   UNL     1       2.504  -5.888 -15.142  1.00  0.00     0.167 HD
ATOM     60  C   UNL     1      -0.872  -8.705 -15.771  1.00  0.00     0.031 A 
ATOM     61  C   UNL     1       3.857  -3.657 -15.930  1.00  0.00     0.031 A 
ATOM     62  C   UNL     1       0.278  -9.439 -16.233  1.00  0.00     0.049 A 
ATOM     63  C   UNL     1       3.455  -4.656 -16.952  1.00  0.00     0.074 A 
ATOM     64  C   UNL     1       1.030 -10.481 -15.727  1.00  0.00     0.029 A 
ATOM     65  N   UNL     1       1.047  -8.858 -17.215  1.00  0.00    -0.354 N 
ATOM     66  N   UNL     1       4.126  -5.746 -17.194  1.00  0.00    -0.248 NA
ATOM     67  C   UNL     1       2.071  -4.670 -17.404  1.00  0.00     0.031 C 
ATOM     68  C   UNL     1       2.374 -10.186 -16.103  1.00  0.00     0.029 A 
ATOM     69  C   UNL     1       2.361  -9.007 -16.850  1.00  0.00     0.049 A 
ATOM     70  H   UNL     1       0.715  -8.416 -18.029  1.00  0.00     0.167 HD
ATOM     71  C   UNL     1       3.161  -6.718 -17.421  1.00  0.00     0.074 A 
ATOM     72  C   UNL     1       1.924  -5.976 -17.651  1.00  0.00     0.031 C 
ATOM     73  C   UNL     1       3.395  -8.030 -17.119  1.00  0.00     0.031 A 
BRANCH  60  74
ATOM     74  C   UNL     1      -1.997  -8.307 -16.682  1.00  0.00    -0.014 A 
ATOM     75  C   UNL     1      -2.245  -9.077 -17.827  1.00  0.00     0.009 A 
ATOM     76  C   UNL     1      -2.643  -7.056 -16.599  1.00  0.00     0.009 A 
ATOM     77  C   UNL     1      -3.055  -8.593 -18.860  1.00  0.00     0.001 A 
ATOM     78  C   UNL     1      -3.488  -6.590 -17.606  1.00  0.00     0.001 A 
ATOM     79  C   UNL     1      -3.672  -7.350 -18.750  1.00  0.00     0.000 A 
ENDBRANCH  60  74
BRANCH  61  80
ATOM     80  C   UNL     1       4.068  -2.232 -16.250  1.00  0.00    -0.014 A 
ATOM     81  C   UNL     1       4.531  -1.843 -17.515  1.00  0.00     0.009 A 
ATOM     82  C   UNL     1       3.567  -1.230 -15.397  1.00  0.00     0.009 A 
ATOM     83  C   UNL     1       4.459  -0.505 -17.925  1.00  0.00     0.001 A 
ATOM     84  C   UNL     1       3.500   0.106 -15.804  1.00  0.00     0.001 A 
ATOM     85  C   UNL     1       3.932   0.465 -17.075  1.00  0.00     0.000 A 
ENDBRANCH  61  80
BRANCH  73  86
ATOM     86  C   UNL     1       4.806  -8.429 -16.758  1.00  0.00    -0.014 A 
ATOM     87  C   UNL     1       5.496  -7.881 -15.661  1.00  0.00     0.009 A 
ATOM     88  C   UNL     1       5.400  -9.495 -17.450  1.00  0.00     0.009 A 
ATOM     89  C   UNL     1       6.758  -8.361 -15.294  1.00  0.00     0.001 A 
ATOM     90  C   UNL     1       6.650  -9.989 -17.069  1.00  0.00     0.001 A 
ATOM     91  C   UNL     1       7.331  -9.419 -15.996  1.00  0.00     0.000 A 
ENDBRANCH  73  86
ENDBRANCH  47  48
ENDBRANCH  40  42
ENDBRANCH  39  40
ENDBRANCH  38  39
ENDBRANCH  37  38
ENDBRANCH  36  37
ENDBRANCH  35  36
ENDBRANCH   1  35
TORSDOF 22
