REMARK SMILES C#CCNC(=O)C[N@@H+](CC(=O)OCCOCCOCCOCCOC(=O)c1ccc(-c2c3nc(c(-c4ccccc4)c4ccc([nH]4)c(-c4ccccc4)c4nc(c(-c5ccccc5)c5ccc2[nH]5)C=C4)C=C3)cc1)C(C)(C)C
REMARK SMILES IDX 16 1 15 2 14 3 13 4 12 5 10 6 11 7 9 8 8 9 7 11 5 12 4 13
REMARK SMILES IDX 6 15 3 16 2 17 1 18 75 19 76 20 77 21 78 22 17 23 18 24
REMARK SMILES IDX 19 25 20 26 21 27 22 28 23 29 24 30 25 31 26 32 27 33 28 34
REMARK SMILES IDX 74 35 29 36 73 37 30 38 31 39 32 40 67 41 33 42 72 43 66 44
REMARK SMILES IDX 68 45 34 46 71 47 65 48 64 49 35 51 57 52 42 53 56 54 43 55
REMARK SMILES IDX 46 56 55 57 69 58 44 59 45 60 54 62 70 63 47 64 36 65 37 66
REMARK SMILES IDX 41 67 38 68 40 69 39 70 58 71 59 72 63 73 60 74 62 75 61 76
REMARK SMILES IDX 48 77 49 78 53 79 50 80 52 81 51 82
REMARK H PARENT 8 10 4 14 68 50 46 61
REMARK Flexibility Score: inf
ROOT
ATOM      1  C   UNL     1      -3.187   5.311   5.694  1.00  0.00     0.188 C 
ENDROOT
BRANCH   1   2
ATOM      2  O   UNL     1      -4.489   5.886   5.561  1.00  0.00    -0.376 OA
BRANCH   2   3
ATOM      3  C   UNL     1      -5.559   4.983   5.297  1.00  0.00     0.202 C 
BRANCH   3   4
ATOM      4  C   UNL     1      -5.658   4.376   3.885  1.00  0.00     0.261 C 
BRANCH   4   5
ATOM      5  O   UNL     1      -4.498   3.671   3.382  1.00  0.00    -0.459 OA
BRANCH   5   6
ATOM      6  C   UNL     1      -3.880   4.238   2.314  1.00  0.00     0.361 C 
ATOM      7  O   UNL     1      -4.177   5.351   1.879  1.00  0.00    -0.245 OA
BRANCH   6   8
ATOM      8  C   UNL     1      -2.793   3.419   1.599  1.00  0.00     0.387 C 
BRANCH   8   9
ATOM      9  N   UNL     1      -2.429   2.027   2.001  1.00  0.00    -0.314 N 
ATOM     10  H   UNL     1      -1.900   1.629   1.224  1.00  0.00     0.349 HD
BRANCH   9  11
ATOM     11  C   UNL     1      -3.621   1.156   2.084  1.00  0.00     0.364 C 
BRANCH  11  12
ATOM     12  C   UNL     1      -3.341  -0.336   1.887  1.00  0.00     0.275 C 
ATOM     13  N   UNL     1      -2.425  -0.737   0.961  1.00  0.00    -0.340 N 
ATOM     14  H   UNL     1      -2.157  -1.684   0.976  1.00  0.00     0.164 HD
ATOM     15  O   UNL     1      -3.954  -1.193   2.527  1.00  0.00    -0.268 OA
BRANCH  13  16
ATOM     16  C   UNL     1      -1.820   0.095  -0.030  1.00  0.00     0.206 C 
BRANCH  16  17
ATOM     17  C   UNL     1      -0.300   0.095  -0.030  1.00  0.00    -0.085 C 
ATOM     18  C   UNL     1       1.004   0.095  -0.030  1.00  0.00     0.006 C 
ENDBRANCH  16  17
ENDBRANCH  13  16
ENDBRANCH  11  12
ENDBRANCH   9  11
BRANCH   9  19
ATOM     19  C   UNL     1      -1.299   1.841   2.948  1.00  0.00     0.090 C 
ATOM     20  C   UNL     1      -1.750   2.300   4.301  1.00  0.00     0.078 C 
ATOM     21  C   UNL     1      -0.766   0.404   3.213  1.00  0.00     0.078 C 
ATOM     22  C   UNL     1      -0.066   2.692   2.558  1.00  0.00     0.078 C 
ENDBRANCH   9  19
ENDBRANCH   8   9
ENDBRANCH   6   8
ENDBRANCH   5   6
ENDBRANCH   4   5
ENDBRANCH   3   4
ENDBRANCH   2   3
ENDBRANCH   1   2
BRANCH   1  23
ATOM     23  C   UNL     1      -3.088   4.135   6.684  1.00  0.00     0.188 C 
BRANCH  23  24
ATOM     24  O   UNL     1      -3.743   2.995   6.138  1.00  0.00    -0.377 OA
BRANCH  24  25
ATOM     25  C   UNL     1      -4.114   1.918   6.988  1.00  0.00     0.188 C 
BRANCH  25  26
ATOM     26  C   UNL     1      -3.472   1.814   8.377  1.00  0.00     0.188 C 
BRANCH  26  27
ATOM     27  O   UNL     1      -2.051   1.752   8.490  1.00  0.00    -0.376 OA
BRANCH  27  28
ATOM     28  C   UNL     1      -1.313   1.091   7.472  1.00  0.00     0.202 C 
BRANCH  28  29
ATOM     29  C   UNL     1      -1.174  -0.425   7.549  1.00  0.00     0.261 C 
BRANCH  29  30
ATOM     30  O   UNL     1      -2.394  -1.068   7.152  1.00  0.00    -0.460 OA
BRANCH  30  31
ATOM     31  C   UNL     1      -3.167  -1.482   8.177  1.00  0.00     0.338 C 
ATOM     32  O   UNL     1      -2.925  -1.420   9.367  1.00  0.00    -0.246 OA
BRANCH  31  33
ATOM     33  C   UNL     1      -4.476  -1.891   7.652  1.00  0.00     0.060 A 
ATOM     34  C   UNL     1      -5.612  -1.274   8.190  1.00  0.00     0.016 A 
ATOM     35  C   UNL     1      -4.589  -2.938   6.736  1.00  0.00     0.016 A 
ATOM     36  C   UNL     1      -6.874  -1.742   7.861  1.00  0.00     0.010 A 
ATOM     37  C   UNL     1      -5.857  -3.426   6.425  1.00  0.00     0.010 A 
ATOM     38  C   UNL     1      -6.993  -2.859   7.028  1.00  0.00    -0.014 A 
BRANCH  38  39
ATOM     39  C   UNL     1      -8.286  -3.565   6.983  1.00  0.00     0.031 A 
ATOM     40  C   UNL     1      -8.486  -4.736   7.900  1.00  0.00     0.074 A 
ATOM     41  C   UNL     1      -9.273  -3.127   6.188  1.00  0.00     0.049 A 
ATOM     42  N   UNL     1      -9.524  -5.521   8.031  1.00  0.00    -0.248 NA
ATOM     43  C   UNL     1      -7.363  -5.063   8.794  1.00  0.00     0.031 C 
ATOM     44  C   UNL     1      -9.205  -1.947   5.328  1.00  0.00     0.029 A 
ATOM     45  N   UNL     1     -10.530  -3.628   5.987  1.00  0.00    -0.354 N 
ATOM     46  C   UNL     1      -9.172  -6.442   9.009  1.00  0.00     0.074 A 
ATOM     47  C   UNL     1      -7.818  -6.138   9.417  1.00  0.00     0.031 C 
ATOM     48  C   UNL     1     -10.379  -1.812   4.689  1.00  0.00     0.029 A 
ATOM     49  C   UNL     1     -11.255  -2.920   5.063  1.00  0.00     0.049 A 
ATOM     50  H   UNL     1     -10.880  -4.418   6.458  1.00  0.00     0.167 HD
ATOM     51  C   UNL     1      -9.913  -7.454   9.520  1.00  0.00     0.031 A 
ATOM     52  C   UNL     1     -12.480  -3.162   4.564  1.00  0.00     0.031 A 
ATOM     53  C   UNL     1     -11.246  -7.764   9.076  1.00  0.00     0.049 A 
ATOM     54  C   UNL     1     -13.240  -4.363   5.057  1.00  0.00     0.074 A 
ATOM     55  C   UNL     1     -12.092  -8.767   9.511  1.00  0.00     0.029 A 
ATOM     56  N   UNL     1     -11.919  -7.075   8.076  1.00  0.00    -0.354 N 
ATOM     57  N   UNL     1     -12.906  -5.232   5.982  1.00  0.00    -0.248 NA
ATOM     58  C   UNL     1     -14.546  -4.613   4.436  1.00  0.00     0.031 C 
ATOM     59  C   UNL     1     -13.249  -8.728   8.725  1.00  0.00     0.029 A 
ATOM     60  C   UNL     1     -13.156  -7.654   7.853  1.00  0.00     0.049 A 
ATOM     61  H   UNL     1     -11.568  -6.290   7.596  1.00  0.00     0.167 HD
ATOM     62  C   UNL     1     -13.974  -6.115   6.077  1.00  0.00     0.074 A 
ATOM     63  C   UNL     1     -14.969  -5.666   5.122  1.00  0.00     0.031 C 
ATOM     64  C   UNL     1     -14.124  -7.194   6.886  1.00  0.00     0.031 A 
BRANCH  51  65
ATOM     65  C   UNL     1      -9.256  -8.327  10.555  1.00  0.00    -0.014 A 
ATOM     66  C   UNL     1      -8.919  -7.837  11.829  1.00  0.00     0.009 A 
ATOM     67  C   UNL     1      -8.938  -9.656  10.238  1.00  0.00     0.009 A 
ATOM     68  C   UNL     1      -8.225  -8.642  12.737  1.00  0.00     0.001 A 
ATOM     69  C   UNL     1      -8.278 -10.470  11.160  1.00  0.00     0.001 A 
ATOM     70  C   UNL     1      -7.907  -9.957  12.402  1.00  0.00     0.000 A 
ENDBRANCH  51  65
BRANCH  52  71
ATOM     71  C   UNL     1     -13.055  -2.248   3.545  1.00  0.00    -0.014 A 
ATOM     72  C   UNL     1     -14.140  -1.420   3.866  1.00  0.00     0.009 A 
ATOM     73  C   UNL     1     -12.508  -2.181   2.253  1.00  0.00     0.009 A 
ATOM     74  C   UNL     1     -14.674  -0.552   2.911  1.00  0.00     0.001 A 
ATOM     75  C   UNL     1     -13.025  -1.292   1.309  1.00  0.00     0.001 A 
ATOM     76  C   UNL     1     -14.112  -0.483   1.637  1.00  0.00     0.000 A 
ENDBRANCH  52  71
BRANCH  64  77
ATOM     77  C   UNL     1     -15.428  -7.940   6.797  1.00  0.00    -0.014 A 
ATOM     78  C   UNL     1     -15.753  -8.719   5.676  1.00  0.00     0.009 A 
ATOM     79  C   UNL     1     -16.327  -7.889   7.874  1.00  0.00     0.009 A 
ATOM     80  C   UNL     1     -16.970  -9.402   5.621  1.00  0.00     0.001 A 
ATOM     81  C   UNL     1     -17.526  -8.601   7.831  1.00  0.00     0.001 A 
ATOM     82  C   UNL     1     -17.851  -9.348   6.700  1.00  0.00     0.000 A 
ENDBRANCH  64  77
ENDBRANCH  38  39
ENDBRANCH  31  33
ENDBRANCH  30  31
ENDBRANCH  29  30
ENDBRANCH  28  29
ENDBRANCH  27  28
ENDBRANCH  26  27
ENDBRANCH  25  26
ENDBRANCH  24  25
ENDBRANCH  23  24
ENDBRANCH   1  23
TORSDOF 26
