REMARK SMILES CCN(CCC(=O)OCCOCCOCCOCCOC(=O)c1ccc(-c2c3nc(c(-c4ccccc4)c4ccc([nH]4)c(-c4ccccc4)c4nc(c(-c5ccccc5)c5ccc2[nH]5)C=C4)C=C3)cc1)C(=O)N(C)CCc1cccs1
REMARK SMILES IDX 12 1 11 2 10 3 9 4 8 5 6 6 7 7 5 8 4 9 3 10 2 11 1 12 71 13
REMARK SMILES IDX 72 14 73 15 74 16 75 17 76 18 77 19 78 20 81 21 79 22 80 23
REMARK SMILES IDX 13 24 14 25 15 26 16 27 17 28 18 29 19 30 20 31 21 32 22 33
REMARK SMILES IDX 23 34 24 35 70 36 25 37 69 38 26 39 27 40 28 41 63 42 29 43
REMARK SMILES IDX 68 44 62 45 64 46 30 47 67 48 61 49 60 50 31 52 53 53 38 54
REMARK SMILES IDX 52 55 39 56 42 57 51 58 65 59 40 60 41 61 50 63 66 64 43 65
REMARK SMILES IDX 32 66 33 67 37 68 34 69 36 70 35 71 54 72 55 73 59 74 56 75
REMARK SMILES IDX 58 76 57 77 44 78 45 79 49 80 46 81 48 82 47 83
REMARK H PARENT 64 51 42 62
REMARK Flexibility Score: inf
ROOT
ATOM      1  C   UNL     1       1.639  -2.530   6.206  1.00  0.00     0.188 C 
ENDROOT
BRANCH   1   2
ATOM      2  O   UNL     1       2.863  -3.086   6.661  1.00  0.00    -0.376 OA
BRANCH   2   3
ATOM      3  C   UNL     1       3.599  -3.935   5.772  1.00  0.00     0.202 C 
BRANCH   3   4
ATOM      4  C   UNL     1       2.877  -5.072   5.026  1.00  0.00     0.261 C 
BRANCH   4   5
ATOM      5  O   UNL     1       2.275  -4.655   3.776  1.00  0.00    -0.463 OA
BRANCH   5   6
ATOM      6  C   UNL     1       0.929  -4.786   3.641  1.00  0.00     0.307 C 
ATOM      7  O   UNL     1       0.173  -5.111   4.549  1.00  0.00    -0.252 OA
BRANCH   6   8
ATOM      8  C   UNL     1       0.451  -4.527   2.226  1.00  0.00     0.144 C 
BRANCH   8   9
ATOM      9  C   UNL     1       0.151  -3.075   1.851  1.00  0.00     0.133 C 
BRANCH   9  10
ATOM     10  N   UNL     1       1.036  -2.440   0.836  1.00  0.00    -0.324 N 
BRANCH  10  11
ATOM     11  C   UNL     1       0.373  -1.662  -0.219  1.00  0.00     0.118 C 
ATOM     12  C   UNL     1       0.537  -0.158  -0.005  1.00  0.00     0.027 C 
ENDBRANCH  10  11
BRANCH  10  13
ATOM     13  C   UNL     1       2.430  -2.365   0.788  1.00  0.00     0.319 C 
ATOM     14  O   UNL     1       2.998  -1.980  -0.234  1.00  0.00    -0.248 OA
BRANCH  13  15
ATOM     15  N   UNL     1       3.143  -2.558   1.958  1.00  0.00    -0.327 N 
ATOM     16  C   UNL     1       2.663  -1.773   3.049  1.00  0.00     0.148 C 
BRANCH  15  17
ATOM     17  C   UNL     1       4.622  -2.622   1.930  1.00  0.00     0.126 C 
BRANCH  17  18
ATOM     18  C   UNL     1       5.263  -3.896   1.359  1.00  0.00     0.068 C 
BRANCH  18  19
ATOM     19  C   UNL     1       5.178  -3.929  -0.126  1.00  0.00     0.006 A 
ATOM     20  C   UNL     1       4.346  -4.668  -0.937  1.00  0.00     0.015 A 
ATOM     21  S   UNL     1       6.111  -2.836  -1.035  1.00  0.00    -0.149 S 
ATOM     22  C   UNL     1       4.278  -4.114  -2.252  1.00  0.00     0.012 A 
ATOM     23  C   UNL     1       5.131  -3.045  -2.409  1.00  0.00     0.065 A 
ENDBRANCH  18  19
ENDBRANCH  17  18
ENDBRANCH  15  17
ENDBRANCH  13  15
ENDBRANCH  10  13
ENDBRANCH   9  10
ENDBRANCH   8   9
ENDBRANCH   6   8
ENDBRANCH   5   6
ENDBRANCH   4   5
ENDBRANCH   3   4
ENDBRANCH   2   3
ENDBRANCH   1   2
BRANCH   1  24
ATOM     24  C   UNL     1       1.581  -0.994   6.153  1.00  0.00     0.188 C 
BRANCH  24  25
ATOM     25  O   UNL     1       2.487  -0.322   5.285  1.00  0.00    -0.377 OA
BRANCH  25  26
ATOM     26  C   UNL     1       3.871  -0.300   5.622  1.00  0.00     0.188 C 
BRANCH  26  27
ATOM     27  C   UNL     1       4.264   0.467   6.875  1.00  0.00     0.188 C 
BRANCH  27  28
ATOM     28  O   UNL     1       3.156   1.045   7.537  1.00  0.00    -0.376 OA
BRANCH  28  29
ATOM     29  C   UNL     1       2.899   2.409   7.227  1.00  0.00     0.202 C 
BRANCH  29  30
ATOM     30  C   UNL     1       2.450   2.745   5.793  1.00  0.00     0.261 C 
BRANCH  30  31
ATOM     31  O   UNL     1       3.386   2.515   4.716  1.00  0.00    -0.460 OA
BRANCH  31  32
ATOM     32  C   UNL     1       4.565   3.170   4.751  1.00  0.00     0.338 C 
ATOM     33  O   UNL     1       4.995   3.867   5.649  1.00  0.00    -0.246 OA
BRANCH  32  34
ATOM     34  C   UNL     1       5.326   2.882   3.514  1.00  0.00     0.060 A 
ATOM     35  C   UNL     1       6.528   2.170   3.592  1.00  0.00     0.016 A 
ATOM     36  C   UNL     1       4.922   3.442   2.299  1.00  0.00     0.016 A 
ATOM     37  C   UNL     1       7.357   2.066   2.466  1.00  0.00     0.010 A 
ATOM     38  C   UNL     1       5.756   3.338   1.175  1.00  0.00     0.010 A 
ATOM     39  C   UNL     1       7.002   2.689   1.260  1.00  0.00    -0.014 A 
BRANCH  39  40
ATOM     40  C   UNL     1       7.991   2.827   0.151  1.00  0.00     0.031 A 
ATOM     41  C   UNL     1       8.717   4.132  -0.033  1.00  0.00     0.074 A 
ATOM     42  C   UNL     1       8.288   1.821  -0.691  1.00  0.00     0.049 A 
ATOM     43  N   UNL     1       9.584   4.474  -0.953  1.00  0.00    -0.248 NA
ATOM     44  C   UNL     1       8.440   5.180   0.959  1.00  0.00     0.031 C 
ATOM     45  C   UNL     1       7.755   0.469  -0.604  1.00  0.00     0.029 A 
ATOM     46  N   UNL     1       9.114   1.790  -1.796  1.00  0.00    -0.354 N 
ATOM     47  C   UNL     1       9.964   5.773  -0.648  1.00  0.00     0.074 A 
ATOM     48  C   UNL     1       9.198   6.171   0.516  1.00  0.00     0.031 C 
ATOM     49  C   UNL     1       8.257  -0.248  -1.623  1.00  0.00     0.029 A 
ATOM     50  C   UNL     1       9.078   0.597  -2.471  1.00  0.00     0.049 A 
ATOM     51  H   UNL     1       9.676   2.551  -2.072  1.00  0.00     0.167 HD
ATOM     52  C   UNL     1      10.877   6.560  -1.267  1.00  0.00     0.031 A 
ATOM     53  C   UNL     1       9.601   0.201  -3.649  1.00  0.00     0.031 A 
ATOM     54  C   UNL     1      11.625   6.194  -2.441  1.00  0.00     0.049 A 
ATOM     55  C   UNL     1      10.493   1.133  -4.407  1.00  0.00     0.074 A 
ATOM     56  C   UNL     1      12.582   6.933  -3.116  1.00  0.00     0.029 A 
ATOM     57  N   UNL     1      11.489   4.998  -3.130  1.00  0.00    -0.354 N 
ATOM     58  N   UNL     1      10.866   2.346  -4.088  1.00  0.00    -0.248 NA
ATOM     59  C   UNL     1      11.065   0.634  -5.666  1.00  0.00     0.031 C 
ATOM     60  C   UNL     1      12.976   6.213  -4.250  1.00  0.00     0.029 A 
ATOM     61  C   UNL     1      12.314   4.997  -4.245  1.00  0.00     0.049 A 
ATOM     62  H   UNL     1      10.895   4.259  -2.866  1.00  0.00     0.167 HD
ATOM     63  C   UNL     1      11.748   2.742  -5.082  1.00  0.00     0.074 A 
ATOM     64  C   UNL     1      11.856   1.639  -6.015  1.00  0.00     0.031 C 
ATOM     65  C   UNL     1      12.417   3.914  -5.190  1.00  0.00     0.031 A 
BRANCH  52  66
ATOM     66  C   UNL     1      11.073   7.935  -0.692  1.00  0.00    -0.014 A 
ATOM     67  C   UNL     1      11.701   8.126   0.549  1.00  0.00     0.009 A 
ATOM     68  C   UNL     1      10.609   9.053  -1.400  1.00  0.00     0.009 A 
ATOM     69  C   UNL     1      11.813   9.406   1.093  1.00  0.00     0.001 A 
ATOM     70  C   UNL     1      10.751  10.335  -0.868  1.00  0.00     0.001 A 
ATOM     71  C   UNL     1      11.339  10.509   0.384  1.00  0.00     0.000 A 
ENDBRANCH  52  66
BRANCH  53  72
ATOM     72  C   UNL     1       9.258  -1.139  -4.204  1.00  0.00    -0.014 A 
ATOM     73  C   UNL     1      10.204  -2.174  -4.249  1.00  0.00     0.009 A 
ATOM     74  C   UNL     1       7.964  -1.386  -4.693  1.00  0.00     0.009 A 
ATOM     75  C   UNL     1       9.865  -3.421  -4.783  1.00  0.00     0.001 A 
ATOM     76  C   UNL     1       7.622  -2.640  -5.205  1.00  0.00     0.001 A 
ATOM     77  C   UNL     1       8.574  -3.655  -5.254  1.00  0.00     0.000 A 
ENDBRANCH  53  72
BRANCH  65  78
ATOM     78  C   UNL     1      13.362   4.058  -6.349  1.00  0.00    -0.014 A 
ATOM     79  C   UNL     1      12.893   4.204  -7.663  1.00  0.00     0.009 A 
ATOM     80  C   UNL     1      14.746   4.068  -6.116  1.00  0.00     0.009 A 
ATOM     81  C   UNL     1      13.793   4.327  -8.724  1.00  0.00     0.001 A 
ATOM     82  C   UNL     1      15.643   4.221  -7.174  1.00  0.00     0.001 A 
ATOM     83  C   UNL     1      15.166   4.341  -8.479  1.00  0.00     0.000 A 
ENDBRANCH  65  78
ENDBRANCH  39  40
ENDBRANCH  32  34
ENDBRANCH  31  32
ENDBRANCH  30  31
ENDBRANCH  29  30
ENDBRANCH  28  29
ENDBRANCH  27  28
ENDBRANCH  26  27
ENDBRANCH  25  26
ENDBRANCH  24  25
ENDBRANCH   1  24
TORSDOF 28
