REMARK SMILES Cc1ccc(F)cc1NC(=O)c1nn(C)cc1C(=O)OCCOCCOCCOCCOC(=O)c1ccc(-c2c3nc(c(-c4ccccc4)c4ccc([nH]4)c(-c4ccccc4)c4nc(c(-c5ccccc5)c5ccc2[nH]5)C=C4)C=C3)cc1
REMARK SMILES IDX 26 1 25 2 24 3 23 4 22 5 21 6 20 7 18 8 19 9 17 10 12 11
REMARK SMILES IDX 13 12 14 13 16 14 15 15 10 16 9 17 11 19 8 20 1 21 2 22 3 23
REMARK SMILES IDX 4 24 7 25 5 26 6 27 27 28 28 29 29 30 30 31 31 32 32 33
REMARK SMILES IDX 33 34 34 35 35 36 36 37 82 38 37 39 81 40 38 41 39 42 40 43
REMARK SMILES IDX 75 44 41 45 80 46 74 47 76 48 42 49 79 50 73 51 72 52 43 54
REMARK SMILES IDX 65 55 50 56 64 57 51 58 54 59 63 60 77 61 52 62 53 63 62 65
REMARK SMILES IDX 78 66 55 67 44 68 45 69 49 70 46 71 48 72 47 73 66 74 67 75
REMARK SMILES IDX 71 76 68 77 70 78 69 79 56 80 57 81 61 82 58 83 60 84 59 85
REMARK H PARENT 9 18 76 53 54 64
REMARK Flexibility Score: inf
ROOT
ATOM      1  O   UNL     1      -0.888   1.059  -2.143  1.00  0.00    -0.377 OA
ENDROOT
BRANCH   1   2
ATOM      2  C   UNL     1       0.121   0.206  -1.635  1.00  0.00     0.188 C 
BRANCH   2   3
ATOM      3  C   UNL     1       0.898  -0.548  -2.724  1.00  0.00     0.188 C 
BRANCH   3   4
ATOM      4  O   UNL     1       0.757  -0.137  -4.074  1.00  0.00    -0.376 OA
BRANCH   4   5
ATOM      5  C   UNL     1      -0.556  -0.060  -4.619  1.00  0.00     0.202 C 
BRANCH   5   6
ATOM      6  C   UNL     1      -1.456  -1.305  -4.554  1.00  0.00     0.261 C 
BRANCH   6   7
ATOM      7  O   UNL     1      -1.766  -1.814  -3.238  1.00  0.00    -0.460 OA
BRANCH   7   8
ATOM      8  C   UNL     1      -1.202  -3.022  -2.921  1.00  0.00     0.342 C 
ATOM      9  O   UNL     1      -0.384  -3.603  -3.623  1.00  0.00    -0.246 OA
BRANCH   8  10
ATOM     10  C   UNL     1      -1.642  -3.567  -1.653  1.00  0.00     0.111 A 
ATOM     11  C   UNL     1      -0.862  -4.260  -0.675  1.00  0.00     0.165 A 
ATOM     12  N   UNL     1      -1.658  -4.818   0.260  1.00  0.00    -0.167 NA
ATOM     13  N   UNL     1      -2.877  -4.322  -0.002  1.00  0.00    -0.274 N 
ATOM     14  C   UNL     1      -2.925  -3.563  -1.132  1.00  0.00     0.125 A 
ATOM     15  C   UNL     1      -3.949  -4.602   0.924  1.00  0.00     0.173 C 
BRANCH  11  16
ATOM     16  C   UNL     1       0.604  -4.372  -0.583  1.00  0.00     0.277 C 
ATOM     17  N   UNL     1       1.329  -3.447   0.171  1.00  0.00    -0.320 N 
ATOM     18  H   UNL     1       2.305  -3.575   0.152  1.00  0.00     0.170 HD
ATOM     19  O   UNL     1       1.235  -5.217  -1.220  1.00  0.00    -0.267 OA
BRANCH  17  20
ATOM     20  C   UNL     1       0.893  -2.358   0.955  1.00  0.00     0.047 A 
ATOM     21  C   UNL     1       3.101  -1.076   0.555  1.00  0.00     0.046 C 
ATOM     22  C   UNL     1       1.697  -1.210   1.080  1.00  0.00    -0.027 A 
ATOM     23  C   UNL     1       1.107  -0.038   1.583  1.00  0.00     0.008 A 
ATOM     24  C   UNL     1      -0.237  -0.012   1.944  1.00  0.00     0.039 A 
ATOM     25  C   UNL     1      -0.368  -2.355   1.555  1.00  0.00     0.065 A 
ATOM     26  C   UNL     1      -0.957  -1.180   1.972  1.00  0.00     0.125 A 
ATOM     27  F   UNL     1      -2.243  -1.169   2.346  1.00  0.00    -0.207 F 
ENDBRANCH  17  20
ENDBRANCH  11  16
ENDBRANCH   8  10
ENDBRANCH   7   8
ENDBRANCH   6   7
ENDBRANCH   5   6
ENDBRANCH   4   5
ENDBRANCH   3   4
ENDBRANCH   2   3
ENDBRANCH   1   2
BRANCH   1  28
ATOM     28  C   UNL     1      -1.300   2.124  -1.293  1.00  0.00     0.188 C 
BRANCH  28  29
ATOM     29  C   UNL     1      -0.145   3.041  -0.873  1.00  0.00     0.188 C 
BRANCH  29  30
ATOM     30  O   UNL     1       0.360   2.612   0.395  1.00  0.00    -0.376 OA
BRANCH  30  31
ATOM     31  C   UNL     1       0.391   3.599   1.425  1.00  0.00     0.202 C 
BRANCH  31  32
ATOM     32  C   UNL     1      -0.905   3.663   2.250  1.00  0.00     0.261 C 
BRANCH  32  33
ATOM     33  O   UNL     1      -2.073   3.847   1.448  1.00  0.00    -0.460 OA
BRANCH  33  34
ATOM     34  C   UNL     1      -2.134   5.055   0.860  1.00  0.00     0.338 C 
ATOM     35  O   UNL     1      -1.337   5.978   0.962  1.00  0.00    -0.246 OA
BRANCH  34  36
ATOM     36  C   UNL     1      -3.244   5.049  -0.086  1.00  0.00     0.060 A 
ATOM     37  C   UNL     1      -2.972   5.364  -1.422  1.00  0.00     0.016 A 
ATOM     38  C   UNL     1      -4.543   4.826   0.373  1.00  0.00     0.016 A 
ATOM     39  C   UNL     1      -4.022   5.534  -2.305  1.00  0.00     0.010 A 
ATOM     40  C   UNL     1      -5.597   5.021  -0.506  1.00  0.00     0.010 A 
ATOM     41  C   UNL     1      -5.331   5.430  -1.824  1.00  0.00    -0.014 A 
BRANCH  41  42
ATOM     42  C   UNL     1      -6.424   5.984  -2.631  1.00  0.00     0.031 A 
ATOM     43  C   UNL     1      -6.881   7.378  -2.325  1.00  0.00     0.074 A 
ATOM     44  C   UNL     1      -6.967   5.248  -3.609  1.00  0.00     0.049 A 
ATOM     45  N   UNL     1      -7.878   8.050  -2.832  1.00  0.00    -0.248 NA
ATOM     46  C   UNL     1      -6.114   8.110  -1.300  1.00  0.00     0.031 C 
ATOM     47  C   UNL     1      -6.534   3.906  -3.995  1.00  0.00     0.029 A 
ATOM     48  N   UNL     1      -8.014   5.527  -4.440  1.00  0.00    -0.354 N 
ATOM     49  C   UNL     1      -7.865   9.277  -2.182  1.00  0.00     0.074 A 
ATOM     50  C   UNL     1      -6.787   9.247  -1.221  1.00  0.00     0.031 C 
ATOM     51  C   UNL     1      -7.332   3.464  -4.980  1.00  0.00     0.029 A 
ATOM     52  C   UNL     1      -8.349   4.476  -5.252  1.00  0.00     0.049 A 
ATOM     53  H   UNL     1      -8.480   6.394  -4.454  1.00  0.00     0.167 HD
ATOM     54  C   UNL     1      -8.684  10.335  -2.379  1.00  0.00     0.031 A 
ATOM     55  C   UNL     1      -9.392   4.344  -6.090  1.00  0.00     0.031 A 
ATOM     56  C   UNL     1      -9.772  10.319  -3.319  1.00  0.00     0.049 A 
ATOM     57  C   UNL     1     -10.346   5.497  -6.228  1.00  0.00     0.074 A 
ATOM     58  C   UNL     1     -10.680  11.319  -3.611  1.00  0.00     0.029 A 
ATOM     59  N   UNL     1     -10.102   9.228  -4.113  1.00  0.00    -0.354 N 
ATOM     60  N   UNL     1     -10.325   6.664  -5.625  1.00  0.00    -0.248 NA
ATOM     61  C   UNL     1     -11.460   5.320  -7.165  1.00  0.00     0.031 C 
ATOM     62  C   UNL     1     -11.598  10.809  -4.535  1.00  0.00     0.029 A 
ATOM     63  C   UNL     1     -11.220   9.517  -4.873  1.00  0.00     0.049 A 
ATOM     64  H   UNL     1      -9.613   8.374  -4.131  1.00  0.00     0.167 HD
ATOM     65  C   UNL     1     -11.410   7.371  -6.126  1.00  0.00     0.074 A 
ATOM     66  C   UNL     1     -12.053   6.504  -7.096  1.00  0.00     0.031 C 
ATOM     67  C   UNL     1     -11.839   8.621  -5.819  1.00  0.00     0.031 A 
BRANCH  54  68
ATOM     68  C   UNL     1      -8.457  11.552  -1.526  1.00  0.00    -0.014 A 
ATOM     69  C   UNL     1      -7.300  12.339  -1.661  1.00  0.00     0.009 A 
ATOM     70  C   UNL     1      -9.408  11.912  -0.559  1.00  0.00     0.009 A 
ATOM     71  C   UNL     1      -7.081  13.431  -0.817  1.00  0.00     0.001 A 
ATOM     72  C   UNL     1      -9.202  13.024   0.262  1.00  0.00     0.001 A 
ATOM     73  C   UNL     1      -8.034  13.774   0.141  1.00  0.00     0.000 A 
ENDBRANCH  54  68
BRANCH  55  74
ATOM     74  C   UNL     1      -9.588   3.067  -6.820  1.00  0.00    -0.014 A 
ATOM     75  C   UNL     1      -9.407   2.998  -8.208  1.00  0.00     0.009 A 
ATOM     76  C   UNL     1      -9.926   1.897  -6.119  1.00  0.00     0.009 A 
ATOM     77  C   UNL     1      -9.581   1.786  -8.882  1.00  0.00     0.001 A 
ATOM     78  C   UNL     1     -10.068   0.682  -6.791  1.00  0.00     0.001 A 
ATOM     79  C   UNL     1      -9.903   0.629  -8.174  1.00  0.00     0.000 A 
ENDBRANCH  55  74
BRANCH  67  80
ATOM     80  C   UNL     1     -13.043   9.126  -6.562  1.00  0.00    -0.014 A 
ATOM     81  C   UNL     1     -14.325   8.613  -6.309  1.00  0.00     0.009 A 
ATOM     82  C   UNL     1     -12.895  10.164  -7.495  1.00  0.00     0.009 A 
ATOM     83  C   UNL     1     -15.429   9.106  -7.005  1.00  0.00     0.001 A 
ATOM     84  C   UNL     1     -14.005  10.679  -8.163  1.00  0.00     0.001 A 
ATOM     85  C   UNL     1     -15.270  10.142  -7.925  1.00  0.00     0.000 A 
ENDBRANCH  67  80
ENDBRANCH  41  42
ENDBRANCH  34  36
ENDBRANCH  33  34
ENDBRANCH  32  33
ENDBRANCH  31  32
ENDBRANCH  30  31
ENDBRANCH  29  30
ENDBRANCH  28  29
ENDBRANCH   1  28
TORSDOF 22
