REMARK SMILES NS(=O)(=O)c1ccc(/N=N/c2ccc(O)c(C(=O)OCCOCCOCCOCCOC(=O)c3ccc(-c4c5nc(c(-c6ccccc6)c6ccc([nH]6)c(-c6ccccc6)c6nc(c(-c7ccccc7)c7ccc4[nH]7)C=C6)C=C5)cc3)c2)cc1
REMARK SMILES IDX 24 1 23 2 22 3 21 4 20 5 19 6 17 7 18 8 16 9 11 10 12 11
REMARK SMILES IDX 82 12 13 13 14 14 10 15 9 16 8 17 5 18 6 19 84 20 7 21 83 22
REMARK SMILES IDX 2 23 3 24 4 25 1 26 15 29 25 31 26 32 27 33 28 34 29 35
REMARK SMILES IDX 30 36 31 37 32 38 33 39 34 40 35 41 81 42 36 43 80 44 37 45
REMARK SMILES IDX 38 46 39 47 74 48 40 49 79 50 73 51 75 52 41 53 78 54 72 55
REMARK SMILES IDX 71 56 42 58 64 59 49 60 63 61 50 62 53 63 62 64 76 65 51 66
REMARK SMILES IDX 52 67 61 69 77 70 54 71 43 72 44 73 48 74 45 75 47 76 46 77
REMARK SMILES IDX 65 78 66 79 70 80 67 81 69 82 68 83 55 84 56 85 60 86 57 87
REMARK SMILES IDX 59 88 58 89
REMARK H PARENT 1 27 1 28 15 30 75 57 53 68
REMARK Flexibility Score: inf
ROOT
ATOM      1  C   UNL     1       6.359  -6.570   7.955  1.00  0.00     0.188 C 
ENDROOT
BRANCH   1   2
ATOM      2  C   UNL     1       6.340  -7.973   8.595  1.00  0.00     0.188 C 
BRANCH   2   3
ATOM      3  O   UNL     1       6.890  -8.976   7.759  1.00  0.00    -0.376 OA
BRANCH   3   4
ATOM      4  C   UNL     1       6.039  -9.923   7.147  1.00  0.00     0.202 C 
BRANCH   4   5
ATOM      5  C   UNL     1       4.894  -9.456   6.233  1.00  0.00     0.261 C 
BRANCH   5   6
ATOM      6  O   UNL     1       4.154  -8.303   6.646  1.00  0.00    -0.460 OA
BRANCH   6   7
ATOM      7  C   UNL     1       3.304  -8.444   7.684  1.00  0.00     0.342 C 
ATOM      8  O   UNL     1       3.097  -9.459   8.329  1.00  0.00    -0.246 OA
BRANCH   7   9
ATOM      9  C   UNL     1       2.855  -7.101   8.116  1.00  0.00     0.104 A 
ATOM     10  C   UNL     1       2.299  -4.784   7.596  1.00  0.00     0.087 A 
ATOM     11  C   UNL     1       2.267  -4.516   8.973  1.00  0.00     0.034 A 
ATOM     12  C   UNL     1       2.607  -6.088   7.177  1.00  0.00     0.049 A 
ATOM     13  C   UNL     1       2.522  -5.516   9.913  1.00  0.00     0.049 A 
ATOM     14  C   UNL     1       2.807  -6.808   9.485  1.00  0.00     0.130 A 
BRANCH  10  15
ATOM     15  N   UNL     1       2.075  -3.698   6.724  1.00  0.00    -0.151 NA
ATOM     16  N   UNL     1       1.737  -4.047   5.575  1.00  0.00    -0.151 NA
BRANCH  16  17
ATOM     17  C   UNL     1       1.493  -2.958   4.708  1.00  0.00     0.086 A 
ATOM     18  C   UNL     1       0.925  -0.913   2.861  1.00  0.00     0.082 A 
ATOM     19  C   UNL     1       0.780  -2.248   2.482  1.00  0.00     0.024 A 
ATOM     20  C   UNL     1       1.362  -0.584   4.145  1.00  0.00     0.024 A 
ATOM     21  C   UNL     1       1.066  -3.259   3.405  1.00  0.00     0.031 A 
ATOM     22  C   UNL     1       1.641  -1.605   5.060  1.00  0.00     0.031 A 
BRANCH  18  23
ATOM     23  S   UNL     1       0.565   0.378   1.708  1.00  0.00     0.238 S 
ATOM     24  O   UNL     1       1.264   1.576   2.104  1.00  0.00    -0.207 OA
ATOM     25  O   UNL     1      -0.853   0.353   1.425  1.00  0.00    -0.207 OA
BRANCH  23  26
ATOM     26  N   UNL     1       1.333  -0.135   0.304  1.00  0.00    -0.225 NA
ATOM     27  H   UNL     1       1.184   0.551  -0.435  1.00  0.00     0.137 HD
ATOM     28  H   UNL     1       0.948  -1.035   0.015  1.00  0.00     0.137 HD
ENDBRANCH  23  26
ENDBRANCH  18  23
ENDBRANCH  16  17
ENDBRANCH  10  15
BRANCH  14  29
ATOM     29  O   UNL     1       3.095  -7.722  10.462  1.00  0.00    -0.507 OA
ATOM     30  H   UNL     1       3.048  -7.474  11.364  1.00  0.00     0.293 HD
ENDBRANCH  14  29
ENDBRANCH   7   9
ENDBRANCH   6   7
ENDBRANCH   5   6
ENDBRANCH   4   5
ENDBRANCH   3   4
ENDBRANCH   2   3
ENDBRANCH   1   2
BRANCH   1  31
ATOM     31  O   UNL     1       6.643  -6.484   6.566  1.00  0.00    -0.377 OA
BRANCH  31  32
ATOM     32  C   UNL     1       7.837  -7.072   6.050  1.00  0.00     0.188 C 
BRANCH  32  33
ATOM     33  C   UNL     1       9.029  -7.478   6.955  1.00  0.00     0.188 C 
BRANCH  33  34
ATOM     34  O   UNL     1       8.971  -6.984   8.280  1.00  0.00    -0.376 OA
BRANCH  34  35
ATOM     35  C   UNL     1       9.868  -5.953   8.649  1.00  0.00     0.202 C 
BRANCH  35  36
ATOM     36  C   UNL     1       9.707  -4.608   7.930  1.00  0.00     0.261 C 
BRANCH  36  37
ATOM     37  O   UNL     1       9.706  -4.657   6.495  1.00  0.00    -0.460 OA
BRANCH  37  38
ATOM     38  C   UNL     1      10.855  -5.023   5.888  1.00  0.00     0.338 C 
ATOM     39  O   UNL     1      11.909  -5.320   6.416  1.00  0.00    -0.246 OA
BRANCH  38  40
ATOM     40  C   UNL     1      10.559  -5.184   4.449  1.00  0.00     0.060 A 
ATOM     41  C   UNL     1      10.727  -6.439   3.849  1.00  0.00     0.016 A 
ATOM     42  C   UNL     1      10.097  -4.098   3.703  1.00  0.00     0.016 A 
ATOM     43  C   UNL     1      10.462  -6.604   2.489  1.00  0.00     0.010 A 
ATOM     44  C   UNL     1       9.855  -4.257   2.338  1.00  0.00     0.010 A 
ATOM     45  C   UNL     1      10.067  -5.502   1.719  1.00  0.00    -0.014 A 
BRANCH  45  46
ATOM     46  C   UNL     1      10.070  -5.594   0.240  1.00  0.00     0.031 A 
ATOM     47  C   UNL     1      11.270  -5.069  -0.501  1.00  0.00     0.074 A 
ATOM     48  C   UNL     1       9.041  -6.133  -0.435  1.00  0.00     0.049 A 
ATOM     49  N   UNL     1      11.477  -4.978  -1.789  1.00  0.00    -0.248 NA
ATOM     50  C   UNL     1      12.384  -4.576   0.327  1.00  0.00     0.031 C 
ATOM     51  C   UNL     1       7.847  -6.723   0.166  1.00  0.00     0.029 A 
ATOM     52  N   UNL     1       8.839  -6.263  -1.787  1.00  0.00    -0.354 N 
ATOM     53  C   UNL     1      12.737  -4.408  -1.926  1.00  0.00     0.074 A 
ATOM     54  C   UNL     1      13.234  -4.146  -0.593  1.00  0.00     0.031 C 
ATOM     55  C   UNL     1       7.030  -7.144  -0.816  1.00  0.00     0.029 A 
ATOM     56  C   UNL     1       7.625  -6.817  -2.111  1.00  0.00     0.049 A 
ATOM     57  H   UNL     1       9.501  -5.984  -2.460  1.00  0.00     0.167 HD
ATOM     58  C   UNL     1      13.423  -4.130  -3.059  1.00  0.00     0.031 A 
ATOM     59  C   UNL     1       7.052  -7.012  -3.315  1.00  0.00     0.031 A 
ATOM     60  C   UNL     1      12.920  -4.371  -4.385  1.00  0.00     0.049 A 
ATOM     61  C   UNL     1       7.795  -6.607  -4.562  1.00  0.00     0.074 A 
ATOM     62  C   UNL     1      13.541  -4.134  -5.598  1.00  0.00     0.029 A 
ATOM     63  N   UNL     1      11.668  -4.894  -4.670  1.00  0.00    -0.354 N 
ATOM     64  N   UNL     1       8.995  -6.090  -4.682  1.00  0.00    -0.248 NA
ATOM     65  C   UNL     1       7.103  -6.817  -5.843  1.00  0.00     0.031 C 
ATOM     66  C   UNL     1      12.639  -4.450  -6.618  1.00  0.00     0.029 A 
ATOM     67  C   UNL     1      11.485  -4.956  -6.041  1.00  0.00     0.049 A 
ATOM     68  H   UNL     1      11.008  -5.179  -3.998  1.00  0.00     0.167 HD
ATOM     69  C   UNL     1       9.214  -5.948  -6.048  1.00  0.00     0.074 A 
ATOM     70  C   UNL     1       8.030  -6.445  -6.715  1.00  0.00     0.031 C 
ATOM     71  C   UNL     1      10.301  -5.455  -6.692  1.00  0.00     0.031 A 
BRANCH  58  72
ATOM     72  C   UNL     1      14.775  -3.490  -2.910  1.00  0.00    -0.014 A 
ATOM     73  C   UNL     1      15.869  -4.199  -2.389  1.00  0.00     0.009 A 
ATOM     74  C   UNL     1      14.963  -2.161  -3.323  1.00  0.00     0.009 A 
ATOM     75  C   UNL     1      17.113  -3.578  -2.251  1.00  0.00     0.001 A 
ATOM     76  C   UNL     1      16.215  -1.554  -3.215  1.00  0.00     0.001 A 
ATOM     77  C   UNL     1      17.286  -2.259  -2.669  1.00  0.00     0.000 A 
ENDBRANCH  58  72
BRANCH  59  78
ATOM     78  C   UNL     1       5.687  -7.598  -3.409  1.00  0.00    -0.014 A 
ATOM     79  C   UNL     1       5.487  -8.864  -3.980  1.00  0.00     0.009 A 
ATOM     80  C   UNL     1       4.570  -6.878  -2.954  1.00  0.00     0.009 A 
ATOM     81  C   UNL     1       4.197  -9.383  -4.121  1.00  0.00     0.001 A 
ATOM     82  C   UNL     1       3.285  -7.413  -3.066  1.00  0.00     0.001 A 
ATOM     83  C   UNL     1       3.098  -8.659  -3.659  1.00  0.00     0.000 A 
ENDBRANCH  59  78
BRANCH  71  84
ATOM     84  C   UNL     1      10.284  -5.470  -8.197  1.00  0.00    -0.014 A 
ATOM     85  C   UNL     1       9.452  -4.611  -8.932  1.00  0.00     0.009 A 
ATOM     86  C   UNL     1      11.155  -6.326  -8.889  1.00  0.00     0.009 A 
ATOM     87  C   UNL     1       9.469  -4.635 -10.328  1.00  0.00     0.001 A 
ATOM     88  C   UNL     1      11.196  -6.324 -10.284  1.00  0.00     0.001 A 
ATOM     89  C   UNL     1      10.345  -5.486 -11.002  1.00  0.00     0.000 A 
ENDBRANCH  71  84
ENDBRANCH  45  46
ENDBRANCH  38  40
ENDBRANCH  37  38
ENDBRANCH  36  37
ENDBRANCH  35  36
ENDBRANCH  34  35
ENDBRANCH  33  34
ENDBRANCH  32  33
ENDBRANCH  31  32
ENDBRANCH   1  31
TORSDOF 25
