REMARK SMILES Cc1ccc(NC(=O)C[C@H]2SC[C@H](C(=O)OCCOCCOCCOCCOC(=O)c3ccc(-c4c5nc(c(-c6ccccc6)c6ccc([nH]6)c(-c6ccccc6)c6nc(c(-c7ccccc7)c7ccc4[nH]7)C=C6)C=C5)cc3)NC2=O)cc1
REMARK SMILES IDX 21 1 20 2 19 3 18 4 17 5 16 6 14 7 15 8 13 9 10 10 11 11
REMARK SMILES IDX 80 12 12 13 79 14 81 15 9 17 7 18 6 19 8 21 5 22 1 23 2 24
REMARK SMILES IDX 3 25 83 26 4 27 82 28 22 29 23 30 24 31 25 32 26 33 27 34
REMARK SMILES IDX 28 35 29 36 30 37 31 38 32 39 78 40 33 41 77 42 34 43 35 44
REMARK SMILES IDX 36 45 71 46 37 47 76 48 70 49 72 50 38 51 75 52 69 53 68 54
REMARK SMILES IDX 39 56 61 57 46 58 60 59 47 60 50 61 59 62 73 63 48 64 49 65
REMARK SMILES IDX 58 67 74 68 51 69 40 70 41 71 45 72 42 73 44 74 43 75 62 76
REMARK SMILES IDX 63 77 67 78 64 79 66 80 65 81 52 82 53 83 57 84 54 85 56 86
REMARK SMILES IDX 55 87
REMARK H PARENT 79 16 6 20 72 55 50 66
REMARK Flexibility Score: inf
ROOT
ATOM      1  C   UNL     1      -5.085  -1.272  -5.702  1.00  0.00     0.188 C 
ENDROOT
BRANCH   1   2
ATOM      2  C   UNL     1      -4.723  -2.423  -6.647  1.00  0.00     0.188 C 
BRANCH   2   3
ATOM      3  O   UNL     1      -5.749  -3.324  -7.031  1.00  0.00    -0.376 OA
BRANCH   3   4
ATOM      4  C   UNL     1      -6.128  -4.308  -6.076  1.00  0.00     0.202 C 
BRANCH   4   5
ATOM      5  C   UNL     1      -5.049  -5.271  -5.615  1.00  0.00     0.261 C 
BRANCH   5   6
ATOM      6  O   UNL     1      -4.396  -4.684  -4.481  1.00  0.00    -0.462 OA
BRANCH   6   7
ATOM      7  C   UNL     1      -3.086  -4.450  -4.638  1.00  0.00     0.329 C 
ATOM      8  O   UNL     1      -2.403  -4.869  -5.567  1.00  0.00    -0.250 OA
BRANCH   7   9
ATOM      9  C   UNL     1      -2.491  -3.688  -3.485  1.00  0.00     0.202 C 
ATOM     10  C   UNL     1      -1.144  -2.877  -1.002  1.00  0.00     0.145 C 
ATOM     11  S   UNL     1      -1.935  -1.497  -1.944  1.00  0.00    -0.145 SA
ATOM     12  C   UNL     1      -1.024  -4.202  -1.785  1.00  0.00     0.234 C 
ATOM     13  C   UNL     1      -3.154  -2.445  -2.941  1.00  0.00     0.107 C 
ATOM     14  N   UNL     1      -2.153  -4.604  -2.432  1.00  0.00    -0.341 N 
ATOM     15  O   UNL     1      -0.043  -4.927  -1.892  1.00  0.00    -0.274 OA
ATOM     16  H   UNL     1      -2.668  -5.412  -2.208  1.00  0.00     0.164 HD
BRANCH  10  17
ATOM     17  C   UNL     1       0.163  -2.374  -0.389  1.00  0.00     0.124 C 
BRANCH  17  18
ATOM     18  C   UNL     1       1.193  -3.440  -0.065  1.00  0.00     0.226 C 
ATOM     19  N   UNL     1       0.856  -4.598   0.578  1.00  0.00    -0.326 N 
ATOM     20  H   UNL     1       1.572  -5.272   0.600  1.00  0.00     0.169 HD
ATOM     21  O   UNL     1       2.359  -3.295  -0.448  1.00  0.00    -0.275 OA
BRANCH  19  22
ATOM     22  C   UNL     1      -0.330  -4.994   1.213  1.00  0.00     0.041 A 
ATOM     23  C   UNL     1      -3.988  -6.384   3.017  1.00  0.00     0.044 C 
ATOM     24  C   UNL     1      -2.714  -5.908   2.387  1.00  0.00    -0.051 A 
ATOM     25  C   UNL     1      -2.332  -4.567   2.501  1.00  0.00     0.005 A 
ATOM     26  C   UNL     1      -1.908  -6.784   1.655  1.00  0.00     0.005 A 
ATOM     27  C   UNL     1      -1.135  -4.118   1.937  1.00  0.00     0.026 A 
ATOM     28  C   UNL     1      -0.714  -6.333   1.087  1.00  0.00     0.026 A 
ENDBRANCH  19  22
ENDBRANCH  17  18
ENDBRANCH  10  17
ENDBRANCH   7   9
ENDBRANCH   6   7
ENDBRANCH   5   6
ENDBRANCH   4   5
ENDBRANCH   3   4
ENDBRANCH   2   3
ENDBRANCH   1   2
BRANCH   1  29
ATOM     29  O   UNL     1      -5.537  -1.625  -4.403  1.00  0.00    -0.377 OA
BRANCH  29  30
ATOM     30  C   UNL     1      -6.904  -1.413  -4.041  1.00  0.00     0.188 C 
BRANCH  30  31
ATOM     31  C   UNL     1      -7.639  -0.247  -4.686  1.00  0.00     0.188 C 
BRANCH  31  32
ATOM     32  O   UNL     1      -7.891  -0.600  -6.046  1.00  0.00    -0.376 OA
BRANCH  32  33
ATOM     33  C   UNL     1      -7.980   0.491  -6.956  1.00  0.00     0.202 C 
BRANCH  33  34
ATOM     34  C   UNL     1      -9.252   1.309  -6.751  1.00  0.00     0.261 C 
BRANCH  34  35
ATOM     35  O   UNL     1     -10.386   0.442  -6.946  1.00  0.00    -0.460 OA
BRANCH  35  36
ATOM     36  C   UNL     1     -11.038   0.099  -5.798  1.00  0.00     0.338 C 
ATOM     37  O   UNL     1     -11.380   0.869  -4.929  1.00  0.00    -0.246 OA
BRANCH  36  38
ATOM     38  C   UNL     1     -11.018  -1.387  -5.622  1.00  0.00     0.060 A 
ATOM     39  C   UNL     1     -11.479  -1.934  -4.414  1.00  0.00     0.016 A 
ATOM     40  C   UNL     1     -10.249  -2.168  -6.479  1.00  0.00     0.016 A 
ATOM     41  C   UNL     1     -11.020  -3.189  -3.987  1.00  0.00     0.010 A 
ATOM     42  C   UNL     1      -9.713  -3.351  -6.001  1.00  0.00     0.010 A 
ATOM     43  C   UNL     1     -10.045  -3.854  -4.732  1.00  0.00    -0.014 A 
BRANCH  43  44
ATOM     44  C   UNL     1      -9.158  -4.916  -4.206  1.00  0.00     0.031 A 
ATOM     45  C   UNL     1      -8.875  -6.150  -5.014  1.00  0.00     0.074 A 
ATOM     46  C   UNL     1      -8.304  -4.577  -3.202  1.00  0.00     0.049 A 
ATOM     47  N   UNL     1      -8.081  -7.103  -4.650  1.00  0.00    -0.248 NA
ATOM     48  C   UNL     1      -9.457  -6.412  -6.332  1.00  0.00     0.031 C 
ATOM     49  C   UNL     1      -6.993  -5.167  -2.932  1.00  0.00     0.029 A 
ATOM     50  N   UNL     1      -8.395  -3.605  -2.206  1.00  0.00    -0.354 N 
ATOM     51  C   UNL     1      -7.768  -7.861  -5.761  1.00  0.00     0.074 A 
ATOM     52  C   UNL     1      -8.740  -7.463  -6.749  1.00  0.00     0.031 C 
ATOM     53  C   UNL     1      -6.460  -4.648  -1.818  1.00  0.00     0.029 A 
ATOM     54  C   UNL     1      -7.543  -3.974  -1.153  1.00  0.00     0.049 A 
ATOM     55  H   UNL     1      -8.959  -2.799  -2.235  1.00  0.00     0.167 HD
ATOM     56  C   UNL     1      -6.629  -8.622  -5.763  1.00  0.00     0.031 A 
ATOM     57  C   UNL     1      -8.001  -4.356   0.078  1.00  0.00     0.031 A 
ATOM     58  C   UNL     1      -5.983  -8.672  -4.433  1.00  0.00     0.049 A 
ATOM     59  C   UNL     1      -7.733  -5.835   0.353  1.00  0.00     0.074 A 
ATOM     60  C   UNL     1      -4.703  -8.428  -3.957  1.00  0.00     0.029 A 
ATOM     61  N   UNL     1      -6.773  -8.860  -3.297  1.00  0.00    -0.354 N 
ATOM     62  N   UNL     1      -7.361  -6.675  -0.584  1.00  0.00    -0.248 NA
ATOM     63  C   UNL     1      -7.799  -6.497   1.652  1.00  0.00     0.031 C 
ATOM     64  C   UNL     1      -4.761  -8.362  -2.534  1.00  0.00     0.029 A 
ATOM     65  C   UNL     1      -6.060  -8.639  -2.138  1.00  0.00     0.049 A 
ATOM     66  H   UNL     1      -7.723  -9.119  -3.320  1.00  0.00     0.167 HD
ATOM     67  C   UNL     1      -7.102  -7.909  -0.069  1.00  0.00     0.074 A 
ATOM     68  C   UNL     1      -7.409  -7.752   1.343  1.00  0.00     0.031 C 
ATOM     69  C   UNL     1      -6.663  -8.949  -0.842  1.00  0.00     0.031 A 
BRANCH  56  70
ATOM     70  C   UNL     1      -5.953  -9.177  -7.021  1.00  0.00    -0.014 A 
ATOM     71  C   UNL     1      -4.770  -9.940  -6.909  1.00  0.00     0.009 A 
ATOM     72  C   UNL     1      -6.359  -8.913  -8.344  1.00  0.00     0.009 A 
ATOM     73  C   UNL     1      -4.038 -10.379  -8.028  1.00  0.00     0.001 A 
ATOM     74  C   UNL     1      -5.656  -9.384  -9.470  1.00  0.00     0.001 A 
ATOM     75  C   UNL     1      -4.486 -10.107  -9.312  1.00  0.00     0.000 A 
ENDBRANCH  56  70
BRANCH  57  76
ATOM     76  C   UNL     1      -9.041  -3.414   0.593  1.00  0.00    -0.014 A 
ATOM     77  C   UNL     1      -8.529  -2.129   0.892  1.00  0.00     0.009 A 
ATOM     78  C   UNL     1     -10.364  -3.502   0.124  1.00  0.00     0.009 A 
ATOM     79  C   UNL     1      -9.185  -0.978   0.442  1.00  0.00     0.001 A 
ATOM     80  C   UNL     1     -11.030  -2.337  -0.299  1.00  0.00     0.001 A 
ATOM     81  C   UNL     1     -10.409  -1.090  -0.209  1.00  0.00     0.000 A 
ENDBRANCH  57  76
BRANCH  69  82
ATOM     82  C   UNL     1      -6.742 -10.418  -0.481  1.00  0.00    -0.014 A 
ATOM     83  C   UNL     1      -7.546 -10.929   0.541  1.00  0.00     0.009 A 
ATOM     84  C   UNL     1      -6.138 -11.369  -1.343  1.00  0.00     0.009 A 
ATOM     85  C   UNL     1      -7.722 -12.310   0.705  1.00  0.00     0.001 A 
ATOM     86  C   UNL     1      -6.350 -12.741  -1.214  1.00  0.00     0.001 A 
ATOM     87  C   UNL     1      -7.140 -13.213  -0.180  1.00  0.00     0.000 A 
ENDBRANCH  69  82
ENDBRANCH  43  44
ENDBRANCH  36  38
ENDBRANCH  35  36
ENDBRANCH  34  35
ENDBRANCH  33  34
ENDBRANCH  32  33
ENDBRANCH  31  32
ENDBRANCH  30  31
ENDBRANCH  29  30
ENDBRANCH   1  29
TORSDOF 23
