REMARK SMILES O=C(OCCOCCOCCOCCOC(=O)c1ccc([C@@H]2CC(O)=Nc3c2c(=O)[nH]n3C2CCCCCCC2)cc1)c1ccc(-c2c3nc(c(-c4ccccc4)c4ccc([nH]4)c(-c4ccccc4)c4nc(c(-c5ccccc5)c5ccc2[nH]5)C=C4)C=C3)cc1
REMARK SMILES IDX 11 1 10 2 9 3 8 4 7 5 6 6 5 7 4 8 3 9 2 10 1 11 43 12 44 13
REMARK SMILES IDX 90 14 45 15 89 16 46 17 47 18 48 19 83 20 49 21 88 22 82 23
REMARK SMILES IDX 84 24 50 25 87 26 81 27 80 28 51 30 73 31 58 32 72 33 59 34
REMARK SMILES IDX 62 35 71 36 85 37 60 38 61 39 70 41 86 42 63 43 52 44 53 45
REMARK SMILES IDX 57 46 54 47 56 48 55 49 74 50 75 51 79 52 76 53 78 54 77 55
REMARK SMILES IDX 64 56 65 57 69 58 66 59 68 60 67 61 12 62 13 63 14 64 15 65
REMARK SMILES IDX 16 66 17 67 18 68 19 69 42 70 20 71 41 72 21 73 22 74 23 75
REMARK SMILES IDX 28 76 24 77 27 78 29 79 26 80 32 81 30 82 31 83 25 85 33 87
REMARK SMILES IDX 34 88 35 89 36 90 40 92 39 93 38 94 37 95
REMARK H PARENT 84 29 62 40 31 84 25 86
REMARK Flexibility Score: 80.00
ROOT
ATOM      1  C   UNL     1       4.934  -2.952  -2.265  1.00  0.00     0.188 C 
ENDROOT
BRANCH   1   2
ATOM      2  C   UNL     1       3.975  -3.257  -1.104  1.00  0.00     0.188 C 
BRANCH   2   3
ATOM      3  O   UNL     1       2.633  -3.045  -1.478  1.00  0.00    -0.377 OA
BRANCH   3   4
ATOM      4  C   UNL     1       2.119  -1.784  -1.090  1.00  0.00     0.188 C 
BRANCH   4   5
ATOM      5  C   UNL     1       2.847  -0.490  -1.522  1.00  0.00     0.188 C 
BRANCH   5   6
ATOM      6  O   UNL     1       4.144  -0.026  -1.162  1.00  0.00    -0.376 OA
BRANCH   6   7
ATOM      7  C   UNL     1       4.973  -0.340  -0.065  1.00  0.00     0.202 C 
BRANCH   7   8
ATOM      8  C   UNL     1       4.508  -0.262   1.386  1.00  0.00     0.261 C 
BRANCH   8   9
ATOM      9  O   UNL     1       3.148  -0.607   1.590  1.00  0.00    -0.460 OA
BRANCH   9  10
ATOM     10  C   UNL     1       2.073   0.193   1.467  1.00  0.00     0.338 C 
ATOM     11  O   UNL     1       0.972  -0.273   1.761  1.00  0.00    -0.246 OA
BRANCH  10  12
ATOM     12  C   UNL     1       2.106   1.588   0.944  1.00  0.00     0.060 A 
ATOM     13  C   UNL     1       3.228   2.406   0.782  1.00  0.00     0.016 A 
ATOM     14  C   UNL     1       0.836   2.117   0.642  1.00  0.00     0.016 A 
ATOM     15  C   UNL     1       3.072   3.763   0.599  1.00  0.00     0.010 A 
ATOM     16  C   UNL     1       0.671   3.465   0.420  1.00  0.00     0.010 A 
ATOM     17  C   UNL     1       1.786   4.280   0.524  1.00  0.00    -0.014 A 
BRANCH  17  18
ATOM     18  C   UNL     1       1.642   5.713   0.586  1.00  0.00     0.031 A 
ATOM     19  C   UNL     1       2.125   6.419  -0.619  1.00  0.00     0.074 A 
ATOM     20  C   UNL     1       1.081   6.288   1.666  1.00  0.00     0.049 A 
ATOM     21  N   UNL     1       3.143   7.207  -0.712  1.00  0.00    -0.248 NA
ATOM     22  C   UNL     1       1.501   6.079  -1.907  1.00  0.00     0.031 C 
ATOM     23  C   UNL     1       0.371   5.638   2.775  1.00  0.00     0.029 A 
ATOM     24  N   UNL     1       0.923   7.605   1.942  1.00  0.00    -0.354 N 
ATOM     25  C   UNL     1       3.168   7.628  -2.037  1.00  0.00     0.074 A 
ATOM     26  C   UNL     1       2.259   6.772  -2.756  1.00  0.00     0.031 C 
ATOM     27  C   UNL     1      -0.362   6.564   3.433  1.00  0.00     0.029 A 
ATOM     28  C   UNL     1      -0.058   7.875   2.885  1.00  0.00     0.049 A 
ATOM     29  H   UNL     1       1.459   8.309   1.511  1.00  0.00     0.167 HD
ATOM     30  C   UNL     1       3.725   8.819  -2.386  1.00  0.00     0.031 A 
ATOM     31  C   UNL     1      -0.631   9.082   3.119  1.00  0.00     0.031 A 
ATOM     32  C   UNL     1       4.584   9.330  -1.350  1.00  0.00     0.049 A 
ATOM     33  C   UNL     1       0.261  10.115   2.536  1.00  0.00     0.074 A 
ATOM     34  C   UNL     1       5.743   8.889  -0.745  1.00  0.00     0.029 A 
ATOM     35  N   UNL     1       4.051  10.280  -0.512  1.00  0.00    -0.354 N 
ATOM     36  N   UNL     1       1.444  10.383   3.010  1.00  0.00    -0.248 NA
ATOM     37  C   UNL     1       0.047  10.493   1.146  1.00  0.00     0.031 C 
ATOM     38  C   UNL     1       5.596   9.243   0.628  1.00  0.00     0.029 A 
ATOM     39  C   UNL     1       4.398   9.947   0.771  1.00  0.00     0.049 A 
ATOM     40  H   UNL     1       3.516  11.061  -0.784  1.00  0.00     0.167 HD
ATOM     41  C   UNL     1       2.248  10.536   1.889  1.00  0.00     0.074 A 
ATOM     42  C   UNL     1       1.316  10.684   0.770  1.00  0.00     0.031 C 
ATOM     43  C   UNL     1       3.578  10.229   1.928  1.00  0.00     0.031 A 
BRANCH  30  44
ATOM     44  C   UNL     1       3.135   9.715  -3.444  1.00  0.00    -0.014 A 
ATOM     45  C   UNL     1       3.797  10.914  -3.757  1.00  0.00     0.009 A 
ATOM     46  C   UNL     1       1.816   9.575  -3.919  1.00  0.00     0.009 A 
ATOM     47  C   UNL     1       3.143  11.947  -4.439  1.00  0.00     0.001 A 
ATOM     48  C   UNL     1       1.175  10.588  -4.634  1.00  0.00     0.001 A 
ATOM     49  C   UNL     1       1.829  11.787  -4.868  1.00  0.00     0.000 A 
ENDBRANCH  30  44
BRANCH  31  50
ATOM     50  C   UNL     1      -2.037   9.364   3.489  1.00  0.00    -0.014 A 
ATOM     51  C   UNL     1      -2.414  10.626   3.974  1.00  0.00     0.009 A 
ATOM     52  C   UNL     1      -3.063   8.478   3.112  1.00  0.00     0.009 A 
ATOM     53  C   UNL     1      -3.764  10.998   4.044  1.00  0.00     0.001 A 
ATOM     54  C   UNL     1      -4.410   8.847   3.183  1.00  0.00     0.001 A 
ATOM     55  C   UNL     1      -4.761  10.114   3.635  1.00  0.00     0.000 A 
ENDBRANCH  31  50
BRANCH  43  56
ATOM     56  C   UNL     1       4.193   9.922   3.272  1.00  0.00    -0.014 A 
ATOM     57  C   UNL     1       3.799   8.833   4.072  1.00  0.00     0.009 A 
ATOM     58  C   UNL     1       5.315  10.664   3.667  1.00  0.00     0.009 A 
ATOM     59  C   UNL     1       4.493   8.518   5.246  1.00  0.00     0.001 A 
ATOM     60  C   UNL     1       6.019  10.337   4.827  1.00  0.00     0.001 A 
ATOM     61  C   UNL     1       5.606   9.269   5.619  1.00  0.00     0.000 A 
ENDBRANCH  43  56
ENDBRANCH  17  18
ENDBRANCH  10  12
ENDBRANCH   9  10
ENDBRANCH   8   9
ENDBRANCH   7   8
ENDBRANCH   6   7
ENDBRANCH   5   6
ENDBRANCH   4   5
ENDBRANCH   3   4
ENDBRANCH   2   3
ENDBRANCH   1   2
BRANCH   1  62
ATOM     62  O   UNL     1       4.410  -2.281  -3.391  1.00  0.00    -0.376 OA
BRANCH  62  63
ATOM     63  C   UNL     1       3.403  -2.874  -4.200  1.00  0.00     0.202 C 
BRANCH  63  64
ATOM     64  C   UNL     1       2.910  -4.341  -4.155  1.00  0.00     0.261 C 
BRANCH  64  65
ATOM     65  O   UNL     1       3.384  -5.206  -3.123  1.00  0.00    -0.460 OA
BRANCH  65  66
ATOM     66  C   UNL     1       4.501  -5.911  -3.398  1.00  0.00     0.338 C 
ATOM     67  O   UNL     1       5.146  -5.908  -4.431  1.00  0.00    -0.246 OA
BRANCH  66  68
ATOM     68  C   UNL     1       4.966  -6.518  -2.136  1.00  0.00     0.060 A 
ATOM     69  C   UNL     1       6.194  -6.093  -1.614  1.00  0.00     0.016 A 
ATOM     70  C   UNL     1       4.202  -7.470  -1.464  1.00  0.00     0.016 A 
ATOM     71  C   UNL     1       6.673  -6.632  -0.430  1.00  0.00     0.005 A 
ATOM     72  C   UNL     1       4.721  -8.066  -0.313  1.00  0.00     0.005 A 
ATOM     73  C   UNL     1       5.978  -7.675   0.190  1.00  0.00    -0.040 A 
BRANCH  73  74
ATOM     74  C   UNL     1       6.733  -8.488   1.227  1.00  0.00     0.068 C 
ATOM     75  C   UNL     1       7.373  -9.689   0.496  1.00  0.00     0.110 C 
ATOM     76  C   UNL     1       5.925  -8.972   2.355  1.00  0.00     0.071 A 
ATOM     77  C   UNL     1       6.464 -10.887   0.549  1.00  0.00     0.188 C 
ATOM     78  C   UNL     1       5.457 -10.224   2.471  1.00  0.00     0.160 A 
ATOM     79  C   UNL     1       5.562  -8.254   3.592  1.00  0.00     0.270 A 
ATOM     80  N   UNL     1       5.585 -11.132   1.459  1.00  0.00    -0.198 NA
ATOM     81  N   UNL     1       4.845 -10.385   3.700  1.00  0.00    -0.264 N 
ATOM     82  O   UNL     1       5.811  -7.098   3.839  1.00  0.00    -0.268 OA
ATOM     83  N   UNL     1       4.891  -9.177   4.378  1.00  0.00    -0.262 N 
ATOM     84  H   UNL     1       4.512  -9.004   5.269  1.00  0.00     0.191 HD
BRANCH  77  85
ATOM     85  O   UNL     1       6.651 -11.796  -0.424  1.00  0.00    -0.496 OA
ATOM     86  H   UNL     1       7.284 -11.639  -1.096  1.00  0.00     0.294 HD
ENDBRANCH  77  85
BRANCH  81  87
ATOM     87  C   UNL     1       4.188 -11.559   4.275  1.00  0.00     0.107 C 
BRANCH  87  88
ATOM     88  C   UNL     1       3.028 -11.969   3.362  1.00  0.00     0.027 C 
BRANCH  88  89
ATOM     89  C   UNL     1       2.142 -13.107   3.855  1.00  0.00     0.002 C 
BRANCH  89  90
ATOM     90  C   UNL     1       2.760 -14.502   3.930  1.00  0.00     0.000 CG0
ATOM     91  G   UNL     1       3.752 -14.850   2.822  1.00  0.00     0.000 G0
ENDBRANCH  89  90
ENDBRANCH  88  89
ENDBRANCH  87  88
BRANCH  87  92
ATOM     92  C   UNL     1       5.223 -12.635   4.677  1.00  0.00     0.027 C 
BRANCH  92  93
ATOM     93  C   UNL     1       5.854 -13.515   3.593  1.00  0.00     0.002 C 
BRANCH  93  94
ATOM     94  C   UNL     1       5.203 -14.865   3.296  1.00  0.00     0.000 C 
BRANCH  94  95
ATOM     95  C   UNL     1       3.752 -14.850   2.822  1.00  0.00     0.000 CG0
ATOM     96  G   UNL     1       2.760 -14.502   3.930  1.00  0.00     0.000 G0
ENDBRANCH  94  95
ENDBRANCH  93  94
ENDBRANCH  92  93
ENDBRANCH  87  92
ENDBRANCH  81  87
ENDBRANCH  73  74
ENDBRANCH  66  68
ENDBRANCH  65  66
ENDBRANCH  64  65
ENDBRANCH  63  64
ENDBRANCH  62  63
ENDBRANCH   1  62
TORSDOF 23
