REMARK SMILES Cc1nccn1C1(C(=O)OCCOCCOCCOCCOC(=O)c2ccc(-c3c4nc(c(-c5ccccc5)c5ccc([nH]5)c(-c5ccccc5)c5nc(c(-c6ccccc6)c6ccc3[nH]6)C=C5)C=C4)cc2)CCN(C(=O)[C@@H]2C[C@H]2c2ccccc2)CC1
REMARK SMILES IDX 16 1 15 2 14 3 13 4 12 5 11 6 10 7 8 8 9 9 7 10 73 11 88 12
REMARK SMILES IDX 74 13 87 14 75 15 76 16 77 17 6 18 1 19 2 20 3 21 4 22 5 23
REMARK SMILES IDX 78 24 79 25 80 26 81 27 82 28 86 29 83 30 85 31 84 32 17 33
REMARK SMILES IDX 18 34 19 35 20 36 21 37 22 38 23 39 24 40 25 41 26 42 72 43
REMARK SMILES IDX 27 44 71 45 28 46 29 47 30 48 65 49 31 50 70 51 64 52 66 53
REMARK SMILES IDX 32 54 69 55 63 56 62 57 33 59 55 60 40 61 54 62 41 63 44 64
REMARK SMILES IDX 53 65 67 66 42 67 43 68 52 70 68 71 45 72 34 73 35 74 39 75
REMARK SMILES IDX 36 76 38 77 37 78 56 79 57 80 61 81 58 82 60 83 59 84 46 85
REMARK SMILES IDX 47 86 51 87 48 88 50 89 49 90
REMARK H PARENT 66 58 44 69
REMARK Flexibility Score: inf
ROOT
ATOM      1  O   UNL     1      -1.988   3.636  -4.750  1.00  0.00    -0.377 OA
ENDROOT
BRANCH   1   2
ATOM      2  C   UNL     1      -1.625   2.273  -4.809  1.00  0.00     0.188 C 
BRANCH   2   3
ATOM      3  C   UNL     1      -2.696   1.263  -4.330  1.00  0.00     0.188 C 
BRANCH   3   4
ATOM      4  O   UNL     1      -4.034   1.705  -4.141  1.00  0.00    -0.376 OA
BRANCH   4   5
ATOM      5  C   UNL     1      -4.303   2.705  -3.163  1.00  0.00     0.202 C 
BRANCH   5   6
ATOM      6  C   UNL     1      -3.579   2.678  -1.790  1.00  0.00     0.261 C 
BRANCH   6   7
ATOM      7  O   UNL     1      -2.174   2.391  -1.928  1.00  0.00    -0.461 OA
BRANCH   7   8
ATOM      8  C   UNL     1      -1.344   1.959  -0.914  1.00  0.00     0.332 C 
ATOM      9  O   UNL     1      -1.688   1.861   0.250  1.00  0.00    -0.249 OA
BRANCH   8  10
ATOM     10  C   UNL     1       0.090   1.651  -1.570  1.00  0.00     0.146 C 
ATOM     11  C   UNL     1       1.550   1.444  -1.066  1.00  0.00     0.062 C 
ATOM     12  C   UNL     1       0.308   3.095  -2.198  1.00  0.00     0.062 C 
ATOM     13  C   UNL     1       2.018   2.358   0.019  1.00  0.00     0.122 C 
ATOM     14  C   UNL     1       0.600   4.056  -1.001  1.00  0.00     0.122 C 
ATOM     15  N   UNL     1       1.881   3.735  -0.405  1.00  0.00    -0.342 N 
ATOM     16  C   UNL     1       3.008   4.542  -0.319  1.00  0.00     0.226 C 
ATOM     17  O   UNL     1       4.135   4.048  -0.296  1.00  0.00    -0.275 OA
BRANCH  10  18
ATOM     18  N   UNL     1      -0.128   0.302  -2.112  1.00  0.00    -0.318 N 
ATOM     19  C   UNL     1      -0.069  -0.808   0.238  1.00  0.00     0.087 C 
ATOM     20  C   UNL     1      -0.270  -0.814  -1.253  1.00  0.00     0.106 A 
ATOM     21  N   UNL     1      -0.404  -1.920  -1.951  1.00  0.00    -0.242 NA
ATOM     22  C   UNL     1      -0.190  -1.569  -3.249  1.00  0.00     0.131 A 
ATOM     23  C   UNL     1       0.059  -0.219  -3.363  1.00  0.00     0.108 A 
ENDBRANCH  10  18
BRANCH  16  24
ATOM     24  C   UNL     1       2.937   6.007  -0.095  1.00  0.00     0.087 C 
ATOM     25  C   UNL     1       1.879   6.615   0.785  1.00  0.00     0.023 C 
ATOM     26  C   UNL     1       1.994   7.037  -0.663  1.00  0.00     0.032 C 
BRANCH  26  27
ATOM     27  C   UNL     1       2.586   8.361  -1.066  1.00  0.00    -0.044 A 
ATOM     28  C   UNL     1       2.387   9.530  -0.318  1.00  0.00     0.004 A 
ATOM     29  C   UNL     1       3.354   8.453  -2.239  1.00  0.00     0.004 A 
ATOM     30  C   UNL     1       2.963  10.738  -0.706  1.00  0.00     0.000 A 
ATOM     31  C   UNL     1       3.926   9.661  -2.636  1.00  0.00     0.000 A 
ATOM     32  C   UNL     1       3.735  10.802  -1.863  1.00  0.00     0.000 A 
ENDBRANCH  26  27
ENDBRANCH  16  24
ENDBRANCH   8  10
ENDBRANCH   7   8
ENDBRANCH   6   7
ENDBRANCH   5   6
ENDBRANCH   4   5
ENDBRANCH   3   4
ENDBRANCH   2   3
ENDBRANCH   1   2
BRANCH   1  33
ATOM     33  C   UNL     1      -2.689   4.162  -5.872  1.00  0.00     0.188 C 
BRANCH  33  34
ATOM     34  C   UNL     1      -3.479   3.237  -6.838  1.00  0.00     0.188 C 
BRANCH  34  35
ATOM     35  O   UNL     1      -3.045   1.887  -6.905  1.00  0.00    -0.376 OA
BRANCH  35  36
ATOM     36  C   UNL     1      -2.371   1.305  -8.007  1.00  0.00     0.202 C 
BRANCH  36  37
ATOM     37  C   UNL     1      -0.973   1.807  -8.364  1.00  0.00     0.261 C 
BRANCH  37  38
ATOM     38  O   UNL     1      -0.829   3.198  -8.178  1.00  0.00    -0.460 OA
BRANCH  38  39
ATOM     39  C   UNL     1      -1.540   3.929  -9.060  1.00  0.00     0.338 C 
ATOM     40  O   UNL     1      -2.307   3.525  -9.905  1.00  0.00    -0.246 OA
BRANCH  39  41
ATOM     41  C   UNL     1      -1.150   5.332  -8.892  1.00  0.00     0.060 A 
ATOM     42  C   UNL     1      -1.844   6.229  -9.700  1.00  0.00     0.016 A 
ATOM     43  C   UNL     1       0.130   5.587  -8.380  1.00  0.00     0.016 A 
ATOM     44  C   UNL     1      -1.100   7.190 -10.326  1.00  0.00     0.010 A 
ATOM     45  C   UNL     1       0.876   6.531  -9.020  1.00  0.00     0.010 A 
ATOM     46  C   UNL     1       0.275   7.210 -10.074  1.00  0.00    -0.014 A 
BRANCH  46  47
ATOM     47  C   UNL     1       1.108   7.952 -10.978  1.00  0.00     0.031 A 
ATOM     48  C   UNL     1       1.133   9.385 -10.657  1.00  0.00     0.074 A 
ATOM     49  C   UNL     1       1.833   7.337 -11.929  1.00  0.00     0.049 A 
ATOM     50  N   UNL     1       0.574  10.343 -11.313  1.00  0.00    -0.248 NA
ATOM     51  C   UNL     1       1.651   9.764  -9.332  1.00  0.00     0.031 C 
ATOM     52  C   UNL     1       2.093   5.906 -12.117  1.00  0.00     0.029 A 
ATOM     53  N   UNL     1       2.603   7.910 -12.881  1.00  0.00    -0.354 N 
ATOM     54  C   UNL     1       0.837  11.485 -10.571  1.00  0.00     0.074 A 
ATOM     55  C   UNL     1       1.283  11.042  -9.276  1.00  0.00     0.031 C 
ATOM     56  C   UNL     1       3.154   5.757 -12.947  1.00  0.00     0.029 A 
ATOM     57  C   UNL     1       3.546   7.067 -13.443  1.00  0.00     0.049 A 
ATOM     58  H   UNL     1       2.501   8.851 -13.152  1.00  0.00     0.167 HD
ATOM     59  C   UNL     1       0.952  12.701 -11.163  1.00  0.00     0.031 A 
ATOM     60  C   UNL     1       4.618   7.465 -14.174  1.00  0.00     0.031 A 
ATOM     61  C   UNL     1       0.417  12.699 -12.499  1.00  0.00     0.049 A 
ATOM     62  C   UNL     1       4.357   8.862 -14.614  1.00  0.00     0.074 A 
ATOM     63  C   UNL     1      -0.837  12.490 -13.037  1.00  0.00     0.029 A 
ATOM     64  N   UNL     1       1.311  12.521 -13.530  1.00  0.00    -0.354 N 
ATOM     65  N   UNL     1       3.417   9.181 -15.458  1.00  0.00    -0.248 NA
ATOM     66  C   UNL     1       4.806   9.944 -13.748  1.00  0.00     0.031 C 
ATOM     67  C   UNL     1      -0.606  11.753 -14.235  1.00  0.00     0.029 A 
ATOM     68  C   UNL     1       0.773  11.605 -14.398  1.00  0.00     0.049 A 
ATOM     69  H   UNL     1       2.181  12.972 -13.627  1.00  0.00     0.167 HD
ATOM     70  C   UNL     1       2.862  10.351 -14.954  1.00  0.00     0.074 A 
ATOM     71  C   UNL     1       3.815  10.820 -13.948  1.00  0.00     0.031 C 
ATOM     72  C   UNL     1       1.552  10.668 -15.180  1.00  0.00     0.031 A 
BRANCH  59  73
ATOM     73  C   UNL     1       1.923  13.742 -10.679  1.00  0.00    -0.014 A 
ATOM     74  C   UNL     1       1.913  15.005 -11.288  1.00  0.00     0.009 A 
ATOM     75  C   UNL     1       3.015  13.452  -9.835  1.00  0.00     0.009 A 
ATOM     76  C   UNL     1       2.969  15.904 -11.103  1.00  0.00     0.001 A 
ATOM     77  C   UNL     1       4.046  14.362  -9.611  1.00  0.00     0.001 A 
ATOM     78  C   UNL     1       4.036  15.581 -10.268  1.00  0.00     0.000 A 
ENDBRANCH  59  73
BRANCH  60  79
ATOM     79  C   UNL     1       5.973   6.870 -14.193  1.00  0.00    -0.014 A 
ATOM     80  C   UNL     1       6.883   7.177 -15.216  1.00  0.00     0.009 A 
ATOM     81  C   UNL     1       6.470   6.206 -13.055  1.00  0.00     0.009 A 
ATOM     82  C   UNL     1       8.244   6.859 -15.090  1.00  0.00     0.001 A 
ATOM     83  C   UNL     1       7.827   5.888 -12.929  1.00  0.00     0.001 A 
ATOM     84  C   UNL     1       8.717   6.226 -13.942  1.00  0.00     0.000 A 
ENDBRANCH  60  79
BRANCH  72  85
ATOM     85  C   UNL     1       0.778   9.805 -16.150  1.00  0.00    -0.014 A 
ATOM     86  C   UNL     1       0.513   8.442 -15.921  1.00  0.00     0.009 A 
ATOM     87  C   UNL     1       0.151  10.428 -17.238  1.00  0.00     0.009 A 
ATOM     88  C   UNL     1      -0.338   7.723 -16.769  1.00  0.00     0.001 A 
ATOM     89  C   UNL     1      -0.714   9.716 -18.072  1.00  0.00     0.001 A 
ATOM     90  C   UNL     1      -0.956   8.364 -17.840  1.00  0.00     0.000 A 
ENDBRANCH  72  85
ENDBRANCH  46  47
ENDBRANCH  39  41
ENDBRANCH  38  39
ENDBRANCH  37  38
ENDBRANCH  36  37
ENDBRANCH  35  36
ENDBRANCH  34  35
ENDBRANCH  33  34
ENDBRANCH   1  33
TORSDOF 23
