REMARK SMILES CO[C@H]1C[C@@H](C(=O)OCCOCCOCCOCCOC(=O)c2ccc(-c3c4nc(c(-c5ccccc5)c5ccc([nH]5)c(-c5ccccc5)c5nc(c(-c6ccccc6)c6ccc3[nH]6)C=C5)C=C4)cc2)N(C(=O)c2cc(SC)ccc2C)C1
REMARK SMILES IDX 13 1 12 2 11 3 10 4 9 5 8 6 6 7 7 8 5 9 3 10 4 11 83 12
REMARK SMILES IDX 71 13 2 14 1 15 72 16 73 17 74 18 75 19 81 20 76 21 80 22
REMARK SMILES IDX 82 23 79 24 77 25 78 26 14 27 15 28 16 29 17 30 18 31 19 32
REMARK SMILES IDX 20 33 21 34 22 35 23 36 24 37 70 38 25 39 69 40 26 41 27 42
REMARK SMILES IDX 28 43 63 44 29 45 68 46 62 47 64 48 30 49 67 50 61 51 60 52
REMARK SMILES IDX 31 54 53 55 38 56 52 57 39 58 42 59 51 60 65 61 40 62 41 63
REMARK SMILES IDX 50 65 66 66 43 67 32 68 33 69 37 70 34 71 36 72 35 73 54 74
REMARK SMILES IDX 55 75 59 76 56 77 58 78 57 79 44 80 45 81 49 82 46 83 48 84
REMARK SMILES IDX 47 85
REMARK H PARENT 64 53 42 64
REMARK Flexibility Score: inf
ROOT
ATOM      1  C   UNL     1       0.905  -4.653  -2.973  1.00  0.00     0.188 C 
ENDROOT
BRANCH   1   2
ATOM      2  C   UNL     1      -0.588  -4.814  -2.776  1.00  0.00     0.188 C 
BRANCH   2   3
ATOM      3  O   UNL     1      -1.136  -6.064  -3.154  1.00  0.00    -0.376 OA
BRANCH   3   4
ATOM      4  C   UNL     1      -2.561  -6.183  -3.124  1.00  0.00     0.202 C 
BRANCH   4   5
ATOM      5  C   UNL     1      -3.465  -5.090  -2.502  1.00  0.00     0.261 C 
BRANCH   5   6
ATOM      6  O   UNL     1      -2.837  -4.229  -1.536  1.00  0.00    -0.462 OA
BRANCH   6   7
ATOM      7  C   UNL     1      -2.625  -4.739  -0.295  1.00  0.00     0.329 C 
ATOM      8  O   UNL     1      -3.230  -5.711   0.132  1.00  0.00    -0.250 OA
BRANCH   7   9
ATOM      9  C   UNL     1      -1.483  -4.002   0.471  1.00  0.00     0.198 C 
ATOM     10  C   UNL     1       0.341  -2.335   0.343  1.00  0.00     0.140 C 
ATOM     11  C   UNL     1      -1.055  -2.661  -0.198  1.00  0.00     0.071 C 
ATOM     12  C   UNL     1       0.850  -3.652   0.931  1.00  0.00     0.152 C 
ATOM     13  N   UNL     1      -0.174  -4.666   0.714  1.00  0.00    -0.322 N 
BRANCH  10  14
ATOM     14  O   UNL     1       1.251  -1.938  -0.688  1.00  0.00    -0.380 OA
ATOM     15  C   UNL     1       1.123  -0.592  -1.122  1.00  0.00     0.195 C 
ENDBRANCH  10  14
BRANCH  13  16
ATOM     16  C   UNL     1       0.136  -5.946   1.182  1.00  0.00     0.254 C 
ATOM     17  O   UNL     1       1.121  -6.171   1.885  1.00  0.00    -0.269 OA
BRANCH  16  18
ATOM     18  C   UNL     1      -0.583  -7.128   0.660  1.00  0.00     0.044 A 
ATOM     19  C   UNL     1      -1.637  -7.675   1.399  1.00  0.00     0.029 A 
ATOM     20  C   UNL     1      -0.112  -7.811  -0.477  1.00  0.00    -0.038 A 
ATOM     21  C   UNL     1      -2.336  -8.791   0.913  1.00  0.00     0.008 A 
ATOM     22  C   UNL     1      -0.888  -8.840  -1.021  1.00  0.00     0.005 A 
ATOM     23  C   UNL     1       1.257  -7.627  -1.059  1.00  0.00     0.045 C 
ATOM     24  C   UNL     1      -2.013  -9.299  -0.348  1.00  0.00     0.015 A 
BRANCH  21  25
ATOM     25  S   UNL     1      -3.586  -9.541   1.950  1.00  0.00    -0.130 SA
ATOM     26  C   UNL     1      -3.670 -11.228   1.272  1.00  0.00     0.091 C 
ENDBRANCH  21  25
ENDBRANCH  16  18
ENDBRANCH  13  16
ENDBRANCH   7   9
ENDBRANCH   6   7
ENDBRANCH   5   6
ENDBRANCH   4   5
ENDBRANCH   3   4
ENDBRANCH   2   3
ENDBRANCH   1   2
BRANCH   1  27
ATOM     27  O   UNL     1       1.328  -4.557  -4.316  1.00  0.00    -0.377 OA
BRANCH  27  28
ATOM     28  C   UNL     1       0.693  -5.440  -5.228  1.00  0.00     0.188 C 
BRANCH  28  29
ATOM     29  C   UNL     1       0.988  -6.942  -5.076  1.00  0.00     0.188 C 
BRANCH  29  30
ATOM     30  O   UNL     1       2.338  -7.380  -5.227  1.00  0.00    -0.376 OA
BRANCH  30  31
ATOM     31  C   UNL     1       3.292  -6.854  -4.311  1.00  0.00     0.202 C 
BRANCH  31  32
ATOM     32  C   UNL     1       4.275  -5.880  -4.973  1.00  0.00     0.261 C 
BRANCH  32  33
ATOM     33  O   UNL     1       3.675  -5.123  -6.030  1.00  0.00    -0.460 OA
BRANCH  33  34
ATOM     34  C   UNL     1       3.535  -5.814  -7.194  1.00  0.00     0.338 C 
ATOM     35  O   UNL     1       4.027  -6.876  -7.493  1.00  0.00    -0.246 OA
BRANCH  34  36
ATOM     36  C   UNL     1       2.537  -5.117  -8.035  1.00  0.00     0.060 A 
ATOM     37  C   UNL     1       1.530  -5.889  -8.635  1.00  0.00     0.016 A 
ATOM     38  C   UNL     1       2.566  -3.729  -8.200  1.00  0.00     0.016 A 
ATOM     39  C   UNL     1       0.617  -5.285  -9.493  1.00  0.00     0.010 A 
ATOM     40  C   UNL     1       1.666  -3.126  -9.078  1.00  0.00     0.010 A 
ATOM     41  C   UNL     1       0.745  -3.920  -9.784  1.00  0.00    -0.014 A 
BRANCH  41  42
ATOM     42  C   UNL     1       0.192  -3.438 -11.069  1.00  0.00     0.031 A 
ATOM     43  C   UNL     1       1.111  -3.489 -12.264  1.00  0.00     0.074 A 
ATOM     44  C   UNL     1      -1.094  -3.070 -11.199  1.00  0.00     0.049 A 
ATOM     45  N   UNL     1       0.871  -3.184 -13.513  1.00  0.00    -0.248 NA
ATOM     46  C   UNL     1       2.487  -3.959 -12.017  1.00  0.00     0.031 C 
ATOM     47  C   UNL     1      -2.085  -3.039 -10.125  1.00  0.00     0.029 A 
ATOM     48  N   UNL     1      -1.786  -2.666 -12.311  1.00  0.00    -0.354 N 
ATOM     49  C   UNL     1       2.058  -3.441 -14.192  1.00  0.00     0.074 A 
ATOM     50  C   UNL     1       3.031  -3.873 -13.219  1.00  0.00     0.031 C 
ATOM     51  C   UNL     1      -3.264  -2.639 -10.635  1.00  0.00     0.029 A 
ATOM     52  C   UNL     1      -3.102  -2.365 -12.062  1.00  0.00     0.049 A 
ATOM     53  H   UNL     1      -1.379  -2.599 -13.205  1.00  0.00     0.167 HD
ATOM     54  C   UNL     1       2.312  -3.347 -15.516  1.00  0.00     0.031 A 
ATOM     55  C   UNL     1      -4.056  -1.911 -12.898  1.00  0.00     0.031 A 
ATOM     56  C   UNL     1       1.351  -2.898 -16.482  1.00  0.00     0.049 A 
ATOM     57  C   UNL     1      -3.713  -1.717 -14.354  1.00  0.00     0.074 A 
ATOM     58  C   UNL     1       1.508  -2.734 -17.845  1.00  0.00     0.029 A 
ATOM     59  N   UNL     1       0.046  -2.544 -16.177  1.00  0.00    -0.354 N 
ATOM     60  N   UNL     1      -2.592  -1.972 -14.986  1.00  0.00    -0.248 NA
ATOM     61  C   UNL     1      -4.779  -1.187 -15.216  1.00  0.00     0.031 C 
ATOM     62  C   UNL     1       0.309  -2.231 -18.360  1.00  0.00     0.029 A 
ATOM     63  C   UNL     1      -0.611  -2.144 -17.326  1.00  0.00     0.049 A 
ATOM     64  H   UNL     1      -0.353  -2.572 -15.277  1.00  0.00     0.167 HD
ATOM     65  C   UNL     1      -2.829  -1.665 -16.321  1.00  0.00     0.074 A 
ATOM     66  C   UNL     1      -4.208  -1.233 -16.410  1.00  0.00     0.031 C 
ATOM     67  C   UNL     1      -1.986  -1.726 -17.382  1.00  0.00     0.031 A 
BRANCH  54  68
ATOM     68  C   UNL     1       3.690  -3.720 -15.985  1.00  0.00    -0.014 A 
ATOM     69  C   UNL     1       4.113  -5.060 -15.998  1.00  0.00     0.009 A 
ATOM     70  C   UNL     1       4.566  -2.726 -16.446  1.00  0.00     0.009 A 
ATOM     71  C   UNL     1       5.394  -5.392 -16.444  1.00  0.00     0.001 A 
ATOM     72  C   UNL     1       5.835  -3.065 -16.918  1.00  0.00     0.001 A 
ATOM     73  C   UNL     1       6.250  -4.396 -16.911  1.00  0.00     0.000 A 
ENDBRANCH  54  68
BRANCH  55  74
ATOM     74  C   UNL     1      -5.415  -1.572 -12.393  1.00  0.00    -0.014 A 
ATOM     75  C   UNL     1      -6.548  -2.274 -12.834  1.00  0.00     0.009 A 
ATOM     76  C   UNL     1      -5.593  -0.486 -11.521  1.00  0.00     0.009 A 
ATOM     77  C   UNL     1      -7.830  -1.865 -12.453  1.00  0.00     0.001 A 
ATOM     78  C   UNL     1      -6.872  -0.102 -11.112  1.00  0.00     0.001 A 
ATOM     79  C   UNL     1      -7.990  -0.780 -11.592  1.00  0.00     0.000 A 
ENDBRANCH  55  74
BRANCH  67  80
ATOM     80  C   UNL     1      -2.551  -1.360 -18.726  1.00  0.00    -0.014 A 
ATOM     81  C   UNL     1      -2.895  -0.036 -19.040  1.00  0.00     0.009 A 
ATOM     82  C   UNL     1      -2.717  -2.357 -19.701  1.00  0.00     0.009 A 
ATOM     83  C   UNL     1      -3.444   0.273 -20.285  1.00  0.00     0.001 A 
ATOM     84  C   UNL     1      -3.231  -2.038 -20.958  1.00  0.00     0.001 A 
ATOM     85  C   UNL     1      -3.608  -0.727 -21.244  1.00  0.00     0.000 A 
ENDBRANCH  67  80
ENDBRANCH  41  42
ENDBRANCH  34  36
ENDBRANCH  33  34
ENDBRANCH  32  33
ENDBRANCH  31  32
ENDBRANCH  30  31
ENDBRANCH  29  30
ENDBRANCH  28  29
ENDBRANCH  27  28
ENDBRANCH   1  27
TORSDOF 24
