REMARK SMILES Nc1nc(N2CCCCC2)nc2c1[C@H](C(=O)OCCOCCOCCOCCOC(=O)c1ccc(-c3c4nc(c(-c5ccccc5)c5ccc([nH]5)c(-c5ccccc5)c5nc(c(-c6ccccc6)c6ccc3[nH]6)C=C5)C=C4)cc1)CC(=O)N2
REMARK SMILES IDX 24 1 23 2 22 3 21 4 20 5 19 6 18 7 17 8 15 9 16 10 14 11
REMARK SMILES IDX 2 12 3 13 13 14 4 15 12 16 11 17 83 18 80 19 81 20 82 22
REMARK SMILES IDX 1 23 5 26 6 27 10 28 7 29 9 30 8 31 25 32 26 33 27 34 28 35
REMARK SMILES IDX 29 36 30 37 31 38 32 39 33 40 79 41 34 42 78 43 35 44 36 45
REMARK SMILES IDX 37 46 72 47 38 48 77 49 71 50 73 51 39 52 76 53 70 54 69 55
REMARK SMILES IDX 40 57 62 58 47 59 61 60 48 61 51 62 60 63 74 64 49 65 50 66
REMARK SMILES IDX 59 68 75 69 52 70 41 71 42 72 46 73 43 74 45 75 44 76 63 77
REMARK SMILES IDX 64 78 68 79 65 80 67 81 66 82 53 83 54 84 58 85 55 86 57 87
REMARK SMILES IDX 56 88
REMARK H PARENT 83 21 1 24 1 25 73 56 51 67
REMARK Flexibility Score: inf
ROOT
ATOM      1  C   UNL     1      -1.567   2.055  -4.340  1.00  0.00     0.188 C 
ENDROOT
BRANCH   1   2
ATOM      2  O   UNL     1      -1.222   1.085  -3.349  1.00  0.00    -0.377 OA
BRANCH   2   3
ATOM      3  C   UNL     1      -1.969  -0.119  -3.317  1.00  0.00     0.188 C 
BRANCH   3   4
ATOM      4  C   UNL     1      -3.416   0.044  -2.804  1.00  0.00     0.188 C 
BRANCH   4   5
ATOM      5  O   UNL     1      -3.818   1.405  -2.687  1.00  0.00    -0.376 OA
BRANCH   5   6
ATOM      6  C   UNL     1      -3.842   1.977  -1.388  1.00  0.00     0.202 C 
BRANCH   6   7
ATOM      7  C   UNL     1      -2.494   2.139  -0.667  1.00  0.00     0.261 C 
BRANCH   7   8
ATOM      8  O   UNL     1      -1.695   0.949  -0.575  1.00  0.00    -0.463 OA
BRANCH   8   9
ATOM      9  C   UNL     1      -2.225  -0.104   0.095  1.00  0.00     0.314 C 
ATOM     10  O   UNL     1      -3.268  -0.072   0.730  1.00  0.00    -0.252 OA
BRANCH   9  11
ATOM     11  C   UNL     1      -1.329  -1.329  -0.074  1.00  0.00     0.146 C 
ATOM     12  C   UNL     1       0.463  -0.884   1.630  1.00  0.00     0.135 A 
ATOM     13  N   UNL     1       0.876  -0.927   2.892  1.00  0.00    -0.196 NA
ATOM     14  C   UNL     1      -0.657  -1.567   1.227  1.00  0.00     0.052 A 
ATOM     15  C   UNL     1       0.166  -1.668   3.759  1.00  0.00     0.229 A 
ATOM     16  C   UNL     1      -1.293  -2.340   2.171  1.00  0.00     0.144 A 
ATOM     17  N   UNL     1      -0.883  -2.428   3.426  1.00  0.00    -0.195 NA
ATOM     18  N   UNL     1      -2.472  -3.005   1.842  1.00  0.00    -0.310 N 
ATOM     19  C   UNL     1      -2.107  -2.561  -0.520  1.00  0.00     0.120 C 
ATOM     20  C   UNL     1      -2.994  -3.079   0.583  1.00  0.00     0.226 C 
ATOM     21  H   UNL     1      -2.963  -3.452   2.568  1.00  0.00     0.171 HD
ATOM     22  O   UNL     1      -4.068  -3.626   0.349  1.00  0.00    -0.275 OA
BRANCH  12  23
ATOM     23  N   UNL     1       1.231  -0.140   0.754  1.00  0.00    -0.383 N 
ATOM     24  H   UNL     1       2.028   0.336   1.081  1.00  0.00     0.158 HD
ATOM     25  H   UNL     1       0.980  -0.087  -0.196  1.00  0.00     0.158 HD
ENDBRANCH  12  23
BRANCH  15  26
ATOM     26  N   UNL     1       0.461  -1.587   5.090  1.00  0.00    -0.341 N 
ATOM     27  C   UNL     1       0.812  -0.303   5.657  1.00  0.00     0.119 C 
ATOM     28  C   UNL     1       0.851  -2.810   5.756  1.00  0.00     0.119 C 
ATOM     29  C   UNL     1       2.301  -0.248   5.973  1.00  0.00     0.022 C 
ATOM     30  C   UNL     1       2.353  -2.766   6.038  1.00  0.00     0.022 C 
ATOM     31  C   UNL     1       2.733  -1.478   6.771  1.00  0.00     0.004 C 
ENDBRANCH  15  26
ENDBRANCH   9  11
ENDBRANCH   8   9
ENDBRANCH   7   8
ENDBRANCH   6   7
ENDBRANCH   5   6
ENDBRANCH   4   5
ENDBRANCH   3   4
ENDBRANCH   2   3
ENDBRANCH   1   2
BRANCH   1  32
ATOM     32  C   UNL     1      -2.815   1.899  -5.247  1.00  0.00     0.188 C 
BRANCH  32  33
ATOM     33  O   UNL     1      -3.155   0.560  -5.572  1.00  0.00    -0.376 OA
BRANCH  33  34
ATOM     34  C   UNL     1      -2.845   0.069  -6.864  1.00  0.00     0.202 C 
BRANCH  34  35
ATOM     35  C   UNL     1      -1.356  -0.067  -7.204  1.00  0.00     0.261 C 
BRANCH  35  36
ATOM     36  O   UNL     1      -0.577   1.133  -7.093  1.00  0.00    -0.460 OA
BRANCH  36  37
ATOM     37  C   UNL     1      -0.931   2.187  -7.860  1.00  0.00     0.338 C 
ATOM     38  O   UNL     1      -1.821   2.234  -8.690  1.00  0.00    -0.246 OA
BRANCH  37  39
ATOM     39  C   UNL     1      -0.180   3.355  -7.360  1.00  0.00     0.060 A 
ATOM     40  C   UNL     1      -0.883   4.463  -6.867  1.00  0.00     0.016 A 
ATOM     41  C   UNL     1       1.216   3.330  -7.335  1.00  0.00     0.016 A 
ATOM     42  C   UNL     1      -0.187   5.562  -6.367  1.00  0.00     0.010 A 
ATOM     43  C   UNL     1       1.912   4.443  -6.864  1.00  0.00     0.010 A 
ATOM     44  C   UNL     1       1.213   5.573  -6.409  1.00  0.00    -0.014 A 
BRANCH  44  45
ATOM     45  C   UNL     1       1.936   6.845  -6.193  1.00  0.00     0.031 A 
ATOM     46  C   UNL     1       2.268   7.678  -7.398  1.00  0.00     0.074 A 
ATOM     47  C   UNL     1       2.262   7.269  -4.961  1.00  0.00     0.049 A 
ATOM     48  N   UNL     1       2.893   8.823  -7.468  1.00  0.00    -0.248 NA
ATOM     49  C   UNL     1       1.831   7.145  -8.699  1.00  0.00     0.031 C 
ATOM     50  C   UNL     1       1.938   6.582  -3.714  1.00  0.00     0.029 A 
ATOM     51  N   UNL     1       2.937   8.397  -4.565  1.00  0.00    -0.354 N 
ATOM     52  C   UNL     1       2.916   9.152  -8.817  1.00  0.00     0.074 A 
ATOM     53  C   UNL     1       2.285   8.066  -9.533  1.00  0.00     0.031 C 
ATOM     54  C   UNL     1       2.407   7.310  -2.685  1.00  0.00     0.029 A 
ATOM     55  C   UNL     1       3.091   8.494  -3.205  1.00  0.00     0.049 A 
ATOM     56  H   UNL     1       3.277   9.071  -5.196  1.00  0.00     0.167 HD
ATOM     57  C   UNL     1       3.407  10.265  -9.408  1.00  0.00     0.031 A 
ATOM     58  C   UNL     1       3.720   9.429  -2.467  1.00  0.00     0.031 A 
ATOM     59  C   UNL     1       4.069  11.325  -8.700  1.00  0.00     0.049 A 
ATOM     60  C   UNL     1       4.371  10.601  -3.154  1.00  0.00     0.074 A 
ATOM     61  C   UNL     1       4.619  12.488  -9.208  1.00  0.00     0.029 A 
ATOM     62  N   UNL     1       4.282  11.344  -7.329  1.00  0.00    -0.354 N 
ATOM     63  N   UNL     1       4.384  10.907  -4.429  1.00  0.00    -0.248 NA
ATOM     64  C   UNL     1       5.091  11.557  -2.299  1.00  0.00     0.031 C 
ATOM     65  C   UNL     1       5.220  13.180  -8.152  1.00  0.00     0.029 A 
ATOM     66  C   UNL     1       4.982  12.484  -6.977  1.00  0.00     0.049 A 
ATOM     67  H   UNL     1       3.979  10.649  -6.701  1.00  0.00     0.167 HD
ATOM     68  C   UNL     1       5.086  12.103  -4.528  1.00  0.00     0.074 A 
ATOM     69  C   UNL     1       5.478  12.469  -3.182  1.00  0.00     0.031 C 
ATOM     70  C   UNL     1       5.372  12.833  -5.634  1.00  0.00     0.031 A 
BRANCH  57  71
ATOM     71  C   UNL     1       3.270  10.364 -10.901  1.00  0.00    -0.014 A 
ATOM     72  C   UNL     1       2.015  10.544 -11.506  1.00  0.00     0.009 A 
ATOM     73  C   UNL     1       4.411  10.285 -11.714  1.00  0.00     0.009 A 
ATOM     74  C   UNL     1       1.902  10.602 -12.897  1.00  0.00     0.001 A 
ATOM     75  C   UNL     1       4.298  10.377 -13.103  1.00  0.00     0.001 A 
ATOM     76  C   UNL     1       3.044  10.524 -13.693  1.00  0.00     0.000 A 
ENDBRANCH  57  71
BRANCH  58  77
ATOM     77  C   UNL     1       3.740   9.300  -0.987  1.00  0.00    -0.014 A 
ATOM     78  C   UNL     1       2.971  10.160  -0.190  1.00  0.00     0.009 A 
ATOM     79  C   UNL     1       4.491   8.289  -0.365  1.00  0.00     0.009 A 
ATOM     80  C   UNL     1       2.952  10.011   1.199  1.00  0.00     0.001 A 
ATOM     81  C   UNL     1       4.451   8.126   1.022  1.00  0.00     0.001 A 
ATOM     82  C   UNL     1       3.683   8.988   1.803  1.00  0.00     0.000 A 
ENDBRANCH  58  77
BRANCH  70  83
ATOM     83  C   UNL     1       6.128  14.121  -5.452  1.00  0.00    -0.014 A 
ATOM     84  C   UNL     1       7.497  14.125  -5.146  1.00  0.00     0.009 A 
ATOM     85  C   UNL     1       5.481  15.345  -5.690  1.00  0.00     0.009 A 
ATOM     86  C   UNL     1       8.199  15.331  -5.069  1.00  0.00     0.001 A 
ATOM     87  C   UNL     1       6.191  16.545  -5.641  1.00  0.00     0.001 A 
ATOM     88  C   UNL     1       7.548  16.537  -5.326  1.00  0.00     0.000 A 
ENDBRANCH  70  83
ENDBRANCH  44  45
ENDBRANCH  37  39
ENDBRANCH  36  37
ENDBRANCH  35  36
ENDBRANCH  34  35
ENDBRANCH  33  34
ENDBRANCH  32  33
ENDBRANCH   1  32
TORSDOF 22
