REMARK SMILES CC[C@@H](C)C[C@@H](C)[NH2+]Cc1ccc(C(=O)OCCOCCOCCOCCOC(=O)c2ccc(-c3c4nc(c(-c5ccccc5)c5ccc([nH]5)c(-c5ccccc5)c5nc(c(-c6ccccc6)c6ccc3[nH]6)C=C5)C=C4)cc2)cn1
REMARK SMILES IDX 20 1 19 2 18 3 17 4 16 5 14 6 15 7 13 8 10 9 11 10 80 11
REMARK SMILES IDX 12 12 79 13 9 14 8 15 6 18 7 19 5 20 3 21 4 22 2 23 1 24
REMARK SMILES IDX 21 25 22 26 23 27 24 28 25 29 26 30 27 31 28 32 29 33 30 34
REMARK SMILES IDX 31 35 32 36 78 37 33 38 77 39 34 40 35 41 36 42 71 43 37 44
REMARK SMILES IDX 76 45 70 46 72 47 38 48 75 49 69 50 68 51 39 53 61 54 46 55
REMARK SMILES IDX 60 56 47 57 50 58 59 59 73 60 48 61 49 62 58 64 74 65 51 66
REMARK SMILES IDX 40 67 41 68 45 69 42 70 44 71 43 72 62 73 63 74 67 75 64 76
REMARK SMILES IDX 66 77 65 78 52 79 53 80 57 81 54 82 56 83 55 84
REMARK H PARENT 8 16 8 17 72 52 50 63
REMARK Flexibility Score: inf
ROOT
ATOM      1  C   UNL     1       7.719  -2.473   7.611  1.00  0.00     0.188 C 
ENDROOT
BRANCH   1   2
ATOM      2  O   UNL     1       9.082  -2.167   7.381  1.00  0.00    -0.376 OA
BRANCH   2   3
ATOM      3  C   UNL     1       9.526  -1.583   6.171  1.00  0.00     0.202 C 
BRANCH   3   4
ATOM      4  C   UNL     1       8.802  -0.432   5.449  1.00  0.00     0.261 C 
BRANCH   4   5
ATOM      5  O   UNL     1       7.414  -0.277   5.718  1.00  0.00    -0.460 OA
BRANCH   5   6
ATOM      6  C   UNL     1       6.574  -1.064   5.021  1.00  0.00     0.339 C 
ATOM      7  O   UNL     1       6.862  -1.829   4.118  1.00  0.00    -0.246 OA
BRANCH   6   8
ATOM      8  C   UNL     1       5.258  -1.012   5.678  1.00  0.00     0.078 A 
ATOM      9  C   UNL     1       2.705  -1.060   6.636  1.00  0.00     0.094 A 
ATOM     10  C   UNL     1       3.463   0.099   6.825  1.00  0.00     0.031 A 
ATOM     11  N   UNL     1       3.250  -2.231   6.209  1.00  0.00    -0.254 NA
ATOM     12  C   UNL     1       4.755   0.130   6.308  1.00  0.00     0.019 A 
ATOM     13  C   UNL     1       4.511  -2.178   5.726  1.00  0.00     0.127 A 
BRANCH   9  14
ATOM     14  C   UNL     1       1.191  -0.952   6.536  1.00  0.00     0.318 C 
BRANCH  14  15
ATOM     15  N   UNL     1       0.719   0.126   5.639  1.00  0.00    -0.339 N 
ATOM     16  H   UNL     1      -0.289   0.213   5.770  1.00  0.00     0.346 HD
ATOM     17  H   UNL     1       1.264   0.945   5.905  1.00  0.00     0.346 HD
BRANCH  15  18
ATOM     18  C   UNL     1       0.966  -0.040   4.188  1.00  0.00     0.179 C 
ATOM     19  C   UNL     1       2.424  -0.231   3.758  1.00  0.00     0.075 C 
BRANCH  18  20
ATOM     20  C   UNL     1       0.390   1.220   3.488  1.00  0.00     0.068 C 
BRANCH  20  21
ATOM     21  C   UNL     1       0.758   1.385   1.992  1.00  0.00    -0.009 C 
ATOM     22  C   UNL     1       0.179   2.694   1.454  1.00  0.00     0.008 C 
BRANCH  21  23
ATOM     23  C   UNL     1       0.319   0.169   1.153  1.00  0.00    -0.000 C 
ATOM     24  C   UNL     1       0.957   0.137  -0.229  1.00  0.00     0.004 C 
ENDBRANCH  21  23
ENDBRANCH  20  21
ENDBRANCH  18  20
ENDBRANCH  15  18
ENDBRANCH  14  15
ENDBRANCH   9  14
ENDBRANCH   6   8
ENDBRANCH   5   6
ENDBRANCH   4   5
ENDBRANCH   3   4
ENDBRANCH   2   3
ENDBRANCH   1   2
BRANCH   1  25
ATOM     25  C   UNL     1       7.000  -1.425   8.484  1.00  0.00     0.188 C 
BRANCH  25  26
ATOM     26  O   UNL     1       7.594  -0.137   8.498  1.00  0.00    -0.377 OA
BRANCH  26  27
ATOM     27  C   UNL     1       8.836   0.034   9.181  1.00  0.00     0.188 C 
BRANCH  27  28
ATOM     28  C   UNL     1       9.584  -1.133   9.880  1.00  0.00     0.188 C 
BRANCH  28  29
ATOM     29  O   UNL     1       8.774  -2.224  10.282  1.00  0.00    -0.376 OA
BRANCH  29  30
ATOM     30  C   UNL     1       8.432  -2.355  11.650  1.00  0.00     0.202 C 
BRANCH  30  31
ATOM     31  C   UNL     1       7.581  -1.240  12.272  1.00  0.00     0.261 C 
BRANCH  31  32
ATOM     32  O   UNL     1       8.102   0.091  12.146  1.00  0.00    -0.460 OA
BRANCH  32  33
ATOM     33  C   UNL     1       9.278   0.352  12.764  1.00  0.00     0.338 C 
ATOM     34  O   UNL     1       9.941  -0.403  13.438  1.00  0.00    -0.246 OA
BRANCH  33  35
ATOM     35  C   UNL     1       9.721   1.690  12.314  1.00  0.00     0.060 A 
ATOM     36  C   UNL     1      10.931   1.807  11.618  1.00  0.00     0.016 A 
ATOM     37  C   UNL     1       8.938   2.817  12.570  1.00  0.00     0.016 A 
ATOM     38  C   UNL     1      11.379   3.061  11.204  1.00  0.00     0.010 A 
ATOM     39  C   UNL     1       9.398   4.074  12.176  1.00  0.00     0.010 A 
ATOM     40  C   UNL     1      10.637   4.205  11.523  1.00  0.00    -0.014 A 
BRANCH  40  41
ATOM     41  C   UNL     1      11.244   5.547  11.355  1.00  0.00     0.031 A 
ATOM     42  C   UNL     1      11.861   6.204  12.560  1.00  0.00     0.074 A 
ATOM     43  C   UNL     1      11.266   6.166  10.162  1.00  0.00     0.049 A 
ATOM     44  N   UNL     1      12.405   7.388  12.674  1.00  0.00    -0.248 NA
ATOM     45  C   UNL     1      11.862   5.417  13.804  1.00  0.00     0.031 C 
ATOM     46  C   UNL     1      10.750   5.616   8.911  1.00  0.00     0.029 A 
ATOM     47  N   UNL     1      11.742   7.406   9.817  1.00  0.00    -0.354 N 
ATOM     48  C   UNL     1      12.801   7.491  14.002  1.00  0.00     0.074 A 
ATOM     49  C   UNL     1      12.407   6.266  14.661  1.00  0.00     0.031 C 
ATOM     50  C   UNL     1      10.931   6.521   7.932  1.00  0.00     0.029 A 
ATOM     51  C   UNL     1      11.538   7.725   8.497  1.00  0.00     0.049 A 
ATOM     52  H   UNL     1      12.187   8.010  10.454  1.00  0.00     0.167 HD
ATOM     53  C   UNL     1      13.439   8.514  14.618  1.00  0.00     0.031 A 
ATOM     54  C   UNL     1      11.790   8.868   7.829  1.00  0.00     0.031 A 
ATOM     55  C   UNL     1      13.813   9.741  13.968  1.00  0.00     0.049 A 
ATOM     56  C   UNL     1      12.415  10.029   8.560  1.00  0.00     0.074 A 
ATOM     57  C   UNL     1      14.474  10.832  14.503  1.00  0.00     0.029 A 
ATOM     58  N   UNL     1      13.546  10.043  12.642  1.00  0.00    -0.354 N 
ATOM     59  N   UNL     1      12.810  10.107   9.809  1.00  0.00    -0.248 NA
ATOM     60  C   UNL     1      12.635  11.258   7.784  1.00  0.00     0.031 C 
ATOM     61  C   UNL     1      14.545  11.823  13.518  1.00  0.00     0.029 A 
ATOM     62  C   UNL     1      13.998  11.319  12.349  1.00  0.00     0.049 A 
ATOM     63  H   UNL     1      13.102   9.440  12.003  1.00  0.00     0.167 HD
ATOM     64  C   UNL     1      13.352  11.379   9.958  1.00  0.00     0.074 A 
ATOM     65  C   UNL     1      13.251  12.030   8.668  1.00  0.00     0.031 C 
ATOM     66  C   UNL     1      13.889  11.956  11.062  1.00  0.00     0.031 A 
BRANCH  53  67
ATOM     67  C   UNL     1      13.731   8.361  16.086  1.00  0.00    -0.014 A 
ATOM     68  C   UNL     1      14.686   7.444  16.553  1.00  0.00     0.009 A 
ATOM     69  C   UNL     1      13.055   9.168  17.014  1.00  0.00     0.009 A 
ATOM     70  C   UNL     1      14.929   7.312  17.922  1.00  0.00     0.001 A 
ATOM     71  C   UNL     1      13.324   9.058  18.379  1.00  0.00     0.001 A 
ATOM     72  C   UNL     1      14.253   8.123  18.833  1.00  0.00     0.000 A 
ENDBRANCH  53  67
BRANCH  54  73
ATOM     73  C   UNL     1      11.429   8.990   6.391  1.00  0.00    -0.014 A 
ATOM     74  C   UNL     1      12.424   9.116   5.409  1.00  0.00     0.009 A 
ATOM     75  C   UNL     1      10.082   9.014   5.995  1.00  0.00     0.009 A 
ATOM     76  C   UNL     1      12.077   9.290   4.066  1.00  0.00     0.001 A 
ATOM     77  C   UNL     1       9.739   9.155   4.649  1.00  0.00     0.001 A 
ATOM     78  C   UNL     1      10.736   9.304   3.687  1.00  0.00     0.000 A 
ENDBRANCH  54  73
BRANCH  66  79
ATOM     79  C   UNL     1      14.447  13.346  10.917  1.00  0.00    -0.014 A 
ATOM     80  C   UNL     1      13.612  14.458  10.727  1.00  0.00     0.009 A 
ATOM     81  C   UNL     1      15.833  13.549  11.019  1.00  0.00     0.009 A 
ATOM     82  C   UNL     1      14.157  15.739  10.605  1.00  0.00     0.001 A 
ATOM     83  C   UNL     1      16.372  14.834  10.932  1.00  0.00     0.001 A 
ATOM     84  C   UNL     1      15.535  15.926  10.714  1.00  0.00     0.000 A 
ENDBRANCH  66  79
ENDBRANCH  40  41
ENDBRANCH  33  35
ENDBRANCH  32  33
ENDBRANCH  31  32
ENDBRANCH  30  31
ENDBRANCH  29  30
ENDBRANCH  28  29
ENDBRANCH  27  28
ENDBRANCH  26  27
ENDBRANCH  25  26
ENDBRANCH   1  25
TORSDOF 26
