REMARK SMILES O=C(OCCOCCOCCOCCOC(=O)c1nn(Cc2ccc(F)cc2)c2c1CN(C(=O)[C@H]1CC1(F)F)CC2)c1ccc(-c2c3nc(c(-c4ccccc4)c4ccc([nH]4)c(-c4ccccc4)c4nc(c(-c5ccccc5)c5ccc2[nH]5)C=C4)C=C3)cc1
REMARK SMILES IDX 9 1 8 2 7 3 6 4 5 5 4 6 3 7 2 8 1 9 42 10 43 11 89 12 44 13
REMARK SMILES IDX 88 14 45 15 46 16 47 17 82 18 48 19 87 20 81 21 83 22 49 23
REMARK SMILES IDX 86 24 80 25 79 26 50 28 72 29 57 30 71 31 58 32 61 33 70 34
REMARK SMILES IDX 84 35 59 36 60 37 69 39 85 40 62 41 51 42 52 43 56 44 53 45
REMARK SMILES IDX 55 46 54 47 73 48 74 49 78 50 75 51 77 52 76 53 63 54 64 55
REMARK SMILES IDX 68 56 65 57 67 58 66 59 10 60 11 61 12 62 13 63 14 64 15 65
REMARK SMILES IDX 16 66 17 67 18 68 19 69 30 70 20 71 29 72 31 73 41 74 32 75
REMARK SMILES IDX 40 76 21 77 22 78 23 79 28 80 24 81 27 82 25 83 26 84 33 85
REMARK SMILES IDX 34 86 35 87 36 88 37 89 38 90 39 91
REMARK H PARENT 83 27 61 38
REMARK Flexibility Score: inf
ROOT
ATOM      1  O   UNL     1      17.183  -3.054   0.748  1.00  0.00    -0.377 OA
ENDROOT
BRANCH   1   2
ATOM      2  C   UNL     1      16.904  -3.580  -0.536  1.00  0.00     0.188 C 
BRANCH   2   3
ATOM      3  C   UNL     1      16.543  -2.584  -1.654  1.00  0.00     0.188 C 
BRANCH   3   4
ATOM      4  O   UNL     1      15.423  -1.710  -1.677  1.00  0.00    -0.376 OA
BRANCH   4   5
ATOM      5  C   UNL     1      14.107  -1.886  -1.198  1.00  0.00     0.202 C 
BRANCH   5   6
ATOM      6  C   UNL     1      13.292  -3.168  -1.345  1.00  0.00     0.261 C 
BRANCH   6   7
ATOM      7  O   UNL     1      14.058  -4.357  -1.413  1.00  0.00    -0.460 OA
BRANCH   7   8
ATOM      8  C   UNL     1      14.604  -4.921  -2.507  1.00  0.00     0.338 C 
ATOM      9  O   UNL     1      15.163  -6.008  -2.371  1.00  0.00    -0.246 OA
BRANCH   8  10
ATOM     10  C   UNL     1      14.633  -4.289  -3.859  1.00  0.00     0.060 A 
ATOM     11  C   UNL     1      13.934  -3.155  -4.281  1.00  0.00     0.016 A 
ATOM     12  C   UNL     1      15.453  -4.955  -4.791  1.00  0.00     0.016 A 
ATOM     13  C   UNL     1      13.861  -2.839  -5.623  1.00  0.00     0.010 A 
ATOM     14  C   UNL     1      15.420  -4.622  -6.129  1.00  0.00     0.010 A 
ATOM     15  C   UNL     1      14.539  -3.633  -6.538  1.00  0.00    -0.014 A 
BRANCH  15  16
ATOM     16  C   UNL     1      14.276  -3.393  -7.939  1.00  0.00     0.031 A 
ATOM     17  C   UNL     1      14.725  -2.072  -8.438  1.00  0.00     0.074 A 
ATOM     18  C   UNL     1      13.683  -4.336  -8.694  1.00  0.00     0.049 A 
ATOM     19  N   UNL     1      14.000  -1.123  -8.931  1.00  0.00    -0.248 NA
ATOM     20  C   UNL     1      16.139  -1.716  -8.244  1.00  0.00     0.031 C 
ATOM     21  C   UNL     1      13.413  -5.737  -8.353  1.00  0.00     0.029 A 
ATOM     22  N   UNL     1      13.292  -4.258  -9.990  1.00  0.00    -0.354 N 
ATOM     23  C   UNL     1      14.888  -0.109  -9.274  1.00  0.00     0.074 A 
ATOM     24  C   UNL     1      16.163  -0.467  -8.707  1.00  0.00     0.031 C 
ATOM     25  C   UNL     1      13.153  -6.426  -9.487  1.00  0.00     0.029 A 
ATOM     26  C   UNL     1      13.091  -5.489 -10.595  1.00  0.00     0.049 A 
ATOM     27  H   UNL     1      13.163  -3.402 -10.460  1.00  0.00     0.167 HD
ATOM     28  C   UNL     1      14.568   0.842 -10.193  1.00  0.00     0.031 A 
ATOM     29  C   UNL     1      12.963  -5.716 -11.925  1.00  0.00     0.031 A 
ATOM     30  C   UNL     1      13.147   0.955 -10.380  1.00  0.00     0.049 A 
ATOM     31  C   UNL     1      12.605  -4.428 -12.564  1.00  0.00     0.074 A 
ATOM     32  C   UNL     1      12.093   1.306  -9.560  1.00  0.00     0.029 A 
ATOM     33  N   UNL     1      12.590   0.301 -11.452  1.00  0.00    -0.354 N 
ATOM     34  N   UNL     1      11.465  -3.830 -12.371  1.00  0.00    -0.248 NA
ATOM     35  C   UNL     1      13.686  -3.574 -13.033  1.00  0.00     0.031 C 
ATOM     36  C   UNL     1      11.035   0.423  -9.927  1.00  0.00     0.029 A 
ATOM     37  C   UNL     1      11.477  -0.360 -10.995  1.00  0.00     0.049 A 
ATOM     38  H   UNL     1      12.926   0.306 -12.377  1.00  0.00     0.167 HD
ATOM     39  C   UNL     1      11.785  -2.484 -12.262  1.00  0.00     0.074 A 
ATOM     40  C   UNL     1      13.151  -2.377 -12.773  1.00  0.00     0.031 C 
ATOM     41  C   UNL     1      11.027  -1.637 -11.505  1.00  0.00     0.031 A 
BRANCH  28  42
ATOM     42  C   UNL     1      15.567   1.368 -11.188  1.00  0.00    -0.014 A 
ATOM     43  C   UNL     1      15.192   2.403 -12.060  1.00  0.00     0.009 A 
ATOM     44  C   UNL     1      16.771   0.695 -11.481  1.00  0.00     0.009 A 
ATOM     45  C   UNL     1      15.956   2.707 -13.195  1.00  0.00     0.001 A 
ATOM     46  C   UNL     1      17.555   1.022 -12.589  1.00  0.00     0.001 A 
ATOM     47  C   UNL     1      17.133   2.013 -13.461  1.00  0.00     0.000 A 
ENDBRANCH  28  42
BRANCH  29  48
ATOM     48  C   UNL     1      13.460  -6.876 -12.696  1.00  0.00    -0.014 A 
ATOM     49  C   UNL     1      12.996  -7.130 -13.995  1.00  0.00     0.009 A 
ATOM     50  C   UNL     1      14.596  -7.582 -12.256  1.00  0.00     0.009 A 
ATOM     51  C   UNL     1      13.666  -8.030 -14.835  1.00  0.00     0.001 A 
ATOM     52  C   UNL     1      15.263  -8.482 -13.093  1.00  0.00     0.001 A 
ATOM     53  C   UNL     1      14.806  -8.695 -14.388  1.00  0.00     0.000 A 
ENDBRANCH  29  48
BRANCH  41  54
ATOM     54  C   UNL     1       9.726  -2.166 -10.944  1.00  0.00    -0.014 A 
ATOM     55  C   UNL     1       9.659  -3.253 -10.052  1.00  0.00     0.009 A 
ATOM     56  C   UNL     1       8.547  -1.454 -11.206  1.00  0.00     0.009 A 
ATOM     57  C   UNL     1       8.444  -3.632  -9.469  1.00  0.00     0.001 A 
ATOM     58  C   UNL     1       7.339  -1.819 -10.608  1.00  0.00     0.001 A 
ATOM     59  C   UNL     1       7.285  -2.911  -9.745  1.00  0.00     0.000 A 
ENDBRANCH  41  54
ENDBRANCH  15  16
ENDBRANCH   8  10
ENDBRANCH   7   8
ENDBRANCH   6   7
ENDBRANCH   5   6
ENDBRANCH   4   5
ENDBRANCH   3   4
ENDBRANCH   2   3
ENDBRANCH   1   2
BRANCH   1  60
ATOM     60  C   UNL     1      16.119  -2.333   1.320  1.00  0.00     0.188 C 
BRANCH  60  61
ATOM     61  C   UNL     1      16.265  -0.803   1.176  1.00  0.00     0.188 C 
BRANCH  61  62
ATOM     62  O   UNL     1      17.409  -0.218   0.582  1.00  0.00    -0.376 OA
BRANCH  62  63
ATOM     63  C   UNL     1      18.697  -0.776   0.758  1.00  0.00     0.202 C 
BRANCH  63  64
ATOM     64  C   UNL     1      19.227  -1.174   2.147  1.00  0.00     0.261 C 
BRANCH  64  65
ATOM     65  O   UNL     1      18.290  -1.658   3.112  1.00  0.00    -0.458 OA
BRANCH  65  66
ATOM     66  C   UNL     1      17.684  -0.729   3.910  1.00  0.00     0.359 C 
ATOM     67  O   UNL     1      17.851   0.483   3.821  1.00  0.00    -0.244 OA
BRANCH  66  68
ATOM     68  C   UNL     1      16.710  -1.347   4.821  1.00  0.00     0.175 A 
ATOM     69  N   UNL     1      17.122  -2.243   5.741  1.00  0.00    -0.165 NA
ATOM     70  C   UNL     1      15.293  -1.158   4.903  1.00  0.00     0.028 A 
ATOM     71  N   UNL     1      16.014  -2.574   6.432  1.00  0.00    -0.264 N 
ATOM     72  C   UNL     1      14.897  -1.961   5.955  1.00  0.00     0.046 A 
ATOM     73  C   UNL     1      14.330  -0.341   4.095  1.00  0.00     0.159 C 
ATOM     74  C   UNL     1      13.512  -2.052   6.484  1.00  0.00     0.078 C 
ATOM     75  N   UNL     1      13.027  -0.286   4.789  1.00  0.00    -0.337 N 
ATOM     76  C   UNL     1      12.543  -1.539   5.404  1.00  0.00     0.126 C 
BRANCH  71  77
ATOM     77  C   UNL     1      16.149  -3.360   7.652  1.00  0.00     0.180 C 
BRANCH  77  78
ATOM     78  C   UNL     1      16.271  -4.841   7.393  1.00  0.00    -0.026 A 
ATOM     79  C   UNL     1      17.425  -5.367   6.785  1.00  0.00     0.008 A 
ATOM     80  C   UNL     1      15.265  -5.724   7.817  1.00  0.00     0.008 A 
ATOM     81  C   UNL     1      17.580  -6.744   6.626  1.00  0.00     0.039 A 
ATOM     82  C   UNL     1      15.423  -7.102   7.658  1.00  0.00     0.039 A 
ATOM     83  C   UNL     1      16.581  -7.599   7.072  1.00  0.00     0.123 A 
ATOM     84  F   UNL     1      16.738  -8.923   6.943  1.00  0.00    -0.207 F 
ENDBRANCH  77  78
ENDBRANCH  71  77
BRANCH  75  85
ATOM     85  C   UNL     1      12.294   0.890   4.730  1.00  0.00     0.232 C 
ATOM     86  O   UNL     1      12.605   1.844   4.022  1.00  0.00    -0.274 OA
BRANCH  85  87
ATOM     87  C   UNL     1      11.068   0.961   5.550  1.00  0.00     0.154 C 
ATOM     88  C   UNL     1      11.189   1.072   7.064  1.00  0.00     0.097 C 
ATOM     89  C   UNL     1      10.695   2.210   6.254  1.00  0.00     0.260 C 
ATOM     90  F   UNL     1      11.440   3.363   6.202  1.00  0.00    -0.206 F 
ATOM     91  F   UNL     1       9.374   2.581   6.377  1.00  0.00    -0.206 F 
ENDBRANCH  85  87
ENDBRANCH  75  85
ENDBRANCH  66  68
ENDBRANCH  65  66
ENDBRANCH  64  65
ENDBRANCH  63  64
ENDBRANCH  62  63
ENDBRANCH  61  62
ENDBRANCH  60  61
ENDBRANCH   1  60
TORSDOF 24
