REMARK SMILES CCCC[C@@](CC)(C[C@H]1CCOC1)C(=O)OCCOCCOCCOCCOC(=O)c1ccc(-c2c3nc(c(-c4ccccc4)c4ccc([nH]4)c(-c4ccccc4)c4nc(c(-c5ccccc5)c5ccc2[nH]5)C=C4)C=C3)cc1
REMARK SMILES IDX 21 1 20 2 19 3 18 4 17 5 16 6 14 7 15 8 5 9 4 10 3 11 2 12
REMARK SMILES IDX 1 13 6 14 7 15 8 16 9 17 10 18 13 19 11 20 12 21 22 22 23 23
REMARK SMILES IDX 24 24 25 25 26 26 27 27 28 28 29 29 30 30 31 31 32 32 78 33
REMARK SMILES IDX 33 34 77 35 34 36 35 37 36 38 71 39 37 40 76 41 70 42 72 43
REMARK SMILES IDX 38 44 75 45 69 46 68 47 39 49 61 50 46 51 60 52 47 53 50 54
REMARK SMILES IDX 59 55 73 56 48 57 49 58 58 60 74 61 51 62 40 63 41 64 45 65
REMARK SMILES IDX 42 66 44 67 43 68 62 69 63 70 67 71 64 72 66 73 65 74 52 75
REMARK SMILES IDX 53 76 57 77 54 78 56 79 55 80
REMARK H PARENT 72 48 50 59
REMARK Flexibility Score: inf
ROOT
ATOM      1  C   UNL     1      -1.922  -6.230   0.730  1.00  0.00     0.188 C 
ENDROOT
BRANCH   1   2
ATOM      2  C   UNL     1      -1.942  -6.736  -0.714  1.00  0.00     0.188 C 
BRANCH   2   3
ATOM      3  O   UNL     1      -1.735  -8.111  -0.997  1.00  0.00    -0.376 OA
BRANCH   3   4
ATOM      4  C   UNL     1      -0.811  -8.855  -0.217  1.00  0.00     0.202 C 
BRANCH   4   5
ATOM      5  C   UNL     1       0.599  -8.303   0.092  1.00  0.00     0.261 C 
BRANCH   5   6
ATOM      6  O   UNL     1       0.689  -6.901   0.439  1.00  0.00    -0.463 OA
BRANCH   6   7
ATOM      7  C   UNL     1       1.419  -6.118  -0.385  1.00  0.00     0.312 C 
ATOM      8  O   UNL     1       2.057  -6.583  -1.327  1.00  0.00    -0.252 OA
BRANCH   7   9
ATOM      9  C   UNL     1       1.422  -4.582  -0.062  1.00  0.00     0.068 C 
BRANCH   9  10
ATOM     10  C   UNL     1       0.670  -3.831  -1.213  1.00  0.00     0.019 C 
BRANCH  10  11
ATOM     11  C   UNL     1       1.072  -4.043  -2.689  1.00  0.00     0.001 C 
BRANCH  11  12
ATOM     12  C   UNL     1       0.361  -5.164  -3.471  1.00  0.00    -0.003 C 
ATOM     13  C   UNL     1      -1.147  -5.013  -3.646  1.00  0.00     0.004 C 
ENDBRANCH  11  12
ENDBRANCH  10  11
ENDBRANCH   9  10
BRANCH   9  14
ATOM     14  C   UNL     1       2.968  -4.315  -0.042  1.00  0.00     0.015 C 
ATOM     15  C   UNL     1       3.439  -2.876   0.038  1.00  0.00     0.005 C 
ENDBRANCH   9  14
BRANCH   9  16
ATOM     16  C   UNL     1       0.849  -4.143   1.375  1.00  0.00     0.024 C 
BRANCH  16  17
ATOM     17  C   UNL     1      -0.461  -3.299   1.489  1.00  0.00     0.018 C 
ATOM     18  C   UNL     1      -1.210  -3.494   2.807  1.00  0.00     0.034 C 
ATOM     19  C   UNL     1      -0.321  -1.778   1.513  1.00  0.00     0.163 C 
ATOM     20  C   UNL     1      -2.210  -2.358   2.754  1.00  0.00     0.160 C 
ATOM     21  O   UNL     1      -1.527  -1.267   2.122  1.00  0.00    -0.381 OA
ENDBRANCH  16  17
ENDBRANCH   9  16
ENDBRANCH   7   9
ENDBRANCH   6   7
ENDBRANCH   5   6
ENDBRANCH   4   5
ENDBRANCH   3   4
ENDBRANCH   2   3
ENDBRANCH   1   2
BRANCH   1  22
ATOM     22  O   UNL     1      -1.693  -7.214   1.714  1.00  0.00    -0.377 OA
BRANCH  22  23
ATOM     23  C   UNL     1      -2.833  -7.704   2.391  1.00  0.00     0.188 C 
BRANCH  23  24
ATOM     24  C   UNL     1      -4.125  -7.865   1.573  1.00  0.00     0.188 C 
BRANCH  24  25
ATOM     25  O   UNL     1      -4.486  -6.678   0.882  1.00  0.00    -0.376 OA
BRANCH  25  26
ATOM     26  C   UNL     1      -5.477  -5.813   1.402  1.00  0.00     0.202 C 
BRANCH  26  27
ATOM     27  C   UNL     1      -5.309  -5.136   2.775  1.00  0.00     0.261 C 
BRANCH  27  28
ATOM     28  O   UNL     1      -4.713  -5.898   3.829  1.00  0.00    -0.460 OA
BRANCH  28  29
ATOM     29  C   UNL     1      -5.457  -6.869   4.392  1.00  0.00     0.338 C 
ATOM     30  O   UNL     1      -6.610  -7.164   4.108  1.00  0.00    -0.246 OA
BRANCH  29  31
ATOM     31  C   UNL     1      -4.577  -7.675   5.268  1.00  0.00     0.060 A 
ATOM     32  C   UNL     1      -4.465  -9.047   5.008  1.00  0.00     0.016 A 
ATOM     33  C   UNL     1      -3.847  -7.092   6.310  1.00  0.00     0.016 A 
ATOM     34  C   UNL     1      -3.659  -9.849   5.814  1.00  0.00     0.010 A 
ATOM     35  C   UNL     1      -3.064  -7.903   7.139  1.00  0.00     0.010 A 
ATOM     36  C   UNL     1      -3.003  -9.290   6.918  1.00  0.00    -0.014 A 
BRANCH  36  37
ATOM     37  C   UNL     1      -2.480 -10.198   7.966  1.00  0.00     0.031 A 
ATOM     38  C   UNL     1      -3.382 -10.520   9.127  1.00  0.00     0.074 A 
ATOM     39  C   UNL     1      -1.271 -10.777   7.864  1.00  0.00     0.049 A 
ATOM     40  N   UNL     1      -3.169 -11.297  10.157  1.00  0.00    -0.248 NA
ATOM     41  C   UNL     1      -4.708  -9.878   9.120  1.00  0.00     0.031 C 
ATOM     42  C   UNL     1      -0.333 -10.594   6.758  1.00  0.00     0.029 A 
ATOM     43  N   UNL     1      -0.631 -11.646   8.711  1.00  0.00    -0.354 N 
ATOM     44  C   UNL     1      -4.331 -11.236  10.917  1.00  0.00     0.074 A 
ATOM     45  C   UNL     1      -5.230 -10.320  10.252  1.00  0.00     0.031 C 
ATOM     46  C   UNL     1       0.769 -11.327   6.999  1.00  0.00     0.029 A 
ATOM     47  C   UNL     1       0.625 -12.004   8.287  1.00  0.00     0.049 A 
ATOM     48  H   UNL     1      -1.035 -11.982   9.544  1.00  0.00     0.167 HD
ATOM     49  C   UNL     1      -4.628 -11.888  12.065  1.00  0.00     0.031 A 
ATOM     50  C   UNL     1       1.555 -12.775   8.883  1.00  0.00     0.031 A 
ATOM     51  C   UNL     1      -3.722 -12.776  12.740  1.00  0.00     0.049 A 
ATOM     52  C   UNL     1       1.240 -13.413  10.212  1.00  0.00     0.074 A 
ATOM     53  C   UNL     1      -3.922 -13.486  13.910  1.00  0.00     0.029 A 
ATOM     54  N   UNL     1      -2.436 -13.065  12.308  1.00  0.00    -0.354 N 
ATOM     55  N   UNL     1       0.132 -13.366  10.912  1.00  0.00    -0.248 NA
ATOM     56  C   UNL     1       2.305 -14.219  10.828  1.00  0.00     0.031 C 
ATOM     57  C   UNL     1      -2.733 -14.153  14.221  1.00  0.00     0.029 A 
ATOM     58  C   UNL     1      -1.818 -13.917  13.206  1.00  0.00     0.049 A 
ATOM     59  H   UNL     1      -2.025 -12.715  11.485  1.00  0.00     0.167 HD
ATOM     60  C   UNL     1       0.354 -14.159  12.033  1.00  0.00     0.074 A 
ATOM     61  C   UNL     1       1.697 -14.686  11.910  1.00  0.00     0.031 C 
ATOM     62  C   UNL     1      -0.479 -14.429  13.069  1.00  0.00     0.031 A 
BRANCH  49  63
ATOM     63  C   UNL     1      -5.972 -11.618  12.682  1.00  0.00    -0.014 A 
ATOM     64  C   UNL     1      -7.159 -12.070  12.083  1.00  0.00     0.009 A 
ATOM     65  C   UNL     1      -6.051 -10.907  13.890  1.00  0.00     0.009 A 
ATOM     66  C   UNL     1      -8.398 -11.781  12.661  1.00  0.00     0.001 A 
ATOM     67  C   UNL     1      -7.288 -10.647  14.481  1.00  0.00     0.001 A 
ATOM     68  C   UNL     1      -8.460 -11.074  13.861  1.00  0.00     0.000 A 
ENDBRANCH  49  63
BRANCH  50  69
ATOM     69  C   UNL     1       2.885 -12.969   8.245  1.00  0.00    -0.014 A 
ATOM     70  C   UNL     1       3.276 -14.226   7.759  1.00  0.00     0.009 A 
ATOM     71  C   UNL     1       3.783 -11.895   8.139  1.00  0.00     0.009 A 
ATOM     72  C   UNL     1       4.546 -14.408   7.204  1.00  0.00     0.001 A 
ATOM     73  C   UNL     1       5.040 -12.071   7.555  1.00  0.00     0.001 A 
ATOM     74  C   UNL     1       5.424 -13.330   7.097  1.00  0.00     0.000 A 
ENDBRANCH  50  69
BRANCH  62  75
ATOM     75  C   UNL     1       0.022 -15.368  14.132  1.00  0.00    -0.014 A 
ATOM     76  C   UNL     1       1.027 -14.987  15.034  1.00  0.00     0.009 A 
ATOM     77  C   UNL     1      -0.561 -16.639  14.263  1.00  0.00     0.009 A 
ATOM     78  C   UNL     1       1.463 -15.873  16.022  1.00  0.00     0.001 A 
ATOM     79  C   UNL     1      -0.148 -17.510  15.272  1.00  0.00     0.001 A 
ATOM     80  C   UNL     1       0.871 -17.131  16.144  1.00  0.00     0.000 A 
ENDBRANCH  62  75
ENDBRANCH  36  37
ENDBRANCH  29  31
ENDBRANCH  28  29
ENDBRANCH  27  28
ENDBRANCH  26  27
ENDBRANCH  25  26
ENDBRANCH  24  25
ENDBRANCH  23  24
ENDBRANCH  22  23
ENDBRANCH   1  22
TORSDOF 26
