REMARK SMILES CC(C)CN(C)c1cc2c(cc1Cl)C=C(C(=O)OCCOCCOCCOCCOC(=O)c1ccc(-c3c4nc(c(-c5ccccc5)c5ccc([nH]5)c(-c5ccccc5)c5nc(c(-c6ccccc6)c6ccc3[nH]6)C=C5)C=C4)cc1)[C@@H](C(F)(F)F)O2
REMARK SMILES IDX 23 1 22 2 21 3 20 4 19 5 18 6 16 7 17 8 15 9 7 10 8 11 12 12
REMARK SMILES IDX 9 13 11 14 13 15 10 16 86 17 14 18 81 19 5 20 6 21 4 22 2 23
REMARK SMILES IDX 1 24 3 25 82 26 83 27 84 28 85 29 24 30 25 31 26 32 27 33
REMARK SMILES IDX 28 34 29 35 30 36 31 37 32 38 33 39 34 40 80 41 35 42 79 43
REMARK SMILES IDX 36 44 37 45 38 46 73 47 39 48 78 49 72 50 74 51 40 52 77 53
REMARK SMILES IDX 71 54 70 55 41 57 63 58 48 59 62 60 49 61 52 62 61 63 75 64
REMARK SMILES IDX 50 65 51 66 60 68 76 69 53 70 42 71 43 72 47 73 44 74 46 75
REMARK SMILES IDX 45 76 64 77 65 78 69 79 66 80 68 81 67 82 54 83 55 84 59 85
REMARK SMILES IDX 56 86 58 87 57 88
REMARK H PARENT 74 56 52 67
REMARK Flexibility Score: inf
ROOT
ATOM      1  C   UNL     1      -1.082   6.202  -4.826  1.00  0.00     0.188 C 
ENDROOT
BRANCH   1   2
ATOM      2  C   UNL     1       0.271   6.274  -5.556  1.00  0.00     0.188 C 
BRANCH   2   3
ATOM      3  O   UNL     1       0.226   7.052  -6.750  1.00  0.00    -0.376 OA
BRANCH   3   4
ATOM      4  C   UNL     1       0.231   6.346  -7.985  1.00  0.00     0.202 C 
BRANCH   4   5
ATOM      5  C   UNL     1      -1.050   5.571  -8.338  1.00  0.00     0.261 C 
BRANCH   5   6
ATOM      6  O   UNL     1      -1.451   4.592  -7.367  1.00  0.00    -0.460 OA
BRANCH   6   7
ATOM      7  C   UNL     1      -0.620   3.547  -7.204  1.00  0.00     0.338 C 
ATOM      8  O   UNL     1       0.366   3.298  -7.876  1.00  0.00    -0.246 OA
BRANCH   7   9
ATOM      9  C   UNL     1      -0.986   2.825  -5.970  1.00  0.00     0.087 C 
ATOM     10  C   UNL     1      -0.862  -0.345  -2.071  1.00  0.00     0.059 A 
ATOM     11  C   UNL     1      -1.871   0.464  -2.644  1.00  0.00     0.074 A 
ATOM     12  C   UNL     1       0.449  -0.182  -2.575  1.00  0.00     0.065 A 
ATOM     13  C   UNL     1      -1.587   1.355  -3.690  1.00  0.00     0.130 A 
ATOM     14  C   UNL     1       0.749   0.795  -3.525  1.00  0.00     0.034 A 
ATOM     15  Cl  UNL     1       1.750  -1.263  -2.204  1.00  0.00    -0.082 Cl
ATOM     16  C   UNL     1      -0.272   1.535  -4.107  1.00  0.00     0.019 A 
ATOM     17  O   UNL     1      -2.639   2.009  -4.276  1.00  0.00    -0.475 OA
ATOM     18  C   UNL     1       0.040   2.398  -5.226  1.00  0.00     0.027 C 
ATOM     19  C   UNL     1      -2.428   2.579  -5.610  1.00  0.00     0.316 C 
BRANCH  10  20
ATOM     20  N   UNL     1      -1.176  -1.317  -1.112  1.00  0.00    -0.373 N 
ATOM     21  C   UNL     1      -2.219  -2.267  -1.493  1.00  0.00     0.143 C 
BRANCH  20  22
ATOM     22  C   UNL     1      -1.076  -0.984   0.326  1.00  0.00     0.119 C 
BRANCH  22  23
ATOM     23  C   UNL     1       0.373  -1.007   0.856  1.00  0.00     0.002 C 
ATOM     24  C   UNL     1       0.986   0.396   0.878  1.00  0.00     0.009 C 
ATOM     25  C   UNL     1       0.472  -1.618   2.257  1.00  0.00     0.009 C 
ENDBRANCH  22  23
ENDBRANCH  20  22
ENDBRANCH  10  20
BRANCH  19  26
ATOM     26  C   UNL     1      -3.125   1.715  -6.670  1.00  0.00     0.430 C 
ATOM     27  F   UNL     1      -4.416   1.471  -6.343  1.00  0.00    -0.167 F 
ATOM     28  F   UNL     1      -3.138   2.327  -7.879  1.00  0.00    -0.167 F 
ATOM     29  F   UNL     1      -2.514   0.519  -6.832  1.00  0.00    -0.167 F 
ENDBRANCH  19  26
ENDBRANCH   7   9
ENDBRANCH   6   7
ENDBRANCH   5   6
ENDBRANCH   4   5
ENDBRANCH   3   4
ENDBRANCH   2   3
ENDBRANCH   1   2
BRANCH   1  30
ATOM     30  O   UNL     1      -2.178   6.644  -5.609  1.00  0.00    -0.377 OA
BRANCH  30  31
ATOM     31  C   UNL     1      -2.353   8.050  -5.794  1.00  0.00     0.188 C 
BRANCH  31  32
ATOM     32  C   UNL     1      -1.262   9.084  -5.425  1.00  0.00     0.188 C 
BRANCH  32  33
ATOM     33  O   UNL     1      -0.580   8.809  -4.207  1.00  0.00    -0.376 OA
BRANCH  33  34
ATOM     34  C   UNL     1      -0.857   9.668  -3.110  1.00  0.00     0.202 C 
BRANCH  34  35
ATOM     35  C   UNL     1      -2.192   9.373  -2.417  1.00  0.00     0.261 C 
BRANCH  35  36
ATOM     36  O   UNL     1      -3.357   9.551  -3.239  1.00  0.00    -0.460 OA
BRANCH  36  37
ATOM     37  C   UNL     1      -3.579  10.777  -3.763  1.00  0.00     0.338 C 
ATOM     38  O   UNL     1      -2.928  11.790  -3.580  1.00  0.00    -0.246 OA
BRANCH  37  39
ATOM     39  C   UNL     1      -4.649  10.632  -4.773  1.00  0.00     0.060 A 
ATOM     40  C   UNL     1      -5.846   9.992  -4.442  1.00  0.00     0.016 A 
ATOM     41  C   UNL     1      -4.430  11.100  -6.075  1.00  0.00     0.016 A 
ATOM     42  C   UNL     1      -6.839   9.847  -5.410  1.00  0.00     0.010 A 
ATOM     43  C   UNL     1      -5.424  10.946  -7.046  1.00  0.00     0.010 A 
ATOM     44  C   UNL     1      -6.644  10.341  -6.712  1.00  0.00    -0.014 A 
BRANCH  44  45
ATOM     45  C   UNL     1      -7.794  10.398  -7.646  1.00  0.00     0.031 A 
ATOM     46  C   UNL     1      -7.998   9.385  -8.730  1.00  0.00     0.074 A 
ATOM     47  C   UNL     1      -8.683  11.395  -7.473  1.00  0.00     0.049 A 
ATOM     48  N   UNL     1      -9.019   9.256  -9.540  1.00  0.00    -0.248 NA
ATOM     49  C   UNL     1      -6.935   8.391  -8.935  1.00  0.00     0.031 C 
ATOM     50  C   UNL     1      -8.581  12.436  -6.447  1.00  0.00     0.029 A 
ATOM     51  N   UNL     1      -9.851  11.686  -8.129  1.00  0.00    -0.354 N 
ATOM     52  C   UNL     1      -8.738   8.153 -10.335  1.00  0.00     0.074 A 
ATOM     53  C   UNL     1      -7.430   7.674  -9.940  1.00  0.00     0.031 C 
ATOM     54  C   UNL     1      -9.663  13.225  -6.515  1.00  0.00     0.029 A 
ATOM     55  C   UNL     1     -10.517  12.768  -7.606  1.00  0.00     0.049 A 
ATOM     56  H   UNL     1     -10.181  11.169  -8.900  1.00  0.00     0.167 HD
ATOM     57  C   UNL     1      -9.514   7.590 -11.292  1.00  0.00     0.031 A 
ATOM     58  C   UNL     1     -11.692  13.326  -7.954  1.00  0.00     0.031 A 
ATOM     59  C   UNL     1     -10.807   8.088 -11.692  1.00  0.00     0.049 A 
ATOM     60  C   UNL     1     -12.493  12.717  -9.069  1.00  0.00     0.074 A 
ATOM     61  C   UNL     1     -11.673   7.558 -12.634  1.00  0.00     0.029 A 
ATOM     62  N   UNL     1     -11.415   9.227 -11.189  1.00  0.00    -0.354 N 
ATOM     63  N   UNL     1     -12.246  11.633  -9.762  1.00  0.00    -0.248 NA
ATOM     64  C   UNL     1     -13.741  13.399  -9.440  1.00  0.00     0.031 C 
ATOM     65  C   UNL     1     -12.772   8.411 -12.750  1.00  0.00     0.029 A 
ATOM     66  C   UNL     1     -12.628   9.433 -11.826  1.00  0.00     0.049 A 
ATOM     67  H   UNL     1     -11.041   9.803 -10.484  1.00  0.00     0.167 HD
ATOM     68  C   UNL     1     -13.321  11.485 -10.628  1.00  0.00     0.074 A 
ATOM     69  C   UNL     1     -14.229  12.581 -10.364  1.00  0.00     0.031 C 
ATOM     70  C   UNL     1     -13.532  10.522 -11.557  1.00  0.00     0.031 A 
BRANCH  57  71
ATOM     71  C   UNL     1      -9.021   6.348 -11.982  1.00  0.00    -0.014 A 
ATOM     72  C   UNL     1      -8.701   6.384 -13.349  1.00  0.00     0.009 A 
ATOM     73  C   UNL     1      -9.039   5.110 -11.322  1.00  0.00     0.009 A 
ATOM     74  C   UNL     1      -8.441   5.204 -14.048  1.00  0.00     0.001 A 
ATOM     75  C   UNL     1      -8.754   3.933 -12.018  1.00  0.00     0.001 A 
ATOM     76  C   UNL     1      -8.469   3.979 -13.383  1.00  0.00     0.000 A 
ENDBRANCH  57  71
BRANCH  58  77
ATOM     77  C   UNL     1     -12.201  14.500  -7.198  1.00  0.00    -0.014 A 
ATOM     78  C   UNL     1     -11.544  15.739  -7.267  1.00  0.00     0.009 A 
ATOM     79  C   UNL     1     -13.334  14.379  -6.380  1.00  0.00     0.009 A 
ATOM     80  C   UNL     1     -12.000  16.826  -6.519  1.00  0.00     0.001 A 
ATOM     81  C   UNL     1     -13.807  15.477  -5.659  1.00  0.00     0.001 A 
ATOM     82  C   UNL     1     -13.136  16.697  -5.723  1.00  0.00     0.000 A 
ENDBRANCH  58  77
BRANCH  70  83
ATOM     83  C   UNL     1     -14.805  10.579 -12.356  1.00  0.00    -0.014 A 
ATOM     84  C   UNL     1     -15.780   9.583 -12.185  1.00  0.00     0.009 A 
ATOM     85  C   UNL     1     -14.996  11.553 -13.348  1.00  0.00     0.009 A 
ATOM     86  C   UNL     1     -16.911   9.549 -13.002  1.00  0.00     0.001 A 
ATOM     87  C   UNL     1     -16.144  11.534 -14.144  1.00  0.00     0.001 A 
ATOM     88  C   UNL     1     -17.094  10.527 -13.978  1.00  0.00     0.000 A 
ENDBRANCH  70  83
ENDBRANCH  44  45
ENDBRANCH  37  39
ENDBRANCH  36  37
ENDBRANCH  35  36
ENDBRANCH  34  35
ENDBRANCH  33  34
ENDBRANCH  32  33
ENDBRANCH  31  32
ENDBRANCH  30  31
ENDBRANCH   1  30
TORSDOF 24
