REMARK SMILES O=C1[NH+]=C(Nc2ccc(C(=O)OCCOCCOCCOCCOC(=O)c3ccc(-c4c5nc(c(-c6ccccc6)c6ccc([nH]6)c(-c6ccccc6)c6nc(c(-c7ccccc7)c7ccc4[nH]7)C=C6)C=C5)cc3)c(O)c2)S/C1=C\c1ccc[nH]1
REMARK SMILES IDX 18 1 17 2 16 3 15 4 14 5 13 6 12 7 10 8 11 9 9 10 6 11 7 12
REMARK SMILES IDX 77 13 8 14 75 15 5 16 1 17 2 18 3 19 79 20 4 21 78 23 80 24
REMARK SMILES IDX 81 26 82 27 85 28 83 29 84 30 76 32 19 34 20 35 21 36 22 37
REMARK SMILES IDX 23 38 24 39 25 40 26 41 27 42 28 43 74 44 29 45 73 46 30 47
REMARK SMILES IDX 31 48 32 49 67 50 33 51 72 52 66 53 68 54 34 55 71 56 65 57
REMARK SMILES IDX 64 58 35 60 57 61 42 62 56 63 43 64 46 65 55 66 69 67 44 68
REMARK SMILES IDX 45 69 54 71 70 72 47 73 36 74 37 75 41 76 38 77 40 78 39 79
REMARK SMILES IDX 58 80 59 81 63 82 60 83 62 84 61 85 48 86 49 87 53 88 50 89
REMARK SMILES IDX 52 90 51 91
REMARK H PARENT 3 22 5 25 85 31 76 33 68 59 46 70
REMARK Flexibility Score: inf
ROOT
ATOM      1  O   UNL     1      -2.293   7.991  -1.936  1.00  0.00    -0.377 OA
ENDROOT
BRANCH   1   2
ATOM      2  C   UNL     1      -2.589   7.061  -0.903  1.00  0.00     0.188 C 
BRANCH   2   3
ATOM      3  C   UNL     1      -2.841   7.738   0.460  1.00  0.00     0.188 C 
BRANCH   3   4
ATOM      4  O   UNL     1      -3.179   9.110   0.338  1.00  0.00    -0.376 OA
BRANCH   4   5
ATOM      5  C   UNL     1      -2.190  10.116   0.451  1.00  0.00     0.202 C 
BRANCH   5   6
ATOM      6  C   UNL     1      -0.794  10.026  -0.199  1.00  0.00     0.261 C 
BRANCH   6   7
ATOM      7  O   UNL     1      -0.196   8.733  -0.330  1.00  0.00    -0.460 OA
BRANCH   7   8
ATOM      8  C   UNL     1       0.319   8.168   0.784  1.00  0.00     0.341 C 
ATOM      9  O   UNL     1       0.372   8.667   1.893  1.00  0.00    -0.246 OA
BRANCH   8  10
ATOM     10  C   UNL     1       0.612   6.746   0.474  1.00  0.00     0.102 A 
ATOM     11  C   UNL     1       1.109   4.011   0.011  1.00  0.00     0.129 A 
ATOM     12  C   UNL     1       0.440   4.424   1.168  1.00  0.00     0.053 A 
ATOM     13  C   UNL     1       1.463   4.975  -0.943  1.00  0.00     0.098 A 
ATOM     14  C   UNL     1       0.232   5.784   1.420  1.00  0.00     0.024 A 
ATOM     15  C   UNL     1       1.172   6.323  -0.735  1.00  0.00     0.134 A 
BRANCH  11  16
ATOM     16  N   UNL     1       1.450   2.674  -0.213  1.00  0.00    -0.234 N 
ATOM     17  O   UNL     1      -2.268  -0.125   0.043  1.00  0.00    -0.240 OA
ATOM     18  C   UNL     1      -1.092   0.200   0.036  1.00  0.00     0.346 C 
ATOM     19  N   UNL     1      -0.629   1.500   0.011  1.00  0.00    -0.199 N 
ATOM     20  C   UNL     1       0.030  -0.789   0.031  1.00  0.00     0.111 C 
ATOM     21  C   UNL     1       0.655   1.578  -0.070  1.00  0.00     0.322 C 
ATOM     22  H   UNL     1      -1.219   2.287   0.050  1.00  0.00     0.316 HD
ATOM     23  S   UNL     1       1.523   0.056  -0.049  1.00  0.00     0.006 SA
ATOM     24  C   UNL     1      -0.182  -2.112   0.052  1.00  0.00     0.050 C 
ATOM     25  H   UNL     1       2.373   2.504  -0.508  1.00  0.00     0.313 HD
BRANCH  24  26
ATOM     26  C   UNL     1       0.865  -3.062   0.132  1.00  0.00     0.039 A 
ATOM     27  C   UNL     1       1.879  -3.288   1.043  1.00  0.00     0.027 A 
ATOM     28  N   UNL     1       0.965  -4.027  -0.842  1.00  0.00    -0.362 N 
ATOM     29  C   UNL     1       2.620  -4.407   0.595  1.00  0.00     0.020 A 
ATOM     30  C   UNL     1       2.041  -4.837  -0.577  1.00  0.00     0.083 A 
ATOM     31  H   UNL     1       0.358  -4.122  -1.611  1.00  0.00     0.166 HD
ENDBRANCH  24  26
ENDBRANCH  11  16
BRANCH  15  32
ATOM     32  O   UNL     1       1.428   7.167  -1.781  1.00  0.00    -0.507 OA
ATOM     33  H   UNL     1       1.251   8.083  -1.697  1.00  0.00     0.293 HD
ENDBRANCH  15  32
ENDBRANCH   8  10
ENDBRANCH   7   8
ENDBRANCH   6   7
ENDBRANCH   5   6
ENDBRANCH   4   5
ENDBRANCH   3   4
ENDBRANCH   2   3
ENDBRANCH   1   2
BRANCH   1  34
ATOM     34  C   UNL     1      -3.391   8.660  -2.564  1.00  0.00     0.188 C 
BRANCH  34  35
ATOM     35  C   UNL     1      -4.788   8.777  -1.899  1.00  0.00     0.188 C 
BRANCH  35  36
ATOM     36  O   UNL     1      -5.182   7.634  -1.156  1.00  0.00    -0.376 OA
BRANCH  36  37
ATOM     37  C   UNL     1      -6.186   6.784  -1.678  1.00  0.00     0.202 C 
BRANCH  37  38
ATOM     38  C   UNL     1      -5.836   6.001  -2.949  1.00  0.00     0.261 C 
BRANCH  38  39
ATOM     39  O   UNL     1      -5.335   6.776  -4.046  1.00  0.00    -0.460 OA
BRANCH  39  40
ATOM     40  C   UNL     1      -6.175   7.663  -4.623  1.00  0.00     0.338 C 
ATOM     41  O   UNL     1      -7.327   7.898  -4.324  1.00  0.00    -0.246 OA
BRANCH  40  42
ATOM     42  C   UNL     1      -5.372   8.434  -5.595  1.00  0.00     0.060 A 
ATOM     43  C   UNL     1      -5.222   9.819  -5.432  1.00  0.00     0.016 A 
ATOM     44  C   UNL     1      -4.741   7.770  -6.648  1.00  0.00     0.016 A 
ATOM     45  C   UNL     1      -4.454  10.548  -6.344  1.00  0.00     0.010 A 
ATOM     46  C   UNL     1      -3.994   8.502  -7.568  1.00  0.00     0.010 A 
ATOM     47  C   UNL     1      -3.870   9.897  -7.437  1.00  0.00    -0.014 A 
BRANCH  47  48
ATOM     48  C   UNL     1      -3.303  10.662  -8.571  1.00  0.00     0.031 A 
ATOM     49  C   UNL     1      -4.165  10.856  -9.787  1.00  0.00     0.074 A 
ATOM     50  C   UNL     1      -2.039  11.120  -8.554  1.00  0.00     0.049 A 
ATOM     51  N   UNL     1      -3.847  11.320 -10.967  1.00  0.00    -0.248 NA
ATOM     52  C   UNL     1      -5.576  10.457  -9.652  1.00  0.00     0.031 C 
ATOM     53  C   UNL     1      -1.122  11.044  -7.420  1.00  0.00     0.029 A 
ATOM     54  N   UNL     1      -1.302  11.717  -9.547  1.00  0.00    -0.354 N 
ATOM     55  C   UNL     1      -5.011  11.244 -11.722  1.00  0.00     0.074 A 
ATOM     56  C   UNL     1      -6.034  10.672 -10.875  1.00  0.00     0.031 C 
ATOM     57  C   UNL     1       0.067  11.555  -7.788  1.00  0.00     0.029 A 
ATOM     58  C   UNL     1       0.007  11.944  -9.197  1.00  0.00     0.049 A 
ATOM     59  H   UNL     1      -1.676  11.960 -10.425  1.00  0.00     0.167 HD
ATOM     60  C   UNL     1      -5.207  11.613 -13.009  1.00  0.00     0.031 A 
ATOM     61  C   UNL     1       1.044  12.375  -9.942  1.00  0.00     0.031 A 
ATOM     62  C   UNL     1      -4.181  12.161 -13.852  1.00  0.00     0.049 A 
ATOM     63  C   UNL     1       0.825  12.689 -11.401  1.00  0.00     0.074 A 
ATOM     64  C   UNL     1      -4.279  12.579 -15.167  1.00  0.00     0.029 A 
ATOM     65  N   UNL     1      -2.865  12.356 -13.464  1.00  0.00    -0.354 N 
ATOM     66  N   UNL     1      -0.280  12.632 -12.105  1.00  0.00    -0.248 NA
ATOM     67  C   UNL     1       2.001  13.127 -12.170  1.00  0.00     0.031 C 
ATOM     68  C   UNL     1      -3.007  12.965 -15.596  1.00  0.00     0.029 A 
ATOM     69  C   UNL     1      -2.133  12.860 -14.525  1.00  0.00     0.049 A 
ATOM     70  H   UNL     1      -2.504  12.164 -12.569  1.00  0.00     0.167 HD
ATOM     71  C   UNL     1       0.058  13.063 -13.383  1.00  0.00     0.074 A 
ATOM     72  C   UNL     1       1.469  13.383 -13.358  1.00  0.00     0.031 C 
ATOM     73  C   UNL     1      -0.731  13.189 -14.478  1.00  0.00     0.031 A 
BRANCH  60  74
ATOM     74  C   UNL     1      -6.574  11.389 -13.593  1.00  0.00    -0.014 A 
ATOM     75  C   UNL     1      -7.682  12.143 -13.178  1.00  0.00     0.009 A 
ATOM     76  C   UNL     1      -6.748  10.422 -14.596  1.00  0.00     0.009 A 
ATOM     77  C   UNL     1      -8.943  11.908 -13.729  1.00  0.00     0.001 A 
ATOM     78  C   UNL     1      -8.002  10.212 -15.169  1.00  0.00     0.001 A 
ATOM     79  C   UNL     1      -9.101  10.948 -14.728  1.00  0.00     0.000 A 
ENDBRANCH  60  74
BRANCH  61  80
ATOM     80  C   UNL     1       2.398  12.505  -9.339  1.00  0.00    -0.014 A 
ATOM     81  C   UNL     1       2.992  13.767  -9.183  1.00  0.00     0.009 A 
ATOM     82  C   UNL     1       3.117  11.367  -8.942  1.00  0.00     0.009 A 
ATOM     83  C   UNL     1       4.287  13.883  -8.670  1.00  0.00     0.001 A 
ATOM     84  C   UNL     1       4.398  11.488  -8.399  1.00  0.00     0.001 A 
ATOM     85  C   UNL     1       4.987  12.745  -8.274  1.00  0.00     0.000 A 
ENDBRANCH  61  80
BRANCH  73  86
ATOM     86  C   UNL     1      -0.114  13.752 -15.729  1.00  0.00    -0.014 A 
ATOM     87  C   UNL     1       0.783  13.006 -16.508  1.00  0.00     0.009 A 
ATOM     88  C   UNL     1      -0.507  15.025 -16.176  1.00  0.00     0.009 A 
ATOM     89  C   UNL     1       1.289  13.534 -17.699  1.00  0.00     0.001 A 
ATOM     90  C   UNL     1      -0.026  15.535 -17.381  1.00  0.00     0.001 A 
ATOM     91  C   UNL     1       0.877  14.792 -18.139  1.00  0.00     0.000 A 
ENDBRANCH  73  86
ENDBRANCH  47  48
ENDBRANCH  40  42
ENDBRANCH  39  40
ENDBRANCH  38  39
ENDBRANCH  37  38
ENDBRANCH  36  37
ENDBRANCH  35  36
ENDBRANCH  34  35
ENDBRANCH   1  34
TORSDOF 23
