REMARK SMILES COc1ccc(-n2c(SCc3cn(-c4ccc(C(=O)OCCOCCOCCOCCOC(=O)c5ccc(-c6c7nc(c(-c8ccccc8)c8ccc([nH]8)c(-c8ccccc8)c8nc(c(-c9ccccc9)c9ccc6[nH]9)C=C8)C=C7)cc5)cc4)nn3)nc3ccccc3c2=O)cc1
REMARK SMILES IDX 24 1 23 2 22 3 21 4 20 5 18 6 19 7 17 8 14 9 15 10 84 11
REMARK SMILES IDX 16 12 83 13 13 14 11 15 12 16 86 17 85 18 10 19 9 20 8 21
REMARK SMILES IDX 7 22 94 23 87 24 93 25 95 26 88 27 92 28 89 29 91 30 90 31
REMARK SMILES IDX 6 32 3 33 4 34 97 35 5 36 96 37 2 38 1 39 25 40 26 41 27 42
REMARK SMILES IDX 28 43 29 44 30 45 31 46 32 47 33 48 34 49 35 50 36 51 82 52
REMARK SMILES IDX 37 53 81 54 38 55 39 56 40 57 75 58 41 59 80 60 74 61 76 62
REMARK SMILES IDX 42 63 79 64 73 65 72 66 43 68 65 69 50 70 64 71 51 72 54 73
REMARK SMILES IDX 63 74 77 75 52 76 53 77 62 79 78 80 55 81 44 82 45 83 49 84
REMARK SMILES IDX 46 85 48 86 47 87 66 88 67 89 71 90 68 91 70 92 69 93 56 94
REMARK SMILES IDX 57 95 61 96 58 97 60 98 59 99
REMARK H PARENT 76 67 54 78
REMARK Flexibility Score: inf
ROOT
ATOM      1  C   UNL     1      -2.420  -5.875   5.919  1.00  0.00     0.188 C 
ENDROOT
BRANCH   1   2
ATOM      2  O   UNL     1      -2.415  -7.247   6.288  1.00  0.00    -0.376 OA
BRANCH   2   3
ATOM      3  C   UNL     1      -1.714  -8.160   5.467  1.00  0.00     0.202 C 
BRANCH   3   4
ATOM      4  C   UNL     1      -0.195  -8.096   5.629  1.00  0.00     0.261 C 
BRANCH   4   5
ATOM      5  O   UNL     1       0.354  -6.802   5.381  1.00  0.00    -0.460 OA
BRANCH   5   6
ATOM      6  C   UNL     1       0.201  -6.308   4.133  1.00  0.00     0.338 C 
ATOM      7  O   UNL     1      -0.259  -6.865   3.157  1.00  0.00    -0.246 OA
BRANCH   6   8
ATOM      8  C   UNL     1       0.497  -4.869   4.222  1.00  0.00     0.060 A 
ATOM      9  C   UNL     1       1.081  -2.215   4.326  1.00  0.00     0.066 A 
ATOM     10  C   UNL     1      -0.066  -2.592   3.634  1.00  0.00     0.029 A 
ATOM     11  C   UNL     1       1.865  -3.109   5.064  1.00  0.00     0.029 A 
ATOM     12  C   UNL     1      -0.335  -3.951   3.553  1.00  0.00     0.018 A 
ATOM     13  C   UNL     1       1.559  -4.447   5.025  1.00  0.00     0.018 A 
BRANCH   9  14
ATOM     14  N   UNL     1       1.627  -0.963   4.110  1.00  0.00    -0.220 N 
ATOM     15  C   UNL     1       3.089   0.592   3.913  1.00  0.00     0.093 A 
ATOM     16  C   UNL     1       2.926  -0.751   3.750  1.00  0.00     0.141 A 
ATOM     17  N   UNL     1       1.886   1.140   4.265  1.00  0.00    -0.134 NA
ATOM     18  N   UNL     1       0.969   0.187   4.274  1.00  0.00    -0.062 NA
BRANCH  15  19
ATOM     19  C   UNL     1       4.340   1.350   3.856  1.00  0.00     0.138 C 
BRANCH  19  20
ATOM     20  S   UNL     1       4.676   2.076   5.446  1.00  0.00    -0.081 SA
BRANCH  20  21
ATOM     21  C   UNL     1       3.368   3.306   5.665  1.00  0.00     0.176 A 
ATOM     22  N   UNL     1       3.319   4.268   4.666  1.00  0.00    -0.255 N 
ATOM     23  C   UNL     1       4.041   5.434   4.891  1.00  0.00     0.266 A 
ATOM     24  N   UNL     1       3.247   3.677   6.905  1.00  0.00    -0.223 NA
ATOM     25  C   UNL     1       4.757   5.456   6.207  1.00  0.00     0.066 A 
ATOM     26  O   UNL     1       4.160   6.375   4.113  1.00  0.00    -0.268 OA
ATOM     27  C   UNL     1       4.277   4.591   7.210  1.00  0.00     0.079 A 
ATOM     28  C   UNL     1       5.976   6.110   6.361  1.00  0.00     0.016 A 
ATOM     29  C   UNL     1       5.010   4.402   8.380  1.00  0.00     0.029 A 
ATOM     30  C   UNL     1       6.733   5.865   7.511  1.00  0.00     0.001 A 
ATOM     31  C   UNL     1       6.251   5.020   8.518  1.00  0.00     0.002 A 
BRANCH  22  32
ATOM     32  C   UNL     1       2.473   4.091   3.535  1.00  0.00     0.052 A 
ATOM     33  C   UNL     1       1.019   2.919   1.453  1.00  0.00     0.119 A 
ATOM     34  C   UNL     1       0.382   3.202   2.656  1.00  0.00     0.048 A 
ATOM     35  C   UNL     1       2.317   3.377   1.225  1.00  0.00     0.048 A 
ATOM     36  C   UNL     1       1.118   3.766   3.708  1.00  0.00     0.030 A 
ATOM     37  C   UNL     1       3.031   4.005   2.254  1.00  0.00     0.030 A 
BRANCH  33  38
ATOM     38  O   UNL     1       0.345   2.209   0.496  1.00  0.00    -0.497 OA
ATOM     39  C   UNL     1       0.860   0.876   0.386  1.00  0.00     0.278 C 
ENDBRANCH  33  38
ENDBRANCH  22  32
ENDBRANCH  20  21
ENDBRANCH  19  20
ENDBRANCH  15  19
ENDBRANCH   9  14
ENDBRANCH   6   8
ENDBRANCH   5   6
ENDBRANCH   4   5
ENDBRANCH   3   4
ENDBRANCH   2   3
ENDBRANCH   1   2
BRANCH   1  40
ATOM     40  C   UNL     1      -1.823  -4.936   6.992  1.00  0.00     0.188 C 
BRANCH  40  41
ATOM     41  O   UNL     1      -1.229  -5.486   8.160  1.00  0.00    -0.377 OA
BRANCH  41  42
ATOM     42  C   UNL     1      -1.871  -6.559   8.844  1.00  0.00     0.188 C 
BRANCH  42  43
ATOM     43  C   UNL     1      -3.407  -6.789   8.776  1.00  0.00     0.188 C 
BRANCH  43  44
ATOM     44  O   UNL     1      -4.134  -5.873   7.968  1.00  0.00    -0.376 OA
BRANCH  44  45
ATOM     45  C   UNL     1      -5.088  -5.005   8.548  1.00  0.00     0.202 C 
BRANCH  45  46
ATOM     46  C   UNL     1      -4.493  -3.854   9.350  1.00  0.00     0.261 C 
BRANCH  46  47
ATOM     47  O   UNL     1      -3.514  -4.288  10.276  1.00  0.00    -0.460 OA
BRANCH  47  48
ATOM     48  C   UNL     1      -3.978  -5.104  11.241  1.00  0.00     0.338 C 
ATOM     49  O   UNL     1      -5.100  -5.559  11.363  1.00  0.00    -0.246 OA
BRANCH  48  50
ATOM     50  C   UNL     1      -2.912  -5.290  12.222  1.00  0.00     0.060 A 
ATOM     51  C   UNL     1      -3.191  -6.195  13.247  1.00  0.00     0.016 A 
ATOM     52  C   UNL     1      -1.958  -4.272  12.332  1.00  0.00     0.016 A 
ATOM     53  C   UNL     1      -2.751  -5.872  14.503  1.00  0.00     0.010 A 
ATOM     54  C   UNL     1      -1.559  -3.925  13.589  1.00  0.00     0.010 A 
ATOM     55  C   UNL     1      -2.054  -4.672  14.656  1.00  0.00    -0.014 A 
BRANCH  55  56
ATOM     56  C   UNL     1      -1.841  -4.185  15.994  1.00  0.00     0.031 A 
ATOM     57  C   UNL     1      -0.696  -4.820  16.667  1.00  0.00     0.074 A 
ATOM     58  C   UNL     1      -2.558  -3.151  16.467  1.00  0.00     0.049 A 
ATOM     59  N   UNL     1      -0.695  -5.471  17.779  1.00  0.00    -0.248 NA
ATOM     60  C   UNL     1       0.583  -4.851  15.936  1.00  0.00     0.031 C 
ATOM     61  C   UNL     1      -3.498  -2.299  15.729  1.00  0.00     0.029 A 
ATOM     62  N   UNL     1      -2.473  -2.545  17.679  1.00  0.00    -0.354 N 
ATOM     63  C   UNL     1       0.629  -5.836  17.982  1.00  0.00     0.074 A 
ATOM     64  C   UNL     1       1.327  -5.595  16.748  1.00  0.00     0.031 C 
ATOM     65  C   UNL     1      -3.692  -1.157  16.426  1.00  0.00     0.029 A 
ATOM     66  C   UNL     1      -2.978  -1.253  17.689  1.00  0.00     0.049 A 
ATOM     67  H   UNL     1      -2.090  -2.980  18.474  1.00  0.00     0.167 HD
ATOM     68  C   UNL     1       1.121  -6.037  19.231  1.00  0.00     0.031 A 
ATOM     69  C   UNL     1      -2.724  -0.302  18.620  1.00  0.00     0.031 A 
ATOM     70  C   UNL     1       0.079  -6.295  20.188  1.00  0.00     0.049 A 
ATOM     71  C   UNL     1      -2.165  -0.977  19.817  1.00  0.00     0.074 A 
ATOM     72  C   UNL     1      -0.910  -7.253  20.300  1.00  0.00     0.029 A 
ATOM     73  N   UNL     1      -0.287  -5.267  21.022  1.00  0.00    -0.354 N 
ATOM     74  N   UNL     1      -2.857  -1.754  20.599  1.00  0.00    -0.248 NA
ATOM     75  C   UNL     1      -0.720  -1.133  19.911  1.00  0.00     0.031 C 
ATOM     76  C   UNL     1      -2.032  -6.569  20.848  1.00  0.00     0.029 A 
ATOM     77  C   UNL     1      -1.657  -5.243  21.078  1.00  0.00     0.049 A 
ATOM     78  H   UNL     1       0.324  -4.657  21.495  1.00  0.00     0.167 HD
ATOM     79  C   UNL     1      -1.984  -2.777  20.947  1.00  0.00     0.074 A 
ATOM     80  C   UNL     1      -0.657  -2.277  20.599  1.00  0.00     0.031 C 
ATOM     81  C   UNL     1      -2.445  -4.036  21.207  1.00  0.00     0.031 A 
BRANCH  68  82
ATOM     82  C   UNL     1       2.493  -5.559  19.623  1.00  0.00    -0.014 A 
ATOM     83  C   UNL     1       2.972  -5.867  20.904  1.00  0.00     0.009 A 
ATOM     84  C   UNL     1       3.210  -4.590  18.890  1.00  0.00     0.009 A 
ATOM     85  C   UNL     1       4.074  -5.193  21.443  1.00  0.00     0.001 A 
ATOM     86  C   UNL     1       4.337  -3.951  19.405  1.00  0.00     0.001 A 
ATOM     87  C   UNL     1       4.752  -4.233  20.696  1.00  0.00     0.000 A 
ENDBRANCH  68  82
BRANCH  69  88
ATOM     88  C   UNL     1      -2.671   1.164  18.438  1.00  0.00    -0.014 A 
ATOM     89  C   UNL     1      -2.696   2.023  19.547  1.00  0.00     0.009 A 
ATOM     90  C   UNL     1      -2.359   1.725  17.185  1.00  0.00     0.009 A 
ATOM     91  C   UNL     1      -2.389   3.384  19.409  1.00  0.00     0.001 A 
ATOM     92  C   UNL     1      -2.065   3.084  17.044  1.00  0.00     0.001 A 
ATOM     93  C   UNL     1      -2.066   3.911  18.161  1.00  0.00     0.000 A 
ENDBRANCH  69  88
BRANCH  81  94
ATOM     94  C   UNL     1      -3.936  -4.222  21.355  1.00  0.00    -0.014 A 
ATOM     95  C   UNL     1      -4.847  -3.924  20.325  1.00  0.00     0.009 A 
ATOM     96  C   UNL     1      -4.423  -4.857  22.507  1.00  0.00     0.009 A 
ATOM     97  C   UNL     1      -6.207  -4.218  20.461  1.00  0.00     0.001 A 
ATOM     98  C   UNL     1      -5.778  -5.173  22.633  1.00  0.00     0.001 A 
ATOM     99  C   UNL     1      -6.670  -4.847  21.614  1.00  0.00     0.000 A 
ENDBRANCH  81  94
ENDBRANCH  55  56
ENDBRANCH  48  50
ENDBRANCH  47  48
ENDBRANCH  46  47
ENDBRANCH  45  46
ENDBRANCH  44  45
ENDBRANCH  43  44
ENDBRANCH  42  43
ENDBRANCH  41  42
ENDBRANCH  40  41
ENDBRANCH   1  40
TORSDOF 26
