REMARK SMILES Cc1cc(C)c2c(C(=O)OCCOCCOCCOCCOC(=O)c3ccc(-c4c5nc(c(-c6ccccc6)c6ccc([nH]6)c(-c6ccccc6)c6nc(c(-c7ccccc7)c7ccc4[nH]7)C=C6)C=C5)cc3)cc(-c3ccco3)nc2c1
REMARK SMILES IDX 17 1 16 2 15 3 14 4 13 5 12 6 11 7 10 8 8 9 9 10 7 11 1 12
REMARK SMILES IDX 2 13 3 14 82 15 4 16 81 17 5 18 6 19 80 20 74 21 73 22 75 23
REMARK SMILES IDX 76 24 79 25 77 26 78 27 18 28 19 29 20 30 21 31 22 32 23 33
REMARK SMILES IDX 24 34 25 35 26 36 72 37 27 38 71 39 28 40 29 41 30 42 65 43
REMARK SMILES IDX 31 44 70 45 64 46 66 47 32 48 69 49 63 50 62 51 33 53 55 54
REMARK SMILES IDX 40 55 54 56 41 57 44 58 53 59 67 60 42 61 43 62 52 64 68 65
REMARK SMILES IDX 45 66 34 67 35 68 39 69 36 70 38 71 37 72 56 73 57 74 61 75
REMARK SMILES IDX 58 76 60 77 59 78 46 79 47 80 51 81 48 82 50 83 49 84
REMARK H PARENT 66 52 44 63
REMARK Flexibility Score: inf
ROOT
ATOM      1  C   UNL     1      -4.505   0.354   5.879  1.00  0.00     0.188 C 
ENDROOT
BRANCH   1   2
ATOM      2  O   UNL     1      -4.190  -0.902   5.298  1.00  0.00    -0.377 OA
BRANCH   2   3
ATOM      3  C   UNL     1      -2.993  -1.502   5.774  1.00  0.00     0.188 C 
BRANCH   3   4
ATOM      4  C   UNL     1      -2.868  -1.684   7.300  1.00  0.00     0.188 C 
BRANCH   4   5
ATOM      5  O   UNL     1      -3.016  -0.453   8.008  1.00  0.00    -0.376 OA
BRANCH   5   6
ATOM      6  C   UNL     1      -1.889   0.043   8.713  1.00  0.00     0.202 C 
BRANCH   6   7
ATOM      7  C   UNL     1      -0.815   0.678   7.829  1.00  0.00     0.261 C 
BRANCH   7   8
ATOM      8  O   UNL     1      -0.582  -0.090   6.642  1.00  0.00    -0.460 OA
BRANCH   8   9
ATOM      9  C   UNL     1       0.515  -0.856   6.558  1.00  0.00     0.338 C 
ATOM     10  O   UNL     1       1.355  -1.013   7.428  1.00  0.00    -0.246 OA
BRANCH   9  11
ATOM     11  C   UNL     1       0.430  -1.684   5.330  1.00  0.00     0.072 A 
ATOM     12  C   UNL     1       0.907  -0.262  -0.246  1.00  0.00     0.044 C 
ATOM     13  C   UNL     1       0.640  -0.569   1.196  1.00  0.00    -0.049 A 
ATOM     14  C   UNL     1       0.416   0.447   2.112  1.00  0.00     0.007 A 
ATOM     15  C   UNL     1       0.658  -1.882   1.661  1.00  0.00     0.032 A 
ATOM     16  C   UNL     1       0.272   0.171   3.486  1.00  0.00    -0.041 A 
ATOM     17  C   UNL     1       0.514  -2.204   3.003  1.00  0.00     0.072 A 
ATOM     18  C   UNL     1      -0.114   1.352   4.338  1.00  0.00     0.045 C 
ATOM     19  C   UNL     1       0.398  -1.184   3.981  1.00  0.00     0.018 A 
ATOM     20  N   UNL     1       0.500  -3.518   3.271  1.00  0.00    -0.244 NA
ATOM     21  C   UNL     1       0.423  -3.931   4.547  1.00  0.00     0.107 A 
ATOM     22  C   UNL     1       0.423  -3.058   5.606  1.00  0.00     0.048 A 
BRANCH  21  23
ATOM     23  C   UNL     1       0.296  -5.362   4.737  1.00  0.00     0.152 A 
ATOM     24  C   UNL     1      -0.742  -6.188   5.122  1.00  0.00     0.052 A 
ATOM     25  O   UNL     1       1.423  -6.101   4.524  1.00  0.00    -0.463 OA
ATOM     26  C   UNL     1      -0.219  -7.505   5.143  1.00  0.00     0.043 A 
ATOM     27  C   UNL     1       1.100  -7.398   4.770  1.00  0.00     0.196 A 
ENDBRANCH  21  23
ENDBRANCH   9  11
ENDBRANCH   8   9
ENDBRANCH   7   8
ENDBRANCH   6   7
ENDBRANCH   5   6
ENDBRANCH   4   5
ENDBRANCH   3   4
ENDBRANCH   2   3
ENDBRANCH   1   2
BRANCH   1  28
ATOM     28  C   UNL     1      -5.569   0.285   6.998  1.00  0.00     0.188 C 
BRANCH  28  29
ATOM     29  O   UNL     1      -6.287  -0.908   7.293  1.00  0.00    -0.376 OA
BRANCH  29  30
ATOM     30  C   UNL     1      -6.521  -1.880   6.289  1.00  0.00     0.202 C 
BRANCH  30  31
ATOM     31  C   UNL     1      -7.287  -1.499   5.013  1.00  0.00     0.261 C 
BRANCH  31  32
ATOM     32  O   UNL     1      -7.005  -0.208   4.461  1.00  0.00    -0.460 OA
BRANCH  32  33
ATOM     33  C   UNL     1      -7.873   0.773   4.799  1.00  0.00     0.338 C 
ATOM     34  O   UNL     1      -8.861   0.689   5.507  1.00  0.00    -0.246 OA
BRANCH  33  35
ATOM     35  C   UNL     1      -7.367   2.051   4.266  1.00  0.00     0.060 A 
ATOM     36  C   UNL     1      -7.019   3.069   5.164  1.00  0.00     0.016 A 
ATOM     37  C   UNL     1      -7.289   2.258   2.888  1.00  0.00     0.016 A 
ATOM     38  C   UNL     1      -6.600   4.307   4.688  1.00  0.00     0.010 A 
ATOM     39  C   UNL     1      -6.922   3.517   2.410  1.00  0.00     0.010 A 
ATOM     40  C   UNL     1      -6.609   4.550   3.310  1.00  0.00    -0.014 A 
BRANCH  40  41
ATOM     41  C   UNL     1      -6.538   5.943   2.827  1.00  0.00     0.031 A 
ATOM     42  C   UNL     1      -7.818   6.725   2.751  1.00  0.00     0.074 A 
ATOM     43  C   UNL     1      -5.368   6.504   2.479  1.00  0.00     0.049 A 
ATOM     44  N   UNL     1      -8.021   7.934   2.300  1.00  0.00    -0.248 NA
ATOM     45  C   UNL     1      -9.031   6.058   3.259  1.00  0.00     0.031 C 
ATOM     46  C   UNL     1      -4.057   5.868   2.586  1.00  0.00     0.029 A 
ATOM     47  N   UNL     1      -5.104   7.746   1.962  1.00  0.00    -0.354 N 
ATOM     48  C   UNL     1      -9.377   8.172   2.472  1.00  0.00     0.074 A 
ATOM     49  C   UNL     1      -9.956   6.984   3.055  1.00  0.00     0.031 C 
ATOM     50  C   UNL     1      -3.124   6.723   2.133  1.00  0.00     0.029 A 
ATOM     51  C   UNL     1      -3.778   7.949   1.675  1.00  0.00     0.049 A 
ATOM     52  H   UNL     1      -5.800   8.426   1.810  1.00  0.00     0.167 HD
ATOM     53  C   UNL     1     -10.080   9.285   2.166  1.00  0.00     0.031 A 
ATOM     54  C   UNL     1      -3.169   8.997   1.089  1.00  0.00     0.031 A 
ATOM     55  C   UNL     1      -9.511  10.452   1.558  1.00  0.00     0.049 A 
ATOM     56  C   UNL     1      -3.989  10.182   0.656  1.00  0.00     0.074 A 
ATOM     57  C   UNL     1     -10.147  11.623   1.189  1.00  0.00     0.029 A 
ATOM     58  N   UNL     1      -8.174  10.591   1.224  1.00  0.00    -0.354 N 
ATOM     59  N   UNL     1      -5.275  10.390   0.801  1.00  0.00    -0.248 NA
ATOM     60  C   UNL     1      -3.277  11.274  -0.026  1.00  0.00     0.031 C 
ATOM     61  C   UNL     1      -9.200  12.457   0.589  1.00  0.00     0.029 A 
ATOM     62  C   UNL     1      -7.968  11.824   0.634  1.00  0.00     0.049 A 
ATOM     63  H   UNL     1      -7.477   9.915   1.382  1.00  0.00     0.167 HD
ATOM     64  C   UNL     1      -5.524  11.642   0.253  1.00  0.00     0.074 A 
ATOM     65  C   UNL     1      -4.255  12.148  -0.230  1.00  0.00     0.031 C 
ATOM     66  C   UNL     1      -6.698  12.312   0.164  1.00  0.00     0.031 A 
BRANCH  53  67
ATOM     67  C   UNL     1     -11.549   9.285   2.459  1.00  0.00    -0.014 A 
ATOM     68  C   UNL     1     -12.021   9.468   3.767  1.00  0.00     0.009 A 
ATOM     69  C   UNL     1     -12.469   9.174   1.406  1.00  0.00     0.009 A 
ATOM     70  C   UNL     1     -13.393   9.537   4.015  1.00  0.00     0.001 A 
ATOM     71  C   UNL     1     -13.839   9.262   1.655  1.00  0.00     0.001 A 
ATOM     72  C   UNL     1     -14.300   9.443   2.959  1.00  0.00     0.000 A 
ENDBRANCH  53  67
BRANCH  54  73
ATOM     73  C   UNL     1      -1.701   8.960   0.871  1.00  0.00    -0.014 A 
ATOM     74  C   UNL     1      -0.845   9.727   1.673  1.00  0.00     0.009 A 
ATOM     75  C   UNL     1      -1.148   8.127  -0.115  1.00  0.00     0.009 A 
ATOM     76  C   UNL     1       0.539   9.660   1.492  1.00  0.00     0.001 A 
ATOM     77  C   UNL     1       0.236   8.048  -0.280  1.00  0.00     0.001 A 
ATOM     78  C   UNL     1       1.078   8.816   0.522  1.00  0.00     0.000 A 
ENDBRANCH  54  73
BRANCH  66  79
ATOM     79  C   UNL     1      -6.688  13.680  -0.450  1.00  0.00    -0.014 A 
ATOM     80  C   UNL     1      -6.649  13.846  -1.841  1.00  0.00     0.009 A 
ATOM     81  C   UNL     1      -6.862  14.806   0.371  1.00  0.00     0.009 A 
ATOM     82  C   UNL     1      -6.785  15.118  -2.400  1.00  0.00     0.001 A 
ATOM     83  C   UNL     1      -7.019  16.073  -0.192  1.00  0.00     0.001 A 
ATOM     84  C   UNL     1      -6.979  16.228  -1.577  1.00  0.00     0.000 A 
ENDBRANCH  66  79
ENDBRANCH  40  41
ENDBRANCH  33  35
ENDBRANCH  32  33
ENDBRANCH  31  32
ENDBRANCH  30  31
ENDBRANCH  29  30
ENDBRANCH  28  29
ENDBRANCH   1  28
TORSDOF 21
