REMARK SMILES CN(Cc1ccncc1)C(=O)c1cccn1CC(=O)OCCOCCOCCOCCOC(=O)c1ccc(-c2c3nc(c(-c4ccccc4)c4ccc([nH]4)c(-c4ccccc4)c4nc(c(-c5ccccc5)c5ccc2[nH]5)C=C4)C=C3)cc1
REMARK SMILES IDX 24 1 23 2 22 3 21 4 20 5 18 6 19 7 17 8 16 9 12 10 13 11
REMARK SMILES IDX 14 12 15 13 10 14 11 15 2 16 1 17 3 18 4 19 5 20 9 21 6 22
REMARK SMILES IDX 8 23 7 24 25 25 26 26 27 27 28 28 29 29 30 30 31 31 32 32
REMARK SMILES IDX 33 33 34 34 35 35 36 36 82 37 37 38 81 39 38 40 39 41 40 42
REMARK SMILES IDX 75 43 41 44 80 45 74 46 76 47 42 48 79 49 73 50 72 51 43 53
REMARK SMILES IDX 65 54 50 55 64 56 51 57 54 58 63 59 77 60 52 61 53 62 62 64
REMARK SMILES IDX 78 65 55 66 44 67 45 68 49 69 46 70 48 71 47 72 66 73 67 74
REMARK SMILES IDX 71 75 68 76 70 77 69 78 56 79 57 80 61 81 58 82 60 83 59 84
REMARK H PARENT 76 52 54 63
REMARK Flexibility Score: inf
ROOT
ATOM      1  C   UNL     1       3.038   7.403   1.236  1.00  0.00     0.188 C 
ENDROOT
BRANCH   1   2
ATOM      2  O   UNL     1       4.378   7.532   0.777  1.00  0.00    -0.376 OA
BRANCH   2   3
ATOM      3  C   UNL     1       4.775   6.836  -0.388  1.00  0.00     0.202 C 
BRANCH   3   4
ATOM      4  C   UNL     1       4.657   5.301  -0.388  1.00  0.00     0.261 C 
BRANCH   4   5
ATOM      5  O   UNL     1       3.661   4.738   0.495  1.00  0.00    -0.462 OA
BRANCH   5   6
ATOM      6  C   UNL     1       4.104   4.362   1.721  1.00  0.00     0.326 C 
ATOM      7  O   UNL     1       5.289   4.387   2.047  1.00  0.00    -0.250 OA
BRANCH   6   8
ATOM      8  C   UNL     1       3.045   3.911   2.700  1.00  0.00     0.244 C 
BRANCH   8   9
ATOM      9  N   UNL     1       1.622   4.133   2.405  1.00  0.00    -0.332 N 
ATOM     10  C   UNL     1       0.724   3.207   1.883  1.00  0.00     0.107 A 
ATOM     11  C   UNL     1      -0.544   3.714   2.144  1.00  0.00     0.033 A 
ATOM     12  C   UNL     1      -0.427   4.995   2.715  1.00  0.00     0.020 A 
ATOM     13  C   UNL     1       0.913   5.210   2.910  1.00  0.00     0.087 A 
BRANCH  10  14
ATOM     14  C   UNL     1       1.071   1.888   1.375  1.00  0.00     0.270 C 
ATOM     15  O   UNL     1       1.913   1.200   1.952  1.00  0.00    -0.267 OA
BRANCH  14  16
ATOM     16  N   UNL     1       0.437   1.395   0.225  1.00  0.00    -0.336 N 
ATOM     17  C   UNL     1       0.767   0.029  -0.147  1.00  0.00     0.147 C 
BRANCH  16  18
ATOM     18  C   UNL     1      -0.239   2.218  -0.781  1.00  0.00     0.155 C 
BRANCH  18  19
ATOM     19  C   UNL     1      -1.708   2.457  -0.520  1.00  0.00    -0.026 A 
ATOM     20  C   UNL     1      -2.243   3.739  -0.713  1.00  0.00     0.025 A 
ATOM     21  C   UNL     1      -2.563   1.452  -0.057  1.00  0.00     0.025 A 
ATOM     22  C   UNL     1      -3.564   3.973  -0.368  1.00  0.00     0.111 A 
ATOM     23  C   UNL     1      -3.875   1.784   0.253  1.00  0.00     0.111 A 
ATOM     24  N   UNL     1      -4.391   3.024   0.115  1.00  0.00    -0.265 NA
ENDBRANCH  18  19
ENDBRANCH  16  18
ENDBRANCH  14  16
ENDBRANCH  10  14
ENDBRANCH   8   9
ENDBRANCH   6   8
ENDBRANCH   5   6
ENDBRANCH   4   5
ENDBRANCH   3   4
ENDBRANCH   2   3
ENDBRANCH   1   2
BRANCH   1  25
ATOM     25  C   UNL     1       1.888   7.007   0.271  1.00  0.00     0.188 C 
BRANCH  25  26
ATOM     26  O   UNL     1       2.140   7.231  -1.110  1.00  0.00    -0.377 OA
BRANCH  26  27
ATOM     27  C   UNL     1       1.565   8.409  -1.657  1.00  0.00     0.188 C 
BRANCH  27  28
ATOM     28  C   UNL     1       1.982   9.726  -0.982  1.00  0.00     0.188 C 
BRANCH  28  29
ATOM     29  O   UNL     1       1.807   9.729   0.430  1.00  0.00    -0.376 OA
BRANCH  29  30
ATOM     30  C   UNL     1       0.732  10.436   1.022  1.00  0.00     0.202 C 
BRANCH  30  31
ATOM     31  C   UNL     1      -0.601   9.680   1.026  1.00  0.00     0.261 C 
BRANCH  31  32
ATOM     32  O   UNL     1      -1.067   9.272  -0.255  1.00  0.00    -0.460 OA
BRANCH  32  33
ATOM     33  C   UNL     1      -1.174  10.283  -1.137  1.00  0.00     0.338 C 
ATOM     34  O   UNL     1      -0.784  11.429  -1.042  1.00  0.00    -0.246 OA
BRANCH  33  35
ATOM     35  C   UNL     1      -2.001   9.871  -2.251  1.00  0.00     0.060 A 
ATOM     36  C   UNL     1      -1.708  10.462  -3.482  1.00  0.00     0.016 A 
ATOM     37  C   UNL     1      -3.251   9.343  -1.917  1.00  0.00     0.016 A 
ATOM     38  C   UNL     1      -2.751  10.689  -4.341  1.00  0.00     0.010 A 
ATOM     39  C   UNL     1      -4.301   9.619  -2.753  1.00  0.00     0.010 A 
ATOM     40  C   UNL     1      -4.042  10.325  -3.934  1.00  0.00    -0.014 A 
BRANCH  40  41
ATOM     41  C   UNL     1      -5.126  10.564  -4.877  1.00  0.00     0.031 A 
ATOM     42  C   UNL     1      -5.239   9.384  -5.833  1.00  0.00     0.074 A 
ATOM     43  C   UNL     1      -5.745  11.778  -4.780  1.00  0.00     0.049 A 
ATOM     44  N   UNL     1      -5.673   9.365  -7.050  1.00  0.00    -0.248 NA
ATOM     45  C   UNL     1      -4.724   8.043  -5.423  1.00  0.00     0.031 C 
ATOM     46  C   UNL     1      -5.472  12.794  -3.733  1.00  0.00     0.029 A 
ATOM     47  N   UNL     1      -6.708  12.415  -5.529  1.00  0.00    -0.354 N 
ATOM     48  C   UNL     1      -5.668   8.025  -7.474  1.00  0.00     0.074 A 
ATOM     49  C   UNL     1      -4.962   7.275  -6.485  1.00  0.00     0.031 C 
ATOM     50  C   UNL     1      -6.179  13.924  -3.960  1.00  0.00     0.029 A 
ATOM     51  C   UNL     1      -6.990  13.752  -5.149  1.00  0.00     0.049 A 
ATOM     52  H   UNL     1      -7.169  11.972  -6.277  1.00  0.00     0.167 HD
ATOM     53  C   UNL     1      -6.403   7.593  -8.534  1.00  0.00     0.031 A 
ATOM     54  C   UNL     1      -7.792  14.665  -5.776  1.00  0.00     0.031 A 
ATOM     55  C   UNL     1      -7.014   8.699  -9.192  1.00  0.00     0.049 A 
ATOM     56  C   UNL     1      -8.470  13.930  -6.851  1.00  0.00     0.074 A 
ATOM     57  C   UNL     1      -6.491   9.747  -9.905  1.00  0.00     0.029 A 
ATOM     58  N   UNL     1      -8.277   9.030  -8.760  1.00  0.00    -0.354 N 
ATOM     59  N   UNL     1      -9.431  13.077  -6.673  1.00  0.00    -0.248 NA
ATOM     60  C   UNL     1      -8.019  14.117  -8.236  1.00  0.00     0.031 C 
ATOM     61  C   UNL     1      -7.248  10.850  -9.456  1.00  0.00     0.029 A 
ATOM     62  C   UNL     1      -8.326  10.398  -8.686  1.00  0.00     0.049 A 
ATOM     63  H   UNL     1      -9.006   8.404  -8.544  1.00  0.00     0.167 HD
ATOM     64  C   UNL     1      -9.383  12.351  -7.835  1.00  0.00     0.074 A 
ATOM     65  C   UNL     1      -8.792  13.215  -8.836  1.00  0.00     0.031 C 
ATOM     66  C   UNL     1      -9.257  10.999  -7.762  1.00  0.00     0.031 A 
BRANCH  53  67
ATOM     67  C   UNL     1      -6.883   6.215  -8.864  1.00  0.00    -0.014 A 
ATOM     68  C   UNL     1      -7.497   6.034 -10.123  1.00  0.00     0.009 A 
ATOM     69  C   UNL     1      -7.066   5.213  -7.904  1.00  0.00     0.009 A 
ATOM     70  C   UNL     1      -8.360   4.966 -10.368  1.00  0.00     0.001 A 
ATOM     71  C   UNL     1      -7.899   4.119  -8.164  1.00  0.00     0.001 A 
ATOM     72  C   UNL     1      -8.574   4.017  -9.378  1.00  0.00     0.000 A 
ENDBRANCH  53  67
BRANCH  54  73
ATOM     73  C   UNL     1      -8.113  16.136  -5.714  1.00  0.00    -0.014 A 
ATOM     74  C   UNL     1      -7.615  17.055  -4.790  1.00  0.00     0.009 A 
ATOM     75  C   UNL     1      -8.933  16.685  -6.742  1.00  0.00     0.009 A 
ATOM     76  C   UNL     1      -7.852  18.440  -4.946  1.00  0.00     0.001 A 
ATOM     77  C   UNL     1      -9.128  18.054  -6.932  1.00  0.00     0.001 A 
ATOM     78  C   UNL     1      -8.572  18.939  -6.032  1.00  0.00     0.000 A 
ENDBRANCH  54  73
BRANCH  66  79
ATOM     79  C   UNL     1      -9.739  10.376  -6.455  1.00  0.00    -0.014 A 
ATOM     80  C   UNL     1     -11.052  10.602  -6.008  1.00  0.00     0.009 A 
ATOM     81  C   UNL     1      -8.884   9.682  -5.581  1.00  0.00     0.009 A 
ATOM     82  C   UNL     1     -11.477  10.190  -4.737  1.00  0.00     0.001 A 
ATOM     83  C   UNL     1      -9.303   9.267  -4.306  1.00  0.00     0.001 A 
ATOM     84  C   UNL     1     -10.602   9.527  -3.882  1.00  0.00     0.000 A 
ENDBRANCH  66  79
ENDBRANCH  40  41
ENDBRANCH  33  35
ENDBRANCH  32  33
ENDBRANCH  31  32
ENDBRANCH  30  31
ENDBRANCH  29  30
ENDBRANCH  28  29
ENDBRANCH  27  28
ENDBRANCH  26  27
ENDBRANCH  25  26
ENDBRANCH   1  25
TORSDOF 25
