REMARK SMILES O=C(OCCOCCOCCOCCOC(=O)[C@@H]1CN(C(=O)C[NH+]2CCOCC2)C[C@H]1c1ccc2c(c1)OCO2)c1ccc(-c2c3nc(c(-c4ccccc4)c4ccc([nH]4)c(-c4ccccc4)c4nc(c(-c5ccccc5)c5ccc2[nH]5)C=C4)C=C3)cc1
REMARK SMILES IDX 10 1 9 2 8 3 7 4 6 5 5 6 4 7 3 8 2 9 1 10 41 11 42 12 88 13
REMARK SMILES IDX 43 14 87 15 44 16 45 17 46 18 81 19 47 20 86 21 80 22 82 23
REMARK SMILES IDX 48 24 85 25 79 26 78 27 49 29 71 30 56 31 70 32 57 33 60 34
REMARK SMILES IDX 69 35 83 36 58 37 59 38 68 40 84 41 61 42 50 43 51 44 55 45
REMARK SMILES IDX 52 46 54 47 53 48 72 49 73 50 77 51 74 52 76 53 75 54 62 55
REMARK SMILES IDX 63 56 67 57 64 58 66 59 65 60 11 61 12 62 13 63 14 64 15 65
REMARK SMILES IDX 16 66 17 67 18 68 19 69 31 70 20 71 30 72 32 73 33 74 37 75
REMARK SMILES IDX 34 76 36 77 35 78 38 79 40 80 39 81 21 82 22 83 23 84 24 85
REMARK SMILES IDX 25 86 29 87 26 89 28 90 27 91
REMARK H PARENT 82 28 60 39 24 88
REMARK Flexibility Score: inf
ROOT
ATOM      1  C   UNL     1       4.517  -2.407  -2.404  1.00  0.00     0.188 C 
ENDROOT
BRANCH   1   2
ATOM      2  O   UNL     1       3.127  -2.705  -2.326  1.00  0.00    -0.377 OA
BRANCH   2   3
ATOM      3  C   UNL     1       2.248  -1.653  -1.930  1.00  0.00     0.188 C 
BRANCH   3   4
ATOM      4  C   UNL     1       2.545  -1.087  -0.549  1.00  0.00     0.188 C 
BRANCH   4   5
ATOM      5  O   UNL     1       3.841  -0.487  -0.498  1.00  0.00    -0.376 OA
BRANCH   5   6
ATOM      6  C   UNL     1       4.668  -0.957   0.573  1.00  0.00     0.202 C 
BRANCH   6   7
ATOM      7  C   UNL     1       4.347  -0.339   1.931  1.00  0.00     0.261 C 
BRANCH   7   8
ATOM      8  O   UNL     1       2.968   0.029   2.076  1.00  0.00    -0.460 OA
BRANCH   8   9
ATOM      9  C   UNL     1       2.358   1.189   1.732  1.00  0.00     0.338 C 
ATOM     10  O   UNL     1       1.173   1.326   2.036  1.00  0.00    -0.246 OA
BRANCH   9  11
ATOM     11  C   UNL     1       3.011   2.316   0.988  1.00  0.00     0.060 A 
ATOM     12  C   UNL     1       4.192   2.232   0.251  1.00  0.00     0.016 A 
ATOM     13  C   UNL     1       2.339   3.553   0.992  1.00  0.00     0.016 A 
ATOM     14  C   UNL     1       4.703   3.307  -0.454  1.00  0.00     0.010 A 
ATOM     15  C   UNL     1       2.862   4.663   0.320  1.00  0.00     0.010 A 
ATOM     16  C   UNL     1       4.065   4.536  -0.380  1.00  0.00    -0.014 A 
BRANCH  16  17
ATOM     17  C   UNL     1       4.864   5.695  -0.793  1.00  0.00     0.031 A 
ATOM     18  C   UNL     1       5.648   6.386   0.281  1.00  0.00     0.074 A 
ATOM     19  C   UNL     1       5.053   5.955  -2.096  1.00  0.00     0.049 A 
ATOM     20  N   UNL     1       6.415   7.437   0.204  1.00  0.00    -0.248 NA
ATOM     21  C   UNL     1       5.580   5.786   1.629  1.00  0.00     0.031 C 
ATOM     22  C   UNL     1       4.494   5.175  -3.203  1.00  0.00     0.029 A 
ATOM     23  N   UNL     1       5.807   6.917  -2.706  1.00  0.00    -0.354 N 
ATOM     24  C   UNL     1       6.885   7.645   1.495  1.00  0.00     0.074 A 
ATOM     25  C   UNL     1       6.338   6.607   2.334  1.00  0.00     0.031 C 
ATOM     26  C   UNL     1       4.933   5.692  -4.363  1.00  0.00     0.029 A 
ATOM     27  C   UNL     1       5.739   6.873  -4.077  1.00  0.00     0.049 A 
ATOM     28  H   UNL     1       6.345   7.576  -2.212  1.00  0.00     0.167 HD
ATOM     29  C   UNL     1       7.686   8.639   1.936  1.00  0.00     0.031 A 
ATOM     30  C   UNL     1       6.240   7.734  -4.980  1.00  0.00     0.031 A 
ATOM     31  C   UNL     1       8.185   9.667   1.069  1.00  0.00     0.049 A 
ATOM     32  C   UNL     1       7.004   8.920  -4.455  1.00  0.00     0.074 A 
ATOM     33  C   UNL     1       8.908  10.799   1.383  1.00  0.00     0.029 A 
ATOM     34  N   UNL     1       7.998   9.670  -0.309  1.00  0.00    -0.354 N 
ATOM     35  N   UNL     1       7.348   9.197  -3.217  1.00  0.00    -0.248 NA
ATOM     36  C   UNL     1       7.430   9.921  -5.438  1.00  0.00     0.031 C 
ATOM     37  C   UNL     1       9.114  11.515   0.198  1.00  0.00     0.029 A 
ATOM     38  C   UNL     1       8.574  10.796  -0.860  1.00  0.00     0.049 A 
ATOM     39  H   UNL     1       7.524   8.972  -0.816  1.00  0.00     0.167 HD
ATOM     40  C   UNL     1       8.041  10.396  -3.271  1.00  0.00     0.074 A 
ATOM     41  C   UNL     1       8.086  10.781  -4.670  1.00  0.00     0.031 C 
ATOM     42  C   UNL     1       8.588  11.123  -2.265  1.00  0.00     0.031 A 
BRANCH  29  43
ATOM     43  C   UNL     1       7.933   8.700   3.416  1.00  0.00    -0.014 A 
ATOM     44  C   UNL     1       8.756   7.770   4.072  1.00  0.00     0.009 A 
ATOM     45  C   UNL     1       7.255   9.662   4.181  1.00  0.00     0.009 A 
ATOM     46  C   UNL     1       8.855   7.775   5.466  1.00  0.00     0.001 A 
ATOM     47  C   UNL     1       7.377   9.681   5.571  1.00  0.00     0.001 A 
ATOM     48  C   UNL     1       8.166   8.729   6.214  1.00  0.00     0.000 A 
ENDBRANCH  29  43
BRANCH  30  49
ATOM     49  C   UNL     1       5.956   7.559  -6.430  1.00  0.00    -0.014 A 
ATOM     50  C   UNL     1       6.984   7.311  -7.351  1.00  0.00     0.009 A 
ATOM     51  C   UNL     1       4.635   7.645  -6.906  1.00  0.00     0.009 A 
ATOM     52  C   UNL     1       6.698   7.171  -8.713  1.00  0.00     0.001 A 
ATOM     53  C   UNL     1       4.348   7.474  -8.262  1.00  0.00     0.001 A 
ATOM     54  C   UNL     1       5.382   7.247  -9.166  1.00  0.00     0.000 A 
ENDBRANCH  30  49
BRANCH  42  55
ATOM     55  C   UNL     1       9.310  12.377  -2.657  1.00  0.00    -0.014 A 
ATOM     56  C   UNL     1       8.608  13.528  -3.045  1.00  0.00     0.009 A 
ATOM     57  C   UNL     1      10.710  12.418  -2.572  1.00  0.00     0.009 A 
ATOM     58  C   UNL     1       9.303  14.693  -3.368  1.00  0.00     0.001 A 
ATOM     59  C   UNL     1      11.398  13.593  -2.866  1.00  0.00     0.001 A 
ATOM     60  C   UNL     1      10.694  14.726  -3.271  1.00  0.00     0.000 A 
ENDBRANCH  42  55
ENDBRANCH  16  17
ENDBRANCH   9  11
ENDBRANCH   8   9
ENDBRANCH   7   8
ENDBRANCH   6   7
ENDBRANCH   5   6
ENDBRANCH   4   5
ENDBRANCH   3   4
ENDBRANCH   2   3
ENDBRANCH   1   2
BRANCH   1  61
ATOM     61  C   UNL     1       4.985  -1.420  -3.484  1.00  0.00     0.188 C 
BRANCH  61  62
ATOM     62  O   UNL     1       4.065  -0.365  -3.729  1.00  0.00    -0.376 OA
BRANCH  62  63
ATOM     63  C   UNL     1       3.680  -0.207  -5.096  1.00  0.00     0.202 C 
BRANCH  63  64
ATOM     64  C   UNL     1       2.760  -1.298  -5.697  1.00  0.00     0.261 C 
BRANCH  64  65
ATOM     65  O   UNL     1       2.988  -2.590  -5.115  1.00  0.00    -0.463 OA
BRANCH  65  66
ATOM     66  C   UNL     1       3.475  -3.626  -5.843  1.00  0.00     0.311 C 
ATOM     67  O   UNL     1       3.569  -3.652  -7.062  1.00  0.00    -0.252 OA
BRANCH  66  68
ATOM     68  C   UNL     1       4.071  -4.642  -4.886  1.00  0.00     0.128 C 
ATOM     69  C   UNL     1       5.561  -4.714  -5.109  1.00  0.00     0.135 C 
ATOM     70  C   UNL     1       3.504  -6.067  -4.845  1.00  0.00     0.055 C 
ATOM     71  N   UNL     1       5.917  -6.097  -5.191  1.00  0.00    -0.336 N 
ATOM     72  C   UNL     1       4.743  -6.960  -5.115  1.00  0.00     0.129 C 
BRANCH  70  73
ATOM     73  C   UNL     1       2.729  -6.239  -3.518  1.00  0.00    -0.038 A 
ATOM     74  C   UNL     1       1.668  -5.324  -3.247  1.00  0.00     0.008 A 
ATOM     75  C   UNL     1       3.041  -7.181  -2.523  1.00  0.00     0.054 A 
ATOM     76  C   UNL     1       0.997  -5.290  -2.019  1.00  0.00     0.051 A 
ATOM     77  C   UNL     1       2.336  -7.146  -1.325  1.00  0.00     0.166 A 
ATOM     78  C   UNL     1       1.355  -6.217  -1.076  1.00  0.00     0.165 A 
ATOM     79  O   UNL     1       2.525  -7.981  -0.264  1.00  0.00    -0.454 OA
ATOM     80  O   UNL     1       0.819  -6.334   0.168  1.00  0.00    -0.454 OA
ATOM     81  C   UNL     1       1.502  -7.510   0.641  1.00  0.00     0.468 C 
ENDBRANCH  70  73
BRANCH  71  82
ATOM     82  C   UNL     1       7.190  -6.595  -5.428  1.00  0.00     0.277 C 
ATOM     83  O   UNL     1       7.365  -7.800  -5.629  1.00  0.00    -0.268 OA
BRANCH  82  84
ATOM     84  C   UNL     1       8.400  -5.628  -5.326  1.00  0.00     0.363 C 
BRANCH  84  85
ATOM     85  N   UNL     1       8.920  -5.151  -6.634  1.00  0.00    -0.323 N 
ATOM     86  C   UNL     1      10.316  -4.661  -6.503  1.00  0.00     0.291 C 
ATOM     87  C   UNL     1       8.157  -4.039  -7.236  1.00  0.00     0.291 C 
ATOM     88  H   UNL     1       8.841  -5.971  -7.236  1.00  0.00     0.348 HD
ATOM     89  C   UNL     1      10.445  -3.319  -5.752  1.00  0.00     0.221 C 
ATOM     90  C   UNL     1       8.250  -2.730  -6.426  1.00  0.00     0.221 C 
ATOM     91  O   UNL     1       9.611  -2.296  -6.315  1.00  0.00    -0.370 OA
ENDBRANCH  84  85
ENDBRANCH  82  84
ENDBRANCH  71  82
ENDBRANCH  66  68
ENDBRANCH  65  66
ENDBRANCH  64  65
ENDBRANCH  63  64
ENDBRANCH  62  63
ENDBRANCH  61  62
ENDBRANCH   1  61
TORSDOF 24
