REMARK SMILES CC(C)[N@@H+](C)Cc1cc2c(cc1Cl)C=C(C(=O)OCCOCCOCCOCCOC(=O)c1ccc(-c3c4nc(c(-c5ccccc5)c5ccc([nH]5)c(-c5ccccc5)c5nc(c(-c6ccccc6)c6ccc3[nH]6)C=C5)C=C4)cc1)[C@@H](C(F)(F)F)O2
REMARK SMILES IDX 23 1 22 2 21 3 20 4 19 5 18 6 16 7 17 8 15 9 7 10 8 11 12 12
REMARK SMILES IDX 9 13 11 14 13 15 10 16 86 17 14 18 81 19 6 20 4 21 5 22 2 24
REMARK SMILES IDX 1 25 3 26 82 27 83 28 84 29 85 30 24 31 25 32 26 33 27 34
REMARK SMILES IDX 28 35 29 36 30 37 31 38 32 39 33 40 34 41 80 42 35 43 79 44
REMARK SMILES IDX 36 45 37 46 38 47 73 48 39 49 78 50 72 51 74 52 40 53 77 54
REMARK SMILES IDX 71 55 70 56 41 58 63 59 48 60 62 61 49 62 52 63 61 64 75 65
REMARK SMILES IDX 50 66 51 67 60 69 76 70 53 71 42 72 43 73 47 74 44 75 46 76
REMARK SMILES IDX 45 77 64 78 65 79 69 80 66 81 68 82 67 83 54 84 55 85 59 86
REMARK SMILES IDX 56 87 58 88 57 89
REMARK H PARENT 4 23 74 57 52 68
REMARK Flexibility Score: inf
ROOT
ATOM      1  C   UNL     1       2.007   6.124  -6.650  1.00  0.00     0.188 C 
ENDROOT
BRANCH   1   2
ATOM      2  C   UNL     1       1.873   5.508  -8.055  1.00  0.00     0.188 C 
BRANCH   2   3
ATOM      3  O   UNL     1       1.753   6.485  -9.089  1.00  0.00    -0.376 OA
BRANCH   3   4
ATOM      4  C   UNL     1       0.452   6.713  -9.618  1.00  0.00     0.202 C 
BRANCH   4   5
ATOM      5  C   UNL     1      -0.557   7.396  -8.683  1.00  0.00     0.261 C 
BRANCH   5   6
ATOM      6  O   UNL     1      -0.832   6.679  -7.470  1.00  0.00    -0.460 OA
BRANCH   6   7
ATOM      7  C   UNL     1      -1.413   5.469  -7.581  1.00  0.00     0.338 C 
ATOM      8  O   UNL     1      -1.797   4.932  -8.604  1.00  0.00    -0.246 OA
BRANCH   7   9
ATOM      9  C   UNL     1      -1.371   4.824  -6.253  1.00  0.00     0.087 C 
ATOM     10  C   UNL     1      -1.139   1.584  -2.401  1.00  0.00     0.029 A 
ATOM     11  C   UNL     1      -1.494   2.936  -2.559  1.00  0.00     0.058 A 
ATOM     12  C   UNL     1      -0.656   0.908  -3.538  1.00  0.00     0.050 A 
ATOM     13  C   UNL     1      -1.370   3.591  -3.784  1.00  0.00     0.128 A 
ATOM     14  C   UNL     1      -0.556   1.560  -4.776  1.00  0.00     0.033 A 
ATOM     15  Cl  UNL     1      -0.197  -0.758  -3.509  1.00  0.00    -0.084 Cl
ATOM     16  C   UNL     1      -0.941   2.896  -4.908  1.00  0.00     0.019 A 
ATOM     17  O   UNL     1      -1.720   4.908  -3.783  1.00  0.00    -0.475 OA
ATOM     18  C   UNL     1      -0.977   3.544  -6.208  1.00  0.00     0.027 C 
ATOM     19  C   UNL     1      -1.697   5.648  -5.032  1.00  0.00     0.316 C 
BRANCH  10  20
ATOM     20  C   UNL     1      -1.380   0.899  -1.069  1.00  0.00     0.300 C 
BRANCH  20  21
ATOM     21  N   UNL     1      -0.712   1.423   0.128  1.00  0.00    -0.332 N 
ATOM     22  C   UNL     1      -1.273   2.640   0.691  1.00  0.00     0.333 C 
ATOM     23  H   UNL     1      -0.987   0.672   0.761  1.00  0.00     0.348 HD
BRANCH  21  24
ATOM     24  C   UNL     1       0.749   1.337   0.235  1.00  0.00     0.177 C 
ATOM     25  C   UNL     1       1.234  -0.115   0.199  1.00  0.00     0.075 C 
ATOM     26  C   UNL     1       1.540   2.186  -0.765  1.00  0.00     0.075 C 
ENDBRANCH  21  24
ENDBRANCH  20  21
ENDBRANCH  10  20
BRANCH  19  27
ATOM     27  C   UNL     1      -3.041   6.383  -5.147  1.00  0.00     0.430 C 
ATOM     28  F   UNL     1      -3.311   7.082  -4.016  1.00  0.00    -0.167 F 
ATOM     29  F   UNL     1      -3.061   7.273  -6.163  1.00  0.00    -0.167 F 
ATOM     30  F   UNL     1      -4.066   5.522  -5.344  1.00  0.00    -0.167 F 
ENDBRANCH  19  27
ENDBRANCH   7   9
ENDBRANCH   6   7
ENDBRANCH   5   6
ENDBRANCH   4   5
ENDBRANCH   3   4
ENDBRANCH   2   3
ENDBRANCH   1   2
BRANCH   1  31
ATOM     31  O   UNL     1       1.729   7.516  -6.630  1.00  0.00    -0.377 OA
BRANCH  31  32
ATOM     32  C   UNL     1       2.785   8.402  -7.001  1.00  0.00     0.188 C 
BRANCH  32  33
ATOM     33  C   UNL     1       3.947   7.945  -7.912  1.00  0.00     0.188 C 
BRANCH  33  34
ATOM     34  O   UNL     1       4.546   6.717  -7.501  1.00  0.00    -0.376 OA
BRANCH  34  35
ATOM     35  C   UNL     1       5.865   6.797  -6.974  1.00  0.00     0.202 C 
BRANCH  35  36
ATOM     36  C   UNL     1       5.908   7.245  -5.510  1.00  0.00     0.261 C 
BRANCH  36  37
ATOM     37  O   UNL     1       5.402   8.567  -5.267  1.00  0.00    -0.460 OA
BRANCH  37  38
ATOM     38  C   UNL     1       6.008   9.597  -5.899  1.00  0.00     0.338 C 
ATOM     39  O   UNL     1       6.992   9.550  -6.614  1.00  0.00    -0.246 OA
BRANCH  38  40
ATOM     40  C   UNL     1       5.139  10.782  -5.737  1.00  0.00     0.060 A 
ATOM     41  C   UNL     1       4.661  11.138  -4.474  1.00  0.00     0.016 A 
ATOM     42  C   UNL     1       4.774  11.521  -6.870  1.00  0.00     0.016 A 
ATOM     43  C   UNL     1       3.848  12.262  -4.338  1.00  0.00     0.010 A 
ATOM     44  C   UNL     1       3.953  12.643  -6.734  1.00  0.00     0.010 A 
ATOM     45  C   UNL     1       3.511  13.037  -5.462  1.00  0.00    -0.014 A 
BRANCH  45  46
ATOM     46  C   UNL     1       2.905  14.373  -5.260  1.00  0.00     0.031 A 
ATOM     47  C   UNL     1       1.442  14.631  -5.432  1.00  0.00     0.074 A 
ATOM     48  C   UNL     1       3.731  15.371  -4.892  1.00  0.00     0.049 A 
ATOM     49  N   UNL     1       0.771  15.720  -5.155  1.00  0.00    -0.248 NA
ATOM     50  C   UNL     1       0.627  13.542  -5.987  1.00  0.00     0.031 C 
ATOM     51  C   UNL     1       5.179  15.233  -4.719  1.00  0.00     0.029 A 
ATOM     52  N   UNL     1       3.478  16.681  -4.580  1.00  0.00    -0.354 N 
ATOM     53  C   UNL     1      -0.550  15.446  -5.477  1.00  0.00     0.074 A 
ATOM     54  C   UNL     1      -0.579  14.100  -6.014  1.00  0.00     0.031 C 
ATOM     55  C   UNL     1       5.681  16.402  -4.300  1.00  0.00     0.029 A 
ATOM     56  C   UNL     1       4.599  17.376  -4.197  1.00  0.00     0.049 A 
ATOM     57  H   UNL     1       2.581  17.084  -4.626  1.00  0.00     0.167 HD
ATOM     58  C   UNL     1      -1.634  16.244  -5.322  1.00  0.00     0.031 A 
ATOM     59  C   UNL     1       4.745  18.651  -3.793  1.00  0.00     0.031 A 
ATOM     60  C   UNL     1      -1.586  17.593  -4.811  1.00  0.00     0.049 A 
ATOM     61  C   UNL     1       3.533  19.524  -3.670  1.00  0.00     0.074 A 
ATOM     62  C   UNL     1      -2.642  18.454  -4.566  1.00  0.00     0.029 A 
ATOM     63  N   UNL     1      -0.427  18.282  -4.486  1.00  0.00    -0.354 N 
ATOM     64  N   UNL     1       2.276  19.220  -3.886  1.00  0.00    -0.248 NA
ATOM     65  C   UNL     1       3.753  20.909  -3.232  1.00  0.00     0.031 C 
ATOM     66  C   UNL     1      -2.119  19.686  -4.165  1.00  0.00     0.029 A 
ATOM     67  C   UNL     1      -0.741  19.572  -4.086  1.00  0.00     0.049 A 
ATOM     68  H   UNL     1       0.483  17.910  -4.532  1.00  0.00     0.167 HD
ATOM     69  C   UNL     1       1.553  20.369  -3.597  1.00  0.00     0.074 A 
ATOM     70  C   UNL     1       2.510  21.369  -3.169  1.00  0.00     0.031 C 
ATOM     71  C   UNL     1       0.216  20.571  -3.682  1.00  0.00     0.031 A 
BRANCH  58  72
ATOM     72  C   UNL     1      -2.985  15.695  -5.695  1.00  0.00    -0.014 A 
ATOM     73  C   UNL     1      -3.698  16.255  -6.768  1.00  0.00     0.009 A 
ATOM     74  C   UNL     1      -3.609  14.720  -4.903  1.00  0.00     0.009 A 
ATOM     75  C   UNL     1      -5.013  15.863  -7.028  1.00  0.00     0.001 A 
ATOM     76  C   UNL     1      -4.915  14.310  -5.182  1.00  0.00     0.001 A 
ATOM     77  C   UNL     1      -5.620  14.890  -6.236  1.00  0.00     0.000 A 
ENDBRANCH  58  72
BRANCH  59  78
ATOM     78  C   UNL     1       6.100  19.142  -3.434  1.00  0.00    -0.014 A 
ATOM     79  C   UNL     1       7.086  19.300  -4.422  1.00  0.00     0.009 A 
ATOM     80  C   UNL     1       6.436  19.381  -2.094  1.00  0.00     0.009 A 
ATOM     81  C   UNL     1       8.388  19.662  -4.073  1.00  0.00     0.001 A 
ATOM     82  C   UNL     1       7.732  19.773  -1.751  1.00  0.00     0.001 A 
ATOM     83  C   UNL     1       8.709  19.901  -2.738  1.00  0.00     0.000 A 
ENDBRANCH  59  78
BRANCH  71  84
ATOM     84  C   UNL     1      -0.309  21.933  -3.316  1.00  0.00    -0.014 A 
ATOM     85  C   UNL     1      -1.106  22.093  -2.171  1.00  0.00     0.009 A 
ATOM     86  C   UNL     1      -0.090  23.040  -4.151  1.00  0.00     0.009 A 
ATOM     87  C   UNL     1      -1.687  23.328  -1.878  1.00  0.00     0.001 A 
ATOM     88  C   UNL     1      -0.647  24.282  -3.838  1.00  0.00     0.001 A 
ATOM     89  C   UNL     1      -1.452  24.422  -2.708  1.00  0.00     0.000 A 
ENDBRANCH  71  84
ENDBRANCH  45  46
ENDBRANCH  38  40
ENDBRANCH  37  38
ENDBRANCH  36  37
ENDBRANCH  35  36
ENDBRANCH  34  35
ENDBRANCH  33  34
ENDBRANCH  32  33
ENDBRANCH  31  32
ENDBRANCH   1  31
TORSDOF 24
