REMARK SMILES NS(=O)(=O)c1ccc(-n2nc(C(=O)OCCOCCOCCOCCOC(=O)c3ccc(-c4c5nc(c(-c6ccccc6)c6ccc([nH]6)c(-c6ccccc6)c6nc(c(-c7ccccc7)c7ccc4[nH]7)C=C6)C=C5)cc3)cc2-c2ccc(Cl)s2)cc1
REMARK SMILES IDX 19 1 18 2 17 3 16 4 15 5 14 6 12 7 13 8 11 9 9 10 10 11
REMARK SMILES IDX 78 12 77 13 8 14 5 15 6 16 86 17 7 18 85 19 2 20 3 21 4 22
REMARK SMILES IDX 1 23 79 26 80 27 84 28 81 29 82 30 83 31 20 32 21 33 22 34
REMARK SMILES IDX 23 35 24 36 25 37 26 38 27 39 28 40 29 41 30 42 76 43 31 44
REMARK SMILES IDX 75 45 32 46 33 47 34 48 69 49 35 50 74 51 68 52 70 53 36 54
REMARK SMILES IDX 73 55 67 56 66 57 37 59 59 60 44 61 58 62 45 63 48 64 57 65
REMARK SMILES IDX 71 66 46 67 47 68 56 70 72 71 49 72 38 73 39 74 43 75 40 76
REMARK SMILES IDX 42 77 41 78 60 79 61 80 65 81 62 82 64 83 63 84 50 85 51 86
REMARK SMILES IDX 55 87 52 88 54 89 53 90
REMARK H PARENT 1 24 1 25 70 58 48 69
REMARK Flexibility Score: inf
ROOT
ATOM      1  C   UNL     1       1.553   9.526   5.415  1.00  0.00     0.188 C 
ENDROOT
BRANCH   1   2
ATOM      2  C   UNL     1       0.039   9.430   5.723  1.00  0.00     0.188 C 
BRANCH   2   3
ATOM      3  O   UNL     1      -0.364  10.202   6.839  1.00  0.00    -0.376 OA
BRANCH   3   4
ATOM      4  C   UNL     1      -0.820   9.577   8.015  1.00  0.00     0.202 C 
BRANCH   4   5
ATOM      5  C   UNL     1       0.150   8.654   8.764  1.00  0.00     0.261 C 
BRANCH   5   6
ATOM      6  O   UNL     1       0.915   7.753   7.958  1.00  0.00    -0.458 OA
BRANCH   6   7
ATOM      7  C   UNL     1       0.224   6.757   7.336  1.00  0.00     0.358 C 
ATOM      8  O   UNL     1      -0.967   6.529   7.513  1.00  0.00    -0.244 OA
BRANCH   7   9
ATOM      9  C   UNL     1       1.070   6.079   6.347  1.00  0.00     0.171 A 
ATOM     10  N   UNL     1       1.648   5.076   4.547  1.00  0.00    -0.231 N 
ATOM     11  N   UNL     1       0.638   5.787   5.105  1.00  0.00    -0.160 NA
ATOM     12  C   UNL     1       2.773   5.047   5.354  1.00  0.00     0.085 A 
ATOM     13  C   UNL     1       2.435   5.733   6.499  1.00  0.00     0.068 A 
BRANCH  10  14
ATOM     14  C   UNL     1       1.392   4.306   3.390  1.00  0.00     0.065 A 
ATOM     15  C   UNL     1       0.892   2.752   1.147  1.00  0.00     0.082 A 
ATOM     16  C   UNL     1       1.338   2.142   2.322  1.00  0.00     0.024 A 
ATOM     17  C   UNL     1       0.689   4.138   1.089  1.00  0.00     0.024 A 
ATOM     18  C   UNL     1       1.606   2.923   3.441  1.00  0.00     0.030 A 
ATOM     19  C   UNL     1       0.909   4.919   2.228  1.00  0.00     0.030 A 
BRANCH  15  20
ATOM     20  S   UNL     1       0.578   1.786  -0.300  1.00  0.00     0.238 S 
ATOM     21  O   UNL     1       1.356   2.344  -1.395  1.00  0.00    -0.207 OA
ATOM     22  O   UNL     1      -0.829   1.535  -0.389  1.00  0.00    -0.207 OA
BRANCH  20  23
ATOM     23  N   UNL     1       1.296   0.299   0.026  1.00  0.00    -0.225 NA
ATOM     24  H   UNL     1       1.160  -0.327  -0.768  1.00  0.00     0.137 HD
ATOM     25  H   UNL     1       0.870  -0.110   0.858  1.00  0.00     0.137 HD
ENDBRANCH  20  23
ENDBRANCH  15  20
ENDBRANCH  10  14
BRANCH  12  26
ATOM     26  C   UNL     1       4.011   4.393   5.046  1.00  0.00     0.054 A 
ATOM     27  C   UNL     1       4.667   3.484   5.854  1.00  0.00     0.024 A 
ATOM     28  S   UNL     1       4.865   4.663   3.583  1.00  0.00    -0.122 S 
ATOM     29  C   UNL     1       5.831   2.946   5.229  1.00  0.00     0.033 A 
ATOM     30  C   UNL     1       6.029   3.506   3.994  1.00  0.00     0.094 A 
ATOM     31  Cl  UNL     1       7.297   3.138   2.898  1.00  0.00    -0.072 Cl
ENDBRANCH  12  26
ENDBRANCH   7   9
ENDBRANCH   6   7
ENDBRANCH   5   6
ENDBRANCH   4   5
ENDBRANCH   3   4
ENDBRANCH   2   3
ENDBRANCH   1   2
BRANCH   1  32
ATOM     32  O   UNL     1       2.435  10.250   6.269  1.00  0.00    -0.377 OA
BRANCH  32  33
ATOM     33  C   UNL     1       1.983  11.432   6.922  1.00  0.00     0.188 C 
BRANCH  33  34
ATOM     34  C   UNL     1       1.048  12.452   6.210  1.00  0.00     0.188 C 
BRANCH  34  35
ATOM     35  O   UNL     1       0.399  11.987   5.043  1.00  0.00    -0.376 OA
BRANCH  35  36
ATOM     36  C   UNL     1       0.706  12.359   3.715  1.00  0.00     0.202 C 
BRANCH  36  37
ATOM     37  C   UNL     1       2.135  12.357   3.178  1.00  0.00     0.261 C 
BRANCH  37  38
ATOM     38  O   UNL     1       3.109  12.457   4.186  1.00  0.00    -0.460 OA
BRANCH  38  39
ATOM     39  C   UNL     1       3.225  13.694   4.698  1.00  0.00     0.338 C 
ATOM     40  O   UNL     1       2.604  14.691   4.371  1.00  0.00    -0.246 OA
BRANCH  39  41
ATOM     41  C   UNL     1       4.280  13.658   5.721  1.00  0.00     0.060 A 
ATOM     42  C   UNL     1       4.555  14.899   6.288  1.00  0.00     0.016 A 
ATOM     43  C   UNL     1       5.228  12.628   5.627  1.00  0.00     0.016 A 
ATOM     44  C   UNL     1       5.867  15.274   6.291  1.00  0.00     0.010 A 
ATOM     45  C   UNL     1       6.537  13.003   5.618  1.00  0.00     0.010 A 
ATOM     46  C   UNL     1       6.796  14.357   5.792  1.00  0.00    -0.014 A 
BRANCH  46  47
ATOM     47  C   UNL     1       8.044  14.892   5.329  1.00  0.00     0.031 A 
ATOM     48  C   UNL     1       8.991  15.142   6.418  1.00  0.00     0.074 A 
ATOM     49  C   UNL     1       8.283  15.067   4.019  1.00  0.00     0.049 A 
ATOM     50  N   UNL     1       9.386  16.282   6.867  1.00  0.00    -0.248 NA
ATOM     51  C   UNL     1       9.389  13.981   7.227  1.00  0.00     0.031 C 
ATOM     52  C   UNL     1       7.530  14.578   2.860  1.00  0.00     0.029 A 
ATOM     53  N   UNL     1       9.377  15.625   3.457  1.00  0.00    -0.354 N 
ATOM     54  C   UNL     1      10.232  15.977   7.921  1.00  0.00     0.074 A 
ATOM     55  C   UNL     1      10.035  14.581   8.223  1.00  0.00     0.031 C 
ATOM     56  C   UNL     1       8.338  14.613   1.773  1.00  0.00     0.029 A 
ATOM     57  C   UNL     1       9.598  15.236   2.149  1.00  0.00     0.049 A 
ATOM     58  H   UNL     1       9.965  16.253   3.936  1.00  0.00     0.167 HD
ATOM     59  C   UNL     1      11.230  16.816   8.297  1.00  0.00     0.031 A 
ATOM     60  C   UNL     1      10.794  15.299   1.513  1.00  0.00     0.031 A 
ATOM     61  C   UNL     1      11.063  18.141   7.764  1.00  0.00     0.049 A 
ATOM     62  C   UNL     1      11.646  16.262   2.269  1.00  0.00     0.074 A 
ATOM     63  C   UNL     1      10.084  19.110   7.883  1.00  0.00     0.029 A 
ATOM     64  N   UNL     1      11.781  18.470   6.637  1.00  0.00    -0.354 N 
ATOM     65  N   UNL     1      11.374  17.536   2.358  1.00  0.00    -0.248 NA
ATOM     66  C   UNL     1      12.488  15.737   3.340  1.00  0.00     0.031 C 
ATOM     67  C   UNL     1       9.956  19.663   6.575  1.00  0.00     0.029 A 
ATOM     68  C   UNL     1      10.898  19.042   5.753  1.00  0.00     0.049 A 
ATOM     69  H   UNL     1      12.743  18.322   6.491  1.00  0.00     0.167 HD
ATOM     70  C   UNL     1      11.643  17.877   3.679  1.00  0.00     0.074 A 
ATOM     71  C   UNL     1      12.407  16.748   4.213  1.00  0.00     0.031 C 
ATOM     72  C   UNL     1      10.972  18.886   4.315  1.00  0.00     0.031 A 
BRANCH  59  73
ATOM     73  C   UNL     1      12.543  16.298   8.803  1.00  0.00    -0.014 A 
ATOM     74  C   UNL     1      13.461  17.198   9.357  1.00  0.00     0.009 A 
ATOM     75  C   UNL     1      13.008  14.996   8.519  1.00  0.00     0.009 A 
ATOM     76  C   UNL     1      14.790  16.821   9.578  1.00  0.00     0.001 A 
ATOM     77  C   UNL     1      14.318  14.603   8.781  1.00  0.00     0.001 A 
ATOM     78  C   UNL     1      15.217  15.526   9.289  1.00  0.00     0.000 A 
ENDBRANCH  59  73
BRANCH  60  79
ATOM     79  C   UNL     1      11.332  14.261   0.600  1.00  0.00    -0.014 A 
ATOM     80  C   UNL     1      12.435  14.511  -0.228  1.00  0.00     0.009 A 
ATOM     81  C   UNL     1      10.886  12.926   0.699  1.00  0.00     0.009 A 
ATOM     82  C   UNL     1      13.066  13.464  -0.921  1.00  0.00     0.001 A 
ATOM     83  C   UNL     1      11.508  11.885   0.005  1.00  0.00     0.001 A 
ATOM     84  C   UNL     1      12.606  12.153  -0.800  1.00  0.00     0.000 A 
ENDBRANCH  60  79
BRANCH  72  85
ATOM     85  C   UNL     1      10.008  19.724   3.505  1.00  0.00    -0.014 A 
ATOM     86  C   UNL     1       8.870  19.179   2.881  1.00  0.00     0.009 A 
ATOM     87  C   UNL     1      10.138  21.119   3.533  1.00  0.00     0.009 A 
ATOM     88  C   UNL     1       7.908  20.002   2.285  1.00  0.00     0.001 A 
ATOM     89  C   UNL     1       9.168  21.943   2.953  1.00  0.00     0.001 A 
ATOM     90  C   UNL     1       8.056  21.385   2.326  1.00  0.00     0.000 A 
ENDBRANCH  72  85
ENDBRANCH  46  47
ENDBRANCH  39  41
ENDBRANCH  38  39
ENDBRANCH  37  38
ENDBRANCH  36  37
ENDBRANCH  35  36
ENDBRANCH  34  35
ENDBRANCH  33  34
ENDBRANCH  32  33
ENDBRANCH   1  32
TORSDOF 24
