REMARK SMILES O=C(C[C@H](NC(=O)[C@]12C[C@H]3C[C@H](C[C@H](C3)C1)C2)c1ccc(Cl)cc1Cl)OCCOCCOCCOCCOC(=O)c1ccc(-c2c3nc(c(-c4ccccc4)c4ccc([nH]4)c(-c4ccccc4)c4nc(c(-c5ccccc5)c5ccc2[nH]5)C=C4)C=C3)cc1
REMARK SMILES IDX 31 1 30 2 29 3 28 4 27 5 26 6 2 7 1 8 3 9 4 10 18 11 19 12
REMARK SMILES IDX 24 13 20 14 23 15 25 16 21 17 22 18 5 19 6 20 7 22 8 23 9 24
REMARK SMILES IDX 16 25 17 26 10 27 14 28 12 29 11 30 15 31 13 32 32 33 33 34
REMARK SMILES IDX 34 35 35 36 36 37 37 38 38 39 39 40 40 41 41 42 42 43 88 44
REMARK SMILES IDX 43 45 87 46 44 47 45 48 46 49 81 50 47 51 86 52 80 53 82 54
REMARK SMILES IDX 48 55 85 56 79 57 78 58 49 60 71 61 56 62 70 63 57 64 60 65
REMARK SMILES IDX 69 66 83 67 58 68 59 69 68 71 84 72 61 73 50 74 51 75 55 76
REMARK SMILES IDX 52 77 54 78 53 79 72 80 73 81 77 82 74 83 76 84 75 85 62 86
REMARK SMILES IDX 63 87 67 88 64 89 66 90 65 91
REMARK H PARENT 5 21 82 59 60 70
REMARK Flexibility Score: inf
ROOT
ATOM      1  C   UNL     1       5.739  -1.333  -3.777  1.00  0.00     0.188 C 
ENDROOT
BRANCH   1   2
ATOM      2  C   UNL     1       5.252  -1.868  -2.423  1.00  0.00     0.188 C 
BRANCH   2   3
ATOM      3  O   UNL     1       5.268  -3.252  -2.153  1.00  0.00    -0.376 OA
BRANCH   3   4
ATOM      4  C   UNL     1       4.118  -4.052  -1.950  1.00  0.00     0.202 C 
BRANCH   4   5
ATOM      5  C   UNL     1       2.660  -3.576  -2.077  1.00  0.00     0.261 C 
BRANCH   5   6
ATOM      6  O   UNL     1       2.343  -2.179  -2.047  1.00  0.00    -0.463 OA
BRANCH   6   7
ATOM      7  C   UNL     1       2.253  -1.479  -0.886  1.00  0.00     0.308 C 
ATOM      8  O   UNL     1       1.404  -0.607  -0.748  1.00  0.00    -0.252 OA
BRANCH   7   9
ATOM      9  C   UNL     1       3.382  -1.690   0.088  1.00  0.00     0.152 C 
BRANCH   9  10
ATOM     10  C   UNL     1       3.014  -1.395   1.522  1.00  0.00     0.125 C 
BRANCH  10  11
ATOM     11  C   UNL     1       3.897  -2.270   2.419  1.00  0.00    -0.006 A 
ATOM     12  C   UNL     1       5.004  -1.736   3.093  1.00  0.00     0.009 A 
ATOM     13  C   UNL     1       3.721  -3.677   2.462  1.00  0.00     0.047 A 
ATOM     14  C   UNL     1       5.940  -2.571   3.712  1.00  0.00     0.021 A 
ATOM     15  C   UNL     1       4.666  -4.512   3.064  1.00  0.00     0.041 A 
ATOM     16  Cl  UNL     1       2.356  -4.463   1.734  1.00  0.00    -0.084 Cl
ATOM     17  C   UNL     1       5.780  -3.953   3.674  1.00  0.00     0.042 A 
ATOM     18  Cl  UNL     1       6.969  -4.976   4.378  1.00  0.00    -0.084 Cl
ENDBRANCH  10  11
BRANCH  10  19
ATOM     19  N   UNL     1       2.946   0.029   1.897  1.00  0.00    -0.348 N 
ATOM     20  C   UNL     1       3.450   1.253   1.638  1.00  0.00     0.226 C 
ATOM     21  H   UNL     1       2.275   0.122   2.612  1.00  0.00     0.164 HD
ATOM     22  O   UNL     1       2.898   2.123   2.334  1.00  0.00    -0.274 OA
BRANCH  20  23
ATOM     23  C   UNL     1       4.582   1.691   0.657  1.00  0.00     0.050 C 
ATOM     24  C   UNL     1       5.925   0.984   0.935  1.00  0.00     0.020 C 
ATOM     25  C   UNL     1       4.824   3.228   0.913  1.00  0.00     0.020 C 
ATOM     26  C   UNL     1       4.230   1.593  -0.846  1.00  0.00     0.020 C 
ATOM     27  C   UNL     1       7.060   1.558   0.062  1.00  0.00    -0.010 C 
ATOM     28  C   UNL     1       5.949   3.804   0.039  1.00  0.00    -0.010 C 
ATOM     29  C   UNL     1       5.380   2.130  -1.732  1.00  0.00    -0.010 C 
ATOM     30  C   UNL     1       6.701   1.407  -1.421  1.00  0.00     0.007 C 
ATOM     31  C   UNL     1       7.247   3.051   0.357  1.00  0.00     0.007 C 
ATOM     32  C   UNL     1       5.584   3.621  -1.442  1.00  0.00     0.007 C 
ENDBRANCH  20  23
ENDBRANCH  10  19
ENDBRANCH   9  10
ENDBRANCH   7   9
ENDBRANCH   6   7
ENDBRANCH   5   6
ENDBRANCH   4   5
ENDBRANCH   3   4
ENDBRANCH   2   3
ENDBRANCH   1   2
BRANCH   1  33
ATOM     33  O   UNL     1       5.510  -2.108  -4.935  1.00  0.00    -0.377 OA
BRANCH  33  34
ATOM     34  C   UNL     1       5.729  -3.500  -4.806  1.00  0.00     0.188 C 
BRANCH  34  35
ATOM     35  C   UNL     1       7.037  -4.021  -4.156  1.00  0.00     0.188 C 
BRANCH  35  36
ATOM     36  O   UNL     1       7.822  -3.031  -3.497  1.00  0.00    -0.376 OA
BRANCH  36  37
ATOM     37  C   UNL     1       9.119  -2.811  -4.039  1.00  0.00     0.202 C 
BRANCH  37  38
ATOM     38  C   UNL     1       9.154  -1.983  -5.332  1.00  0.00     0.261 C 
BRANCH  38  39
ATOM     39  O   UNL     1       8.290  -2.446  -6.380  1.00  0.00    -0.460 OA
BRANCH  39  40
ATOM     40  C   UNL     1       8.574  -3.632  -6.960  1.00  0.00     0.338 C 
ATOM     41  O   UNL     1       9.527  -4.356  -6.734  1.00  0.00    -0.246 OA
BRANCH  40  42
ATOM     42  C   UNL     1       7.371  -4.021  -7.732  1.00  0.00     0.060 A 
ATOM     43  C   UNL     1       6.778  -5.270  -7.479  1.00  0.00     0.016 A 
ATOM     44  C   UNL     1       6.751  -3.102  -8.584  1.00  0.00     0.016 A 
ATOM     45  C   UNL     1       5.540  -5.581  -8.048  1.00  0.00     0.010 A 
ATOM     46  C   UNL     1       5.549  -3.441  -9.204  1.00  0.00     0.010 A 
ATOM     47  C   UNL     1       4.949  -4.686  -8.951  1.00  0.00    -0.014 A 
BRANCH  47  48
ATOM     48  C   UNL     1       3.918  -5.169  -9.896  1.00  0.00     0.031 A 
ATOM     49  C   UNL     1       4.422  -5.895 -11.111  1.00  0.00     0.074 A 
ATOM     50  C   UNL     1       2.609  -4.908  -9.745  1.00  0.00     0.049 A 
ATOM     51  N   UNL     1       3.773  -6.306 -12.168  1.00  0.00    -0.248 NA
ATOM     52  C   UNL     1       5.868  -6.182 -11.140  1.00  0.00     0.031 C 
ATOM     53  C   UNL     1       1.997  -4.239  -8.599  1.00  0.00     0.029 A 
ATOM     54  N   UNL     1       1.558  -5.156 -10.594  1.00  0.00    -0.354 N 
ATOM     55  C   UNL     1       4.734  -6.884 -12.986  1.00  0.00     0.074 A 
ATOM     56  C   UNL     1       6.006  -6.767 -12.315  1.00  0.00     0.031 C 
ATOM     57  C   UNL     1       0.679  -4.097  -8.834  1.00  0.00     0.029 A 
ATOM     58  C   UNL     1       0.366  -4.629 -10.161  1.00  0.00     0.049 A 
ATOM     59  H   UNL     1       1.651  -5.663 -11.433  1.00  0.00     0.167 HD
ATOM     60  C   UNL     1       4.581  -7.448 -14.204  1.00  0.00     0.031 A 
ATOM     61  C   UNL     1      -0.825  -4.551 -10.787  1.00  0.00     0.031 A 
ATOM     62  C   UNL     1       3.331  -7.501 -14.902  1.00  0.00     0.049 A 
ATOM     63  C   UNL     1      -0.966  -5.115 -12.179  1.00  0.00     0.074 A 
ATOM     64  C   UNL     1       3.058  -8.049 -16.141  1.00  0.00     0.029 A 
ATOM     65  N   UNL     1       2.148  -6.956 -14.427  1.00  0.00    -0.354 N 
ATOM     66  N   UNL     1      -0.062  -5.702 -12.929  1.00  0.00    -0.248 NA
ATOM     67  C   UNL     1      -2.288  -5.005 -12.812  1.00  0.00     0.031 C 
ATOM     68  C   UNL     1       1.719  -7.782 -16.442  1.00  0.00     0.029 A 
ATOM     69  C   UNL     1       1.145  -7.128 -15.361  1.00  0.00     0.049 A 
ATOM     70  H   UNL     1       2.039  -6.513 -13.554  1.00  0.00     0.167 HD
ATOM     71  C   UNL     1      -0.712  -6.055 -14.106  1.00  0.00     0.074 A 
ATOM     72  C   UNL     1      -2.087  -5.620 -13.970  1.00  0.00     0.031 C 
ATOM     73  C   UNL     1      -0.218  -6.689 -15.199  1.00  0.00     0.031 A 
BRANCH  60  74
ATOM     74  C   UNL     1       5.824  -7.968 -14.865  1.00  0.00    -0.014 A 
ATOM     75  C   UNL     1       6.495  -9.100 -14.375  1.00  0.00     0.009 A 
ATOM     76  C   UNL     1       6.362  -7.278 -15.961  1.00  0.00     0.009 A 
ATOM     77  C   UNL     1       7.707  -9.501 -14.939  1.00  0.00     0.001 A 
ATOM     78  C   UNL     1       7.558  -7.700 -16.544  1.00  0.00     0.001 A 
ATOM     79  C   UNL     1       8.236  -8.802 -16.024  1.00  0.00     0.000 A 
ENDBRANCH  60  74
BRANCH  61  80
ATOM     80  C   UNL     1      -1.971  -3.876 -10.120  1.00  0.00    -0.014 A 
ATOM     81  C   UNL     1      -3.067  -4.615  -9.650  1.00  0.00     0.009 A 
ATOM     82  C   UNL     1      -1.970  -2.482  -9.944  1.00  0.00     0.009 A 
ATOM     83  C   UNL     1      -4.141  -3.971  -9.028  1.00  0.00     0.001 A 
ATOM     84  C   UNL     1      -3.033  -1.845  -9.299  1.00  0.00     0.001 A 
ATOM     85  C   UNL     1      -4.120  -2.590  -8.846  1.00  0.00     0.000 A 
ENDBRANCH  61  80
BRANCH  73  86
ATOM     86  C   UNL     1      -1.170  -6.996 -16.321  1.00  0.00    -0.014 A 
ATOM     87  C   UNL     1      -1.623  -5.996 -17.192  1.00  0.00     0.009 A 
ATOM     88  C   UNL     1      -1.538  -8.330 -16.561  1.00  0.00     0.009 A 
ATOM     89  C   UNL     1      -2.443  -6.325 -18.274  1.00  0.00     0.001 A 
ATOM     90  C   UNL     1      -2.334  -8.659 -17.658  1.00  0.00     0.001 A 
ATOM     91  C   UNL     1      -2.791  -7.655 -18.511  1.00  0.00     0.000 A 
ENDBRANCH  73  86
ENDBRANCH  47  48
ENDBRANCH  40  42
ENDBRANCH  39  40
ENDBRANCH  38  39
ENDBRANCH  37  38
ENDBRANCH  36  37
ENDBRANCH  35  36
ENDBRANCH  34  35
ENDBRANCH  33  34
ENDBRANCH   1  33
TORSDOF 24
