REMARK SMILES CC(C)(C)OC(=O)N1CCC2(CC1)C[C@@H](C(=O)OCCOCCOCCOCCOC(=O)c1ccc(-c3c4nc(c(-c5ccccc5)c5ccc([nH]5)c(-c5ccccc5)c5nc(c(-c6ccccc6)c6ccc3[nH]6)C=C5)C=C4)cc1)CO2
REMARK SMILES IDX 24 1 23 2 22 3 21 4 20 5 19 6 18 7 16 8 17 9 15 10 6 11 7 12
REMARK SMILES IDX 8 13 9 14 13 15 10 16 12 17 11 18 14 19 82 20 81 21 5 22
REMARK SMILES IDX 2 23 1 24 3 25 4 26 25 27 26 28 27 29 28 30 29 31 30 32
REMARK SMILES IDX 31 33 32 34 33 35 34 36 80 37 35 38 79 39 36 40 37 41 38 42
REMARK SMILES IDX 73 43 39 44 78 45 72 46 74 47 40 48 77 49 71 50 70 51 41 53
REMARK SMILES IDX 63 54 48 55 62 56 49 57 52 58 61 59 75 60 50 61 51 62 60 64
REMARK SMILES IDX 76 65 53 66 42 67 43 68 47 69 44 70 46 71 45 72 64 73 65 74
REMARK SMILES IDX 69 75 66 76 68 77 67 78 54 79 55 80 59 81 56 82 58 83 57 84
REMARK H PARENT 74 52 52 63
REMARK Flexibility Score: inf
ROOT
ATOM      1  O   UNL     1       5.004   6.029   8.068  1.00  0.00    -0.377 OA
ENDROOT
BRANCH   1   2
ATOM      2  C   UNL     1       4.278   5.870   9.271  1.00  0.00     0.188 C 
BRANCH   2   3
ATOM      3  C   UNL     1       4.652   4.606  10.058  1.00  0.00     0.188 C 
BRANCH   3   4
ATOM      4  O   UNL     1       5.935   4.017   9.892  1.00  0.00    -0.376 OA
BRANCH   4   5
ATOM      5  C   UNL     1       6.408   3.668   8.593  1.00  0.00     0.202 C 
BRANCH   5   6
ATOM      6  C   UNL     1       5.509   2.915   7.601  1.00  0.00     0.261 C 
BRANCH   6   7
ATOM      7  O   UNL     1       4.275   3.585   7.294  1.00  0.00    -0.463 OA
BRANCH   7   8
ATOM      8  C   UNL     1       3.137   2.915   7.576  1.00  0.00     0.311 C 
ATOM      9  O   UNL     1       3.098   1.769   8.013  1.00  0.00    -0.252 OA
BRANCH   8  10
ATOM     10  C   UNL     1       1.872   3.725   7.380  1.00  0.00     0.128 C 
ATOM     11  C   UNL     1       0.415   3.435   1.147  1.00  0.00     0.410 C 
ATOM     12  O   UNL     1      -0.565   3.865   0.567  1.00  0.00    -0.224 OA
ATOM     13  N   UNL     1       0.973   4.039   2.252  1.00  0.00    -0.308 N 
ATOM     14  C   UNL     1       0.125   4.866   3.091  1.00  0.00     0.126 C 
ATOM     15  C   UNL     1       2.278   3.701   2.804  1.00  0.00     0.126 C 
ATOM     16  C   UNL     1      -0.141   4.105   4.390  1.00  0.00     0.057 C 
ATOM     17  C   UNL     1       2.117   2.964   4.132  1.00  0.00     0.057 C 
ATOM     18  C   UNL     1       1.186   3.745   5.074  1.00  0.00     0.073 C 
ATOM     19  C   UNL     1       0.954   3.020   6.403  1.00  0.00     0.053 C 
ATOM     20  O   UNL     1       1.844   4.984   5.376  1.00  0.00    -0.374 OA
ATOM     21  C   UNL     1       1.984   5.109   6.782  1.00  0.00     0.176 C 
BRANCH  11  22
ATOM     22  O   UNL     1       1.038   2.263   0.861  1.00  0.00    -0.444 OA
BRANCH  22  23
ATOM     23  C   UNL     1       0.539   1.404  -0.191  1.00  0.00     0.106 C 
ATOM     24  C   UNL     1       1.248   0.062   0.037  1.00  0.00     0.056 C 
ATOM     25  C   UNL     1       0.957   1.987  -1.540  1.00  0.00     0.056 C 
ATOM     26  C   UNL     1      -0.975   1.155  -0.110  1.00  0.00     0.056 C 
ENDBRANCH  22  23
ENDBRANCH  11  22
ENDBRANCH   8  10
ENDBRANCH   7   8
ENDBRANCH   6   7
ENDBRANCH   5   6
ENDBRANCH   4   5
ENDBRANCH   3   4
ENDBRANCH   2   3
ENDBRANCH   1   2
BRANCH   1  27
ATOM     27  C   UNL     1       6.044   7.000   8.036  1.00  0.00     0.188 C 
BRANCH  27  28
ATOM     28  C   UNL     1       6.850   7.237   9.325  1.00  0.00     0.188 C 
BRANCH  28  29
ATOM     29  O   UNL     1       6.057   7.694  10.415  1.00  0.00    -0.376 OA
BRANCH  29  30
ATOM     30  C   UNL     1       5.950   9.100  10.615  1.00  0.00     0.202 C 
BRANCH  30  31
ATOM     31  C   UNL     1       5.200   9.890   9.530  1.00  0.00     0.261 C 
BRANCH  31  32
ATOM     32  O   UNL     1       5.857   9.995   8.253  1.00  0.00    -0.460 OA
BRANCH  32  33
ATOM     33  C   UNL     1       7.135  10.421   8.218  1.00  0.00     0.338 C 
ATOM     34  O   UNL     1       7.800  10.851   9.141  1.00  0.00    -0.246 OA
BRANCH  33  35
ATOM     35  C   UNL     1       7.682  10.101   6.885  1.00  0.00     0.060 A 
ATOM     36  C   UNL     1       8.832   9.306   6.805  1.00  0.00     0.016 A 
ATOM     37  C   UNL     1       7.087  10.611   5.729  1.00  0.00     0.016 A 
ATOM     38  C   UNL     1       9.424   9.062   5.567  1.00  0.00     0.010 A 
ATOM     39  C   UNL     1       7.691  10.381   4.491  1.00  0.00     0.010 A 
ATOM     40  C   UNL     1       8.884   9.641   4.411  1.00  0.00    -0.014 A 
BRANCH  40  41
ATOM     41  C   UNL     1       9.677   9.656   3.159  1.00  0.00     0.031 A 
ATOM     42  C   UNL     1      10.512  10.870   2.860  1.00  0.00     0.074 A 
ATOM     43  C   UNL     1       9.662   8.619   2.305  1.00  0.00     0.049 A 
ATOM     44  N   UNL     1      11.253  11.132   1.814  1.00  0.00    -0.248 NA
ATOM     45  C   UNL     1      10.507  11.934   3.878  1.00  0.00     0.031 C 
ATOM     46  C   UNL     1       8.923   7.373   2.495  1.00  0.00     0.029 A 
ATOM     47  N   UNL     1      10.287   8.462   1.094  1.00  0.00    -0.354 N 
ATOM     48  C   UNL     1      11.790  12.393   2.043  1.00  0.00     0.074 A 
ATOM     49  C   UNL     1      11.273  12.853   3.312  1.00  0.00     0.031 C 
ATOM     50  C   UNL     1       9.123   6.584   1.425  1.00  0.00     0.029 A 
ATOM     51  C   UNL     1       9.978   7.281   0.466  1.00  0.00     0.049 A 
ATOM     52  H   UNL     1      10.899   9.132   0.711  1.00  0.00     0.167 HD
ATOM     53  C   UNL     1      12.640  13.105   1.267  1.00  0.00     0.031 A 
ATOM     54  C   UNL     1      10.325   6.829  -0.755  1.00  0.00     0.031 A 
ATOM     55  C   UNL     1      13.141  12.659  -0.004  1.00  0.00     0.049 A 
ATOM     56  C   UNL     1      11.216   7.668  -1.633  1.00  0.00     0.074 A 
ATOM     57  C   UNL     1      14.027  13.297  -0.854  1.00  0.00     0.029 A 
ATOM     58  N   UNL     1      12.785  11.468  -0.616  1.00  0.00    -0.354 N 
ATOM     59  N   UNL     1      11.755   8.838  -1.387  1.00  0.00    -0.248 NA
ATOM     60  C   UNL     1      11.553   7.118  -2.954  1.00  0.00     0.031 C 
ATOM     61  C   UNL     1      14.161  12.518  -2.008  1.00  0.00     0.029 A 
ATOM     62  C   UNL     1      13.407  11.367  -1.848  1.00  0.00     0.049 A 
ATOM     63  H   UNL     1      12.179  10.793  -0.231  1.00  0.00     0.167 HD
ATOM     64  C   UNL     1      12.512   9.152  -2.510  1.00  0.00     0.074 A 
ATOM     65  C   UNL     1      12.374   8.043  -3.431  1.00  0.00     0.031 C 
ATOM     66  C   UNL     1      13.256  10.258  -2.756  1.00  0.00     0.031 A 
BRANCH  53  67
ATOM     67  C   UNL     1      13.040  14.467   1.759  1.00  0.00    -0.014 A 
ATOM     68  C   UNL     1      13.899  14.626   2.858  1.00  0.00     0.009 A 
ATOM     69  C   UNL     1      12.554  15.610   1.105  1.00  0.00     0.009 A 
ATOM     70  C   UNL     1      14.231  15.903   3.316  1.00  0.00     0.001 A 
ATOM     71  C   UNL     1      12.910  16.885   1.547  1.00  0.00     0.001 A 
ATOM     72  C   UNL     1      13.739  17.031   2.658  1.00  0.00     0.000 A 
ENDBRANCH  53  67
BRANCH  54  73
ATOM     73  C   UNL     1       9.803   5.523  -1.236  1.00  0.00    -0.014 A 
ATOM     74  C   UNL     1      10.654   4.418  -1.385  1.00  0.00     0.009 A 
ATOM     75  C   UNL     1       8.444   5.381  -1.560  1.00  0.00     0.009 A 
ATOM     76  C   UNL     1      10.159   3.204  -1.869  1.00  0.00     0.001 A 
ATOM     77  C   UNL     1       7.947   4.159  -2.017  1.00  0.00     0.001 A 
ATOM     78  C   UNL     1       8.806   3.074  -2.179  1.00  0.00     0.000 A 
ENDBRANCH  54  73
BRANCH  66  79
ATOM     79  C   UNL     1      14.007  10.314  -4.058  1.00  0.00    -0.014 A 
ATOM     80  C   UNL     1      13.342  10.524  -5.276  1.00  0.00     0.009 A 
ATOM     81  C   UNL     1      15.407  10.210  -4.056  1.00  0.00     0.009 A 
ATOM     82  C   UNL     1      14.064  10.597  -6.470  1.00  0.00     0.001 A 
ATOM     83  C   UNL     1      16.127  10.312  -5.247  1.00  0.00     0.001 A 
ATOM     84  C   UNL     1      15.455  10.497  -6.454  1.00  0.00     0.000 A 
ENDBRANCH  66  79
ENDBRANCH  40  41
ENDBRANCH  33  35
ENDBRANCH  32  33
ENDBRANCH  31  32
ENDBRANCH  30  31
ENDBRANCH  29  30
ENDBRANCH  28  29
ENDBRANCH  27  28
ENDBRANCH   1  27
TORSDOF 22
