REMARK SMILES C[C@H](NC(=O)N1CCN(/C=C/c2ccccc2)CC1)C(=O)OCCOCCOCCOCCOC(=O)c1ccc(-c2c3nc(c(-c4ccccc4)c4ccc([nH]4)c(-c4ccccc4)c4nc(c(-c5ccccc5)c5ccc2[nH]5)C=C4)C=C3)cc1
REMARK SMILES IDX 27 1 26 2 25 3 24 4 23 5 22 6 20 7 21 8 2 9 1 10 3 11 4 12
REMARK SMILES IDX 5 14 6 15 7 16 19 17 8 18 18 19 9 20 10 21 11 22 12 23 13 24
REMARK SMILES IDX 17 25 14 26 16 27 15 28 28 29 29 30 30 31 31 32 32 33 33 34
REMARK SMILES IDX 34 35 35 36 36 37 37 38 38 39 84 40 39 41 83 42 40 43 41 44
REMARK SMILES IDX 42 45 77 46 43 47 82 48 76 49 78 50 44 51 81 52 75 53 74 54
REMARK SMILES IDX 45 56 67 57 52 58 66 59 53 60 56 61 65 62 79 63 54 64 55 65
REMARK SMILES IDX 64 67 80 68 57 69 46 70 47 71 51 72 48 73 50 74 49 75 68 76
REMARK SMILES IDX 69 77 73 78 70 79 72 80 71 81 58 82 59 83 63 84 60 85 62 86
REMARK SMILES IDX 61 87
REMARK H PARENT 3 13 78 55 56 66
REMARK Flexibility Score: inf
ROOT
ATOM      1  C   UNL     1      -1.413   1.169  -0.573  1.00  0.00     0.188 C 
ENDROOT
BRANCH   1   2
ATOM      2  C   UNL     1      -2.151   0.812  -1.873  1.00  0.00     0.188 C 
BRANCH   2   3
ATOM      3  O   UNL     1      -3.450   0.251  -1.866  1.00  0.00    -0.376 OA
BRANCH   3   4
ATOM      4  C   UNL     1      -3.929  -0.800  -1.054  1.00  0.00     0.202 C 
BRANCH   4   5
ATOM      5  C   UNL     1      -3.085  -1.887  -0.374  1.00  0.00     0.261 C 
BRANCH   5   6
ATOM      6  O   UNL     1      -1.678  -1.690  -0.310  1.00  0.00    -0.462 OA
BRANCH   6   7
ATOM      7  C   UNL     1      -0.991  -2.034  -1.428  1.00  0.00     0.328 C 
ATOM      8  O   UNL     1      -1.510  -2.501  -2.435  1.00  0.00    -0.250 OA
BRANCH   7   9
ATOM      9  C   UNL     1       0.533  -1.966  -1.214  1.00  0.00     0.190 C 
ATOM     10  C   UNL     1       0.868  -3.410  -0.887  1.00  0.00     0.043 C 
BRANCH   9  11
ATOM     11  N   UNL     1       1.015  -0.960  -0.248  1.00  0.00    -0.325 N 
ATOM     12  C   UNL     1       2.014  -0.812   0.633  1.00  0.00     0.318 C 
ATOM     13  H   UNL     1       0.433  -0.166  -0.252  1.00  0.00     0.166 HD
ATOM     14  O   UNL     1       1.924   0.129   1.423  1.00  0.00    -0.249 OA
ATOM     15  N   UNL     1       3.015  -1.708   0.701  1.00  0.00    -0.321 N 
ATOM     16  C   UNL     1       3.550  -2.074   2.000  1.00  0.00     0.143 C 
ATOM     17  C   UNL     1       3.785  -2.215  -0.418  1.00  0.00     0.143 C 
ATOM     18  C   UNL     1       3.449  -3.592   2.137  1.00  0.00     0.137 C 
ATOM     19  C   UNL     1       4.055  -3.723  -0.331  1.00  0.00     0.137 C 
ATOM     20  N   UNL     1       4.151  -4.289   1.036  1.00  0.00    -0.374 N 
BRANCH  20  21
ATOM     21  C   UNL     1       4.649  -5.569   1.170  1.00  0.00     0.081 C 
ATOM     22  C   UNL     1       4.819  -6.325   2.259  1.00  0.00     0.025 C 
BRANCH  22  23
ATOM     23  C   UNL     1       5.548  -7.594   2.189  1.00  0.00    -0.024 A 
ATOM     24  C   UNL     1       5.201  -8.649   3.036  1.00  0.00     0.008 A 
ATOM     25  C   UNL     1       6.663  -7.732   1.347  1.00  0.00     0.008 A 
ATOM     26  C   UNL     1       5.950  -9.827   3.026  1.00  0.00     0.001 A 
ATOM     27  C   UNL     1       7.404  -8.909   1.331  1.00  0.00     0.001 A 
ATOM     28  C   UNL     1       7.049  -9.956   2.176  1.00  0.00     0.000 A 
ENDBRANCH  22  23
ENDBRANCH  20  21
ENDBRANCH   9  11
ENDBRANCH   7   9
ENDBRANCH   6   7
ENDBRANCH   5   6
ENDBRANCH   4   5
ENDBRANCH   3   4
ENDBRANCH   2   3
ENDBRANCH   1   2
BRANCH   1  29
ATOM     29  O   UNL     1      -1.876   2.171   0.297  1.00  0.00    -0.377 OA
BRANCH  29  30
ATOM     30  C   UNL     1      -3.202   1.980   0.744  1.00  0.00     0.188 C 
BRANCH  30  31
ATOM     31  C   UNL     1      -4.163   2.785  -0.130  1.00  0.00     0.188 C 
BRANCH  31  32
ATOM     32  O   UNL     1      -3.532   3.340  -1.271  1.00  0.00    -0.376 OA
BRANCH  32  33
ATOM     33  C   UNL     1      -2.754   4.528  -1.164  1.00  0.00     0.202 C 
BRANCH  33  34
ATOM     34  C   UNL     1      -1.891   4.946   0.054  1.00  0.00     0.261 C 
BRANCH  34  35
ATOM     35  O   UNL     1      -2.347   4.652   1.380  1.00  0.00    -0.460 OA
BRANCH  35  36
ATOM     36  C   UNL     1      -3.470   5.237   1.828  1.00  0.00     0.338 C 
ATOM     37  O   UNL     1      -4.170   6.044   1.240  1.00  0.00    -0.246 OA
BRANCH  36  38
ATOM     38  C   UNL     1      -3.833   4.556   3.093  1.00  0.00     0.060 A 
ATOM     39  C   UNL     1      -5.079   3.921   3.181  1.00  0.00     0.016 A 
ATOM     40  C   UNL     1      -2.935   4.495   4.165  1.00  0.00     0.016 A 
ATOM     41  C   UNL     1      -5.450   3.261   4.351  1.00  0.00     0.010 A 
ATOM     42  C   UNL     1      -3.321   3.864   5.352  1.00  0.00     0.010 A 
ATOM     43  C   UNL     1      -4.596   3.281   5.461  1.00  0.00    -0.014 A 
BRANCH  43  44
ATOM     44  C   UNL     1      -5.149   2.931   6.791  1.00  0.00     0.031 A 
ATOM     45  C   UNL     1      -5.681   4.053   7.641  1.00  0.00     0.074 A 
ATOM     46  C   UNL     1      -5.235   1.659   7.214  1.00  0.00     0.049 A 
ATOM     47  N   UNL     1      -6.220   4.011   8.833  1.00  0.00    -0.248 NA
ATOM     48  C   UNL     1      -5.597   5.406   7.064  1.00  0.00     0.031 C 
ATOM     49  C   UNL     1      -4.810   0.481   6.461  1.00  0.00     0.029 A 
ATOM     50  N   UNL     1      -5.718   1.151   8.395  1.00  0.00    -0.354 N 
ATOM     51  C   UNL     1      -6.531   5.329   9.147  1.00  0.00     0.074 A 
ATOM     52  C   UNL     1      -6.095   6.149   8.040  1.00  0.00     0.031 C 
ATOM     53  C   UNL     1      -5.048  -0.617   7.202  1.00  0.00     0.029 A 
ATOM     54  C   UNL     1      -5.610  -0.215   8.491  1.00  0.00     0.049 A 
ATOM     55  H   UNL     1      -6.106   1.712   9.104  1.00  0.00     0.167 HD
ATOM     56  C   UNL     1      -7.132   5.815  10.258  1.00  0.00     0.031 A 
ATOM     57  C   UNL     1      -5.913  -1.039   9.513  1.00  0.00     0.031 A 
ATOM     58  C   UNL     1      -7.545   5.004  11.369  1.00  0.00     0.049 A 
ATOM     59  C   UNL     1      -6.495  -0.463  10.779  1.00  0.00     0.074 A 
ATOM     60  C   UNL     1      -8.166   5.399  12.541  1.00  0.00     0.029 A 
ATOM     61  N   UNL     1      -7.367   3.632  11.451  1.00  0.00    -0.354 N 
ATOM     62  N   UNL     1      -6.807   0.780  11.058  1.00  0.00    -0.248 NA
ATOM     63  C   UNL     1      -6.775  -1.409  11.869  1.00  0.00     0.031 C 
ATOM     64  C   UNL     1      -8.306   4.274  13.359  1.00  0.00     0.029 A 
ATOM     65  C   UNL     1      -7.839   3.168  12.667  1.00  0.00     0.049 A 
ATOM     66  H   UNL     1      -6.965   3.071  10.749  1.00  0.00     0.167 HD
ATOM     67  C   UNL     1      -7.350   0.760  12.338  1.00  0.00     0.074 A 
ATOM     68  C   UNL     1      -7.338  -0.621  12.774  1.00  0.00     0.031 C 
ATOM     69  C   UNL     1      -7.820   1.790  13.085  1.00  0.00     0.031 A 
BRANCH  56  70
ATOM     70  C   UNL     1      -7.332   7.303  10.337  1.00  0.00    -0.014 A 
ATOM     71  C   UNL     1      -8.263   7.963   9.519  1.00  0.00     0.009 A 
ATOM     72  C   UNL     1      -6.588   8.053  11.260  1.00  0.00     0.009 A 
ATOM     73  C   UNL     1      -8.418   9.348   9.599  1.00  0.00     0.001 A 
ATOM     74  C   UNL     1      -6.767   9.434  11.360  1.00  0.00     0.001 A 
ATOM     75  C   UNL     1      -7.674  10.081  10.523  1.00  0.00     0.000 A 
ENDBRANCH  56  70
BRANCH  57  76
ATOM     76  C   UNL     1      -5.653  -2.500   9.401  1.00  0.00    -0.014 A 
ATOM     77  C   UNL     1      -6.713  -3.420   9.370  1.00  0.00     0.009 A 
ATOM     78  C   UNL     1      -4.336  -2.985   9.358  1.00  0.00     0.009 A 
ATOM     79  C   UNL     1      -6.459  -4.793   9.329  1.00  0.00     0.001 A 
ATOM     80  C   UNL     1      -4.085  -4.357   9.285  1.00  0.00     0.001 A 
ATOM     81  C   UNL     1      -5.146  -5.260   9.281  1.00  0.00     0.000 A 
ENDBRANCH  57  76
BRANCH  69  82
ATOM     82  C   UNL     1      -8.403   1.459  14.432  1.00  0.00    -0.014 A 
ATOM     83  C   UNL     1      -7.596   1.041  15.501  1.00  0.00     0.009 A 
ATOM     84  C   UNL     1      -9.783   1.612  14.643  1.00  0.00     0.009 A 
ATOM     85  C   UNL     1      -8.165   0.746  16.742  1.00  0.00     0.001 A 
ATOM     86  C   UNL     1     -10.344   1.350  15.894  1.00  0.00     0.001 A 
ATOM     87  C   UNL     1      -9.536   0.905  16.939  1.00  0.00     0.000 A 
ENDBRANCH  69  82
ENDBRANCH  43  44
ENDBRANCH  36  38
ENDBRANCH  35  36
ENDBRANCH  34  35
ENDBRANCH  33  34
ENDBRANCH  32  33
ENDBRANCH  31  32
ENDBRANCH  30  31
ENDBRANCH  29  30
ENDBRANCH   1  29
TORSDOF 23
