REMARK SMILES CCCn1ncc(C(=O)N2CCC[C@@H]2C(=O)OCCOCCOCCOCCOC(=O)c2ccc(-c3c4nc(c(-c5ccccc5)c5ccc([nH]5)c(-c5ccccc5)c5nc(c(-c6ccccc6)c6ccc3[nH]6)C=C5)C=C4)cc2)c1C
REMARK SMILES IDX 22 1 21 2 20 3 19 4 18 5 17 6 15 7 16 8 14 9 10 10 11 11
REMARK SMILES IDX 12 12 13 13 8 14 9 15 7 16 4 17 5 18 80 19 6 20 81 21 3 22
REMARK SMILES IDX 2 23 1 24 23 25 24 26 25 27 26 28 27 29 28 30 29 31 30 32
REMARK SMILES IDX 31 33 32 34 33 35 79 36 34 37 78 38 35 39 36 40 37 41 72 42
REMARK SMILES IDX 38 43 77 44 71 45 73 46 39 47 76 48 70 49 69 50 40 52 62 53
REMARK SMILES IDX 47 54 61 55 48 56 51 57 60 58 74 59 49 60 50 61 59 63 75 64
REMARK SMILES IDX 52 65 41 66 42 67 46 68 43 69 45 70 44 71 63 72 64 73 68 74
REMARK SMILES IDX 65 75 67 76 66 77 53 78 54 79 58 80 55 81 57 82 56 83
REMARK H PARENT 73 51 51 62
REMARK Flexibility Score: inf
ROOT
ATOM      1  C   UNL     1      -5.217  -0.613   6.386  1.00  0.00     0.188 C 
ENDROOT
BRANCH   1   2
ATOM      2  C   UNL     1      -5.249   0.571   5.400  1.00  0.00     0.188 C 
BRANCH   2   3
ATOM      3  O   UNL     1      -5.649   0.388   4.048  1.00  0.00    -0.376 OA
BRANCH   3   4
ATOM      4  C   UNL     1      -5.229  -0.748   3.303  1.00  0.00     0.202 C 
BRANCH   4   5
ATOM      5  C   UNL     1      -3.733  -1.042   3.169  1.00  0.00     0.261 C 
BRANCH   5   6
ATOM      6  O   UNL     1      -3.070  -1.323   4.415  1.00  0.00    -0.462 OA
BRANCH   6   7
ATOM      7  C   UNL     1      -2.200  -0.372   4.834  1.00  0.00     0.328 C 
ATOM      8  O   UNL     1      -1.994   0.685   4.243  1.00  0.00    -0.250 OA
BRANCH   7   9
ATOM      9  C   UNL     1      -1.374  -0.779   6.060  1.00  0.00     0.195 C 
ATOM     10  N   UNL     1      -0.105  -1.355   5.655  1.00  0.00    -0.325 N 
ATOM     11  C   UNL     1       0.446  -2.109   6.747  1.00  0.00     0.121 C 
ATOM     12  C   UNL     1      -0.780  -2.811   7.293  1.00  0.00     0.024 C 
ATOM     13  C   UNL     1      -1.930  -1.825   7.039  1.00  0.00     0.039 C 
BRANCH  10  14
ATOM     14  C   UNL     1       0.701  -0.707   4.751  1.00  0.00     0.258 C 
ATOM     15  O   UNL     1       1.352   0.294   5.016  1.00  0.00    -0.269 OA
BRANCH  14  16
ATOM     16  C   UNL     1       0.653  -1.366   3.451  1.00  0.00     0.080 A 
ATOM     17  N   UNL     1       0.869  -1.926   1.331  1.00  0.00    -0.269 N 
ATOM     18  N   UNL     1       0.158  -2.941   1.863  1.00  0.00    -0.180 NA
ATOM     19  C   UNL     1       1.155  -0.928   2.235  1.00  0.00     0.048 A 
ATOM     20  C   UNL     1       0.039  -2.604   3.143  1.00  0.00     0.149 A 
ATOM     21  C   UNL     1       1.827   0.351   1.893  1.00  0.00     0.067 C 
BRANCH  17  22
ATOM     22  C   UNL     1       1.311  -2.075  -0.043  1.00  0.00     0.144 C 
BRANCH  22  23
ATOM     23  C   UNL     1       0.338  -1.520  -1.079  1.00  0.00     0.020 C 
ATOM     24  C   UNL     1       0.461  -0.017  -1.266  1.00  0.00     0.006 C 
ENDBRANCH  22  23
ENDBRANCH  17  22
ENDBRANCH  14  16
ENDBRANCH  10  14
ENDBRANCH   7   9
ENDBRANCH   6   7
ENDBRANCH   5   6
ENDBRANCH   4   5
ENDBRANCH   3   4
ENDBRANCH   2   3
ENDBRANCH   1   2
BRANCH   1  25
ATOM     25  O   UNL     1      -5.516  -1.876   5.821  1.00  0.00    -0.377 OA
BRANCH  25  26
ATOM     26  C   UNL     1      -6.854  -2.328   6.005  1.00  0.00     0.188 C 
BRANCH  26  27
ATOM     27  C   UNL     1      -7.989  -1.324   5.721  1.00  0.00     0.188 C 
BRANCH  27  28
ATOM     28  O   UNL     1      -7.895  -0.119   6.485  1.00  0.00    -0.376 OA
BRANCH  28  29
ATOM     29  C   UNL     1      -8.785   0.034   7.584  1.00  0.00     0.202 C 
BRANCH  29  30
ATOM     30  C   UNL     1      -8.290  -0.637   8.868  1.00  0.00     0.261 C 
BRANCH  30  31
ATOM     31  O   UNL     1      -8.139  -2.054   8.777  1.00  0.00    -0.460 OA
BRANCH  31  32
ATOM     32  C   UNL     1      -9.233  -2.752   8.412  1.00  0.00     0.338 C 
ATOM     33  O   UNL     1     -10.335  -2.305   8.147  1.00  0.00    -0.246 OA
BRANCH  32  34
ATOM     34  C   UNL     1      -8.928  -4.191   8.436  1.00  0.00     0.060 A 
ATOM     35  C   UNL     1      -9.950  -5.047   8.019  1.00  0.00     0.016 A 
ATOM     36  C   UNL     1      -7.776  -4.677   9.072  1.00  0.00     0.016 A 
ATOM     37  C   UNL     1      -9.941  -6.350   8.466  1.00  0.00     0.010 A 
ATOM     38  C   UNL     1      -7.764  -5.983   9.518  1.00  0.00     0.010 A 
ATOM     39  C   UNL     1      -8.903  -6.759   9.308  1.00  0.00    -0.014 A 
BRANCH  39  40
ATOM     40  C   UNL     1      -9.169  -7.908  10.153  1.00  0.00     0.031 A 
ATOM     41  C   UNL     1      -8.916  -9.246   9.595  1.00  0.00     0.074 A 
ATOM     42  C   UNL     1      -9.573  -7.738  11.427  1.00  0.00     0.049 A 
ATOM     43  N   UNL     1      -9.762 -10.211   9.451  1.00  0.00    -0.248 NA
ATOM     44  C   UNL     1      -7.558  -9.537   9.122  1.00  0.00     0.031 C 
ATOM     45  C   UNL     1      -9.574  -6.489  12.197  1.00  0.00     0.029 A 
ATOM     46  N   UNL     1      -9.957  -8.674  12.341  1.00  0.00    -0.354 N 
ATOM     47  C   UNL     1      -9.012 -11.299   9.027  1.00  0.00     0.074 A 
ATOM     48  C   UNL     1      -7.688 -10.805   8.735  1.00  0.00     0.031 C 
ATOM     49  C   UNL     1      -9.724  -6.780  13.507  1.00  0.00     0.029 A 
ATOM     50  C   UNL     1      -9.948  -8.210  13.646  1.00  0.00     0.049 A 
ATOM     51  H   UNL     1     -10.216  -9.592  12.097  1.00  0.00     0.167 HD
ATOM     52  C   UNL     1      -9.457 -12.576   9.157  1.00  0.00     0.031 A 
ATOM     53  C   UNL     1     -10.042  -8.949  14.774  1.00  0.00     0.031 A 
ATOM     54  C   UNL     1     -10.877 -12.661   9.356  1.00  0.00     0.049 A 
ATOM     55  C   UNL     1     -10.607 -10.270  14.424  1.00  0.00     0.074 A 
ATOM     56  C   UNL     1     -11.993 -12.273   8.642  1.00  0.00     0.029 A 
ATOM     57  N   UNL     1     -11.324 -12.979  10.614  1.00  0.00    -0.354 N 
ATOM     58  N   UNL     1     -11.847 -10.470  14.084  1.00  0.00    -0.248 NA
ATOM     59  C   UNL     1      -9.698 -11.369  14.132  1.00  0.00     0.031 C 
ATOM     60  C   UNL     1     -12.989 -11.982   9.618  1.00  0.00     0.029 A 
ATOM     61  C   UNL     1     -12.422 -12.201  10.875  1.00  0.00     0.049 A 
ATOM     62  H   UNL     1     -10.927 -13.646  11.220  1.00  0.00     0.167 HD
ATOM     63  C   UNL     1     -11.802 -11.520  13.180  1.00  0.00     0.074 A 
ATOM     64  C   UNL     1     -10.490 -12.124  13.368  1.00  0.00     0.031 C 
ATOM     65  C   UNL     1     -12.714 -11.617  12.167  1.00  0.00     0.031 A 
BRANCH  52  66
ATOM     66  C   UNL     1      -8.533 -13.720   9.468  1.00  0.00    -0.014 A 
ATOM     67  C   UNL     1      -9.013 -15.036   9.378  1.00  0.00     0.009 A 
ATOM     68  C   UNL     1      -7.289 -13.534  10.106  1.00  0.00     0.009 A 
ATOM     69  C   UNL     1      -8.296 -16.107   9.924  1.00  0.00     0.001 A 
ATOM     70  C   UNL     1      -6.550 -14.605  10.610  1.00  0.00     0.001 A 
ATOM     71  C   UNL     1      -7.065 -15.891  10.538  1.00  0.00     0.000 A 
ENDBRANCH  52  66
BRANCH  53  72
ATOM     72  C   UNL     1      -9.487  -8.647  16.109  1.00  0.00    -0.014 A 
ATOM     73  C   UNL     1      -9.961  -9.307  17.251  1.00  0.00     0.009 A 
ATOM     74  C   UNL     1      -8.328  -7.859  16.240  1.00  0.00     0.009 A 
ATOM     75  C   UNL     1      -9.287  -9.196  18.474  1.00  0.00     0.001 A 
ATOM     76  C   UNL     1      -7.663  -7.737  17.462  1.00  0.00     0.001 A 
ATOM     77  C   UNL     1      -8.137  -8.416  18.578  1.00  0.00     0.000 A 
ENDBRANCH  53  72
BRANCH  65  78
ATOM     78  C   UNL     1     -13.966 -10.784  12.267  1.00  0.00    -0.014 A 
ATOM     79  C   UNL     1     -13.939  -9.380  12.317  1.00  0.00     0.009 A 
ATOM     80  C   UNL     1     -15.212 -11.423  12.177  1.00  0.00     0.009 A 
ATOM     81  C   UNL     1     -15.124  -8.639  12.322  1.00  0.00     0.001 A 
ATOM     82  C   UNL     1     -16.396 -10.682  12.159  1.00  0.00     0.001 A 
ATOM     83  C   UNL     1     -16.352  -9.291  12.239  1.00  0.00     0.000 A 
ENDBRANCH  65  78
ENDBRANCH  39  40
ENDBRANCH  32  34
ENDBRANCH  31  32
ENDBRANCH  30  31
ENDBRANCH  29  30
ENDBRANCH  28  29
ENDBRANCH  27  28
ENDBRANCH  26  27
ENDBRANCH  25  26
ENDBRANCH   1  25
TORSDOF 24
