REMARK SMILES O=C(OCCOCCOCCOCCOC(=O)c1cn(C2CN(C(=O)Nc3ccsc3)C2)nn1)c1ccc(-c2c3nc(c(-c4ccccc4)c4ccc([nH]4)c(-c4ccccc4)c4nc(c(-c5ccccc5)c5ccc2[nH]5)C=C4)C=C3)cc1
REMARK SMILES IDX 9 1 8 2 7 3 6 4 5 5 4 6 3 7 2 8 1 9 35 10 36 11 82 12 37 13
REMARK SMILES IDX 81 14 38 15 39 16 40 17 75 18 41 19 80 20 74 21 76 22 42 23
REMARK SMILES IDX 79 24 73 25 72 26 43 28 65 29 50 30 64 31 51 32 54 33 63 34
REMARK SMILES IDX 77 35 52 36 53 37 62 39 78 40 55 41 44 42 45 43 49 44 46 45
REMARK SMILES IDX 48 46 47 47 66 48 67 49 71 50 68 51 70 52 69 53 56 54 57 55
REMARK SMILES IDX 61 56 58 57 60 58 59 59 10 60 11 61 12 62 13 63 14 64 15 65
REMARK SMILES IDX 16 66 17 67 18 68 19 69 34 70 20 71 33 72 21 73 22 74 32 75
REMARK SMILES IDX 23 76 24 77 25 78 26 79 27 81 28 82 31 83 29 84 30 85
REMARK H PARENT 76 27 54 38 26 80
REMARK Flexibility Score: inf
ROOT
ATOM      1  O   UNL     1       2.837  -1.183  -3.093  1.00  0.00    -0.377 OA
ENDROOT
BRANCH   1   2
ATOM      2  C   UNL     1       2.456  -0.669  -1.828  1.00  0.00     0.188 C 
BRANCH   2   3
ATOM      3  C   UNL     1       3.119   0.666  -1.453  1.00  0.00     0.188 C 
BRANCH   3   4
ATOM      4  O   UNL     1       4.204   0.785  -0.530  1.00  0.00    -0.376 OA
BRANCH   4   5
ATOM      5  C   UNL     1       5.088  -0.265  -0.203  1.00  0.00     0.202 C 
BRANCH   5   6
ATOM      6  C   UNL     1       4.666  -1.173   0.959  1.00  0.00     0.261 C 
BRANCH   6   7
ATOM      7  O   UNL     1       3.279  -1.532   0.997  1.00  0.00    -0.460 OA
BRANCH   7   8
ATOM      8  C   UNL     1       2.188  -0.792   1.291  1.00  0.00     0.338 C 
ATOM      9  O   UNL     1       1.082  -1.285   1.066  1.00  0.00    -0.246 OA
BRANCH   8  10
ATOM     10  C   UNL     1       2.220   0.585   1.859  1.00  0.00     0.060 A 
ATOM     11  C   UNL     1       3.361   1.276   2.267  1.00  0.00     0.016 A 
ATOM     12  C   UNL     1       0.966   1.206   2.027  1.00  0.00     0.016 A 
ATOM     13  C   UNL     1       3.259   2.471   2.951  1.00  0.00     0.010 A 
ATOM     14  C   UNL     1       0.853   2.414   2.697  1.00  0.00     0.010 A 
ATOM     15  C   UNL     1       2.002   2.997   3.219  1.00  0.00    -0.014 A 
BRANCH  15  16
ATOM     16  C   UNL     1       1.959   4.149   4.099  1.00  0.00     0.031 A 
ATOM     17  C   UNL     1       2.549   5.404   3.578  1.00  0.00     0.074 A 
ATOM     18  C   UNL     1       1.381   4.072   5.311  1.00  0.00     0.049 A 
ATOM     19  N   UNL     1       3.494   6.117   4.098  1.00  0.00    -0.248 NA
ATOM     20  C   UNL     1       2.061   5.894   2.280  1.00  0.00     0.031 C 
ATOM     21  C   UNL     1       0.562   2.975   5.835  1.00  0.00     0.029 A 
ATOM     22  N   UNL     1       1.299   5.023   6.283  1.00  0.00    -0.354 N 
ATOM     23  C   UNL     1       3.598   7.248   3.295  1.00  0.00     0.074 A 
ATOM     24  C   UNL     1       2.783   7.004   2.131  1.00  0.00     0.031 C 
ATOM     25  C   UNL     1      -0.132   3.421   6.902  1.00  0.00     0.029 A 
ATOM     26  C   UNL     1       0.289   4.780   7.200  1.00  0.00     0.049 A 
ATOM     27  H   UNL     1       1.897   5.803   6.330  1.00  0.00     0.167 HD
ATOM     28  C   UNL     1       4.136   8.408   3.759  1.00  0.00     0.031 A 
ATOM     29  C   UNL     1      -0.234   5.660   8.083  1.00  0.00     0.031 A 
ATOM     30  C   UNL     1       5.015   8.201   4.878  1.00  0.00     0.049 A 
ATOM     31  C   UNL     1       0.723   6.775   8.253  1.00  0.00     0.074 A 
ATOM     32  C   UNL     1       6.151   7.447   5.104  1.00  0.00     0.029 A 
ATOM     33  N   UNL     1       4.585   8.602   6.119  1.00  0.00    -0.354 N 
ATOM     34  N   UNL     1       1.858   6.668   8.880  1.00  0.00    -0.248 NA
ATOM     35  C   UNL     1       0.593   7.944   7.397  1.00  0.00     0.031 C 
ATOM     36  C   UNL     1       6.070   7.049   6.471  1.00  0.00     0.029 A 
ATOM     37  C   UNL     1       4.907   7.607   7.002  1.00  0.00     0.049 A 
ATOM     38  H   UNL     1       4.130   9.448   6.334  1.00  0.00     0.167 HD
ATOM     39  C   UNL     1       2.727   7.492   8.180  1.00  0.00     0.074 A 
ATOM     40  C   UNL     1       1.865   8.349   7.373  1.00  0.00     0.031 C 
ATOM     41  C   UNL     1       4.062   7.207   8.105  1.00  0.00     0.031 A 
BRANCH  28  42
ATOM     42  C   UNL     1       3.506   9.751   3.467  1.00  0.00    -0.014 A 
ATOM     43  C   UNL     1       4.122  10.915   3.960  1.00  0.00     0.009 A 
ATOM     44  C   UNL     1       2.183   9.886   2.999  1.00  0.00     0.009 A 
ATOM     45  C   UNL     1       3.417  12.122   4.063  1.00  0.00     0.001 A 
ATOM     46  C   UNL     1       1.494  11.099   3.057  1.00  0.00     0.001 A 
ATOM     47  C   UNL     1       2.101  12.210   3.621  1.00  0.00     0.000 A 
ENDBRANCH  28  42
BRANCH  29  48
ATOM     48  C   UNL     1      -1.614   5.702   8.605  1.00  0.00    -0.014 A 
ATOM     49  C   UNL     1      -1.926   6.453   9.747  1.00  0.00     0.009 A 
ATOM     50  C   UNL     1      -2.683   5.183   7.849  1.00  0.00     0.009 A 
ATOM     51  C   UNL     1      -3.259   6.694  10.104  1.00  0.00     0.001 A 
ATOM     52  C   UNL     1      -4.012   5.411   8.212  1.00  0.00     0.001 A 
ATOM     53  C   UNL     1      -4.300   6.180   9.333  1.00  0.00     0.000 A 
ENDBRANCH  29  48
BRANCH  41  54
ATOM     54  C   UNL     1       4.620   6.165   9.042  1.00  0.00    -0.014 A 
ATOM     55  C   UNL     1       4.145   4.842   9.080  1.00  0.00     0.009 A 
ATOM     56  C   UNL     1       5.744   6.489   9.816  1.00  0.00     0.009 A 
ATOM     57  C   UNL     1       4.746   3.888   9.906  1.00  0.00     0.001 A 
ATOM     58  C   UNL     1       6.360   5.529  10.622  1.00  0.00     0.001 A 
ATOM     59  C   UNL     1       5.854   4.232  10.675  1.00  0.00     0.000 A 
ENDBRANCH  41  54
ENDBRANCH  15  16
ENDBRANCH   8  10
ENDBRANCH   7   8
ENDBRANCH   6   7
ENDBRANCH   5   6
ENDBRANCH   4   5
ENDBRANCH   3   4
ENDBRANCH   2   3
ENDBRANCH   1   2
BRANCH   1  60
ATOM     60  C   UNL     1       4.133  -1.732  -3.147  1.00  0.00     0.188 C 
BRANCH  60  61
ATOM     61  C   UNL     1       5.183  -0.835  -3.832  1.00  0.00     0.188 C 
BRANCH  61  62
ATOM     62  O   UNL     1       4.833   0.241  -4.697  1.00  0.00    -0.376 OA
BRANCH  62  63
ATOM     63  C   UNL     1       3.541   0.366  -5.265  1.00  0.00     0.202 C 
BRANCH  63  64
ATOM     64  C   UNL     1       3.153  -0.626  -6.368  1.00  0.00     0.261 C 
BRANCH  64  65
ATOM     65  O   UNL     1       3.345  -2.002  -6.016  1.00  0.00    -0.458 OA
BRANCH  65  66
ATOM     66  C   UNL     1       4.502  -2.564  -6.481  1.00  0.00     0.360 C 
ATOM     67  O   UNL     1       5.250  -2.058  -7.295  1.00  0.00    -0.244 OA
BRANCH  66  68
ATOM     68  C   UNL     1       4.821  -3.789  -5.765  1.00  0.00     0.190 A 
ATOM     69  C   UNL     1       4.073  -4.935  -5.577  1.00  0.00     0.147 A 
ATOM     70  N   UNL     1       5.992  -3.900  -5.051  1.00  0.00    -0.123 NA
ATOM     71  N   UNL     1       4.911  -5.745  -4.856  1.00  0.00    -0.245 N 
ATOM     72  N   UNL     1       5.979  -5.056  -4.413  1.00  0.00    -0.066 NA
BRANCH  71  73
ATOM     73  C   UNL     1       5.010  -7.169  -4.908  1.00  0.00     0.148 C 
ATOM     74  C   UNL     1       3.795  -8.042  -5.206  1.00  0.00     0.150 C 
ATOM     75  C   UNL     1       5.498  -7.523  -6.330  1.00  0.00     0.150 C 
ATOM     76  N   UNL     1       4.626  -8.665  -6.246  1.00  0.00    -0.320 N 
ATOM     77  C   UNL     1       4.258  -9.659  -7.093  1.00  0.00     0.322 C 
ATOM     78  O   UNL     1       3.261 -10.347  -6.855  1.00  0.00    -0.248 OA
ATOM     79  N   UNL     1       4.872  -9.818  -8.297  1.00  0.00    -0.307 N 
ATOM     80  H   UNL     1       4.356 -10.359  -8.938  1.00  0.00     0.171 HD
BRANCH  79  81
ATOM     81  C   UNL     1       6.083  -9.366  -8.792  1.00  0.00     0.053 A 
ATOM     82  C   UNL     1       7.312  -9.179  -8.095  1.00  0.00     0.038 A 
ATOM     83  C   UNL     1       6.246  -9.108 -10.138  1.00  0.00     0.091 A 
ATOM     84  C   UNL     1       8.287  -8.601  -8.879  1.00  0.00     0.067 A 
ATOM     85  S   UNL     1       7.775  -8.428 -10.499  1.00  0.00    -0.150 S 
ENDBRANCH  79  81
ENDBRANCH  71  73
ENDBRANCH  66  68
ENDBRANCH  65  66
ENDBRANCH  64  65
ENDBRANCH  63  64
ENDBRANCH  62  63
ENDBRANCH  61  62
ENDBRANCH  60  61
ENDBRANCH   1  60
TORSDOF 22
