REMARK SMILES Cc1c(Cl)cc2c(c1C)O[C@@H](C(F)(F)F)C(C(=O)OCCOCCOCCOCCOC(=O)c1ccc(-c3c4nc(c(-c5ccccc5)c5ccc([nH]5)c(-c5ccccc5)c5nc(c(-c6ccccc6)c6ccc3[nH]6)C=C5)C=C4)cc1)=C2
REMARK SMILES IDX 26 1 25 2 24 3 23 4 22 5 21 6 20 7 19 8 17 9 18 10 16 11
REMARK SMILES IDX 1 12 2 13 3 14 8 15 4 16 5 17 7 18 9 19 6 20 10 21 82 22
REMARK SMILES IDX 11 23 12 24 13 25 14 26 15 27 27 28 28 29 29 30 30 31 31 32
REMARK SMILES IDX 32 33 33 34 34 35 35 36 81 37 36 38 80 39 37 40 38 41 39 42
REMARK SMILES IDX 74 43 40 44 79 45 73 46 75 47 41 48 78 49 72 50 71 51 42 53
REMARK SMILES IDX 64 54 49 55 63 56 50 57 53 58 62 59 76 60 51 61 52 62 61 64
REMARK SMILES IDX 77 65 54 66 43 67 44 68 48 69 45 70 47 71 46 72 65 73 66 74
REMARK SMILES IDX 70 75 67 76 69 77 68 78 55 79 56 80 60 81 57 82 59 83 58 84
REMARK H PARENT 75 52 53 63
REMARK Flexibility Score: inf
ROOT
ATOM      1  C   UNL     1      -3.458   8.252   4.054  1.00  0.00     0.188 C 
ENDROOT
BRANCH   1   2
ATOM      2  O   UNL     1      -2.833   7.175   3.356  1.00  0.00    -0.377 OA
BRANCH   2   3
ATOM      3  C   UNL     1      -1.551   7.361   2.776  1.00  0.00     0.188 C 
BRANCH   3   4
ATOM      4  C   UNL     1      -1.397   8.482   1.735  1.00  0.00     0.188 C 
BRANCH   4   5
ATOM      5  O   UNL     1      -2.387   9.486   1.871  1.00  0.00    -0.376 OA
BRANCH   5   6
ATOM      6  C   UNL     1      -3.320   9.672   0.825  1.00  0.00     0.202 C 
BRANCH   6   7
ATOM      7  C   UNL     1      -4.210   8.507   0.353  1.00  0.00     0.261 C 
BRANCH   7   8
ATOM      8  O   UNL     1      -3.701   7.186   0.566  1.00  0.00    -0.460 OA
BRANCH   8   9
ATOM      9  C   UNL     1      -3.046   6.614  -0.459  1.00  0.00     0.338 C 
ATOM     10  O   UNL     1      -2.830   7.117  -1.549  1.00  0.00    -0.246 OA
BRANCH   9  11
ATOM     11  C   UNL     1      -2.485   5.320  -0.031  1.00  0.00     0.087 C 
ATOM     12  C   UNL     1       1.056  -0.145   0.206  1.00  0.00     0.046 C 
ATOM     13  C   UNL     1       0.492   1.254   0.198  1.00  0.00    -0.026 A 
ATOM     14  C   UNL     1       1.320   2.378   0.011  1.00  0.00     0.045 A 
ATOM     15  C   UNL     1      -0.910   1.454   0.319  1.00  0.00    -0.004 A 
ATOM     16  Cl  UNL     1       3.038   2.253  -0.164  1.00  0.00    -0.084 Cl
ATOM     17  C   UNL     1       0.780   3.663  -0.074  1.00  0.00     0.032 A 
ATOM     18  C   UNL     1      -1.439   2.759   0.220  1.00  0.00     0.131 A 
ATOM     19  C   UNL     1      -1.869   0.315   0.574  1.00  0.00     0.049 C 
ATOM     20  C   UNL     1      -0.598   3.853   0.008  1.00  0.00     0.019 A 
ATOM     21  O   UNL     1      -2.806   2.885   0.248  1.00  0.00    -0.475 OA
ATOM     22  C   UNL     1      -1.171   5.165  -0.238  1.00  0.00     0.027 C 
ATOM     23  C   UNL     1      -3.380   4.212   0.451  1.00  0.00     0.316 C 
BRANCH  23  24
ATOM     24  C   UNL     1      -3.878   4.309   1.905  1.00  0.00     0.430 C 
ATOM     25  F   UNL     1      -2.866   4.353   2.798  1.00  0.00    -0.167 F 
ATOM     26  F   UNL     1      -4.685   5.373   2.105  1.00  0.00    -0.167 F 
ATOM     27  F   UNL     1      -4.629   3.216   2.215  1.00  0.00    -0.167 F 
ENDBRANCH  23  24
ENDBRANCH   9  11
ENDBRANCH   8   9
ENDBRANCH   7   8
ENDBRANCH   6   7
ENDBRANCH   5   6
ENDBRANCH   4   5
ENDBRANCH   3   4
ENDBRANCH   2   3
ENDBRANCH   1   2
BRANCH   1  28
ATOM     28  C   UNL     1      -2.628   9.407   4.663  1.00  0.00     0.188 C 
BRANCH  28  29
ATOM     29  O   UNL     1      -1.260   9.111   4.899  1.00  0.00    -0.376 OA
BRANCH  29  30
ATOM     30  C   UNL     1      -0.906   8.778   6.235  1.00  0.00     0.202 C 
BRANCH  30  31
ATOM     31  C   UNL     1      -1.501   7.464   6.755  1.00  0.00     0.261 C 
BRANCH  31  32
ATOM     32  O   UNL     1      -2.927   7.467   6.947  1.00  0.00    -0.460 OA
BRANCH  32  33
ATOM     33  C   UNL     1      -3.457   8.410   7.752  1.00  0.00     0.338 C 
ATOM     34  O   UNL     1      -2.872   9.250   8.412  1.00  0.00    -0.246 OA
BRANCH  33  35
ATOM     35  C   UNL     1      -4.918   8.366   7.574  1.00  0.00     0.060 A 
ATOM     36  C   UNL     1      -5.574   9.470   7.016  1.00  0.00     0.016 A 
ATOM     37  C   UNL     1      -5.631   7.236   7.976  1.00  0.00     0.016 A 
ATOM     38  C   UNL     1      -6.962   9.458   6.888  1.00  0.00     0.010 A 
ATOM     39  C   UNL     1      -7.021   7.234   7.869  1.00  0.00     0.010 A 
ATOM     40  C   UNL     1      -7.692   8.357   7.356  1.00  0.00    -0.014 A 
BRANCH  40  41
ATOM     41  C   UNL     1      -9.160   8.462   7.509  1.00  0.00     0.031 A 
ATOM     42  C   UNL     1      -9.702   8.869   8.852  1.00  0.00     0.074 A 
ATOM     43  C   UNL     1      -9.991   8.223   6.481  1.00  0.00     0.049 A 
ATOM     44  N   UNL     1     -10.944   8.980   9.244  1.00  0.00    -0.248 NA
ATOM     45  C   UNL     1      -8.709   9.199   9.890  1.00  0.00     0.031 C 
ATOM     46  C   UNL     1      -9.582   7.882   5.119  1.00  0.00     0.029 A 
ATOM     47  N   UNL     1     -11.363   8.235   6.429  1.00  0.00    -0.354 N 
ATOM     48  C   UNL     1     -10.881   9.394  10.569  1.00  0.00     0.074 A 
ATOM     49  C   UNL     1      -9.484   9.484  10.926  1.00  0.00     0.031 C 
ATOM     50  C   UNL     1     -10.683   7.717   4.364  1.00  0.00     0.029 A 
ATOM     51  C   UNL     1     -11.870   7.904   5.197  1.00  0.00     0.049 A 
ATOM     52  H   UNL     1     -11.929   8.459   7.203  1.00  0.00     0.167 HD
ATOM     53  C   UNL     1     -11.899   9.685  11.410  1.00  0.00     0.031 A 
ATOM     54  C   UNL     1     -13.148   7.753   4.797  1.00  0.00     0.031 A 
ATOM     55  C   UNL     1     -13.288   9.579  11.061  1.00  0.00     0.049 A 
ATOM     56  C   UNL     1     -14.262   7.974   5.789  1.00  0.00     0.074 A 
ATOM     57  C   UNL     1     -14.394   9.838  11.850  1.00  0.00     0.029 A 
ATOM     58  N   UNL     1     -13.760   9.178   9.822  1.00  0.00    -0.354 N 
ATOM     59  N   UNL     1     -14.192   8.369   7.037  1.00  0.00    -0.248 NA
ATOM     60  C   UNL     1     -15.632   7.727   5.314  1.00  0.00     0.031 C 
ATOM     61  C   UNL     1     -15.538   9.545  11.103  1.00  0.00     0.029 A 
ATOM     62  C   UNL     1     -15.143   9.161   9.831  1.00  0.00     0.049 A 
ATOM     63  H   UNL     1     -13.196   8.941   9.051  1.00  0.00     0.167 HD
ATOM     64  C   UNL     1     -15.505   8.446   7.486  1.00  0.00     0.074 A 
ATOM     65  C   UNL     1     -16.352   8.071   6.374  1.00  0.00     0.031 C 
ATOM     66  C   UNL     1     -15.969   8.794   8.711  1.00  0.00     0.031 A 
BRANCH  53  67
ATOM     67  C   UNL     1     -11.551  10.135  12.799  1.00  0.00    -0.014 A 
ATOM     68  C   UNL     1     -11.041  11.422  13.033  1.00  0.00     0.009 A 
ATOM     69  C   UNL     1     -11.804   9.292  13.891  1.00  0.00     0.009 A 
ATOM     70  C   UNL     1     -10.782  11.851  14.336  1.00  0.00     0.001 A 
ATOM     71  C   UNL     1     -11.567   9.733  15.194  1.00  0.00     0.001 A 
ATOM     72  C   UNL     1     -11.053  11.010  15.415  1.00  0.00     0.000 A 
ENDBRANCH  53  67
BRANCH  54  73
ATOM     73  C   UNL     1     -13.456   7.359   3.396  1.00  0.00    -0.014 A 
ATOM     74  C   UNL     1     -14.102   8.254   2.529  1.00  0.00     0.009 A 
ATOM     75  C   UNL     1     -13.136   6.076   2.926  1.00  0.00     0.009 A 
ATOM     76  C   UNL     1     -14.441   7.864   1.231  1.00  0.00     0.001 A 
ATOM     77  C   UNL     1     -13.449   5.699   1.618  1.00  0.00     0.001 A 
ATOM     78  C   UNL     1     -14.111   6.589   0.775  1.00  0.00     0.000 A 
ENDBRANCH  54  73
BRANCH  66  79
ATOM     79  C   UNL     1     -17.458   8.821   8.915  1.00  0.00    -0.014 A 
ATOM     80  C   UNL     1     -18.199   7.634   9.016  1.00  0.00     0.009 A 
ATOM     81  C   UNL     1     -18.111  10.051   9.098  1.00  0.00     0.009 A 
ATOM     82  C   UNL     1     -19.570   7.680   9.276  1.00  0.00     0.001 A 
ATOM     83  C   UNL     1     -19.476  10.091   9.387  1.00  0.00     0.001 A 
ATOM     84  C   UNL     1     -20.205   8.906   9.470  1.00  0.00     0.000 A 
ENDBRANCH  66  79
ENDBRANCH  40  41
ENDBRANCH  33  35
ENDBRANCH  32  33
ENDBRANCH  31  32
ENDBRANCH  30  31
ENDBRANCH  29  30
ENDBRANCH  28  29
ENDBRANCH   1  28
TORSDOF 21
