REMARK SMILES Cc1nc(N[C@@H](C(=O)OCCOCCOCCOCCOC(=O)c2ccc(-c3c4nc(c(-c5ccccc5)c5ccc([nH]5)c(-c5ccccc5)c5nc(c(-c6ccccc6)c6ccc3[nH]6)C=C5)C=C4)cc2)C(C)C)c2c3c(sc2n1)CCCC3
REMARK SMILES IDX 15 1 14 2 13 3 12 4 11 5 10 6 9 7 7 8 8 9 6 10 5 11 4 13
REMARK SMILES IDX 1 14 2 15 3 16 80 17 79 18 75 19 78 20 76 21 77 22 84 23
REMARK SMILES IDX 81 24 83 25 82 26 72 27 73 28 74 29 16 30 17 31 18 32 19 33
REMARK SMILES IDX 20 34 21 35 22 36 23 37 24 38 25 39 71 40 26 41 70 42 27 43
REMARK SMILES IDX 28 44 29 45 64 46 30 47 69 48 63 49 65 50 31 51 68 52 62 53
REMARK SMILES IDX 61 54 32 56 54 57 39 58 53 59 40 60 43 61 52 62 66 63 41 64
REMARK SMILES IDX 42 65 51 67 67 68 44 69 33 70 34 71 38 72 35 73 37 74 36 75
REMARK SMILES IDX 55 76 56 77 60 78 57 79 59 80 58 81 45 82 46 83 50 84 47 85
REMARK SMILES IDX 49 86 48 87
REMARK H PARENT 5 12 65 55 43 66
REMARK Flexibility Score: inf
ROOT
ATOM      1  O   UNL     1      -3.681   4.051  -3.306  1.00  0.00    -0.377 OA
ENDROOT
BRANCH   1   2
ATOM      2  C   UNL     1      -2.696   4.715  -4.070  1.00  0.00     0.188 C 
BRANCH   2   3
ATOM      3  C   UNL     1      -3.154   5.189  -5.463  1.00  0.00     0.188 C 
BRANCH   3   4
ATOM      4  O   UNL     1      -4.484   4.986  -5.927  1.00  0.00    -0.376 OA
BRANCH   4   5
ATOM      5  C   UNL     1      -5.219   3.828  -5.562  1.00  0.00     0.202 C 
BRANCH   5   6
ATOM      6  C   UNL     1      -4.627   2.427  -5.779  1.00  0.00     0.261 C 
BRANCH   6   7
ATOM      7  O   UNL     1      -3.247   2.276  -5.413  1.00  0.00    -0.462 OA
BRANCH   7   8
ATOM      8  C   UNL     1      -2.365   2.110  -6.432  1.00  0.00     0.328 C 
ATOM      9  O   UNL     1      -2.692   2.066  -7.616  1.00  0.00    -0.250 OA
BRANCH   8  10
ATOM     10  C   UNL     1      -0.893   1.989  -5.975  1.00  0.00     0.193 C 
BRANCH  10  11
ATOM     11  N   UNL     1      -0.732   1.653  -4.572  1.00  0.00    -0.356 N 
ATOM     12  H   UNL     1      -0.831   2.414  -3.955  1.00  0.00     0.163 HD
BRANCH  11  13
ATOM     13  C   UNL     1      -0.467   0.455  -3.961  1.00  0.00     0.139 A 
ATOM     14  C   UNL     1       0.673  -0.048  -0.473  1.00  0.00     0.090 C 
ATOM     15  C   UNL     1       0.193  -0.367  -1.857  1.00  0.00     0.129 A 
ATOM     16  N   UNL     1      -0.102   0.660  -2.666  1.00  0.00    -0.216 NA
ATOM     17  N   UNL     1       0.143  -1.648  -2.199  1.00  0.00    -0.222 NA
ATOM     18  C   UNL     1      -0.235  -1.845  -3.471  1.00  0.00     0.129 A 
ATOM     19  C   UNL     1      -0.529  -0.884  -4.441  1.00  0.00     0.057 A 
ATOM     20  S   UNL     1      -0.409  -3.452  -4.001  1.00  0.00    -0.120 S 
ATOM     21  C   UNL     1      -0.840  -1.573  -5.703  1.00  0.00    -0.021 A 
ATOM     22  C   UNL     1      -0.889  -2.949  -5.539  1.00  0.00     0.011 A 
ATOM     23  C   UNL     1      -1.154  -0.995  -7.055  1.00  0.00     0.037 C 
ATOM     24  C   UNL     1      -1.290  -3.940  -6.590  1.00  0.00     0.047 C 
ATOM     25  C   UNL     1      -1.389  -2.011  -8.175  1.00  0.00     0.005 C 
ATOM     26  C   UNL     1      -2.120  -3.248  -7.675  1.00  0.00     0.006 C 
ENDBRANCH  11  13
ENDBRANCH  10  11
BRANCH  10  27
ATOM     27  C   UNL     1      -0.006   3.198  -6.369  1.00  0.00     0.017 C 
ATOM     28  C   UNL     1       1.474   2.873  -6.102  1.00  0.00     0.010 C 
ATOM     29  C   UNL     1      -0.162   3.547  -7.856  1.00  0.00     0.010 C 
ENDBRANCH  10  27
ENDBRANCH   8  10
ENDBRANCH   7   8
ENDBRANCH   6   7
ENDBRANCH   5   6
ENDBRANCH   4   5
ENDBRANCH   3   4
ENDBRANCH   2   3
ENDBRANCH   1   2
BRANCH   1  30
ATOM     30  C   UNL     1      -4.412   4.829  -2.368  1.00  0.00     0.188 C 
BRANCH  30  31
ATOM     31  C   UNL     1      -4.705   6.293  -2.740  1.00  0.00     0.188 C 
BRANCH  31  32
ATOM     32  O   UNL     1      -3.534   7.075  -2.963  1.00  0.00    -0.376 OA
BRANCH  32  33
ATOM     33  C   UNL     1      -2.963   7.750  -1.844  1.00  0.00     0.202 C 
BRANCH  33  34
ATOM     34  C   UNL     1      -2.524   6.862  -0.672  1.00  0.00     0.261 C 
BRANCH  34  35
ATOM     35  O   UNL     1      -3.628   6.321   0.075  1.00  0.00    -0.460 OA
BRANCH  35  36
ATOM     36  C   UNL     1      -4.437   7.210   0.675  1.00  0.00     0.338 C 
ATOM     37  O   UNL     1      -4.314   8.425   0.722  1.00  0.00    -0.246 OA
BRANCH  36  38
ATOM     38  C   UNL     1      -5.543   6.479   1.287  1.00  0.00     0.060 A 
ATOM     39  C   UNL     1      -6.729   6.238   0.584  1.00  0.00     0.016 A 
ATOM     40  C   UNL     1      -5.415   6.131   2.626  1.00  0.00     0.016 A 
ATOM     41  C   UNL     1      -7.814   5.663   1.244  1.00  0.00     0.010 A 
ATOM     42  C   UNL     1      -6.508   5.586   3.283  1.00  0.00     0.010 A 
ATOM     43  C   UNL     1      -7.721   5.361   2.609  1.00  0.00    -0.014 A 
BRANCH  43  44
ATOM     44  C   UNL     1      -8.908   4.851   3.335  1.00  0.00     0.031 A 
ATOM     45  C   UNL     1      -8.634   3.811   4.366  1.00  0.00     0.074 A 
ATOM     46  C   UNL     1      -9.989   5.637   3.540  1.00  0.00     0.049 A 
ATOM     47  N   UNL     1      -8.115   4.127   5.516  1.00  0.00    -0.248 NA
ATOM     48  C   UNL     1      -8.664   2.374   4.104  1.00  0.00     0.031 C 
ATOM     49  C   UNL     1      -9.970   7.100   3.399  1.00  0.00     0.029 A 
ATOM     50  N   UNL     1     -11.199   5.372   4.143  1.00  0.00    -0.354 N 
ATOM     51  C   UNL     1      -7.619   2.969   6.069  1.00  0.00     0.074 A 
ATOM     52  C   UNL     1      -8.044   1.895   5.196  1.00  0.00     0.031 C 
ATOM     53  C   UNL     1     -11.010   7.613   4.085  1.00  0.00     0.029 A 
ATOM     54  C   UNL     1     -11.853   6.527   4.570  1.00  0.00     0.049 A 
ATOM     55  H   UNL     1     -11.563   4.465   4.260  1.00  0.00     0.167 HD
ATOM     56  C   UNL     1      -6.822   2.971   7.168  1.00  0.00     0.031 A 
ATOM     57  C   UNL     1     -12.641   6.625   5.674  1.00  0.00     0.031 A 
ATOM     58  C   UNL     1      -6.486   4.260   7.700  1.00  0.00     0.049 A 
ATOM     59  C   UNL     1     -11.666   6.392   6.797  1.00  0.00     0.074 A 
ATOM     60  C   UNL     1      -5.466   5.175   7.531  1.00  0.00     0.029 A 
ATOM     61  N   UNL     1      -7.389   4.894   8.519  1.00  0.00    -0.354 N 
ATOM     62  N   UNL     1     -10.848   7.267   7.314  1.00  0.00    -0.248 NA
ATOM     63  C   UNL     1     -11.397   5.005   7.180  1.00  0.00     0.031 C 
ATOM     64  C   UNL     1      -6.024   6.445   7.882  1.00  0.00     0.029 A 
ATOM     65  C   UNL     1      -7.367   6.227   8.182  1.00  0.00     0.049 A 
ATOM     66  H   UNL     1      -7.946   4.475   9.214  1.00  0.00     0.167 HD
ATOM     67  C   UNL     1      -9.794   6.521   7.843  1.00  0.00     0.074 A 
ATOM     68  C   UNL     1     -10.220   5.138   7.776  1.00  0.00     0.031 C 
ATOM     69  C   UNL     1      -8.562   7.043   8.117  1.00  0.00     0.031 A 
BRANCH  56  70
ATOM     70  C   UNL     1      -6.343   1.742   7.819  1.00  0.00    -0.014 A 
ATOM     71  C   UNL     1      -7.038   1.270   8.941  1.00  0.00     0.009 A 
ATOM     72  C   UNL     1      -5.150   1.123   7.434  1.00  0.00     0.009 A 
ATOM     73  C   UNL     1      -6.533   0.208   9.688  1.00  0.00     0.001 A 
ATOM     74  C   UNL     1      -4.649   0.054   8.181  1.00  0.00     0.001 A 
ATOM     75  C   UNL     1      -5.336  -0.396   9.310  1.00  0.00     0.000 A 
ENDBRANCH  56  70
BRANCH  57  76
ATOM     76  C   UNL     1     -13.962   5.925   5.605  1.00  0.00    -0.014 A 
ATOM     77  C   UNL     1     -14.750   6.086   4.447  1.00  0.00     0.009 A 
ATOM     78  C   UNL     1     -14.500   5.149   6.643  1.00  0.00     0.009 A 
ATOM     79  C   UNL     1     -15.973   5.426   4.296  1.00  0.00     0.001 A 
ATOM     80  C   UNL     1     -15.711   4.464   6.482  1.00  0.00     0.001 A 
ATOM     81  C   UNL     1     -16.442   4.595   5.305  1.00  0.00     0.000 A 
ENDBRANCH  57  76
BRANCH  69  82
ATOM     82  C   UNL     1      -8.446   8.533   8.052  1.00  0.00    -0.014 A 
ATOM     83  C   UNL     1      -9.028   9.326   9.050  1.00  0.00     0.009 A 
ATOM     84  C   UNL     1      -7.731   9.162   7.021  1.00  0.00     0.009 A 
ATOM     85  C   UNL     1      -8.877  10.715   9.032  1.00  0.00     0.001 A 
ATOM     86  C   UNL     1      -7.566  10.549   7.012  1.00  0.00     0.001 A 
ATOM     87  C   UNL     1      -8.136  11.324   8.020  1.00  0.00     0.000 A 
ENDBRANCH  69  82
ENDBRANCH  43  44
ENDBRANCH  36  38
ENDBRANCH  35  36
ENDBRANCH  34  35
ENDBRANCH  33  34
ENDBRANCH  32  33
ENDBRANCH  31  32
ENDBRANCH  30  31
ENDBRANCH   1  30
TORSDOF 23
