REMARK SMILES O=C(OCCOCCOCCOCCOC(=O)c1ccccc1/N=C/c1coc2ccccc2c1=O)c1ccc(-c2c3nc(c(-c4ccccc4)c4ccc([nH]4)c(-c4ccccc4)c4nc(c(-c5ccccc5)c5ccc2[nH]5)C=C4)C=C3)cc1
REMARK SMILES IDX 9 1 8 2 7 3 6 4 5 5 4 6 3 7 2 8 1 9 37 10 38 11 84 12 39 13
REMARK SMILES IDX 83 14 40 15 41 16 42 17 77 18 43 19 82 20 76 21 78 22 44 23
REMARK SMILES IDX 81 24 75 25 74 26 45 28 67 29 52 30 66 31 53 32 56 33 65 34
REMARK SMILES IDX 79 35 54 36 55 37 64 39 80 40 57 41 46 42 47 43 51 44 48 45
REMARK SMILES IDX 50 46 49 47 68 48 69 49 73 50 70 51 72 52 71 53 58 54 59 55
REMARK SMILES IDX 63 56 60 57 62 58 61 59 10 60 11 61 12 62 13 63 14 64 15 65
REMARK SMILES IDX 16 66 17 67 18 68 19 69 23 70 20 71 22 72 21 73 24 74 25 75
REMARK SMILES IDX 26 76 27 77 35 78 28 79 34 80 36 81 29 82 33 83 30 84 32 85
REMARK SMILES IDX 31 86
REMARK H PARENT 78 27 56 38
REMARK Flexibility Score: inf
ROOT
ATOM      1  O   UNL     1       2.667   0.006  -3.767  1.00  0.00    -0.377 OA
ENDROOT
BRANCH   1   2
ATOM      2  C   UNL     1       1.885   0.206  -2.589  1.00  0.00     0.188 C 
BRANCH   2   3
ATOM      3  C   UNL     1       2.192  -0.780  -1.462  1.00  0.00     0.188 C 
BRANCH   3   4
ATOM      4  O   UNL     1       3.488  -0.500  -0.923  1.00  0.00    -0.376 OA
BRANCH   4   5
ATOM      5  C   UNL     1       4.162  -1.621  -0.363  1.00  0.00     0.202 C 
BRANCH   5   6
ATOM      6  C   UNL     1       4.048  -1.670   1.160  1.00  0.00     0.261 C 
BRANCH   6   7
ATOM      7  O   UNL     1       2.700  -1.415   1.584  1.00  0.00    -0.460 OA
BRANCH   7   8
ATOM      8  C   UNL     1       2.119  -0.223   1.871  1.00  0.00     0.338 C 
ATOM      9  O   UNL     1       0.911  -0.210   2.105  1.00  0.00    -0.246 OA
BRANCH   8  10
ATOM     10  C   UNL     1       2.868   1.067   2.028  1.00  0.00     0.060 A 
ATOM     11  C   UNL     1       4.063   1.413   1.393  1.00  0.00     0.016 A 
ATOM     12  C   UNL     1       2.287   2.019   2.888  1.00  0.00     0.016 A 
ATOM     13  C   UNL     1       4.739   2.590   1.713  1.00  0.00     0.010 A 
ATOM     14  C   UNL     1       2.936   3.221   3.185  1.00  0.00     0.010 A 
ATOM     15  C   UNL     1       4.202   3.474   2.648  1.00  0.00    -0.014 A 
BRANCH  15  16
ATOM     16  C   UNL     1       5.078   4.516   3.223  1.00  0.00     0.031 A 
ATOM     17  C   UNL     1       5.718   4.233   4.554  1.00  0.00     0.074 A 
ATOM     18  C   UNL     1       5.389   5.622   2.527  1.00  0.00     0.049 A 
ATOM     19  N   UNL     1       6.539   4.968   5.257  1.00  0.00    -0.248 NA
ATOM     20  C   UNL     1       5.399   2.931   5.169  1.00  0.00     0.031 C 
ATOM     21  C   UNL     1       4.910   5.940   1.183  1.00  0.00     0.029 A 
ATOM     22  N   UNL     1       6.215   6.668   2.849  1.00  0.00    -0.354 N 
ATOM     23  C   UNL     1       6.814   4.229   6.401  1.00  0.00     0.074 A 
ATOM     24  C   UNL     1       6.070   2.994   6.306  1.00  0.00     0.031 C 
ATOM     25  C   UNL     1       5.477   7.091   0.780  1.00  0.00     0.029 A 
ATOM     26  C   UNL     1       6.320   7.609   1.855  1.00  0.00     0.049 A 
ATOM     27  H   UNL     1       6.688   6.737   3.710  1.00  0.00     0.167 HD
ATOM     28  C   UNL     1       7.612   4.551   7.444  1.00  0.00     0.031 A 
ATOM     29  C   UNL     1       7.017   8.761   1.829  1.00  0.00     0.031 A 
ATOM     30  C   UNL     1       8.334   5.787   7.540  1.00  0.00     0.049 A 
ATOM     31  C   UNL     1       7.834   9.138   3.036  1.00  0.00     0.074 A 
ATOM     32  C   UNL     1       9.116   6.258   8.578  1.00  0.00     0.029 A 
ATOM     33  N   UNL     1       8.356   6.753   6.544  1.00  0.00    -0.354 N 
ATOM     34  N   UNL     1       8.045   8.457   4.138  1.00  0.00    -0.248 NA
ATOM     35  C   UNL     1       8.503  10.445   2.998  1.00  0.00     0.031 C 
ATOM     36  C   UNL     1       9.585   7.529   8.221  1.00  0.00     0.029 A 
ATOM     37  C   UNL     1       9.130   7.825   6.945  1.00  0.00     0.049 A 
ATOM     38  H   UNL     1       7.889   6.684   5.680  1.00  0.00     0.167 HD
ATOM     39  C   UNL     1       8.884   9.243   4.916  1.00  0.00     0.074 A 
ATOM     40  C   UNL     1       9.156  10.445   4.152  1.00  0.00     0.031 C 
ATOM     41  C   UNL     1       9.384   9.000   6.153  1.00  0.00     0.031 A 
BRANCH  28  42
ATOM     42  C   UNL     1       7.663   3.570   8.578  1.00  0.00    -0.014 A 
ATOM     43  C   UNL     1       8.369   2.360   8.469  1.00  0.00     0.009 A 
ATOM     44  C   UNL     1       6.938   3.832   9.750  1.00  0.00     0.009 A 
ATOM     45  C   UNL     1       8.308   1.414   9.495  1.00  0.00     0.001 A 
ATOM     46  C   UNL     1       6.897   2.893  10.782  1.00  0.00     0.001 A 
ATOM     47  C   UNL     1       7.572   1.680  10.649  1.00  0.00     0.000 A 
ENDBRANCH  28  42
BRANCH  29  48
ATOM     48  C   UNL     1       6.963   9.645   0.635  1.00  0.00    -0.014 A 
ATOM     49  C   UNL     1       8.095   9.827  -0.175  1.00  0.00     0.009 A 
ATOM     50  C   UNL     1       5.779  10.324   0.303  1.00  0.00     0.009 A 
ATOM     51  C   UNL     1       8.047  10.683  -1.279  1.00  0.00     0.001 A 
ATOM     52  C   UNL     1       5.726  11.158  -0.816  1.00  0.00     0.001 A 
ATOM     53  C   UNL     1       6.862  11.343  -1.601  1.00  0.00     0.000 A 
ENDBRANCH  29  48
BRANCH  41  54
ATOM     54  C   UNL     1      10.299  10.037   6.732  1.00  0.00    -0.014 A 
ATOM     55  C   UNL     1       9.794  11.237   7.255  1.00  0.00     0.009 A 
ATOM     56  C   UNL     1      11.677   9.784   6.800  1.00  0.00     0.009 A 
ATOM     57  C   UNL     1      10.661  12.179   7.811  1.00  0.00     0.001 A 
ATOM     58  C   UNL     1      12.537  10.717   7.377  1.00  0.00     0.001 A 
ATOM     59  C   UNL     1      12.030  11.916   7.875  1.00  0.00     0.000 A 
ENDBRANCH  41  54
ENDBRANCH  15  16
ENDBRANCH   8  10
ENDBRANCH   7   8
ENDBRANCH   6   7
ENDBRANCH   5   6
ENDBRANCH   4   5
ENDBRANCH   3   4
ENDBRANCH   2   3
ENDBRANCH   1   2
BRANCH   1  60
ATOM     60  C   UNL     1       4.084   0.030  -3.624  1.00  0.00     0.188 C 
BRANCH  60  61
ATOM     61  C   UNL     1       4.744   1.264  -2.967  1.00  0.00     0.188 C 
BRANCH  61  62
ATOM     62  O   UNL     1       3.898   2.394  -2.788  1.00  0.00    -0.376 OA
BRANCH  62  63
ATOM     63  C   UNL     1       4.059   3.441  -3.742  1.00  0.00     0.202 C 
BRANCH  63  64
ATOM     64  C   UNL     1       3.509   3.098  -5.124  1.00  0.00     0.261 C 
BRANCH  64  65
ATOM     65  O   UNL     1       4.250   2.055  -5.776  1.00  0.00    -0.460 OA
BRANCH  65  66
ATOM     66  C   UNL     1       5.513   2.311  -6.174  1.00  0.00     0.340 C 
ATOM     67  O   UNL     1       6.137   3.348  -6.027  1.00  0.00    -0.246 OA
BRANCH  66  68
ATOM     68  C   UNL     1       6.074   1.065  -6.723  1.00  0.00     0.085 A 
ATOM     69  C   UNL     1       7.173   0.516  -6.038  1.00  0.00     0.018 A 
ATOM     70  C   UNL     1       5.469   0.369  -7.781  1.00  0.00     0.077 A 
ATOM     71  C   UNL     1       7.655  -0.748  -6.380  1.00  0.00     0.001 A 
ATOM     72  C   UNL     1       6.008  -0.879  -8.134  1.00  0.00     0.029 A 
ATOM     73  C   UNL     1       7.079  -1.442  -7.438  1.00  0.00     0.002 A 
BRANCH  70  74
ATOM     74  N   UNL     1       4.213   0.623  -8.331  1.00  0.00    -0.255 NA
ATOM     75  C   UNL     1       3.657   1.771  -8.516  1.00  0.00     0.127 C 
BRANCH  75  76
ATOM     76  C   UNL     1       2.162   1.851  -8.695  1.00  0.00     0.076 A 
ATOM     77  C   UNL     1       1.769   1.563  -9.953  1.00  0.00     0.209 A 
ATOM     78  C   UNL     1       1.430   0.897  -7.785  1.00  0.00     0.201 A 
ATOM     79  O   UNL     1       1.749   0.245 -10.456  1.00  0.00    -0.463 OA
ATOM     80  C   UNL     1       1.632  -0.521  -8.159  1.00  0.00     0.065 A 
ATOM     81  O   UNL     1       0.780   1.270  -6.820  1.00  0.00    -0.288 OA
ATOM     82  C   UNL     1       1.853  -0.767  -9.521  1.00  0.00     0.137 A 
ATOM     83  C   UNL     1       1.850  -1.511  -7.203  1.00  0.00     0.016 A 
ATOM     84  C   UNL     1       2.273  -2.022  -9.945  1.00  0.00     0.048 A 
ATOM     85  C   UNL     1       2.311  -2.760  -7.629  1.00  0.00     0.001 A 
ATOM     86  C   UNL     1       2.519  -3.014  -8.992  1.00  0.00     0.004 A 
ENDBRANCH  75  76
ENDBRANCH  70  74
ENDBRANCH  66  68
ENDBRANCH  65  66
ENDBRANCH  64  65
ENDBRANCH  63  64
ENDBRANCH  62  63
ENDBRANCH  61  62
ENDBRANCH  60  61
ENDBRANCH   1  60
TORSDOF 22
