REMARK SMILES C[C@@](COc1ccccc1)(NC(=O)CN1CSCC1=O)C(=O)OCCOCCOCCOCCOC(=O)c1ccc(-c2c3nc(c(-c4ccccc4)c4ccc([nH]4)c(-c4ccccc4)c4nc(c(-c5ccccc5)c5ccc2[nH]5)C=C4)C=C3)cc1
REMARK SMILES IDX 28 1 27 2 26 3 25 4 24 5 23 6 21 7 22 8 2 9 1 10 3 11 4 12
REMARK SMILES IDX 5 13 6 14 10 15 7 16 9 17 8 18 11 19 12 20 13 22 14 23 15 24
REMARK SMILES IDX 16 25 19 26 17 27 18 28 20 29 29 30 30 31 31 32 32 33 33 34
REMARK SMILES IDX 34 35 35 36 36 37 37 38 38 39 39 40 85 41 40 42 84 43 41 44
REMARK SMILES IDX 42 45 43 46 78 47 44 48 83 49 77 50 79 51 45 52 82 53 76 54
REMARK SMILES IDX 75 55 46 57 68 58 53 59 67 60 54 61 57 62 66 63 80 64 55 65
REMARK SMILES IDX 56 66 65 68 81 69 58 70 47 71 48 72 52 73 49 74 51 75 50 76
REMARK SMILES IDX 69 77 70 78 74 79 71 80 73 81 72 82 59 83 60 84 64 85 61 86
REMARK SMILES IDX 63 87 62 88
REMARK H PARENT 11 21 79 56 57 67
REMARK Flexibility Score: inf
ROOT
ATOM      1  C   UNL     1      -0.407   0.370   2.683  1.00  0.00     0.188 C 
ENDROOT
BRANCH   1   2
ATOM      2  C   UNL     1       0.912   0.449   1.802  1.00  0.00     0.188 C 
BRANCH   2   3
ATOM      3  O   UNL     1       2.266   0.701   2.231  1.00  0.00    -0.376 OA
BRANCH   3   4
ATOM      4  C   UNL     1       3.086   1.898   2.134  1.00  0.00     0.202 C 
BRANCH   4   5
ATOM      5  C   UNL     1       3.500   2.817   0.939  1.00  0.00     0.261 C 
BRANCH   5   6
ATOM      6  O   UNL     1       2.433   3.396   0.202  1.00  0.00    -0.461 OA
BRANCH   6   7
ATOM      7  C   UNL     1       2.384   3.048  -1.113  1.00  0.00     0.335 C 
ATOM      8  O   UNL     1       3.324   3.129  -1.888  1.00  0.00    -0.249 OA
BRANCH   7   9
ATOM      9  C   UNL     1       1.163   2.162  -1.276  1.00  0.00     0.169 C 
ATOM     10  C   UNL     1       1.738   0.757  -0.974  1.00  0.00     0.051 C 
BRANCH   9  11
ATOM     11  C   UNL     1       0.710   2.092  -2.778  1.00  0.00     0.269 C 
BRANCH  11  12
ATOM     12  O   UNL     1      -0.353   1.121  -3.001  1.00  0.00    -0.491 OA
BRANCH  12  13
ATOM     13  C   UNL     1       0.021  -0.189  -3.197  1.00  0.00     0.119 A 
ATOM     14  C   UNL     1       1.004  -0.608  -4.094  1.00  0.00     0.046 A 
ATOM     15  C   UNL     1      -0.625  -1.142  -2.399  1.00  0.00     0.046 A 
ATOM     16  C   UNL     1       1.403  -1.953  -4.120  1.00  0.00     0.004 A 
ATOM     17  C   UNL     1      -0.211  -2.478  -2.409  1.00  0.00     0.004 A 
ATOM     18  C   UNL     1       0.812  -2.882  -3.262  1.00  0.00     0.000 A 
ENDBRANCH  12  13
ENDBRANCH  11  12
ENDBRANCH   9  11
BRANCH   9  19
ATOM     19  N   UNL     1      -0.001   2.716  -0.397  1.00  0.00    -0.336 N 
ATOM     20  C   UNL     1      -0.375   3.256   0.821  1.00  0.00     0.240 C 
ATOM     21  H   UNL     1      -0.819   2.656  -0.942  1.00  0.00     0.164 HD
ATOM     22  O   UNL     1      -1.615   3.424   0.842  1.00  0.00    -0.273 OA
BRANCH  20  23
ATOM     23  C   UNL     1       0.496   3.826   2.157  1.00  0.00     0.220 C 
BRANCH  23  24
ATOM     24  N   UNL     1       0.889   3.584   3.668  1.00  0.00    -0.323 N 
ATOM     25  C   UNL     1       1.007   2.342   4.449  1.00  0.00     0.190 C 
ATOM     26  C   UNL     1       1.424   4.677   4.366  1.00  0.00     0.233 C 
ATOM     27  S   UNL     1       1.461   2.701   6.144  1.00  0.00    -0.130 SA
ATOM     28  C   UNL     1       2.055   4.311   5.699  1.00  0.00     0.171 C 
ATOM     29  O   UNL     1       1.465   5.818   3.918  1.00  0.00    -0.274 OA
ENDBRANCH  23  24
ENDBRANCH  20  23
ENDBRANCH   9  19
ENDBRANCH   7   9
ENDBRANCH   6   7
ENDBRANCH   5   6
ENDBRANCH   4   5
ENDBRANCH   3   4
ENDBRANCH   2   3
ENDBRANCH   1   2
BRANCH   1  30
ATOM     30  O   UNL     1      -0.933   1.685   2.788  1.00  0.00    -0.377 OA
BRANCH  30  31
ATOM     31  C   UNL     1      -2.181   2.055   3.372  1.00  0.00     0.188 C 
BRANCH  31  32
ATOM     32  C   UNL     1      -2.340   1.917   4.893  1.00  0.00     0.188 C 
BRANCH  32  33
ATOM     33  O   UNL     1      -2.811   0.650   5.320  1.00  0.00    -0.376 OA
BRANCH  33  34
ATOM     34  C   UNL     1      -4.093   0.283   4.813  1.00  0.00     0.202 C 
BRANCH  34  35
ATOM     35  C   UNL     1      -5.270   1.175   5.243  1.00  0.00     0.261 C 
BRANCH  35  36
ATOM     36  O   UNL     1      -5.237   2.498   4.652  1.00  0.00    -0.460 OA
BRANCH  36  37
ATOM     37  C   UNL     1      -5.199   3.530   5.540  1.00  0.00     0.338 C 
ATOM     38  O   UNL     1      -5.198   3.445   6.755  1.00  0.00    -0.246 OA
BRANCH  37  39
ATOM     39  C   UNL     1      -5.030   4.834   4.854  1.00  0.00     0.060 A 
ATOM     40  C   UNL     1      -4.114   5.752   5.391  1.00  0.00     0.016 A 
ATOM     41  C   UNL     1      -5.867   5.214   3.804  1.00  0.00     0.016 A 
ATOM     42  C   UNL     1      -4.089   7.074   4.935  1.00  0.00     0.010 A 
ATOM     43  C   UNL     1      -5.850   6.541   3.357  1.00  0.00     0.010 A 
ATOM     44  C   UNL     1      -5.002   7.490   3.958  1.00  0.00    -0.014 A 
BRANCH  44  45
ATOM     45  C   UNL     1      -5.256   8.938   3.741  1.00  0.00     0.031 A 
ATOM     46  C   UNL     1      -6.364   9.592   4.527  1.00  0.00     0.074 A 
ATOM     47  C   UNL     1      -4.541   9.669   2.867  1.00  0.00     0.049 A 
ATOM     48  N   UNL     1      -6.838  10.810   4.446  1.00  0.00    -0.248 NA
ATOM     49  C   UNL     1      -7.027   8.754   5.540  1.00  0.00     0.031 C 
ATOM     50  C   UNL     1      -3.408   9.188   2.082  1.00  0.00     0.029 A 
ATOM     51  N   UNL     1      -4.683  10.983   2.490  1.00  0.00    -0.354 N 
ATOM     52  C   UNL     1      -7.858  10.880   5.387  1.00  0.00     0.074 A 
ATOM     53  C   UNL     1      -7.948   9.580   6.014  1.00  0.00     0.031 C 
ATOM     54  C   UNL     1      -2.967  10.190   1.299  1.00  0.00     0.029 A 
ATOM     55  C   UNL     1      -3.807  11.369   1.505  1.00  0.00     0.049 A 
ATOM     56  H   UNL     1      -5.349  11.589   2.887  1.00  0.00     0.167 HD
ATOM     57  C   UNL     1      -8.654  11.928   5.704  1.00  0.00     0.031 A 
ATOM     58  C   UNL     1      -3.714  12.531   0.829  1.00  0.00     0.031 A 
ATOM     59  C   UNL     1      -8.591  13.218   5.076  1.00  0.00     0.049 A 
ATOM     60  C   UNL     1      -4.671  13.655   1.133  1.00  0.00     0.074 A 
ATOM     61  C   UNL     1      -9.356  14.342   5.333  1.00  0.00     0.029 A 
ATOM     62  N   UNL     1      -7.716  13.552   4.056  1.00  0.00    -0.354 N 
ATOM     63  N   UNL     1      -5.625  13.712   2.030  1.00  0.00    -0.248 NA
ATOM     64  C   UNL     1      -4.536  14.877   0.324  1.00  0.00     0.031 C 
ATOM     65  C   UNL     1      -8.974  15.345   4.435  1.00  0.00     0.029 A 
ATOM     66  C   UNL     1      -7.939  14.857   3.653  1.00  0.00     0.049 A 
ATOM     67  H   UNL     1      -7.036  12.951   3.675  1.00  0.00     0.167 HD
ATOM     68  C   UNL     1      -6.186  14.978   1.910  1.00  0.00     0.074 A 
ATOM     69  C   UNL     1      -5.461  15.662   0.861  1.00  0.00     0.031 C 
ATOM     70  C   UNL     1      -7.211  15.526   2.608  1.00  0.00     0.031 A 
BRANCH  57  71
ATOM     71  C   UNL     1      -9.696  11.699   6.761  1.00  0.00    -0.014 A 
ATOM     72  C   UNL     1      -9.347  11.608   8.118  1.00  0.00     0.009 A 
ATOM     73  C   UNL     1     -11.045  11.585   6.395  1.00  0.00     0.009 A 
ATOM     74  C   UNL     1     -10.328  11.375   9.084  1.00  0.00     0.001 A 
ATOM     75  C   UNL     1     -12.026  11.375   7.365  1.00  0.00     0.001 A 
ATOM     76  C   UNL     1     -11.665  11.261   8.707  1.00  0.00     0.000 A 
ENDBRANCH  57  71
BRANCH  58  77
ATOM     77  C   UNL     1      -2.694  12.693  -0.240  1.00  0.00    -0.014 A 
ATOM     78  C   UNL     1      -1.593  13.542  -0.055  1.00  0.00     0.009 A 
ATOM     79  C   UNL     1      -2.839  12.024  -1.466  1.00  0.00     0.009 A 
ATOM     80  C   UNL     1      -0.668  13.735  -1.085  1.00  0.00     0.001 A 
ATOM     81  C   UNL     1      -1.901  12.201  -2.484  1.00  0.00     0.001 A 
ATOM     82  C   UNL     1      -0.821  13.062  -2.296  1.00  0.00     0.000 A 
ENDBRANCH  58  77
BRANCH  70  83
ATOM     83  C   UNL     1      -7.591  16.943   2.284  1.00  0.00    -0.014 A 
ATOM     84  C   UNL     1      -8.306  17.255   1.118  1.00  0.00     0.009 A 
ATOM     85  C   UNL     1      -7.272  17.971   3.185  1.00  0.00     0.009 A 
ATOM     86  C   UNL     1      -8.671  18.576   0.848  1.00  0.00     0.001 A 
ATOM     87  C   UNL     1      -7.659  19.286   2.923  1.00  0.00     0.001 A 
ATOM     88  C   UNL     1      -8.352  19.589   1.752  1.00  0.00     0.000 A 
ENDBRANCH  70  83
ENDBRANCH  44  45
ENDBRANCH  37  39
ENDBRANCH  36  37
ENDBRANCH  35  36
ENDBRANCH  34  35
ENDBRANCH  33  34
ENDBRANCH  32  33
ENDBRANCH  31  32
ENDBRANCH  30  31
ENDBRANCH   1  30
TORSDOF 26
