REMARK SMILES O=C(OCCOCCOCCOCCOC(=O)[C@H]1CCC[N@@H+]1CCn1ccnc1)c1ccc(-c2c3nc(c(-c4ccccc4)c4ccc([nH]4)c(-c4ccccc4)c4nc(c(-c5ccccc5)c5ccc2[nH]5)C=C4)C=C3)cc1
REMARK SMILES IDX 10 1 9 2 8 3 7 4 6 5 5 6 4 7 3 8 2 9 1 10 30 11 31 12 77 13
REMARK SMILES IDX 32 14 76 15 33 16 34 17 35 18 70 19 36 20 75 21 69 22 71 23
REMARK SMILES IDX 37 24 74 25 68 26 67 27 38 29 60 30 45 31 59 32 46 33 49 34
REMARK SMILES IDX 58 35 72 36 47 37 48 38 57 40 73 41 50 42 39 43 40 44 44 45
REMARK SMILES IDX 41 46 43 47 42 48 61 49 62 50 66 51 63 52 65 53 64 54 51 55
REMARK SMILES IDX 52 56 56 57 53 58 55 59 54 60 11 61 12 62 13 63 14 64 15 65
REMARK SMILES IDX 16 66 17 67 18 68 19 69 22 70 20 71 21 72 23 74 24 75 25 76
REMARK SMILES IDX 26 77 29 78 27 79 28 80
REMARK H PARENT 71 28 49 39 22 73
REMARK Flexibility Score: inf
ROOT
ATOM      1  C   UNL     1       5.500   3.303   0.051  1.00  0.00     0.188 C 
ENDROOT
BRANCH   1   2
ATOM      2  O   UNL     1       6.152   3.613  -1.165  1.00  0.00    -0.377 OA
BRANCH   2   3
ATOM      3  C   UNL     1       6.979   2.574  -1.679  1.00  0.00     0.188 C 
BRANCH   3   4
ATOM      4  C   UNL     1       6.311   1.192  -1.829  1.00  0.00     0.188 C 
BRANCH   4   5
ATOM      5  O   UNL     1       5.613   0.722  -0.692  1.00  0.00    -0.376 OA
BRANCH   5   6
ATOM      6  C   UNL     1       6.175   0.009   0.389  1.00  0.00     0.202 C 
BRANCH   6   7
ATOM      7  C   UNL     1       7.543   0.290   1.034  1.00  0.00     0.261 C 
BRANCH   7   8
ATOM      8  O   UNL     1       8.548   0.985   0.297  1.00  0.00    -0.460 OA
BRANCH   8   9
ATOM      9  C   UNL     1       9.395   0.579  -0.668  1.00  0.00     0.338 C 
ATOM     10  O   UNL     1      10.324   1.304  -1.003  1.00  0.00    -0.246 OA
BRANCH   9  11
ATOM     11  C   UNL     1       9.134  -0.632  -1.472  1.00  0.00     0.060 A 
ATOM     12  C   UNL     1       8.553  -1.797  -0.978  1.00  0.00     0.016 A 
ATOM     13  C   UNL     1       9.559  -0.574  -2.816  1.00  0.00     0.016 A 
ATOM     14  C   UNL     1       8.474  -2.917  -1.781  1.00  0.00     0.010 A 
ATOM     15  C   UNL     1       9.494  -1.698  -3.620  1.00  0.00     0.010 A 
ATOM     16  C   UNL     1       9.020  -2.880  -3.063  1.00  0.00    -0.014 A 
BRANCH  16  17
ATOM     17  C   UNL     1       9.205  -4.168  -3.704  1.00  0.00     0.031 A 
ATOM     18  C   UNL     1       7.977  -4.912  -4.069  1.00  0.00     0.074 A 
ATOM     19  C   UNL     1      10.443  -4.661  -3.887  1.00  0.00     0.049 A 
ATOM     20  N   UNL     1       7.583  -6.062  -3.626  1.00  0.00    -0.248 NA
ATOM     21  C   UNL     1       7.027  -4.251  -4.973  1.00  0.00     0.031 C 
ATOM     22  C   UNL     1      11.723  -3.952  -3.770  1.00  0.00     0.029 A 
ATOM     23  N   UNL     1      10.809  -5.895  -4.324  1.00  0.00    -0.354 N 
ATOM     24  C   UNL     1       6.418  -6.360  -4.327  1.00  0.00     0.074 A 
ATOM     25  C   UNL     1       6.060  -5.164  -5.050  1.00  0.00     0.031 C 
ATOM     26  C   UNL     1      12.686  -4.684  -4.367  1.00  0.00     0.029 A 
ATOM     27  C   UNL     1      12.118  -5.958  -4.771  1.00  0.00     0.049 A 
ATOM     28  H   UNL     1      10.201  -6.670  -4.323  1.00  0.00     0.167 HD
ATOM     29  C   UNL     1       5.952  -7.633  -4.442  1.00  0.00     0.031 A 
ATOM     30  C   UNL     1      12.670  -6.950  -5.505  1.00  0.00     0.031 A 
ATOM     31  C   UNL     1       6.457  -8.496  -3.408  1.00  0.00     0.049 A 
ATOM     32  C   UNL     1      11.835  -8.160  -5.343  1.00  0.00     0.074 A 
ATOM     33  C   UNL     1       6.376  -8.521  -2.030  1.00  0.00     0.029 A 
ATOM     34  N   UNL     1       7.461  -9.373  -3.737  1.00  0.00    -0.354 N 
ATOM     35  N   UNL     1      11.753  -8.833  -4.231  1.00  0.00    -0.248 NA
ATOM     36  C   UNL     1      10.755  -8.392  -6.290  1.00  0.00     0.031 C 
ATOM     37  C   UNL     1       7.632  -9.037  -1.593  1.00  0.00     0.029 A 
ATOM     38  C   UNL     1       8.388  -9.327  -2.731  1.00  0.00     0.049 A 
ATOM     39  H   UNL     1       7.506  -9.932  -4.547  1.00  0.00     0.167 HD
ATOM     40  C   UNL     1      10.426  -9.232  -4.152  1.00  0.00     0.074 A 
ATOM     41  C   UNL     1       9.893  -9.036  -5.498  1.00  0.00     0.031 C 
ATOM     42  C   UNL     1       9.814  -9.416  -2.944  1.00  0.00     0.031 A 
BRANCH  29  43
ATOM     43  C   UNL     1       5.385  -8.175  -5.734  1.00  0.00    -0.014 A 
ATOM     44  C   UNL     1       4.966  -9.518  -5.782  1.00  0.00     0.009 A 
ATOM     45  C   UNL     1       5.530  -7.517  -6.971  1.00  0.00     0.009 A 
ATOM     46  C   UNL     1       4.802 -10.187  -7.001  1.00  0.00     0.001 A 
ATOM     47  C   UNL     1       5.325  -8.169  -8.189  1.00  0.00     0.001 A 
ATOM     48  C   UNL     1       4.995  -9.516  -8.204  1.00  0.00     0.000 A 
ENDBRANCH  29  43
BRANCH  30  49
ATOM     49  C   UNL     1      13.684  -6.799  -6.566  1.00  0.00    -0.014 A 
ATOM     50  C   UNL     1      14.421  -7.899  -7.023  1.00  0.00     0.009 A 
ATOM     51  C   UNL     1      13.763  -5.601  -7.304  1.00  0.00     0.009 A 
ATOM     52  C   UNL     1      15.188  -7.808  -8.192  1.00  0.00     0.001 A 
ATOM     53  C   UNL     1      14.534  -5.508  -8.464  1.00  0.00     0.001 A 
ATOM     54  C   UNL     1      15.237  -6.617  -8.916  1.00  0.00     0.000 A 
ENDBRANCH  30  49
BRANCH  42  55
ATOM     55  C   UNL     1      10.678  -9.408  -1.708  1.00  0.00    -0.014 A 
ATOM     56  C   UNL     1      11.434  -8.286  -1.322  1.00  0.00     0.009 A 
ATOM     57  C   UNL     1      10.608 -10.498  -0.828  1.00  0.00     0.009 A 
ATOM     58  C   UNL     1      12.129  -8.273  -0.109  1.00  0.00     0.001 A 
ATOM     59  C   UNL     1      11.285 -10.475   0.394  1.00  0.00     0.001 A 
ATOM     60  C   UNL     1      12.050  -9.366   0.750  1.00  0.00     0.000 A 
ENDBRANCH  42  55
ENDBRANCH  16  17
ENDBRANCH   9  11
ENDBRANCH   8   9
ENDBRANCH   7   8
ENDBRANCH   6   7
ENDBRANCH   5   6
ENDBRANCH   4   5
ENDBRANCH   3   4
ENDBRANCH   2   3
ENDBRANCH   1   2
BRANCH   1  61
ATOM     61  C   UNL     1       3.980   3.072  -0.078  1.00  0.00     0.188 C 
BRANCH  61  62
ATOM     62  O   UNL     1       3.375   2.863  -1.350  1.00  0.00    -0.376 OA
BRANCH  62  63
ATOM     63  C   UNL     1       3.708   3.692  -2.460  1.00  0.00     0.202 C 
BRANCH  63  64
ATOM     64  C   UNL     1       3.595   5.215  -2.325  1.00  0.00     0.261 C 
BRANCH  64  65
ATOM     65  O   UNL     1       4.393   5.743  -1.261  1.00  0.00    -0.459 OA
BRANCH  65  66
ATOM     66  C   UNL     1       3.735   6.278  -0.197  1.00  0.00     0.364 C 
ATOM     67  O   UNL     1       2.523   6.421  -0.136  1.00  0.00    -0.245 OA
BRANCH  66  68
ATOM     68  C   UNL     1       4.705   6.537   0.987  1.00  0.00     0.295 C 
ATOM     69  C   UNL     1       6.164   6.725   0.585  1.00  0.00     0.083 C 
ATOM     70  N   UNL     1       4.349   7.813   1.625  1.00  0.00    -0.322 N 
ATOM     71  C   UNL     1       6.252   8.189   0.206  1.00  0.00     0.068 C 
ATOM     72  C   UNL     1       5.046   8.848   0.865  1.00  0.00     0.263 C 
ATOM     73  H   UNL     1       3.344   7.982   1.572  1.00  0.00     0.348 HD
BRANCH  70  74
ATOM     74  C   UNL     1       4.461   7.850   3.087  1.00  0.00     0.285 C 
BRANCH  74  75
ATOM     75  C   UNL     1       5.796   7.607   3.825  1.00  0.00     0.184 C 
BRANCH  75  76
ATOM     76  N   UNL     1       6.838   8.577   3.578  1.00  0.00    -0.332 N 
ATOM     77  C   UNL     1       6.720   9.938   3.635  1.00  0.00     0.107 A 
ATOM     78  C   UNL     1       8.127   8.294   3.224  1.00  0.00     0.199 A 
ATOM     79  C   UNL     1       7.918  10.416   3.159  1.00  0.00     0.130 A 
ATOM     80  N   UNL     1       8.792   9.387   2.926  1.00  0.00    -0.245 NA
ENDBRANCH  75  76
ENDBRANCH  74  75
ENDBRANCH  70  74
ENDBRANCH  66  68
ENDBRANCH  65  66
ENDBRANCH  64  65
ENDBRANCH  63  64
ENDBRANCH  62  63
ENDBRANCH  61  62
ENDBRANCH   1  61
TORSDOF 23
