REMARK SMILES CCc1n[nH]c(C(=O)N[C@@]2(C(=O)OCCOCCOCCOCCOC(=O)c3ccc(-c4c5nc(c(-c6ccccc6)c6ccc([nH]6)c(-c6ccccc6)c6nc(c(-c7ccccc7)c7ccc4[nH]7)C=C6)C=C5)cc3)CCCC[C@H]2C)n1
REMARK SMILES IDX 18 1 17 2 16 3 15 4 14 5 13 6 11 7 12 8 10 9 76 10 80 11
REMARK SMILES IDX 77 12 79 13 81 14 78 15 9 16 7 17 8 18 6 20 3 21 4 22 82 23
REMARK SMILES IDX 5 24 2 26 1 27 19 28 20 29 21 30 22 31 23 32 24 33 25 34
REMARK SMILES IDX 26 35 27 36 28 37 29 38 75 39 30 40 74 41 31 42 32 43 33 44
REMARK SMILES IDX 68 45 34 46 73 47 67 48 69 49 35 50 72 51 66 52 65 53 36 55
REMARK SMILES IDX 58 56 43 57 57 58 44 59 47 60 56 61 70 62 45 63 46 64 55 66
REMARK SMILES IDX 71 67 48 68 37 69 38 70 42 71 39 72 41 73 40 74 59 75 60 76
REMARK SMILES IDX 64 77 61 78 63 79 62 80 49 81 50 82 54 83 51 84 53 85 52 86
REMARK H PARENT 9 19 5 25 69 54 47 65
REMARK Flexibility Score: inf
ROOT
ATOM      1  C   UNL     1      -1.445   6.993   1.671  1.00  0.00     0.188 C 
ENDROOT
BRANCH   1   2
ATOM      2  C   UNL     1      -0.485   7.990   2.319  1.00  0.00     0.188 C 
BRANCH   2   3
ATOM      3  O   UNL     1       0.648   8.477   1.601  1.00  0.00    -0.376 OA
BRANCH   3   4
ATOM      4  C   UNL     1       0.804   8.160   0.229  1.00  0.00     0.202 C 
BRANCH   4   5
ATOM      5  C   UNL     1       1.444   6.792  -0.039  1.00  0.00     0.261 C 
BRANCH   5   6
ATOM      6  O   UNL     1       0.820   5.647   0.573  1.00  0.00    -0.461 OA
BRANCH   6   7
ATOM      7  C   UNL     1       1.250   5.248   1.810  1.00  0.00     0.332 C 
ATOM      8  O   UNL     1       2.014   5.897   2.519  1.00  0.00    -0.249 OA
BRANCH   7   9
ATOM      9  C   UNL     1       0.747   3.785   2.188  1.00  0.00     0.141 C 
ATOM     10  C   UNL     1       1.328   2.991   1.005  1.00  0.00     0.041 C 
ATOM     11  C   UNL     1      -0.804   3.647   2.296  1.00  0.00     0.023 C 
ATOM     12  C   UNL     1       0.753   1.632   0.732  1.00  0.00     0.003 C 
ATOM     13  C   UNL     1      -1.302   2.205   2.186  1.00  0.00     0.006 C 
ATOM     14  C   UNL     1      -1.413   4.253   3.578  1.00  0.00     0.011 C 
ATOM     15  C   UNL     1      -0.744   1.482   0.971  1.00  0.00     0.000 C 
BRANCH   9  16
ATOM     16  N   UNL     1       1.380   3.578   3.527  1.00  0.00    -0.333 N 
ATOM     17  C   UNL     1       1.692   2.583   4.410  1.00  0.00     0.289 C 
ATOM     18  O   UNL     1       2.119   2.966   5.505  1.00  0.00    -0.266 OA
ATOM     19  H   UNL     1       1.667   4.445   3.894  1.00  0.00     0.165 HD
BRANCH  17  20
ATOM     20  C   UNL     1       1.676   1.180   4.095  1.00  0.00     0.214 A 
ATOM     21  C   UNL     1       1.441  -0.758   3.263  1.00  0.00     0.151 A 
ATOM     22  N   UNL     1       2.522  -0.899   4.039  1.00  0.00    -0.158 NA
ATOM     23  N   UNL     1       0.849   0.480   3.349  1.00  0.00    -0.207 NA
ATOM     24  N   UNL     1       2.603   0.317   4.608  1.00  0.00    -0.255 N 
ATOM     25  H   UNL     1       3.251   0.556   5.309  1.00  0.00     0.192 HD
BRANCH  21  26
ATOM     26  C   UNL     1       0.977  -1.821   2.323  1.00  0.00     0.076 C 
ATOM     27  C   UNL     1       1.389  -1.595   0.870  1.00  0.00     0.012 C 
ENDBRANCH  21  26
ENDBRANCH  17  20
ENDBRANCH   9  16
ENDBRANCH   7   9
ENDBRANCH   6   7
ENDBRANCH   5   6
ENDBRANCH   4   5
ENDBRANCH   3   4
ENDBRANCH   2   3
ENDBRANCH   1   2
BRANCH   1  28
ATOM     28  O   UNL     1      -1.796   7.263   0.337  1.00  0.00    -0.377 OA
BRANCH  28  29
ATOM     29  C   UNL     1      -3.091   7.796   0.184  1.00  0.00     0.188 C 
BRANCH  29  30
ATOM     30  C   UNL     1      -3.353   9.087   0.971  1.00  0.00     0.188 C 
BRANCH  30  31
ATOM     31  O   UNL     1      -3.454   9.081   2.387  1.00  0.00    -0.376 OA
BRANCH  31  32
ATOM     32  C   UNL     1      -4.197   8.174   3.178  1.00  0.00     0.202 C 
BRANCH  32  33
ATOM     33  C   UNL     1      -5.551   7.563   2.797  1.00  0.00     0.261 C 
BRANCH  33  34
ATOM     34  O   UNL     1      -5.741   7.231   1.427  1.00  0.00    -0.460 OA
BRANCH  34  35
ATOM     35  C   UNL     1      -6.380   8.183   0.702  1.00  0.00     0.338 C 
ATOM     36  O   UNL     1      -6.777   9.260   1.084  1.00  0.00    -0.246 OA
BRANCH  35  37
ATOM     37  C   UNL     1      -6.351   7.773  -0.715  1.00  0.00     0.060 A 
ATOM     38  C   UNL     1      -5.758   8.637  -1.645  1.00  0.00     0.016 A 
ATOM     39  C   UNL     1      -6.917   6.563  -1.117  1.00  0.00     0.016 A 
ATOM     40  C   UNL     1      -5.742   8.301  -2.993  1.00  0.00     0.010 A 
ATOM     41  C   UNL     1      -6.943   6.248  -2.474  1.00  0.00     0.010 A 
ATOM     42  C   UNL     1      -6.386   7.134  -3.414  1.00  0.00    -0.014 A 
BRANCH  42  43
ATOM     43  C   UNL     1      -6.696   6.964  -4.847  1.00  0.00     0.031 A 
ATOM     44  C   UNL     1      -8.038   7.433  -5.329  1.00  0.00     0.074 A 
ATOM     45  C   UNL     1      -5.805   6.424  -5.692  1.00  0.00     0.049 A 
ATOM     46  N   UNL     1      -8.577   7.329  -6.514  1.00  0.00    -0.248 NA
ATOM     47  C   UNL     1      -8.891   8.108  -4.333  1.00  0.00     0.031 C 
ATOM     48  C   UNL     1      -4.451   5.998  -5.343  1.00  0.00     0.029 A 
ATOM     49  N   UNL     1      -5.920   6.133  -7.027  1.00  0.00    -0.354 N 
ATOM     50  C   UNL     1      -9.832   7.912  -6.404  1.00  0.00     0.074 A 
ATOM     51  C   UNL     1      -9.989   8.344  -5.034  1.00  0.00     0.031 C 
ATOM     52  C   UNL     1      -3.865   5.482  -6.437  1.00  0.00     0.029 A 
ATOM     53  C   UNL     1      -4.816   5.507  -7.546  1.00  0.00     0.049 A 
ATOM     54  H   UNL     1      -6.718   6.353  -7.560  1.00  0.00     0.167 HD
ATOM     55  C   UNL     1     -10.773   8.073  -7.363  1.00  0.00     0.031 A 
ATOM     56  C   UNL     1      -4.617   4.988  -8.773  1.00  0.00     0.031 A 
ATOM     57  C   UNL     1     -10.617   7.615  -8.716  1.00  0.00     0.049 A 
ATOM     58  C   UNL     1      -5.719   5.088  -9.796  1.00  0.00     0.074 A 
ATOM     59  C   UNL     1     -11.504   7.727  -9.771  1.00  0.00     0.029 A 
ATOM     60  N   UNL     1      -9.501   6.946  -9.195  1.00  0.00    -0.354 N 
ATOM     61  N   UNL     1      -6.897   5.656  -9.692  1.00  0.00    -0.248 NA
ATOM     62  C   UNL     1      -5.460   4.479 -11.108  1.00  0.00     0.031 C 
ATOM     63  C   UNL     1     -10.951   7.066 -10.872  1.00  0.00     0.029 A 
ATOM     64  C   UNL     1      -9.689   6.609 -10.523  1.00  0.00     0.049 A 
ATOM     65  H   UNL     1      -8.695   6.742  -8.668  1.00  0.00     0.167 HD
ATOM     66  C   UNL     1      -7.504   5.504 -10.933  1.00  0.00     0.074 A 
ATOM     67  C   UNL     1      -6.559   4.801 -11.776  1.00  0.00     0.031 C 
ATOM     68  C   UNL     1      -8.731   5.912 -11.343  1.00  0.00     0.031 A 
BRANCH  55  69
ATOM     69  C   UNL     1     -12.065   8.725  -6.961  1.00  0.00    -0.014 A 
ATOM     70  C   UNL     1     -12.128  10.088  -6.628  1.00  0.00     0.009 A 
ATOM     71  C   UNL     1     -13.244   7.964  -6.928  1.00  0.00     0.009 A 
ATOM     72  C   UNL     1     -13.338  10.665  -6.236  1.00  0.00     0.001 A 
ATOM     73  C   UNL     1     -14.458   8.551  -6.567  1.00  0.00     0.001 A 
ATOM     74  C   UNL     1     -14.502   9.898  -6.212  1.00  0.00     0.000 A 
ENDBRANCH  55  69
BRANCH  56  75
ATOM     75  C   UNL     1      -3.337   4.303  -9.097  1.00  0.00    -0.014 A 
ATOM     76  C   UNL     1      -2.448   4.851 -10.033  1.00  0.00     0.009 A 
ATOM     77  C   UNL     1      -3.008   3.083  -8.485  1.00  0.00     0.009 A 
ATOM     78  C   UNL     1      -1.272   4.178 -10.372  1.00  0.00     0.001 A 
ATOM     79  C   UNL     1      -1.816   2.428  -8.801  1.00  0.00     0.001 A 
ATOM     80  C   UNL     1      -0.954   2.970  -9.752  1.00  0.00     0.000 A 
ENDBRANCH  56  75
BRANCH  68  81
ATOM     81  C   UNL     1      -9.104   5.653 -12.776  1.00  0.00    -0.014 A 
ATOM     82  C   UNL     1      -9.388   4.360 -13.239  1.00  0.00     0.009 A 
ATOM     83  C   UNL     1      -9.232   6.737 -13.661  1.00  0.00     0.009 A 
ATOM     84  C   UNL     1      -9.762   4.154 -14.569  1.00  0.00     0.001 A 
ATOM     85  C   UNL     1      -9.639   6.532 -14.980  1.00  0.00     0.001 A 
ATOM     86  C   UNL     1      -9.894   5.240 -15.435  1.00  0.00     0.000 A 
ENDBRANCH  68  81
ENDBRANCH  42  43
ENDBRANCH  35  37
ENDBRANCH  34  35
ENDBRANCH  33  34
ENDBRANCH  32  33
ENDBRANCH  31  32
ENDBRANCH  30  31
ENDBRANCH  29  30
ENDBRANCH  28  29
ENDBRANCH   1  28
TORSDOF 23
