REMARK SMILES CCn1nc(C)c(NS(=O)(=O)c2cc(C(=O)OCCOCCOCCOCCOC(=O)c3ccc(-c4c5nc(c(-c6ccccc6)c6ccc([nH]6)c(-c6ccccc6)c6nc(c(-c7ccccc7)c7ccc4[nH]7)C=C6)C=C5)cc3)cc(F)c2C)c1C
REMARK SMILES IDX 22 1 21 2 20 3 19 4 18 5 17 6 15 7 16 8 14 9 12 10 13 11
REMARK SMILES IDX 83 12 81 13 84 14 80 15 82 16 9 17 10 18 11 19 8 20 7 22
REMARK SMILES IDX 3 23 4 24 85 25 5 26 86 27 6 28 2 29 1 30 23 31 24 32 25 33
REMARK SMILES IDX 26 34 27 35 28 36 29 37 30 38 31 39 32 40 33 41 79 42 34 43
REMARK SMILES IDX 78 44 35 45 36 46 37 47 72 48 38 49 77 50 71 51 73 52 39 53
REMARK SMILES IDX 76 54 70 55 69 56 40 58 62 59 47 60 61 61 48 62 51 63 60 64
REMARK SMILES IDX 74 65 49 66 50 67 59 69 75 70 52 71 41 72 42 73 46 74 43 75
REMARK SMILES IDX 45 76 44 77 63 78 64 79 68 80 65 81 67 82 66 83 53 84 54 85
REMARK SMILES IDX 58 86 55 87 57 88 56 89
REMARK H PARENT 8 21 73 57 51 68
REMARK Flexibility Score: inf
ROOT
ATOM      1  C   UNL     1       0.867  10.173  -5.707  1.00  0.00     0.188 C 
ENDROOT
BRANCH   1   2
ATOM      2  C   UNL     1       1.340  11.166  -4.622  1.00  0.00     0.188 C 
BRANCH   2   3
ATOM      3  O   UNL     1       2.175  12.206  -5.079  1.00  0.00    -0.376 OA
BRANCH   3   4
ATOM      4  C   UNL     1       3.580  12.083  -5.136  1.00  0.00     0.202 C 
BRANCH   4   5
ATOM      5  C   UNL     1       4.367  10.760  -5.154  1.00  0.00     0.261 C 
BRANCH   5   6
ATOM      6  O   UNL     1       3.652   9.555  -4.893  1.00  0.00    -0.460 OA
BRANCH   6   7
ATOM      7  C   UNL     1       3.558   9.169  -3.600  1.00  0.00     0.338 C 
ATOM      8  O   UNL     1       4.028   9.712  -2.623  1.00  0.00    -0.246 OA
BRANCH   7   9
ATOM      9  C   UNL     1       2.572   8.069  -3.554  1.00  0.00     0.064 A 
ATOM     10  C   UNL     1       1.825   5.878  -4.268  1.00  0.00     0.094 A 
ATOM     11  C   UNL     1       2.740   6.944  -4.353  1.00  0.00     0.038 A 
ATOM     12  C   UNL     1       0.642   6.005  -3.521  1.00  0.00     0.005 A 
ATOM     13  C   UNL     1       0.479   7.182  -2.773  1.00  0.00     0.128 A 
ATOM     14  C   UNL     1      -0.425   4.958  -3.386  1.00  0.00     0.049 C 
ATOM     15  C   UNL     1       1.446   8.183  -2.740  1.00  0.00     0.055 A 
ATOM     16  F   UNL     1      -0.618   7.339  -2.019  1.00  0.00    -0.207 F 
BRANCH  10  17
ATOM     17  S   UNL     1       2.341   4.391  -5.079  1.00  0.00     0.262 S 
ATOM     18  O   UNL     1       3.717   4.564  -5.495  1.00  0.00    -0.201 OA
ATOM     19  O   UNL     1       1.321   4.080  -6.060  1.00  0.00    -0.201 OA
BRANCH  17  20
ATOM     20  N   UNL     1       2.342   3.123  -3.996  1.00  0.00    -0.276 N 
ATOM     21  H   UNL     1       2.424   2.243  -4.430  1.00  0.00     0.180 HD
BRANCH  20  22
ATOM     22  C   UNL     1       2.252   3.045  -2.601  1.00  0.00     0.093 A 
ATOM     23  N   UNL     1       1.616   2.160  -0.687  1.00  0.00    -0.268 N 
ATOM     24  N   UNL     1       2.038   3.393  -0.363  1.00  0.00    -0.176 NA
ATOM     25  C   UNL     1       1.918   1.844  -1.985  1.00  0.00     0.060 A 
ATOM     26  C   UNL     1       2.495   3.918  -1.507  1.00  0.00     0.084 A 
ATOM     27  C   UNL     1       1.909   0.485  -2.585  1.00  0.00     0.069 C 
ATOM     28  C   UNL     1       3.142   5.243  -1.401  1.00  0.00     0.071 C 
BRANCH  23  29
ATOM     29  C   UNL     1       0.779   1.486   0.291  1.00  0.00     0.141 C 
ATOM     30  C   UNL     1       0.912  -0.018   0.426  1.00  0.00     0.029 C 
ENDBRANCH  23  29
ENDBRANCH  20  22
ENDBRANCH  17  20
ENDBRANCH  10  17
ENDBRANCH   7   9
ENDBRANCH   6   7
ENDBRANCH   5   6
ENDBRANCH   4   5
ENDBRANCH   3   4
ENDBRANCH   2   3
ENDBRANCH   1   2
BRANCH   1  31
ATOM     31  O   UNL     1       1.591  10.152  -6.923  1.00  0.00    -0.377 OA
BRANCH  31  32
ATOM     32  C   UNL     1       1.542  11.279  -7.794  1.00  0.00     0.188 C 
BRANCH  32  33
ATOM     33  C   UNL     1       0.751  12.582  -7.488  1.00  0.00     0.188 C 
BRANCH  33  34
ATOM     34  O   UNL     1      -0.125  12.537  -6.378  1.00  0.00    -0.376 OA
BRANCH  34  35
ATOM     35  C   UNL     1      -1.530  12.494  -6.489  1.00  0.00     0.202 C 
BRANCH  35  36
ATOM     36  C   UNL     1      -2.182  11.360  -7.266  1.00  0.00     0.261 C 
BRANCH  36  37
ATOM     37  O   UNL     1      -1.428  10.897  -8.368  1.00  0.00    -0.460 OA
BRANCH  37  38
ATOM     38  C   UNL     1      -1.473  11.713  -9.437  1.00  0.00     0.338 C 
ATOM     39  O   UNL     1      -1.837  12.873  -9.466  1.00  0.00    -0.246 OA
BRANCH  38  40
ATOM     40  C   UNL     1      -1.175  10.911 -10.624  1.00  0.00     0.060 A 
ATOM     41  C   UNL     1      -1.090  11.610 -11.824  1.00  0.00     0.016 A 
ATOM     42  C   UNL     1      -1.363   9.519 -10.570  1.00  0.00     0.016 A 
ATOM     43  C   UNL     1      -1.466  10.949 -12.967  1.00  0.00     0.010 A 
ATOM     44  C   UNL     1      -1.746   8.863 -11.713  1.00  0.00     0.010 A 
ATOM     45  C   UNL     1      -1.890   9.614 -12.871  1.00  0.00    -0.014 A 
BRANCH  45  46
ATOM     46  C   UNL     1      -2.408   8.999 -14.069  1.00  0.00     0.031 A 
ATOM     47  C   UNL     1      -1.361   8.804 -15.086  1.00  0.00     0.074 A 
ATOM     48  C   UNL     1      -3.695   8.646 -14.235  1.00  0.00     0.049 A 
ATOM     49  N   UNL     1      -1.205   9.499 -16.160  1.00  0.00    -0.248 NA
ATOM     50  C   UNL     1      -0.256   7.886 -14.780  1.00  0.00     0.031 C 
ATOM     51  C   UNL     1      -4.772   8.576 -13.246  1.00  0.00     0.029 A 
ATOM     52  N   UNL     1      -4.289   8.186 -15.367  1.00  0.00    -0.354 N 
ATOM     53  C   UNL     1      -0.078   8.981 -16.776  1.00  0.00     0.074 A 
ATOM     54  C   UNL     1       0.555   8.113 -15.814  1.00  0.00     0.031 C 
ATOM     55  C   UNL     1      -5.811   7.880 -13.771  1.00  0.00     0.029 A 
ATOM     56  C   UNL     1      -5.529   7.598 -15.169  1.00  0.00     0.049 A 
ATOM     57  H   UNL     1      -3.872   8.264 -16.255  1.00  0.00     0.167 HD
ATOM     58  C   UNL     1       0.099   9.114 -18.116  1.00  0.00     0.031 A 
ATOM     59  C   UNL     1      -6.231   6.893 -16.091  1.00  0.00     0.031 A 
ATOM     60  C   UNL     1      -0.766  10.123 -18.671  1.00  0.00     0.049 A 
ATOM     61  C   UNL     1      -5.731   7.290 -17.428  1.00  0.00     0.074 A 
ATOM     62  C   UNL     1      -0.905  11.486 -18.509  1.00  0.00     0.029 A 
ATOM     63  N   UNL     1      -1.935   9.682 -19.244  1.00  0.00    -0.354 N 
ATOM     64  N   UNL     1      -5.928   8.470 -17.939  1.00  0.00    -0.248 NA
ATOM     65  C   UNL     1      -4.631   6.535 -18.008  1.00  0.00     0.031 C 
ATOM     66  C   UNL     1      -2.308  11.727 -18.580  1.00  0.00     0.029 A 
ATOM     67  C   UNL     1      -2.947  10.514 -18.845  1.00  0.00     0.049 A 
ATOM     68  H   UNL     1      -2.029   8.903 -19.839  1.00  0.00     0.167 HD
ATOM     69  C   UNL     1      -4.727   8.789 -18.556  1.00  0.00     0.074 A 
ATOM     70  C   UNL     1      -4.009   7.520 -18.664  1.00  0.00     0.031 C 
ATOM     71  C   UNL     1      -4.317  10.088 -18.657  1.00  0.00     0.031 A 
BRANCH  58  72
ATOM     72  C   UNL     1       0.702   8.026 -18.960  1.00  0.00    -0.014 A 
ATOM     73  C   UNL     1       0.878   8.266 -20.333  1.00  0.00     0.009 A 
ATOM     74  C   UNL     1       0.818   6.692 -18.524  1.00  0.00     0.009 A 
ATOM     75  C   UNL     1       1.082   7.212 -21.230  1.00  0.00     0.001 A 
ATOM     76  C   UNL     1       1.061   5.643 -19.411  1.00  0.00     0.001 A 
ATOM     77  C   UNL     1       1.164   5.901 -20.769  1.00  0.00     0.000 A 
ENDBRANCH  58  72
BRANCH  59  78
ATOM     78  C   UNL     1      -7.084   5.700 -15.907  1.00  0.00    -0.014 A 
ATOM     79  C   UNL     1      -7.958   5.281 -16.924  1.00  0.00     0.009 A 
ATOM     80  C   UNL     1      -6.816   4.799 -14.861  1.00  0.00     0.009 A 
ATOM     81  C   UNL     1      -8.505   3.990 -16.918  1.00  0.00     0.001 A 
ATOM     82  C   UNL     1      -7.363   3.511 -14.855  1.00  0.00     0.001 A 
ATOM     83  C   UNL     1      -8.194   3.101 -15.893  1.00  0.00     0.000 A 
ENDBRANCH  59  78
BRANCH  71  84
ATOM     84  C   UNL     1      -5.319  11.167 -18.320  1.00  0.00    -0.014 A 
ATOM     85  C   UNL     1      -5.907  11.312 -17.050  1.00  0.00     0.009 A 
ATOM     86  C   UNL     1      -5.575  12.151 -19.286  1.00  0.00     0.009 A 
ATOM     87  C   UNL     1      -6.750  12.394 -16.770  1.00  0.00     0.001 A 
ATOM     88  C   UNL     1      -6.398  13.242 -19.000  1.00  0.00     0.001 A 
ATOM     89  C   UNL     1      -6.990  13.360 -17.744  1.00  0.00     0.000 A 
ENDBRANCH  71  84
ENDBRANCH  45  46
ENDBRANCH  38  40
ENDBRANCH  37  38
ENDBRANCH  36  37
ENDBRANCH  35  36
ENDBRANCH  34  35
ENDBRANCH  33  34
ENDBRANCH  32  33
ENDBRANCH  31  32
ENDBRANCH   1  31
TORSDOF 24
