REMARK SMILES CC(C)C[C@H](C(=O)OCCOCCOCCOCCOC(=O)c1ccc(-c2c3nc(c(-c4ccccc4)c4ccc([nH]4)c(-c4ccccc4)c4nc(c(-c5ccccc5)c5ccc2[nH]5)C=C4)C=C3)cc1)[C@@H]1CCO[C@]2(CCOC2)C1
REMARK SMILES IDX 14 1 13 2 12 3 11 4 10 5 9 6 8 7 6 8 7 9 5 10 4 11 2 12 1 13
REMARK SMILES IDX 3 14 71 15 72 16 80 17 73 18 75 19 74 20 76 21 79 22 77 23
REMARK SMILES IDX 78 24 15 25 16 26 17 27 18 28 19 29 20 30 21 31 22 32 23 33
REMARK SMILES IDX 24 34 70 35 25 36 69 37 26 38 27 39 28 40 63 41 29 42 68 43
REMARK SMILES IDX 62 44 64 45 30 46 67 47 61 48 60 49 31 51 53 52 38 53 52 54
REMARK SMILES IDX 39 55 42 56 51 57 65 58 40 59 41 60 50 62 66 63 43 64 32 65
REMARK SMILES IDX 33 66 37 67 34 68 36 69 35 70 54 71 55 72 59 73 56 74 58 75
REMARK SMILES IDX 57 76 44 77 45 78 49 79 46 80 48 81 47 82
REMARK H PARENT 64 50 42 61
REMARK Flexibility Score: inf
ROOT
ATOM      1  O   UNL     1       0.852  -2.432  -2.206  1.00  0.00    -0.377 OA
ENDROOT
BRANCH   1   2
ATOM      2  C   UNL     1       1.320  -1.298  -1.510  1.00  0.00     0.188 C 
BRANCH   2   3
ATOM      3  C   UNL     1       1.432  -1.394   0.006  1.00  0.00     0.188 C 
BRANCH   3   4
ATOM      4  O   UNL     1       1.556  -2.669   0.593  1.00  0.00    -0.376 OA
BRANCH   4   5
ATOM      5  C   UNL     1       0.535  -3.641   0.410  1.00  0.00     0.202 C 
BRANCH   5   6
ATOM      6  C   UNL     1      -0.957  -3.303   0.182  1.00  0.00     0.261 C 
BRANCH   6   7
ATOM      7  O   UNL     1      -1.294  -2.413  -0.913  1.00  0.00    -0.463 OA
BRANCH   7   8
ATOM      8  C   UNL     1      -1.810  -1.221  -0.547  1.00  0.00     0.309 C 
ATOM      9  O   UNL     1      -2.051  -0.936   0.628  1.00  0.00    -0.252 OA
BRANCH   8  10
ATOM     10  C   UNL     1      -2.071  -0.166  -1.650  1.00  0.00     0.103 C 
BRANCH  10  11
ATOM     11  C   UNL     1      -1.489  -0.273  -3.097  1.00  0.00     0.018 C 
BRANCH  11  12
ATOM     12  C   UNL     1      -0.834   1.054  -3.651  1.00  0.00    -0.017 C 
ATOM     13  C   UNL     1       0.460   1.553  -2.991  1.00  0.00     0.007 C 
ATOM     14  C   UNL     1      -0.583   0.984  -5.161  1.00  0.00     0.007 C 
ENDBRANCH  11  12
ENDBRANCH  10  11
BRANCH  10  15
ATOM     15  C   UNL     1      -3.591   0.194  -1.509  1.00  0.00     0.008 C 
ATOM     16  C   UNL     1      -4.450   0.373  -2.755  1.00  0.00     0.033 C 
ATOM     17  C   UNL     1      -3.813   1.419  -0.596  1.00  0.00     0.042 C 
ATOM     18  C   UNL     1      -4.260   1.712  -3.438  1.00  0.00     0.161 C 
ATOM     19  C   UNL     1      -3.624   2.775  -1.304  1.00  0.00     0.094 C 
ATOM     20  O   UNL     1      -4.282   2.834  -2.570  1.00  0.00    -0.372 OA
ATOM     21  C   UNL     1      -2.185   3.283  -1.311  1.00  0.00     0.066 C 
ATOM     22  C   UNL     1      -4.234   3.902  -0.455  1.00  0.00     0.195 C 
ATOM     23  C   UNL     1      -1.990   3.940   0.045  1.00  0.00     0.163 C 
ATOM     24  O   UNL     1      -3.286   4.243   0.560  1.00  0.00    -0.378 OA
ENDBRANCH  10  15
ENDBRANCH   8  10
ENDBRANCH   7   8
ENDBRANCH   6   7
ENDBRANCH   5   6
ENDBRANCH   4   5
ENDBRANCH   3   4
ENDBRANCH   2   3
ENDBRANCH   1   2
BRANCH   1  25
ATOM     25  C   UNL     1       1.746  -3.437  -2.638  1.00  0.00     0.188 C 
BRANCH  25  26
ATOM     26  C   UNL     1       3.212  -3.368  -2.203  1.00  0.00     0.188 C 
BRANCH  26  27
ATOM     27  O   UNL     1       3.781  -2.072  -2.256  1.00  0.00    -0.376 OA
BRANCH  27  28
ATOM     28  C   UNL     1       4.380  -1.622  -3.463  1.00  0.00     0.202 C 
BRANCH  28  29
ATOM     29  C   UNL     1       3.517  -1.533  -4.734  1.00  0.00     0.261 C 
BRANCH  29  30
ATOM     30  O   UNL     1       2.983  -2.762  -5.260  1.00  0.00    -0.460 OA
BRANCH  30  31
ATOM     31  C   UNL     1       3.816  -3.810  -5.439  1.00  0.00     0.338 C 
ATOM     32  O   UNL     1       5.019  -3.830  -5.307  1.00  0.00    -0.246 OA
BRANCH  31  33
ATOM     33  C   UNL     1       2.980  -5.015  -5.638  1.00  0.00     0.060 A 
ATOM     34  C   UNL     1       3.076  -6.063  -4.713  1.00  0.00     0.016 A 
ATOM     35  C   UNL     1       2.125  -5.118  -6.737  1.00  0.00     0.016 A 
ATOM     36  C   UNL     1       2.350  -7.237  -4.907  1.00  0.00     0.010 A 
ATOM     37  C   UNL     1       1.417  -6.305  -6.945  1.00  0.00     0.010 A 
ATOM     38  C   UNL     1       1.558  -7.383  -6.052  1.00  0.00    -0.014 A 
BRANCH  38  39
ATOM     39  C   UNL     1       1.060  -8.729  -6.424  1.00  0.00     0.031 A 
ATOM     40  C   UNL     1       1.843  -9.523  -7.435  1.00  0.00     0.074 A 
ATOM     41  C   UNL     1      -0.036  -9.256  -5.852  1.00  0.00     0.049 A 
ATOM     42  N   UNL     1       1.587 -10.698  -7.949  1.00  0.00    -0.248 NA
ATOM     43  C   UNL     1       3.083  -8.904  -7.933  1.00  0.00     0.031 C 
ATOM     44  C   UNL     1      -0.844  -8.617  -4.815  1.00  0.00     0.029 A 
ATOM     45  N   UNL     1      -0.660 -10.459  -6.073  1.00  0.00    -0.354 N 
ATOM     46  C   UNL     1       2.626 -10.953  -8.837  1.00  0.00     0.074 A 
ATOM     47  C   UNL     1       3.497  -9.800  -8.815  1.00  0.00     0.031 C 
ATOM     48  C   UNL     1      -1.865  -9.431  -4.497  1.00  0.00     0.029 A 
ATOM     49  C   UNL     1      -1.804 -10.629  -5.333  1.00  0.00     0.049 A 
ATOM     50  H   UNL     1      -0.319 -11.135  -6.702  1.00  0.00     0.167 HD
ATOM     51  C   UNL     1       2.838 -12.051  -9.599  1.00  0.00     0.031 A 
ATOM     52  C   UNL     1      -2.712 -11.625  -5.352  1.00  0.00     0.031 A 
ATOM     53  C   UNL     1       1.960 -13.189  -9.634  1.00  0.00     0.049 A 
ATOM     54  C   UNL     1      -2.506 -12.793  -6.282  1.00  0.00     0.074 A 
ATOM     55  C   UNL     1       2.086 -14.354 -10.371  1.00  0.00     0.029 A 
ATOM     56  N   UNL     1       0.785 -13.300  -8.907  1.00  0.00    -0.354 N 
ATOM     57  N   UNL     1      -1.514 -13.032  -7.106  1.00  0.00    -0.248 NA
ATOM     58  C   UNL     1      -3.544 -13.834  -6.277  1.00  0.00     0.031 C 
ATOM     59  C   UNL     1       0.953 -15.140 -10.141  1.00  0.00     0.029 A 
ATOM     60  C   UNL     1       0.160 -14.500  -9.201  1.00  0.00     0.049 A 
ATOM     61  H   UNL     1       0.446 -12.626  -8.275  1.00  0.00     0.167 HD
ATOM     62  C   UNL     1      -1.792 -14.262  -7.691  1.00  0.00     0.074 A 
ATOM     63  C   UNL     1      -3.036 -14.726  -7.115  1.00  0.00     0.031 C 
ATOM     64  C   UNL     1      -1.080 -14.948  -8.619  1.00  0.00     0.031 A 
BRANCH  51  65
ATOM     65  C   UNL     1       4.048 -12.049 -10.493  1.00  0.00    -0.014 A 
ATOM     66  C   UNL     1       5.349 -12.125  -9.969  1.00  0.00     0.009 A 
ATOM     67  C   UNL     1       3.881 -11.994 -11.885  1.00  0.00     0.009 A 
ATOM     68  C   UNL     1       6.457 -12.107 -10.820  1.00  0.00     0.001 A 
ATOM     69  C   UNL     1       4.989 -12.009 -12.735  1.00  0.00     0.001 A 
ATOM     70  C   UNL     1       6.275 -12.055 -12.201  1.00  0.00     0.000 A 
ENDBRANCH  51  65
BRANCH  52  71
ATOM     71  C   UNL     1      -3.920 -11.552  -4.486  1.00  0.00    -0.014 A 
ATOM     72  C   UNL     1      -4.109 -12.462  -3.435  1.00  0.00     0.009 A 
ATOM     73  C   UNL     1      -4.909 -10.584  -4.727  1.00  0.00     0.009 A 
ATOM     74  C   UNL     1      -5.274 -12.422  -2.664  1.00  0.00     0.001 A 
ATOM     75  C   UNL     1      -6.056 -10.525  -3.934  1.00  0.00     0.001 A 
ATOM     76  C   UNL     1      -6.243 -11.451  -2.910  1.00  0.00     0.000 A 
ENDBRANCH  52  71
BRANCH  64  77
ATOM     77  C   UNL     1      -1.603 -16.296  -9.038  1.00  0.00    -0.014 A 
ATOM     78  C   UNL     1      -2.763 -16.426  -9.816  1.00  0.00     0.009 A 
ATOM     79  C   UNL     1      -0.891 -17.454  -8.684  1.00  0.00     0.009 A 
ATOM     80  C   UNL     1      -3.220 -17.690 -10.198  1.00  0.00     0.001 A 
ATOM     81  C   UNL     1      -1.329 -18.712  -9.096  1.00  0.00     0.001 A 
ATOM     82  C   UNL     1      -2.500 -18.830  -9.843  1.00  0.00     0.000 A 
ENDBRANCH  64  77
ENDBRANCH  38  39
ENDBRANCH  31  33
ENDBRANCH  30  31
ENDBRANCH  29  30
ENDBRANCH  28  29
ENDBRANCH  27  28
ENDBRANCH  26  27
ENDBRANCH  25  26
ENDBRANCH   1  25
TORSDOF 23
