REMARK SMILES Cc1ccc([C@@H](C)Nc2ccc(N)cc2C(=O)OCCOCCOCCOCCOC(=O)c2ccc(-c3c4nc(c(-c5ccccc5)c5ccc([nH]5)c(-c5ccccc5)c5nc(c(-c6ccccc6)c6ccc3[nH]6)C=C5)C=C4)cc2)cc1F
REMARK SMILES IDX 23 1 22 2 21 3 20 4 19 5 18 6 16 7 17 8 15 9 9 10 10 11
REMARK SMILES IDX 11 12 14 13 12 14 8 15 6 17 7 18 5 19 1 20 2 21 3 22 82 23
REMARK SMILES IDX 4 24 81 25 83 26 13 27 24 30 25 31 26 32 27 33 28 34 29 35
REMARK SMILES IDX 30 36 31 37 32 38 33 39 34 40 80 41 35 42 79 43 36 44 37 45
REMARK SMILES IDX 38 46 73 47 39 48 78 49 72 50 74 51 40 52 77 53 71 54 70 55
REMARK SMILES IDX 41 57 63 58 48 59 62 60 49 61 52 62 61 63 75 64 50 65 51 66
REMARK SMILES IDX 60 68 76 69 53 70 42 71 43 72 47 73 44 74 46 75 45 76 64 77
REMARK SMILES IDX 65 78 69 79 66 80 68 81 67 82 54 83 55 84 59 85 56 86 58 87
REMARK SMILES IDX 57 88
REMARK H PARENT 8 16 13 28 13 29 74 56 52 67
REMARK Flexibility Score: inf
ROOT
ATOM      1  C   UNL     1      -0.752  -4.322  -1.564  1.00  0.00     0.188 C 
ENDROOT
BRANCH   1   2
ATOM      2  C   UNL     1      -1.366  -4.743  -2.914  1.00  0.00     0.188 C 
BRANCH   2   3
ATOM      3  O   UNL     1      -1.528  -3.639  -3.792  1.00  0.00    -0.376 OA
BRANCH   3   4
ATOM      4  C   UNL     1      -2.825  -3.173  -4.101  1.00  0.00     0.202 C 
BRANCH   4   5
ATOM      5  C   UNL     1      -3.679  -2.617  -2.959  1.00  0.00     0.261 C 
BRANCH   5   6
ATOM      6  O   UNL     1      -3.444  -3.236  -1.686  1.00  0.00    -0.460 OA
BRANCH   6   7
ATOM      7  C   UNL     1      -4.398  -4.053  -1.191  1.00  0.00     0.340 C 
ATOM      8  O   UNL     1      -5.442  -4.357  -1.745  1.00  0.00    -0.246 OA
BRANCH   7   9
ATOM      9  C   UNL     1      -3.892  -4.726   0.025  1.00  0.00     0.085 A 
ATOM     10  C   UNL     1      -3.597  -4.130   1.262  1.00  0.00     0.049 A 
ATOM     11  C   UNL     1      -3.136  -5.022   2.266  1.00  0.00     0.029 A 
ATOM     12  C   UNL     1      -2.981  -6.398   2.074  1.00  0.00     0.027 A 
ATOM     13  C   UNL     1      -3.734  -6.126  -0.162  1.00  0.00     0.043 A 
ATOM     14  C   UNL     1      -3.308  -6.971   0.859  1.00  0.00     0.032 A 
BRANCH  10  15
ATOM     15  N   UNL     1      -3.707  -2.830   1.694  1.00  0.00    -0.378 N 
ATOM     16  H   UNL     1      -3.626  -2.791   2.674  1.00  0.00     0.161 HD
BRANCH  15  17
ATOM     17  C   UNL     1      -3.907  -1.493   1.151  1.00  0.00     0.106 C 
ATOM     18  C   UNL     1      -4.984  -1.320   0.099  1.00  0.00     0.036 C 
BRANCH  17  19
ATOM     19  C   UNL     1      -2.602  -0.735   0.945  1.00  0.00    -0.023 A 
ATOM     20  C   UNL     1       0.955   1.682   1.295  1.00  0.00     0.047 C 
ATOM     21  C   UNL     1      -0.264   0.841   1.121  1.00  0.00    -0.015 A 
ATOM     22  C   UNL     1      -1.495   1.437   0.847  1.00  0.00     0.007 A 
ATOM     23  C   UNL     1      -0.192  -0.548   1.188  1.00  0.00     0.126 A 
ATOM     24  C   UNL     1      -2.650   0.659   0.760  1.00  0.00     0.006 A 
ATOM     25  C   UNL     1      -1.340  -1.331   1.105  1.00  0.00     0.045 A 
ATOM     26  F   UNL     1       0.992  -1.146   1.388  1.00  0.00    -0.207 F 
ENDBRANCH  17  19
ENDBRANCH  15  17
ENDBRANCH  10  15
BRANCH  14  27
ATOM     27  N   UNL     1      -3.088  -8.318   0.636  1.00  0.00    -0.399 N 
ATOM     28  H   UNL     1      -2.787  -8.896   1.373  1.00  0.00     0.156 HD
ATOM     29  H   UNL     1      -3.234  -8.698  -0.260  1.00  0.00     0.156 HD
ENDBRANCH  14  27
ENDBRANCH   7   9
ENDBRANCH   6   7
ENDBRANCH   5   6
ENDBRANCH   4   5
ENDBRANCH   3   4
ENDBRANCH   2   3
ENDBRANCH   1   2
BRANCH   1  30
ATOM     30  O   UNL     1       0.429  -3.531  -1.639  1.00  0.00    -0.377 OA
BRANCH  30  31
ATOM     31  C   UNL     1       0.282  -2.284  -2.307  1.00  0.00     0.188 C 
BRANCH  31  32
ATOM     32  C   UNL     1       0.860  -2.248  -3.740  1.00  0.00     0.188 C 
BRANCH  32  33
ATOM     33  O   UNL     1       1.711  -3.263  -4.259  1.00  0.00    -0.376 OA
BRANCH  33  34
ATOM     34  C   UNL     1       2.389  -4.152  -3.390  1.00  0.00     0.202 C 
BRANCH  34  35
ATOM     35  C   UNL     1       3.365  -3.585  -2.346  1.00  0.00     0.261 C 
BRANCH  35  36
ATOM     36  O   UNL     1       3.216  -2.199  -2.021  1.00  0.00    -0.460 OA
BRANCH  36  37
ATOM     37  C   UNL     1       3.834  -1.331  -2.854  1.00  0.00     0.338 C 
ATOM     38  O   UNL     1       4.519  -1.584  -3.825  1.00  0.00    -0.246 OA
BRANCH  37  39
ATOM     39  C   UNL     1       3.469   0.038  -2.437  1.00  0.00     0.060 A 
ATOM     40  C   UNL     1       2.786   0.872  -3.334  1.00  0.00     0.016 A 
ATOM     41  C   UNL     1       3.840   0.507  -1.179  1.00  0.00     0.016 A 
ATOM     42  C   UNL     1       2.468   2.184  -2.976  1.00  0.00     0.010 A 
ATOM     43  C   UNL     1       3.558   1.831  -0.840  1.00  0.00     0.010 A 
ATOM     44  C   UNL     1       2.879   2.685  -1.738  1.00  0.00    -0.014 A 
BRANCH  44  45
ATOM     45  C   UNL     1       2.771   4.136  -1.428  1.00  0.00     0.031 A 
ATOM     46  C   UNL     1       4.042   4.939  -1.409  1.00  0.00     0.074 A 
ATOM     47  C   UNL     1       1.598   4.738  -1.147  1.00  0.00     0.049 A 
ATOM     48  N   UNL     1       4.228   6.196  -1.097  1.00  0.00    -0.248 NA
ATOM     49  C   UNL     1       5.272   4.221  -1.786  1.00  0.00     0.031 C 
ATOM     50  C   UNL     1       0.280   4.106  -1.167  1.00  0.00     0.029 A 
ATOM     51  N   UNL     1       1.336   6.030  -0.755  1.00  0.00    -0.354 N 
ATOM     52  C   UNL     1       5.591   6.414  -1.247  1.00  0.00     0.074 A 
ATOM     53  C   UNL     1       6.194   5.146  -1.588  1.00  0.00     0.031 C 
ATOM     54  C   UNL     1      -0.642   4.994  -0.751  1.00  0.00     0.029 A 
ATOM     55  C   UNL     1       0.018   6.258  -0.439  1.00  0.00     0.049 A 
ATOM     56  H   UNL     1       2.029   6.728  -0.705  1.00  0.00     0.167 HD
ATOM     57  C   UNL     1       6.282   7.574  -1.159  1.00  0.00     0.031 A 
ATOM     58  C   UNL     1      -0.587   7.357   0.055  1.00  0.00     0.031 A 
ATOM     59  C   UNL     1       5.694   8.839  -0.825  1.00  0.00     0.049 A 
ATOM     60  C   UNL     1       0.217   8.616   0.255  1.00  0.00     0.074 A 
ATOM     61  C   UNL     1       6.300  10.080  -0.754  1.00  0.00     0.029 A 
ATOM     62  N   UNL     1       4.360   9.021  -0.499  1.00  0.00    -0.354 N 
ATOM     63  N   UNL     1       1.492   8.827   0.033  1.00  0.00    -0.248 NA
ATOM     64  C   UNL     1      -0.512   9.800   0.736  1.00  0.00     0.031 C 
ATOM     65  C   UNL     1       5.340  11.006  -0.333  1.00  0.00     0.029 A 
ATOM     66  C   UNL     1       4.127  10.351  -0.199  1.00  0.00     0.049 A 
ATOM     67  H   UNL     1       3.679   8.309  -0.483  1.00  0.00     0.167 HD
ATOM     68  C   UNL     1       1.704  10.177   0.288  1.00  0.00     0.074 A 
ATOM     69  C   UNL     1       0.428  10.734   0.688  1.00  0.00     0.031 C 
ATOM     70  C   UNL     1       2.849  10.895   0.183  1.00  0.00     0.031 A 
BRANCH  57  71
ATOM     71  C   UNL     1       7.757   7.501  -1.434  1.00  0.00    -0.014 A 
ATOM     72  C   UNL     1       8.238   7.229  -2.727  1.00  0.00     0.009 A 
ATOM     73  C   UNL     1       8.675   7.678  -0.390  1.00  0.00     0.009 A 
ATOM     74  C   UNL     1       9.606   7.079  -2.955  1.00  0.00     0.001 A 
ATOM     75  C   UNL     1      10.045   7.561  -0.628  1.00  0.00     0.001 A 
ATOM     76  C   UNL     1      10.508   7.247  -1.905  1.00  0.00     0.000 A 
ENDBRANCH  57  71
BRANCH  58  77
ATOM     77  C   UNL     1      -2.038   7.342   0.383  1.00  0.00    -0.014 A 
ATOM     78  C   UNL     1      -2.958   8.054  -0.403  1.00  0.00     0.009 A 
ATOM     79  C   UNL     1      -2.505   6.663   1.520  1.00  0.00     0.009 A 
ATOM     80  C   UNL     1      -4.305   8.118  -0.037  1.00  0.00     0.001 A 
ATOM     81  C   UNL     1      -3.857   6.709   1.870  1.00  0.00     0.001 A 
ATOM     82  C   UNL     1      -4.754   7.446   1.098  1.00  0.00     0.000 A 
ENDBRANCH  58  77
BRANCH  70  83
ATOM     83  C   UNL     1       2.770  12.373   0.441  1.00  0.00    -0.014 A 
ATOM     84  C   UNL     1       2.589  12.886   1.734  1.00  0.00     0.009 A 
ATOM     85  C   UNL     1       2.937  13.268  -0.629  1.00  0.00     0.009 A 
ATOM     86  C   UNL     1       2.547  14.267   1.945  1.00  0.00     0.001 A 
ATOM     87  C   UNL     1       2.928  14.646  -0.410  1.00  0.00     0.001 A 
ATOM     88  C   UNL     1       2.724  15.144   0.875  1.00  0.00     0.000 A 
ENDBRANCH  70  83
ENDBRANCH  44  45
ENDBRANCH  37  39
ENDBRANCH  36  37
ENDBRANCH  35  36
ENDBRANCH  34  35
ENDBRANCH  33  34
ENDBRANCH  32  33
ENDBRANCH  31  32
ENDBRANCH  30  31
ENDBRANCH   1  30
TORSDOF 24
