REMARK SMILES CC1=C(C(=O)OCCOCCOCCOCCOC(=O)c2ccc(-c3c4nc(c(-c5ccccc5)c5ccc([nH]5)c(-c5ccccc5)c5nc(c(-c6ccccc6)c6ccc3[nH]6)C=C5)C=C4)cc2)N2C(=O)[C@H](NC(=O)c3cc(C(F)(F)F)nn3C)[C@@H]2SC1
REMARK SMILES IDX 11 1 10 2 9 3 8 4 7 5 6 6 4 7 5 8 3 9 1 10 2 11 88 12 69 13
REMARK SMILES IDX 87 14 70 15 86 16 71 17 72 18 73 19 74 20 75 22 76 23 77 24
REMARK SMILES IDX 84 25 78 26 83 27 85 28 79 29 80 30 81 31 82 32 12 33 13 34
REMARK SMILES IDX 14 35 15 36 16 37 17 38 18 39 19 40 20 41 21 42 22 43 68 44
REMARK SMILES IDX 23 45 67 46 24 47 25 48 26 49 61 50 27 51 66 52 60 53 62 54
REMARK SMILES IDX 28 55 65 56 59 57 58 58 29 60 51 61 36 62 50 63 37 64 40 65
REMARK SMILES IDX 49 66 63 67 38 68 39 69 48 71 64 72 41 73 30 74 31 75 35 76
REMARK SMILES IDX 32 77 34 78 33 79 52 80 53 81 57 82 54 83 56 84 55 85 42 86
REMARK SMILES IDX 43 87 47 88 44 89 46 90 45 91
REMARK H PARENT 73 21 62 59 40 70
REMARK Flexibility Score: inf
ROOT
ATOM      1  C   UNL     1      -2.013  -0.708  -2.367  1.00  0.00     0.188 C 
ENDROOT
BRANCH   1   2
ATOM      2  C   UNL     1      -1.528  -1.252  -3.726  1.00  0.00     0.188 C 
BRANCH   2   3
ATOM      3  O   UNL     1      -1.263  -2.651  -3.716  1.00  0.00    -0.376 OA
BRANCH   3   4
ATOM      4  C   UNL     1       0.084  -3.033  -3.953  1.00  0.00     0.202 C 
BRANCH   4   5
ATOM      5  C   UNL     1       1.054  -2.729  -2.807  1.00  0.00     0.261 C 
BRANCH   5   6
ATOM      6  O   UNL     1       0.900  -1.405  -2.278  1.00  0.00    -0.459 OA
BRANCH   6   7
ATOM      7  C   UNL     1       1.653  -0.412  -2.798  1.00  0.00     0.355 C 
ATOM      8  O   UNL     1       2.515  -0.530  -3.651  1.00  0.00    -0.244 OA
BRANCH   7   9
ATOM      9  C   UNL     1       1.181   0.897  -2.227  1.00  0.00     0.131 C 
ATOM     10  C   UNL     1       1.520   0.116   0.150  1.00  0.00     0.043 C 
ATOM     11  C   UNL     1       1.188   1.155  -0.895  1.00  0.00    -0.032 C 
ATOM     12  C   UNL     1       0.873   2.514  -0.293  1.00  0.00     0.105 C 
ATOM     13  N   UNL     1       0.756   1.845  -3.107  1.00  0.00    -0.289 N 
ATOM     14  S   UNL     1       1.010   3.897  -1.471  1.00  0.00    -0.129 SA
ATOM     15  C   UNL     1       0.588   1.986  -4.438  1.00  0.00     0.253 C 
ATOM     16  C   UNL     1       0.040   3.044  -2.726  1.00  0.00     0.181 C 
ATOM     17  O   UNL     1       0.720   1.243  -5.376  1.00  0.00    -0.272 OA
ATOM     18  C   UNL     1       0.173   3.491  -4.212  1.00  0.00     0.206 C 
BRANCH  18  19
ATOM     19  N   UNL     1       1.242   4.466  -4.548  1.00  0.00    -0.336 N 
ATOM     20  C   UNL     1       1.171   5.600  -5.315  1.00  0.00     0.270 C 
ATOM     21  H   UNL     1       2.128   4.271  -4.165  1.00  0.00     0.164 HD
ATOM     22  O   UNL     1       2.220   6.143  -5.653  1.00  0.00    -0.268 OA
BRANCH  20  23
ATOM     23  C   UNL     1      -0.124   6.094  -5.701  1.00  0.00     0.126 A 
ATOM     24  C   UNL     1      -1.263   6.300  -4.942  1.00  0.00     0.069 A 
ATOM     25  N   UNL     1      -0.450   6.552  -6.953  1.00  0.00    -0.262 N 
ATOM     26  C   UNL     1      -2.247   6.809  -5.828  1.00  0.00     0.167 A 
ATOM     27  N   UNL     1      -1.737   6.944  -7.066  1.00  0.00    -0.168 NA
ATOM     28  C   UNL     1       0.377   6.595  -8.138  1.00  0.00     0.174 C 
BRANCH  26  29
ATOM     29  C   UNL     1      -3.674   7.152  -5.488  1.00  0.00     0.435 C 
ATOM     30  F   UNL     1      -3.953   8.471  -5.649  1.00  0.00    -0.164 F 
ATOM     31  F   UNL     1      -4.570   6.455  -6.235  1.00  0.00    -0.164 F 
ATOM     32  F   UNL     1      -3.957   6.856  -4.186  1.00  0.00    -0.164 F 
ENDBRANCH  26  29
ENDBRANCH  20  23
ENDBRANCH  18  19
ENDBRANCH   7   9
ENDBRANCH   6   7
ENDBRANCH   5   6
ENDBRANCH   4   5
ENDBRANCH   3   4
ENDBRANCH   2   3
ENDBRANCH   1   2
BRANCH   1  33
ATOM     33  O   UNL     1      -1.958  -1.564  -1.237  1.00  0.00    -0.377 OA
BRANCH  33  34
ATOM     34  C   UNL     1      -2.575  -2.849  -1.306  1.00  0.00     0.188 C 
BRANCH  34  35
ATOM     35  C   UNL     1      -3.672  -3.172  -2.348  1.00  0.00     0.188 C 
BRANCH  35  36
ATOM     36  O   UNL     1      -4.271  -2.041  -2.966  1.00  0.00    -0.376 OA
BRANCH  36  37
ATOM     37  C   UNL     1      -5.606  -1.742  -2.591  1.00  0.00     0.202 C 
BRANCH  37  38
ATOM     38  C   UNL     1      -5.745  -1.159  -1.179  1.00  0.00     0.261 C 
BRANCH  38  39
ATOM     39  O   UNL     1      -5.344  -2.047  -0.123  1.00  0.00    -0.460 OA
BRANCH  39  40
ATOM     40  C   UNL     1      -6.041  -3.198  -0.012  1.00  0.00     0.338 C 
ATOM     41  O   UNL     1      -7.001  -3.550  -0.672  1.00  0.00    -0.246 OA
BRANCH  40  42
ATOM     42  C   UNL     1      -5.337  -4.071   0.943  1.00  0.00     0.060 A 
ATOM     43  C   UNL     1      -4.942  -5.346   0.522  1.00  0.00     0.016 A 
ATOM     44  C   UNL     1      -5.103  -3.645   2.253  1.00  0.00     0.016 A 
ATOM     45  C   UNL     1      -4.365  -6.227   1.433  1.00  0.00     0.010 A 
ATOM     46  C   UNL     1      -4.537  -4.533   3.169  1.00  0.00     0.010 A 
ATOM     47  C   UNL     1      -4.212  -5.842   2.772  1.00  0.00    -0.014 A 
BRANCH  47  48
ATOM     48  C   UNL     1      -3.923  -6.880   3.789  1.00  0.00     0.031 A 
ATOM     49  C   UNL     1      -5.080  -7.484   4.537  1.00  0.00     0.074 A 
ATOM     50  C   UNL     1      -2.671  -7.317   4.007  1.00  0.00     0.049 A 
ATOM     51  N   UNL     1      -5.082  -8.434   5.436  1.00  0.00    -0.248 NA
ATOM     52  C   UNL     1      -6.416  -6.946   4.226  1.00  0.00     0.031 C 
ATOM     53  C   UNL     1      -1.474  -6.838   3.320  1.00  0.00     0.029 A 
ATOM     54  N   UNL     1      -2.207  -8.275   4.871  1.00  0.00    -0.354 N 
ATOM     55  C   UNL     1      -6.413  -8.607   5.796  1.00  0.00     0.074 A 
ATOM     56  C   UNL     1      -7.186  -7.640   5.048  1.00  0.00     0.031 C 
ATOM     57  C   UNL     1      -0.407  -7.511   3.788  1.00  0.00     0.029 A 
ATOM     58  C   UNL     1      -0.847  -8.448   4.821  1.00  0.00     0.049 A 
ATOM     59  H   UNL     1      -2.795  -8.790   5.471  1.00  0.00     0.167 HD
ATOM     60  C   UNL     1      -6.949  -9.498   6.662  1.00  0.00     0.031 A 
ATOM     61  C   UNL     1      -0.049  -9.267   5.534  1.00  0.00     0.031 A 
ATOM     62  C   UNL     1      -6.182 -10.447   7.421  1.00  0.00     0.049 A 
ATOM     63  C   UNL     1      -0.662 -10.202   6.543  1.00  0.00     0.074 A 
ATOM     64  C   UNL     1      -6.631 -11.396   8.323  1.00  0.00     0.029 A 
ATOM     65  N   UNL     1      -4.801 -10.562   7.372  1.00  0.00    -0.354 N 
ATOM     66  N   UNL     1      -1.924 -10.378   6.851  1.00  0.00    -0.248 NA
ATOM     67  C   UNL     1       0.265 -11.065   7.291  1.00  0.00     0.031 C 
ATOM     68  C   UNL     1      -5.517 -12.048   8.861  1.00  0.00     0.029 A 
ATOM     69  C   UNL     1      -4.380 -11.550   8.245  1.00  0.00     0.049 A 
ATOM     70  H   UNL     1      -4.209 -10.020   6.802  1.00  0.00     0.167 HD
ATOM     71  C   UNL     1      -1.946 -11.395   7.799  1.00  0.00     0.074 A 
ATOM     72  C   UNL     1      -0.572 -11.803   8.006  1.00  0.00     0.031 C 
ATOM     73  C   UNL     1      -3.009 -11.946   8.437  1.00  0.00     0.031 A 
BRANCH  60  74
ATOM     74  C   UNL     1      -8.439  -9.459   6.856  1.00  0.00    -0.014 A 
ATOM     75  C   UNL     1      -9.318  -9.894   5.850  1.00  0.00     0.009 A 
ATOM     76  C   UNL     1      -8.970  -8.996   8.069  1.00  0.00     0.009 A 
ATOM     77  C   UNL     1     -10.699  -9.834   6.045  1.00  0.00     0.001 A 
ATOM     78  C   UNL     1     -10.351  -8.965   8.271  1.00  0.00     0.001 A 
ATOM     79  C   UNL     1     -11.214  -9.374   7.256  1.00  0.00     0.000 A 
ENDBRANCH  60  74
BRANCH  61  80
ATOM     80  C   UNL     1       1.422  -9.245   5.322  1.00  0.00    -0.014 A 
ATOM     81  C   UNL     1       2.080 -10.336   4.735  1.00  0.00     0.009 A 
ATOM     82  C   UNL     1       2.181  -8.138   5.735  1.00  0.00     0.009 A 
ATOM     83  C   UNL     1       3.470 -10.331   4.592  1.00  0.00     0.001 A 
ATOM     84  C   UNL     1       3.567  -8.123   5.563  1.00  0.00     0.001 A 
ATOM     85  C   UNL     1       4.211  -9.224   5.002  1.00  0.00     0.000 A 
ENDBRANCH  61  80
BRANCH  73  86
ATOM     86  C   UNL     1      -2.733 -13.086   9.379  1.00  0.00    -0.014 A 
ATOM     87  C   UNL     1      -2.099 -12.882  10.614  1.00  0.00     0.009 A 
ATOM     88  C   UNL     1      -3.148 -14.382   9.034  1.00  0.00     0.009 A 
ATOM     89  C   UNL     1      -1.849 -13.961  11.466  1.00  0.00     0.001 A 
ATOM     90  C   UNL     1      -2.926 -15.453   9.901  1.00  0.00     0.001 A 
ATOM     91  C   UNL     1      -2.266 -15.243  11.111  1.00  0.00     0.000 A 
ENDBRANCH  73  86
ENDBRANCH  47  48
ENDBRANCH  40  42
ENDBRANCH  39  40
ENDBRANCH  38  39
ENDBRANCH  37  38
ENDBRANCH  36  37
ENDBRANCH  35  36
ENDBRANCH  34  35
ENDBRANCH  33  34
ENDBRANCH   1  33
TORSDOF 23
