REMARK SMILES C[C@@H](CC[NH+](C)C)NC(=O)Cn1cccc1C(=O)OCCOCCOCCOCCOC(=O)c1ccc(-c2c3nc(c(-c4ccccc4)c4ccc([nH]4)c(-c4ccccc4)c4nc(c(-c5ccccc5)c5ccc2[nH]5)C=C4)C=C3)cc1
REMARK SMILES IDX 23 1 22 2 21 3 20 4 19 5 17 6 18 7 16 8 12 9 13 10 14 11
REMARK SMILES IDX 15 12 11 13 9 14 8 15 10 17 2 18 1 19 3 20 4 21 5 22 6 23
REMARK SMILES IDX 7 24 24 26 25 27 26 28 27 29 28 30 29 31 30 32 31 33 32 34
REMARK SMILES IDX 33 35 34 36 35 37 81 38 36 39 80 40 37 41 38 42 39 43 74 44
REMARK SMILES IDX 40 45 79 46 73 47 75 48 41 49 78 50 72 51 71 52 42 54 64 55
REMARK SMILES IDX 49 56 63 57 50 58 53 59 62 60 76 61 51 62 52 63 61 65 77 66
REMARK SMILES IDX 54 67 43 68 44 69 48 70 45 71 47 72 46 73 65 74 66 75 70 76
REMARK SMILES IDX 67 77 69 78 68 79 55 80 56 81 60 82 57 83 59 84 58 85
REMARK H PARENT 8 16 5 25 75 53 53 64
REMARK Flexibility Score: inf
ROOT
ATOM      1  C   UNL     1       0.511  -6.637  -3.354  1.00  0.00     0.188 C 
ENDROOT
BRANCH   1   2
ATOM      2  O   UNL     1       0.564  -7.894  -2.685  1.00  0.00    -0.376 OA
BRANCH   2   3
ATOM      3  C   UNL     1       1.473  -7.997  -1.601  1.00  0.00     0.202 C 
BRANCH   3   4
ATOM      4  C   UNL     1       1.081  -7.222  -0.337  1.00  0.00     0.261 C 
BRANCH   4   5
ATOM      5  O   UNL     1       0.841  -5.823  -0.543  1.00  0.00    -0.459 OA
BRANCH   5   6
ATOM      6  C   UNL     1       1.898  -5.029  -0.866  1.00  0.00     0.355 C 
ATOM      7  O   UNL     1       3.062  -5.378  -0.836  1.00  0.00    -0.244 OA
BRANCH   6   8
ATOM      8  C   UNL     1       1.382  -3.802  -1.456  1.00  0.00     0.128 A 
ATOM      9  N   UNL     1       0.156  -3.200  -1.207  1.00  0.00    -0.333 N 
ATOM     10  C   UNL     1      -0.113  -2.288  -2.200  1.00  0.00     0.087 A 
ATOM     11  C   UNL     1       1.018  -2.148  -2.970  1.00  0.00     0.020 A 
ATOM     12  C   UNL     1       1.970  -3.073  -2.482  1.00  0.00     0.035 A 
BRANCH   9  13
ATOM     13  C   UNL     1      -0.763  -3.561  -0.132  1.00  0.00     0.222 C 
BRANCH  13  14
ATOM     14  C   UNL     1      -1.569  -2.416   0.434  1.00  0.00     0.240 C 
ATOM     15  N   UNL     1      -0.944  -1.404   1.101  1.00  0.00    -0.352 N 
ATOM     16  H   UNL     1      -1.550  -0.764   1.540  1.00  0.00     0.163 HD
ATOM     17  O   UNL     1      -2.801  -2.413   0.381  1.00  0.00    -0.273 OA
BRANCH  15  18
ATOM     18  C   UNL     1       0.477  -1.115   1.271  1.00  0.00     0.084 C 
ATOM     19  C   UNL     1       1.022  -0.139   0.224  1.00  0.00     0.031 C 
BRANCH  18  20
ATOM     20  C   UNL     1       0.750  -0.624   2.699  1.00  0.00     0.086 C 
BRANCH  20  21
ATOM     21  C   UNL     1       0.297   0.804   3.068  1.00  0.00     0.263 C 
BRANCH  21  22
ATOM     22  N   UNL     1      -1.166   1.004   3.065  1.00  0.00    -0.340 N 
ATOM     23  C   UNL     1      -1.548   1.838   4.216  1.00  0.00     0.332 C 
ATOM     24  C   UNL     1      -1.652   1.684   1.855  1.00  0.00     0.332 C 
ATOM     25  H   UNL     1      -1.583   0.073   3.106  1.00  0.00     0.347 HD
ENDBRANCH  21  22
ENDBRANCH  20  21
ENDBRANCH  18  20
ENDBRANCH  15  18
ENDBRANCH  13  14
ENDBRANCH   9  13
ENDBRANCH   6   8
ENDBRANCH   5   6
ENDBRANCH   4   5
ENDBRANCH   3   4
ENDBRANCH   2   3
ENDBRANCH   1   2
BRANCH   1  26
ATOM     26  C   UNL     1      -0.847  -5.935  -3.183  1.00  0.00     0.188 C 
BRANCH  26  27
ATOM     27  O   UNL     1      -1.740  -6.506  -2.244  1.00  0.00    -0.377 OA
BRANCH  27  28
ATOM     28  C   UNL     1      -2.236  -7.820  -2.486  1.00  0.00     0.188 C 
BRANCH  28  29
ATOM     29  C   UNL     1      -1.931  -8.633  -3.779  1.00  0.00     0.188 C 
BRANCH  29  30
ATOM     30  O   UNL     1      -1.350  -7.923  -4.868  1.00  0.00    -0.376 OA
BRANCH  30  31
ATOM     31  C   UNL     1      -2.101  -7.701  -6.049  1.00  0.00     0.202 C 
BRANCH  31  32
ATOM     32  C   UNL     1      -3.141  -6.581  -5.933  1.00  0.00     0.261 C 
BRANCH  32  33
ATOM     33  O   UNL     1      -4.006  -6.753  -4.818  1.00  0.00    -0.460 OA
BRANCH  33  34
ATOM     34  C   UNL     1      -4.714  -7.891  -4.908  1.00  0.00     0.338 C 
ATOM     35  O   UNL     1      -4.675  -8.740  -5.783  1.00  0.00    -0.246 OA
BRANCH  34  36
ATOM     36  C   UNL     1      -5.678  -7.956  -3.820  1.00  0.00     0.060 A 
ATOM     37  C   UNL     1      -6.047  -9.266  -3.494  1.00  0.00     0.016 A 
ATOM     38  C   UNL     1      -6.565  -6.880  -3.843  1.00  0.00     0.016 A 
ATOM     39  C   UNL     1      -7.383  -9.563  -3.525  1.00  0.00     0.010 A 
ATOM     40  C   UNL     1      -7.894  -7.186  -3.939  1.00  0.00     0.010 A 
ATOM     41  C   UNL     1      -8.276  -8.533  -3.841  1.00  0.00    -0.014 A 
BRANCH  41  42
ATOM     42  C   UNL     1      -9.689  -8.863  -3.928  1.00  0.00     0.031 A 
ATOM     43  C   UNL     1     -10.350  -8.683  -2.570  1.00  0.00     0.074 A 
ATOM     44  C   UNL     1     -10.124  -9.271  -5.156  1.00  0.00     0.049 A 
ATOM     45  N   UNL     1     -11.513  -9.078  -2.171  1.00  0.00    -0.248 NA
ATOM     46  C   UNL     1      -9.610  -7.984  -1.476  1.00  0.00     0.031 C 
ATOM     47  C   UNL     1      -9.277  -9.387  -6.370  1.00  0.00     0.029 A 
ATOM     48  N   UNL     1     -11.345  -9.680  -5.636  1.00  0.00    -0.354 N 
ATOM     49  C   UNL     1     -11.714  -8.543  -0.888  1.00  0.00     0.074 A 
ATOM     50  C   UNL     1     -10.490  -7.932  -0.480  1.00  0.00     0.031 C 
ATOM     51  C   UNL     1      -9.983  -9.902  -7.401  1.00  0.00     0.029 A 
ATOM     52  C   UNL     1     -11.348 -10.139  -6.975  1.00  0.00     0.049 A 
ATOM     53  H   UNL     1     -12.162  -9.655  -5.087  1.00  0.00     0.167 HD
ATOM     54  C   UNL     1     -12.925  -8.548  -0.274  1.00  0.00     0.031 A 
ATOM     55  C   UNL     1     -12.375 -10.703  -7.676  1.00  0.00     0.031 A 
ATOM     56  C   UNL     1     -13.862  -9.323  -1.011  1.00  0.00     0.049 A 
ATOM     57  C   UNL     1     -13.563 -10.585  -6.819  1.00  0.00     0.074 A 
ATOM     58  C   UNL     1     -13.970 -10.676  -1.207  1.00  0.00     0.029 A 
ATOM     59  N   UNL     1     -14.593  -8.670  -1.972  1.00  0.00    -0.354 N 
ATOM     60  N   UNL     1     -14.198  -9.479  -6.580  1.00  0.00    -0.248 NA
ATOM     61  C   UNL     1     -14.055 -11.775  -6.117  1.00  0.00     0.031 C 
ATOM     62  C   UNL     1     -14.397 -10.790  -2.548  1.00  0.00     0.029 A 
ATOM     63  C   UNL     1     -14.678  -9.516  -3.054  1.00  0.00     0.049 A 
ATOM     64  H   UNL     1     -14.982  -7.769  -1.901  1.00  0.00     0.167 HD
ATOM     65  C   UNL     1     -14.876  -9.772  -5.423  1.00  0.00     0.074 A 
ATOM     66  C   UNL     1     -15.013 -11.212  -5.384  1.00  0.00     0.031 C 
ATOM     67  C   UNL     1     -14.800  -8.924  -4.365  1.00  0.00     0.031 A 
BRANCH  54  68
ATOM     68  C   UNL     1     -13.401  -7.742   0.887  1.00  0.00    -0.014 A 
ATOM     69  C   UNL     1     -14.568  -8.182   1.546  1.00  0.00     0.009 A 
ATOM     70  C   UNL     1     -12.950  -6.443   1.154  1.00  0.00     0.009 A 
ATOM     71  C   UNL     1     -15.313  -7.329   2.357  1.00  0.00     0.001 A 
ATOM     72  C   UNL     1     -13.680  -5.596   1.997  1.00  0.00     0.001 A 
ATOM     73  C   UNL     1     -14.876  -6.028   2.569  1.00  0.00     0.000 A 
ENDBRANCH  54  68
BRANCH  55  74
ATOM     74  C   UNL     1     -12.578 -11.427  -8.980  1.00  0.00    -0.014 A 
ATOM     75  C   UNL     1     -11.594 -11.691  -9.935  1.00  0.00     0.009 A 
ATOM     76  C   UNL     1     -13.857 -11.992  -9.243  1.00  0.00     0.009 A 
ATOM     77  C   UNL     1     -11.856 -12.537 -11.034  1.00  0.00     0.001 A 
ATOM     78  C   UNL     1     -14.109 -12.867 -10.301  1.00  0.00     0.001 A 
ATOM     79  C   UNL     1     -13.097 -13.151 -11.196  1.00  0.00     0.000 A 
ENDBRANCH  55  74
BRANCH  67  80
ATOM     80  C   UNL     1     -14.396  -7.498  -4.719  1.00  0.00    -0.014 A 
ATOM     81  C   UNL     1     -15.189  -6.732  -5.587  1.00  0.00     0.009 A 
ATOM     82  C   UNL     1     -13.175  -6.936  -4.307  1.00  0.00     0.009 A 
ATOM     83  C   UNL     1     -14.768  -5.473  -6.038  1.00  0.00     0.001 A 
ATOM     84  C   UNL     1     -12.750  -5.676  -4.751  1.00  0.00     0.001 A 
ATOM     85  C   UNL     1     -13.548  -4.945  -5.622  1.00  0.00     0.000 A 
ENDBRANCH  67  80
ENDBRANCH  41  42
ENDBRANCH  34  36
ENDBRANCH  33  34
ENDBRANCH  32  33
ENDBRANCH  31  32
ENDBRANCH  30  31
ENDBRANCH  29  30
ENDBRANCH  28  29
ENDBRANCH  27  28
ENDBRANCH  26  27
ENDBRANCH   1  26
TORSDOF 26
