REMARK SMILES O=C(CN(CC(F)(F)F)S(=O)(=O)c1cccc(F)c1)OCCOCCOCCOCCOC(=O)c1ccc(-c2c3nc(c(-c4ccccc4)c4ccc([nH]4)c(-c4ccccc4)c4nc(c(-c5ccccc5)c5ccc2[nH]5)C=C4)C=C3)cc1
REMARK SMILES IDX 25 1 24 2 23 3 22 4 21 5 20 6 2 7 1 8 3 9 4 10 5 11 6 12
REMARK SMILES IDX 7 13 8 14 9 15 10 16 11 17 12 18 13 19 14 20 19 21 15 22
REMARK SMILES IDX 17 23 16 24 18 25 26 26 27 27 28 28 29 29 30 30 31 31 32 32
REMARK SMILES IDX 33 33 34 34 35 35 36 36 82 37 37 38 81 39 38 40 39 41 40 42
REMARK SMILES IDX 75 43 41 44 80 45 74 46 76 47 42 48 79 49 73 50 72 51 43 53
REMARK SMILES IDX 65 54 50 55 64 56 51 57 54 58 63 59 77 60 52 61 53 62 62 64
REMARK SMILES IDX 78 65 55 66 44 67 45 68 49 69 46 70 48 71 47 72 66 73 67 74
REMARK SMILES IDX 71 75 68 76 70 77 69 78 56 79 57 80 61 81 58 82 60 83 59 84
REMARK H PARENT 76 52 54 63
REMARK Flexibility Score: inf
ROOT
ATOM      1  C   UNL     1       2.089   1.206  -2.169  1.00  0.00     0.188 C 
ENDROOT
BRANCH   1   2
ATOM      2  C   UNL     1       2.609   1.780  -0.845  1.00  0.00     0.188 C 
BRANCH   2   3
ATOM      3  O   UNL     1       3.865   1.500  -0.226  1.00  0.00    -0.376 OA
BRANCH   3   4
ATOM      4  C   UNL     1       4.626   0.310  -0.231  1.00  0.00     0.202 C 
BRANCH   4   5
ATOM      5  C   UNL     1       4.026  -1.047   0.121  1.00  0.00     0.261 C 
BRANCH   5   6
ATOM      6  O   UNL     1       2.614  -1.153  -0.013  1.00  0.00    -0.462 OA
BRANCH   6   7
ATOM      7  C   UNL     1       1.727  -0.677   0.893  1.00  0.00     0.321 C 
ATOM      8  O   UNL     1       0.525  -0.833   0.678  1.00  0.00    -0.251 OA
BRANCH   7   9
ATOM      9  C   UNL     1       2.209   0.211   2.026  1.00  0.00     0.225 C 
BRANCH   9  10
ATOM     10  N   UNL     1       3.250  -0.324   2.945  1.00  0.00    -0.178 NA
BRANCH  10  11
ATOM     11  C   UNL     1       4.211   0.769   3.391  1.00  0.00     0.218 C 
BRANCH  11  12
ATOM     12  C   UNL     1       3.661   1.983   4.155  1.00  0.00     0.402 C 
ATOM     13  F   UNL     1       3.295   1.684   5.413  1.00  0.00    -0.170 F 
ATOM     14  F   UNL     1       4.632   2.927   4.247  1.00  0.00    -0.170 F 
ATOM     15  F   UNL     1       2.616   2.552   3.518  1.00  0.00    -0.170 F 
ENDBRANCH  11  12
ENDBRANCH  10  11
BRANCH  10  16
ATOM     16  S   UNL     1       2.512  -1.316   4.114  1.00  0.00     0.244 S 
ATOM     17  O   UNL     1       1.938  -0.463   5.121  1.00  0.00    -0.207 OA
ATOM     18  O   UNL     1       1.693  -2.255   3.374  1.00  0.00    -0.207 OA
BRANCH  16  19
ATOM     19  C   UNL     1       3.829  -2.241   4.838  1.00  0.00     0.085 A 
ATOM     20  C   UNL     1       4.695  -1.628   5.748  1.00  0.00     0.022 A 
ATOM     21  C   UNL     1       3.900  -3.615   4.598  1.00  0.00     0.061 A 
ATOM     22  C   UNL     1       5.673  -2.389   6.388  1.00  0.00     0.004 A 
ATOM     23  C   UNL     1       4.851  -4.364   5.274  1.00  0.00     0.124 A 
ATOM     24  C   UNL     1       5.742  -3.763   6.158  1.00  0.00     0.039 A 
ATOM     25  F   UNL     1       4.897  -5.689   5.090  1.00  0.00    -0.207 F 
ENDBRANCH  16  19
ENDBRANCH  10  16
ENDBRANCH   9  10
ENDBRANCH   7   9
ENDBRANCH   6   7
ENDBRANCH   5   6
ENDBRANCH   4   5
ENDBRANCH   3   4
ENDBRANCH   2   3
ENDBRANCH   1   2
BRANCH   1  26
ATOM     26  O   UNL     1       2.783   1.519  -3.362  1.00  0.00    -0.377 OA
BRANCH  26  27
ATOM     27  C   UNL     1       4.143   1.145  -3.353  1.00  0.00     0.188 C 
BRANCH  27  28
ATOM     28  C   UNL     1       5.075   2.323  -3.016  1.00  0.00     0.188 C 
BRANCH  28  29
ATOM     29  O   UNL     1       4.474   3.416  -2.357  1.00  0.00    -0.376 OA
BRANCH  29  30
ATOM     30  C   UNL     1       3.647   4.345  -3.046  1.00  0.00     0.202 C 
BRANCH  30  31
ATOM     31  C   UNL     1       3.137   4.259  -4.504  1.00  0.00     0.261 C 
BRANCH  31  32
ATOM     32  O   UNL     1       3.576   3.191  -5.341  1.00  0.00    -0.460 OA
BRANCH  32  33
ATOM     33  C   UNL     1       4.729   3.356  -6.021  1.00  0.00     0.338 C 
ATOM     34  O   UNL     1       5.464   4.325  -6.011  1.00  0.00    -0.246 OA
BRANCH  33  35
ATOM     35  C   UNL     1       5.072   2.031  -6.587  1.00  0.00     0.060 A 
ATOM     36  C   UNL     1       6.261   1.412  -6.172  1.00  0.00     0.016 A 
ATOM     37  C   UNL     1       4.181   1.357  -7.426  1.00  0.00     0.016 A 
ATOM     38  C   UNL     1       6.554   0.111  -6.580  1.00  0.00     0.010 A 
ATOM     39  C   UNL     1       4.502   0.075  -7.877  1.00  0.00     0.010 A 
ATOM     40  C   UNL     1       5.693  -0.548  -7.464  1.00  0.00    -0.014 A 
BRANCH  40  41
ATOM     41  C   UNL     1       6.121  -1.808  -8.113  1.00  0.00     0.031 A 
ATOM     42  C   UNL     1       6.807  -1.710  -9.446  1.00  0.00     0.074 A 
ATOM     43  C   UNL     1       5.887  -3.007  -7.551  1.00  0.00     0.049 A 
ATOM     44  N   UNL     1       7.161  -2.663 -10.267  1.00  0.00    -0.248 NA
ATOM     45  C   UNL     1       7.136  -0.353  -9.916  1.00  0.00     0.031 C 
ATOM     46  C   UNL     1       5.281  -3.228  -6.239  1.00  0.00     0.029 A 
ATOM     47  N   UNL     1       6.115  -4.272  -8.034  1.00  0.00    -0.354 N 
ATOM     48  C   UNL     1       7.731  -2.022 -11.359  1.00  0.00     0.074 A 
ATOM     49  C   UNL     1       7.675  -0.601 -11.100  1.00  0.00     0.031 C 
ATOM     50  C   UNL     1       5.155  -4.552  -6.036  1.00  0.00     0.029 A 
ATOM     51  C   UNL     1       5.628  -5.267  -7.220  1.00  0.00     0.049 A 
ATOM     52  H   UNL     1       6.583  -4.449  -8.882  1.00  0.00     0.167 HD
ATOM     53  C   UNL     1       8.243  -2.571 -12.482  1.00  0.00     0.031 A 
ATOM     54  C   UNL     1       5.532  -6.595  -7.434  1.00  0.00     0.031 A 
ATOM     55  C   UNL     1       8.284  -3.983 -12.742  1.00  0.00     0.049 A 
ATOM     56  C   UNL     1       6.026  -7.169  -8.740  1.00  0.00     0.074 A 
ATOM     57  C   UNL     1       8.817  -4.638 -13.838  1.00  0.00     0.029 A 
ATOM     58  N   UNL     1       7.758  -4.954 -11.907  1.00  0.00    -0.354 N 
ATOM     59  N   UNL     1       6.610  -6.561  -9.744  1.00  0.00    -0.248 NA
ATOM     60  C   UNL     1       5.840  -8.614  -8.943  1.00  0.00     0.031 C 
ATOM     61  C   UNL     1       8.544  -6.002 -13.702  1.00  0.00     0.029 A 
ATOM     62  C   UNL     1       7.907  -6.201 -12.488  1.00  0.00     0.049 A 
ATOM     63  H   UNL     1       7.339  -4.783 -11.033  1.00  0.00     0.167 HD
ATOM     64  C   UNL     1       6.881  -7.551 -10.683  1.00  0.00     0.074 A 
ATOM     65  C   UNL     1       6.422  -8.802 -10.119  1.00  0.00     0.031 C 
ATOM     66  C   UNL     1       7.450  -7.436 -11.908  1.00  0.00     0.031 A 
BRANCH  53  67
ATOM     67  C   UNL     1       8.758  -1.646 -13.546  1.00  0.00    -0.014 A 
ATOM     68  C   UNL     1       9.966  -0.951 -13.393  1.00  0.00     0.009 A 
ATOM     69  C   UNL     1       8.054  -1.532 -14.756  1.00  0.00     0.009 A 
ATOM     70  C   UNL     1      10.455  -0.152 -14.429  1.00  0.00     0.001 A 
ATOM     71  C   UNL     1       8.558  -0.755 -15.799  1.00  0.00     0.001 A 
ATOM     72  C   UNL     1       9.756  -0.063 -15.633  1.00  0.00     0.000 A 
ENDBRANCH  53  67
BRANCH  54  73
ATOM     73  C   UNL     1       4.876  -7.481  -6.432  1.00  0.00    -0.014 A 
ATOM     74  C   UNL     1       5.596  -8.496  -5.783  1.00  0.00     0.009 A 
ATOM     75  C   UNL     1       3.500  -7.361  -6.173  1.00  0.00     0.009 A 
ATOM     76  C   UNL     1       4.947  -9.396  -4.934  1.00  0.00     0.001 A 
ATOM     77  C   UNL     1       2.861  -8.239  -5.295  1.00  0.00     0.001 A 
ATOM     78  C   UNL     1       3.581  -9.265  -4.688  1.00  0.00     0.000 A 
ENDBRANCH  54  73
BRANCH  66  79
ATOM     79  C   UNL     1       7.638  -8.694 -12.709  1.00  0.00    -0.014 A 
ATOM     80  C   UNL     1       6.547  -9.359 -13.288  1.00  0.00     0.009 A 
ATOM     81  C   UNL     1       8.934  -9.184 -12.942  1.00  0.00     0.009 A 
ATOM     82  C   UNL     1       6.747 -10.506 -14.059  1.00  0.00     0.001 A 
ATOM     83  C   UNL     1       9.133 -10.310 -13.740  1.00  0.00     0.001 A 
ATOM     84  C   UNL     1       8.039 -10.976 -14.291  1.00  0.00     0.000 A 
ENDBRANCH  66  79
ENDBRANCH  40  41
ENDBRANCH  33  35
ENDBRANCH  32  33
ENDBRANCH  31  32
ENDBRANCH  30  31
ENDBRANCH  29  30
ENDBRANCH  28  29
ENDBRANCH  27  28
ENDBRANCH  26  27
ENDBRANCH   1  26
TORSDOF 25
