REMARK SMILES COc1cc2c(cc1OC)[C@H](C(=O)OCCOCCOCCOCCOC(=O)c1ccc(-c3c4nc(c(-c5ccccc5)c5ccc([nH]5)c(-c5ccccc5)c5nc(c(-c6ccccc6)c6ccc3[nH]6)C=C5)C=C4)cc1)[C@H](c1cccc(Cl)c1)N(C)C2=O
REMARK SMILES IDX 21 1 20 2 19 3 18 4 17 5 16 6 15 7 14 8 12 9 13 10 11 11
REMARK SMILES IDX 3 12 4 13 8 14 5 15 7 16 6 17 87 18 85 19 88 20 77 21 86 22
REMARK SMILES IDX 2 23 1 24 9 25 10 26 78 27 79 28 84 29 80 30 82 31 81 32
REMARK SMILES IDX 83 33 22 34 23 35 24 36 25 37 26 38 27 39 28 40 29 41 30 42
REMARK SMILES IDX 76 43 31 44 75 45 32 46 33 47 34 48 69 49 35 50 74 51 68 52
REMARK SMILES IDX 70 53 36 54 73 55 67 56 66 57 37 59 59 60 44 61 58 62 45 63
REMARK SMILES IDX 48 64 57 65 71 66 46 67 47 68 56 70 72 71 49 72 38 73 39 74
REMARK SMILES IDX 43 75 40 76 42 77 41 78 60 79 61 80 65 81 62 82 64 83 63 84
REMARK SMILES IDX 50 85 51 86 55 87 52 88 54 89 53 90
REMARK H PARENT 70 58 48 69
REMARK Flexibility Score: inf
ROOT
ATOM      1  C   UNL     1      -1.186   0.717 -10.205  1.00  0.00     0.188 C 
ENDROOT
BRANCH   1   2
ATOM      2  O   UNL     1      -0.350   0.488  -9.075  1.00  0.00    -0.377 OA
BRANCH   2   3
ATOM      3  C   UNL     1       1.048   0.422  -9.282  1.00  0.00     0.188 C 
BRANCH   3   4
ATOM      4  C   UNL     1       1.539  -0.968  -9.729  1.00  0.00     0.188 C 
BRANCH   4   5
ATOM      5  O   UNL     1       0.510  -1.843 -10.193  1.00  0.00    -0.376 OA
BRANCH   5   6
ATOM      6  C   UNL     1       0.062  -2.846  -9.280  1.00  0.00     0.202 C 
BRANCH   6   7
ATOM      7  C   UNL     1      -0.741  -2.324  -8.086  1.00  0.00     0.261 C 
BRANCH   7   8
ATOM      8  O   UNL     1       0.058  -1.459  -7.267  1.00  0.00    -0.463 OA
BRANCH   8   9
ATOM      9  C   UNL     1       0.997  -2.055  -6.493  1.00  0.00     0.316 C 
ATOM     10  O   UNL     1       1.050  -3.261  -6.311  1.00  0.00    -0.251 OA
BRANCH   9  11
ATOM     11  C   UNL     1       1.884  -0.983  -5.868  1.00  0.00     0.157 C 
ATOM     12  C   UNL     1       0.937  -0.487  -1.696  1.00  0.00     0.161 A 
ATOM     13  C   UNL     1       2.216  -0.157  -2.184  1.00  0.00     0.064 A 
ATOM     14  C   UNL     1      -0.071  -0.847  -2.600  1.00  0.00     0.161 A 
ATOM     15  C   UNL     1       2.510  -0.255  -3.550  1.00  0.00     0.048 A 
ATOM     16  C   UNL     1       0.241  -0.950  -3.953  1.00  0.00     0.056 A 
ATOM     17  C   UNL     1       1.542  -0.745  -4.423  1.00  0.00    -0.015 A 
ATOM     18  C   UNL     1       3.840   0.189  -4.071  1.00  0.00     0.254 C 
ATOM     19  N   UNL     1       4.180  -0.201  -5.369  1.00  0.00    -0.333 N 
ATOM     20  O   UNL     1       4.567   0.875  -3.361  1.00  0.00    -0.269 OA
ATOM     21  C   UNL     1       3.401  -1.228  -6.088  1.00  0.00     0.134 C 
ATOM     22  C   UNL     1       5.449   0.233  -5.932  1.00  0.00     0.147 C 
BRANCH  12  23
ATOM     23  O   UNL     1       0.655  -0.530  -0.359  1.00  0.00    -0.493 OA
ATOM     24  C   UNL     1       1.306   0.437   0.452  1.00  0.00     0.278 C 
ENDBRANCH  12  23
BRANCH  14  25
ATOM     25  O   UNL     1      -1.392  -1.117  -2.376  1.00  0.00    -0.493 OA
ATOM     26  C   UNL     1      -1.841  -1.284  -1.044  1.00  0.00     0.278 C 
ENDBRANCH  14  25
BRANCH  21  27
ATOM     27  C   UNL     1       3.895  -2.644  -5.794  1.00  0.00    -0.023 A 
ATOM     28  C   UNL     1       3.816  -3.624  -6.804  1.00  0.00     0.006 A 
ATOM     29  C   UNL     1       4.335  -3.046  -4.524  1.00  0.00     0.026 A 
ATOM     30  C   UNL     1       4.049  -4.971  -6.520  1.00  0.00     0.002 A 
ATOM     31  C   UNL     1       4.589  -4.391  -4.250  1.00  0.00     0.041 A 
ATOM     32  C   UNL     1       4.421  -5.358  -5.235  1.00  0.00     0.020 A 
ATOM     33  Cl  UNL     1       5.078  -4.856  -2.668  1.00  0.00    -0.084 Cl
ENDBRANCH  21  27
ENDBRANCH   9  11
ENDBRANCH   8   9
ENDBRANCH   7   8
ENDBRANCH   6   7
ENDBRANCH   5   6
ENDBRANCH   4   5
ENDBRANCH   3   4
ENDBRANCH   2   3
ENDBRANCH   1   2
BRANCH   1  34
ATOM     34  C   UNL     1      -0.697   0.420 -11.638  1.00  0.00     0.188 C 
BRANCH  34  35
ATOM     35  O   UNL     1       0.602   0.927 -11.936  1.00  0.00    -0.376 OA
BRANCH  35  36
ATOM     36  C   UNL     1       0.664   2.115 -12.717  1.00  0.00     0.202 C 
BRANCH  36  37
ATOM     37  C   UNL     1       0.344   3.400 -11.941  1.00  0.00     0.261 C 
BRANCH  37  38
ATOM     38  O   UNL     1      -1.013   3.505 -11.479  1.00  0.00    -0.460 OA
BRANCH  38  39
ATOM     39  C   UNL     1      -1.985   3.436 -12.412  1.00  0.00     0.338 C 
ATOM     40  O   UNL     1      -1.847   3.404 -13.622  1.00  0.00    -0.246 OA
BRANCH  39  41
ATOM     41  C   UNL     1      -3.269   3.204 -11.724  1.00  0.00     0.060 A 
ATOM     42  C   UNL     1      -4.059   2.124 -12.137  1.00  0.00     0.016 A 
ATOM     43  C   UNL     1      -3.702   4.059 -10.707  1.00  0.00     0.016 A 
ATOM     44  C   UNL     1      -5.325   1.941 -11.586  1.00  0.00     0.010 A 
ATOM     45  C   UNL     1      -4.979   3.888 -10.170  1.00  0.00     0.010 A 
ATOM     46  C   UNL     1      -5.813   2.864 -10.651  1.00  0.00    -0.014 A 
BRANCH  46  47
ATOM     47  C   UNL     1      -7.272   2.934 -10.413  1.00  0.00     0.031 A 
ATOM     48  C   UNL     1      -8.077   3.847 -11.301  1.00  0.00     0.074 A 
ATOM     49  C   UNL     1      -7.877   2.195  -9.469  1.00  0.00     0.049 A 
ATOM     50  N   UNL     1      -9.364   4.077 -11.309  1.00  0.00    -0.248 NA
ATOM     51  C   UNL     1      -7.324   4.600 -12.320  1.00  0.00     0.031 C 
ATOM     52  C   UNL     1      -7.215   1.248  -8.575  1.00  0.00     0.029 A 
ATOM     53  N   UNL     1      -9.200   2.133  -9.113  1.00  0.00    -0.354 N 
ATOM     54  C   UNL     1      -9.572   4.996 -12.330  1.00  0.00     0.074 A 
ATOM     55  C   UNL     1      -8.281   5.306 -12.900  1.00  0.00     0.031 C 
ATOM     56  C   UNL     1      -8.140   0.700  -7.765  1.00  0.00     0.029 A 
ATOM     57  C   UNL     1      -9.449   1.274  -8.072  1.00  0.00     0.049 A 
ATOM     58  H   UNL     1      -9.904   2.656  -9.560  1.00  0.00     0.167 HD
ATOM     59  C   UNL     1     -10.735   5.532 -12.765  1.00  0.00     0.031 A 
ATOM     60  C   UNL     1     -10.604   0.994  -7.439  1.00  0.00     0.031 A 
ATOM     61  C   UNL     1     -12.018   5.251 -12.186  1.00  0.00     0.049 A 
ATOM     62  C   UNL     1     -11.878   1.659  -7.893  1.00  0.00     0.074 A 
ATOM     63  C   UNL     1     -13.256   5.748 -12.547  1.00  0.00     0.029 A 
ATOM     64  N   UNL     1     -12.221   4.399 -11.113  1.00  0.00    -0.354 N 
ATOM     65  N   UNL     1     -12.066   2.503  -8.879  1.00  0.00    -0.248 NA
ATOM     66  C   UNL     1     -13.102   1.320  -7.151  1.00  0.00     0.031 C 
ATOM     67  C   UNL     1     -14.207   5.228 -11.663  1.00  0.00     0.029 A 
ATOM     68  C   UNL     1     -13.565   4.368 -10.786  1.00  0.00     0.049 A 
ATOM     69  H   UNL     1     -11.515   3.891 -10.651  1.00  0.00     0.167 HD
ATOM     70  C   UNL     1     -13.431   2.768  -8.897  1.00  0.00     0.074 A 
ATOM     71  C   UNL     1     -14.023   1.990  -7.829  1.00  0.00     0.031 C 
ATOM     72  C   UNL     1     -14.134   3.579  -9.726  1.00  0.00     0.031 A 
BRANCH  59  73
ATOM     73  C   UNL     1     -10.653   6.507 -13.903  1.00  0.00    -0.014 A 
ATOM     74  C   UNL     1     -10.383   6.073 -15.211  1.00  0.00     0.009 A 
ATOM     75  C   UNL     1     -10.845   7.875 -13.665  1.00  0.00     0.009 A 
ATOM     76  C   UNL     1     -10.276   6.996 -16.253  1.00  0.00     0.001 A 
ATOM     77  C   UNL     1     -10.762   8.794 -14.713  1.00  0.00     0.001 A 
ATOM     78  C   UNL     1     -10.469   8.355 -16.003  1.00  0.00     0.000 A 
ENDBRANCH  59  73
BRANCH  60  79
ATOM     79  C   UNL     1     -10.620   0.041  -6.299  1.00  0.00    -0.014 A 
ATOM     80  C   UNL     1     -11.224  -1.219  -6.428  1.00  0.00     0.009 A 
ATOM     81  C   UNL     1     -10.059   0.402  -5.064  1.00  0.00     0.009 A 
ATOM     82  C   UNL     1     -11.290  -2.087  -5.335  1.00  0.00     0.001 A 
ATOM     83  C   UNL     1     -10.104  -0.478  -3.981  1.00  0.00     0.001 A 
ATOM     84  C   UNL     1     -10.728  -1.717  -4.114  1.00  0.00     0.000 A 
ENDBRANCH  60  79
BRANCH  72  85
ATOM     85  C   UNL     1     -15.624   3.627  -9.546  1.00  0.00    -0.014 A 
ATOM     86  C   UNL     1     -16.209   4.304  -8.465  1.00  0.00     0.009 A 
ATOM     87  C   UNL     1     -16.455   3.026 -10.505  1.00  0.00     0.009 A 
ATOM     88  C   UNL     1     -17.598   4.351  -8.332  1.00  0.00     0.001 A 
ATOM     89  C   UNL     1     -17.843   3.097 -10.384  1.00  0.00     0.001 A 
ATOM     90  C   UNL     1     -18.413   3.752  -9.293  1.00  0.00     0.000 A 
ENDBRANCH  72  85
ENDBRANCH  46  47
ENDBRANCH  39  41
ENDBRANCH  38  39
ENDBRANCH  37  38
ENDBRANCH  36  37
ENDBRANCH  35  36
ENDBRANCH  34  35
ENDBRANCH   1  34
TORSDOF 23
