REMARK SMILES Cc1ccc(-c2nc(NC(=O)[C@H]3[C@@H](C(=O)OCCOCCOCCOCCOC(=O)c4ccc(-c5c6nc(c(-c7ccccc7)c7ccc([nH]7)c(-c7ccccc7)c7nc(c(-c8ccccc8)c8ccc5[nH]8)C=C7)C=C6)cc4)[C@@H]4CC[C@H]3O4)sc2C)cc1
REMARK SMILES IDX 21 1 20 2 19 3 18 4 17 5 16 6 14 7 15 8 13 9 12 10 82 11
REMARK SMILES IDX 79 12 81 13 83 14 80 15 10 16 9 17 11 19 8 20 6 21 7 22
REMARK SMILES IDX 85 23 84 24 86 25 5 26 1 27 2 28 3 29 88 30 4 31 87 32 22 33
REMARK SMILES IDX 23 34 24 35 25 36 26 37 27 38 28 39 29 40 30 41 31 42 32 43
REMARK SMILES IDX 78 44 33 45 77 46 34 47 35 48 36 49 71 50 37 51 76 52 70 53
REMARK SMILES IDX 72 54 38 55 75 56 69 57 68 58 39 60 61 61 46 62 60 63 47 64
REMARK SMILES IDX 50 65 59 66 73 67 48 68 49 69 58 71 74 72 51 73 40 74 41 75
REMARK SMILES IDX 45 76 42 77 44 78 43 79 62 80 63 81 67 82 64 83 66 84 65 85
REMARK SMILES IDX 52 86 53 87 57 88 54 89 56 90 55 91
REMARK H PARENT 9 18 72 59 50 70
REMARK Flexibility Score: inf
ROOT
ATOM      1  C   UNL     1      -9.927   0.715  -3.814  1.00  0.00     0.188 C 
ENDROOT
BRANCH   1   2
ATOM      2  C   UNL     1      -9.878   2.264  -3.903  1.00  0.00     0.188 C 
BRANCH   2   3
ATOM      3  O   UNL     1      -8.720   2.933  -3.405  1.00  0.00    -0.376 OA
BRANCH   3   4
ATOM      4  C   UNL     1      -7.916   2.182  -2.549  1.00  0.00     0.202 C 
BRANCH   4   5
ATOM      5  C   UNL     1      -8.423   1.805  -1.215  1.00  0.00     0.261 C 
BRANCH   5   6
ATOM      6  O   UNL     1      -9.710   2.319  -0.935  1.00  0.00    -0.463 OA
BRANCH   6   7
ATOM      7  C   UNL     1     -10.842   1.633  -0.775  1.00  0.00     0.312 C 
ATOM      8  O   UNL     1     -11.885   2.129  -1.213  1.00  0.00    -0.252 OA
BRANCH   7   9
ATOM      9  C   UNL     1     -10.956   0.384   0.075  1.00  0.00     0.143 C 
ATOM     10  C   UNL     1      -9.832  -0.528   0.563  1.00  0.00     0.124 C 
ATOM     11  C   UNL     1      -9.957  -1.711  -0.486  1.00  0.00     0.132 C 
ATOM     12  C   UNL     1     -11.793  -0.594  -0.764  1.00  0.00     0.133 C 
ATOM     13  C   UNL     1     -11.008  -2.718  -0.027  1.00  0.00     0.035 C 
ATOM     14  O   UNL     1     -10.735  -1.143  -1.569  1.00  0.00    -0.373 OA
ATOM     15  C   UNL     1     -12.240  -1.812   0.059  1.00  0.00     0.036 C 
BRANCH  10  16
ATOM     16  C   UNL     1      -8.389  -0.140   0.869  1.00  0.00     0.232 C 
ATOM     17  N   UNL     1      -7.897   0.998   1.437  1.00  0.00    -0.302 N 
ATOM     18  H   UNL     1      -6.953   0.908   1.701  1.00  0.00     0.172 HD
ATOM     19  O   UNL     1      -7.523  -0.977   0.563  1.00  0.00    -0.274 OA
BRANCH  17  20
ATOM     20  C   UNL     1      -8.408   2.242   1.728  1.00  0.00     0.190 A 
ATOM     21  C   UNL     1      -8.431   4.587   1.607  1.00  0.00     0.086 A 
ATOM     22  N   UNL     1      -7.721   3.365   1.615  1.00  0.00    -0.220 NA
ATOM     23  C   UNL     1      -9.901   4.028   1.530  1.00  0.00     0.031 A 
ATOM     24  S   UNL     1      -9.947   2.418   2.284  1.00  0.00    -0.101 S 
ATOM     25  C   UNL     1     -11.378   4.392   1.161  1.00  0.00     0.059 C 
BRANCH  21  26
ATOM     26  C   UNL     1      -7.630   6.323   1.628  1.00  0.00     0.001 A 
ATOM     27  C   UNL     1      -7.482  10.791   0.951  1.00  0.00     0.044 C 
ATOM     28  C   UNL     1      -7.242   9.352   1.262  1.00  0.00    -0.051 A 
ATOM     29  C   UNL     1      -6.667   8.425   0.427  1.00  0.00     0.004 A 
ATOM     30  C   UNL     1      -7.674   8.833   2.442  1.00  0.00     0.004 A 
ATOM     31  C   UNL     1      -6.806   6.998   0.659  1.00  0.00     0.010 A 
ATOM     32  C   UNL     1      -7.810   7.428   2.602  1.00  0.00     0.010 A 
ENDBRANCH  21  26
ENDBRANCH  17  20
ENDBRANCH  10  16
ENDBRANCH   7   9
ENDBRANCH   6   7
ENDBRANCH   5   6
ENDBRANCH   4   5
ENDBRANCH   3   4
ENDBRANCH   2   3
ENDBRANCH   1   2
BRANCH   1  33
ATOM     33  O   UNL     1      -9.220  -0.096  -4.756  1.00  0.00    -0.377 OA
BRANCH  33  34
ATOM     34  C   UNL     1      -7.804  -0.232  -4.632  1.00  0.00     0.188 C 
BRANCH  34  35
ATOM     35  C   UNL     1      -7.050   0.983  -5.143  1.00  0.00     0.188 C 
BRANCH  35  36
ATOM     36  O   UNL     1      -7.906   1.875  -5.841  1.00  0.00    -0.376 OA
BRANCH  36  37
ATOM     37  C   UNL     1      -8.222   1.454  -7.157  1.00  0.00     0.202 C 
BRANCH  37  38
ATOM     38  C   UNL     1      -6.903   1.417  -7.927  1.00  0.00     0.261 C 
BRANCH  38  39
ATOM     39  O   UNL     1      -6.204   2.673  -7.604  1.00  0.00    -0.460 OA
BRANCH  39  40
ATOM     40  C   UNL     1      -5.065   2.617  -6.829  1.00  0.00     0.338 C 
ATOM     41  O   UNL     1      -4.191   1.802  -6.968  1.00  0.00    -0.246 OA
BRANCH  40  42
ATOM     42  C   UNL     1      -5.139   3.535  -5.605  1.00  0.00     0.060 A 
ATOM     43  C   UNL     1      -4.227   3.365  -4.547  1.00  0.00     0.016 A 
ATOM     44  C   UNL     1      -6.237   4.358  -5.366  1.00  0.00     0.016 A 
ATOM     45  C   UNL     1      -4.513   3.868  -3.252  1.00  0.00     0.010 A 
ATOM     46  C   UNL     1      -6.533   4.822  -4.069  1.00  0.00     0.010 A 
ATOM     47  C   UNL     1      -5.750   4.490  -2.961  1.00  0.00    -0.014 A 
BRANCH  47  48
ATOM     48  C   UNL     1      -6.310   4.628  -1.546  1.00  0.00     0.031 A 
ATOM     49  C   UNL     1      -7.815   5.465  -1.290  1.00  0.00     0.074 A 
ATOM     50  C   UNL     1      -5.627   3.963  -0.532  1.00  0.00     0.049 A 
ATOM     51  N   UNL     1      -8.810   5.212  -0.456  1.00  0.00    -0.248 NA
ATOM     52  C   UNL     1      -8.140   6.743  -1.926  1.00  0.00     0.031 C 
ATOM     53  C   UNL     1      -5.524   4.469   0.790  1.00  0.00     0.029 A 
ATOM     54  N   UNL     1      -4.916   2.720  -0.344  1.00  0.00    -0.354 N 
ATOM     55  C   UNL     1      -9.556   6.412  -0.002  1.00  0.00     0.074 A 
ATOM     56  C   UNL     1      -9.202   7.221  -1.221  1.00  0.00     0.031 C 
ATOM     57  C   UNL     1      -5.257   3.520   1.633  1.00  0.00     0.029 A 
ATOM     58  C   UNL     1      -4.790   2.367   1.036  1.00  0.00     0.049 A 
ATOM     59  H   UNL     1      -4.559   2.176  -1.083  1.00  0.00     0.167 HD
ATOM     60  C   UNL     1     -10.121   6.794   1.420  1.00  0.00     0.031 A 
ATOM     61  C   UNL     1      -4.401   1.408   1.939  1.00  0.00     0.031 A 
ATOM     62  C   UNL     1      -9.944   5.950   3.036  1.00  0.00     0.049 A 
ATOM     63  C   UNL     1      -4.883   1.760   3.551  1.00  0.00     0.074 A 
ATOM     64  C   UNL     1     -10.758   5.426   4.080  1.00  0.00     0.029 A 
ATOM     65  N   UNL     1      -8.643   5.377   3.744  1.00  0.00    -0.354 N 
ATOM     66  N   UNL     1      -5.160   2.986   4.050  1.00  0.00    -0.248 NA
ATOM     67  C   UNL     1      -5.311   0.819   4.599  1.00  0.00     0.031 C 
ATOM     68  C   UNL     1      -9.985   4.500   5.055  1.00  0.00     0.029 A 
ATOM     69  C   UNL     1      -8.631   4.409   4.737  1.00  0.00     0.049 A 
ATOM     70  H   UNL     1      -7.774   5.739   3.456  1.00  0.00     0.167 HD
ATOM     71  C   UNL     1      -6.390   2.916   4.777  1.00  0.00     0.074 A 
ATOM     72  C   UNL     1      -6.165   1.578   5.346  1.00  0.00     0.031 C 
ATOM     73  C   UNL     1      -7.173   3.983   5.291  1.00  0.00     0.031 A 
BRANCH  60  74
ATOM     74  C   UNL     1     -11.023   8.098   1.437  1.00  0.00    -0.014 A 
ATOM     75  C   UNL     1     -11.798   8.409   2.561  1.00  0.00     0.009 A 
ATOM     76  C   UNL     1     -11.211   9.007   0.372  1.00  0.00     0.009 A 
ATOM     77  C   UNL     1     -12.704   9.494   2.591  1.00  0.00     0.001 A 
ATOM     78  C   UNL     1     -12.093  10.101   0.384  1.00  0.00     0.001 A 
ATOM     79  C   UNL     1     -12.860  10.338   1.500  1.00  0.00     0.000 A 
ENDBRANCH  60  74
BRANCH  61  80
ATOM     80  C   UNL     1      -3.818   0.235   1.159  1.00  0.00    -0.014 A 
ATOM     81  C   UNL     1      -4.547  -0.917   0.826  1.00  0.00     0.009 A 
ATOM     82  C   UNL     1      -2.843   0.631   0.193  1.00  0.00     0.009 A 
ATOM     83  C   UNL     1      -4.518  -1.441  -0.496  1.00  0.00     0.001 A 
ATOM     84  C   UNL     1      -2.881   0.173  -1.138  1.00  0.00     0.001 A 
ATOM     85  C   UNL     1      -3.759  -0.836  -1.496  1.00  0.00     0.000 A 
ENDBRANCH  61  80
BRANCH  73  86
ATOM     86  C   UNL     1      -6.384   5.160   5.930  1.00  0.00    -0.014 A 
ATOM     87  C   UNL     1      -5.093   5.030   6.472  1.00  0.00     0.009 A 
ATOM     88  C   UNL     1      -7.002   6.418   6.122  1.00  0.00     0.009 A 
ATOM     89  C   UNL     1      -4.485   6.081   7.186  1.00  0.00     0.001 A 
ATOM     90  C   UNL     1      -6.386   7.480   6.790  1.00  0.00     0.001 A 
ATOM     91  C   UNL     1      -5.133   7.302   7.349  1.00  0.00     0.000 A 
ENDBRANCH  73  86
ENDBRANCH  47  48
ENDBRANCH  40  42
ENDBRANCH  39  40
ENDBRANCH  38  39
ENDBRANCH  37  38
ENDBRANCH  36  37
ENDBRANCH  35  36
ENDBRANCH  34  35
ENDBRANCH  33  34
ENDBRANCH   1  33
TORSDOF 23
