REMARK SMILES CSc1nc(N)cc(Nc2cccc(C(=O)OCCOCCOCCOCCOC(=O)c3ccc(-c4c5nc(c(-c6ccccc6)c6ccc([nH]6)c(-c6ccccc6)c6nc(c(-c7ccccc7)c7ccc4[nH]7)C=C6)C=C5)cc3)c2)n1
REMARK SMILES IDX 22 1 21 2 20 3 19 4 18 5 17 6 15 7 16 8 14 9 10 10 11 11
REMARK SMILES IDX 80 12 12 13 13 14 9 15 8 17 3 18 4 19 81 20 5 21 7 22 2 23
REMARK SMILES IDX 1 24 6 25 23 28 24 29 25 30 26 31 27 32 28 33 29 34 30 35
REMARK SMILES IDX 31 36 32 37 33 38 79 39 34 40 78 41 35 42 36 43 37 44 72 45
REMARK SMILES IDX 38 46 77 47 71 48 73 49 39 50 76 51 70 52 69 53 40 55 62 56
REMARK SMILES IDX 47 57 61 58 48 59 51 60 60 61 74 62 49 63 50 64 59 66 75 67
REMARK SMILES IDX 52 68 41 69 42 70 46 71 43 72 45 73 44 74 63 75 64 76 68 77
REMARK SMILES IDX 65 78 67 79 66 80 53 81 54 82 58 83 55 84 57 85 56 86
REMARK H PARENT 9 16 6 26 6 27 73 54 51 65
REMARK Flexibility Score: inf
ROOT
ATOM      1  C   UNL     1       0.142   3.914   8.606  1.00  0.00     0.188 C 
ENDROOT
BRANCH   1   2
ATOM      2  C   UNL     1       0.281   5.339   8.018  1.00  0.00     0.188 C 
BRANCH   2   3
ATOM      3  O   UNL     1      -0.939   5.916   7.587  1.00  0.00    -0.376 OA
BRANCH   3   4
ATOM      4  C   UNL     1      -1.145   6.150   6.208  1.00  0.00     0.202 C 
BRANCH   4   5
ATOM      5  C   UNL     1      -1.166   4.940   5.266  1.00  0.00     0.261 C 
BRANCH   5   6
ATOM      6  O   UNL     1      -0.148   3.963   5.499  1.00  0.00    -0.460 OA
BRANCH   6   7
ATOM      7  C   UNL     1       1.113   4.268   5.112  1.00  0.00     0.338 C 
ATOM      8  O   UNL     1       1.479   5.291   4.563  1.00  0.00    -0.246 OA
BRANCH   7   9
ATOM      9  C   UNL     1       2.012   3.241   5.692  1.00  0.00     0.062 A 
ATOM     10  C   UNL     1       2.457   0.913   6.261  1.00  0.00     0.040 A 
ATOM     11  C   UNL     1       3.627   1.321   6.913  1.00  0.00     0.026 A 
ATOM     12  C   UNL     1       1.631   1.899   5.706  1.00  0.00     0.041 A 
ATOM     13  C   UNL     1       3.997   2.671   6.939  1.00  0.00     0.003 A 
ATOM     14  C   UNL     1       3.207   3.629   6.300  1.00  0.00     0.016 A 
BRANCH  10  15
ATOM     15  N   UNL     1       2.203  -0.458   6.045  1.00  0.00    -0.340 N 
ATOM     16  H   UNL     1       2.429  -1.079   6.775  1.00  0.00     0.168 HD
BRANCH  15  17
ATOM     17  C   UNL     1       1.653  -1.014   4.872  1.00  0.00     0.137 A 
ATOM     18  C   UNL     1       0.771  -0.718   2.769  1.00  0.00     0.191 A 
ATOM     19  N   UNL     1       0.515  -2.017   2.594  1.00  0.00    -0.206 NA
ATOM     20  N   UNL     1       1.358  -0.201   3.847  1.00  0.00    -0.205 NA
ATOM     21  C   UNL     1       0.844  -2.821   3.611  1.00  0.00     0.130 A 
ATOM     22  C   UNL     1       1.381  -2.360   4.797  1.00  0.00     0.093 A 
BRANCH  18  23
ATOM     23  S   UNL     1       0.176   0.456   1.582  1.00  0.00    -0.090 SA
ATOM     24  C   UNL     1       1.021  -0.167   0.120  1.00  0.00     0.094 C 
ENDBRANCH  18  23
BRANCH  21  25
ATOM     25  N   UNL     1       0.541  -4.160   3.449  1.00  0.00    -0.383 N 
ATOM     26  H   UNL     1       0.158  -4.478   2.600  1.00  0.00     0.158 HD
ATOM     27  H   UNL     1       0.708  -4.795   4.183  1.00  0.00     0.158 HD
ENDBRANCH  21  25
ENDBRANCH  15  17
ENDBRANCH  10  15
ENDBRANCH   7   9
ENDBRANCH   6   7
ENDBRANCH   5   6
ENDBRANCH   4   5
ENDBRANCH   3   4
ENDBRANCH   2   3
ENDBRANCH   1   2
BRANCH   1  28
ATOM     28  O   UNL     1      -1.108   3.234   8.596  1.00  0.00    -0.377 OA
BRANCH  28  29
ATOM     29  C   UNL     1      -2.314   3.964   8.783  1.00  0.00     0.188 C 
BRANCH  29  30
ATOM     30  C   UNL     1      -2.362   5.138   9.788  1.00  0.00     0.188 C 
BRANCH  30  31
ATOM     31  O   UNL     1      -1.133   5.393  10.447  1.00  0.00    -0.376 OA
BRANCH  31  32
ATOM     32  C   UNL     1      -1.010   5.006  11.802  1.00  0.00     0.202 C 
BRANCH  32  33
ATOM     33  C   UNL     1      -1.198   3.523  12.153  1.00  0.00     0.261 C 
BRANCH  33  34
ATOM     34  O   UNL     1      -2.376   2.885  11.639  1.00  0.00    -0.460 OA
BRANCH  34  35
ATOM     35  C   UNL     1      -3.567   3.284  12.128  1.00  0.00     0.338 C 
ATOM     36  O   UNL     1      -3.773   4.142  12.971  1.00  0.00    -0.246 OA
BRANCH  35  37
ATOM     37  C   UNL     1      -4.615   2.620  11.327  1.00  0.00     0.060 A 
ATOM     38  C   UNL     1      -5.500   3.398  10.568  1.00  0.00     0.016 A 
ATOM     39  C   UNL     1      -4.708   1.227  11.317  1.00  0.00     0.016 A 
ATOM     40  C   UNL     1      -6.503   2.782   9.818  1.00  0.00     0.010 A 
ATOM     41  C   UNL     1      -5.727   0.613  10.588  1.00  0.00     0.010 A 
ATOM     42  C   UNL     1      -6.649   1.390   9.864  1.00  0.00    -0.014 A 
BRANCH  42  43
ATOM     43  C   UNL     1      -7.882   0.757   9.338  1.00  0.00     0.031 A 
ATOM     44  C   UNL     1      -8.977   0.425  10.315  1.00  0.00     0.074 A 
ATOM     45  C   UNL     1      -8.034   0.485   8.031  1.00  0.00     0.049 A 
ATOM     46  N   UNL     1     -10.111  -0.195  10.114  1.00  0.00    -0.248 NA
ATOM     47  C   UNL     1      -8.757   0.847  11.709  1.00  0.00     0.031 C 
ATOM     48  C   UNL     1      -7.072   0.804   6.979  1.00  0.00     0.029 A 
ATOM     49  N   UNL     1      -9.065  -0.137   7.371  1.00  0.00    -0.354 N 
ATOM     50  C   UNL     1     -10.731  -0.249  11.357  1.00  0.00     0.074 A 
ATOM     51  C   UNL     1      -9.837   0.372  12.308  1.00  0.00     0.031 C 
ATOM     52  C   UNL     1      -7.554   0.365   5.802  1.00  0.00     0.029 A 
ATOM     53  C   UNL     1      -8.836  -0.301   6.027  1.00  0.00     0.049 A 
ATOM     54  H   UNL     1      -9.889  -0.437   7.819  1.00  0.00     0.167 HD
ATOM     55  C   UNL     1     -11.939  -0.768  11.677  1.00  0.00     0.031 A 
ATOM     56  C   UNL     1      -9.568  -0.941   5.093  1.00  0.00     0.031 A 
ATOM     57  C   UNL     1     -12.819  -1.403  10.733  1.00  0.00     0.049 A 
ATOM     58  C   UNL     1     -10.868  -1.593   5.492  1.00  0.00     0.074 A 
ATOM     59  C   UNL     1     -14.069  -1.951  10.955  1.00  0.00     0.029 A 
ATOM     60  N   UNL     1     -12.533  -1.583   9.389  1.00  0.00    -0.354 N 
ATOM     61  N   UNL     1     -11.457  -1.621   6.663  1.00  0.00    -0.248 NA
ATOM     62  C   UNL     1     -11.607  -2.298   4.434  1.00  0.00     0.031 C 
ATOM     63  C   UNL     1     -14.511  -2.524   9.759  1.00  0.00     0.029 A 
ATOM     64  C   UNL     1     -13.571  -2.263   8.775  1.00  0.00     0.049 A 
ATOM     65  H   UNL     1     -11.715  -1.273   8.938  1.00  0.00     0.167 HD
ATOM     66  C   UNL     1     -12.649  -2.311   6.474  1.00  0.00     0.074 A 
ATOM     67  C   UNL     1     -12.705  -2.674   5.074  1.00  0.00     0.031 C 
ATOM     68  C   UNL     1     -13.615  -2.613   7.378  1.00  0.00     0.031 A 
BRANCH  55  69
ATOM     69  C   UNL     1     -12.356  -0.709  13.120  1.00  0.00    -0.014 A 
ATOM     70  C   UNL     1     -12.679   0.508  13.743  1.00  0.00     0.009 A 
ATOM     71  C   UNL     1     -12.450  -1.896  13.864  1.00  0.00     0.009 A 
ATOM     72  C   UNL     1     -13.051   0.537  15.089  1.00  0.00     0.001 A 
ATOM     73  C   UNL     1     -12.854  -1.868  15.199  1.00  0.00     0.001 A 
ATOM     74  C   UNL     1     -13.144  -0.651  15.813  1.00  0.00     0.000 A 
ENDBRANCH  55  69
BRANCH  56  75
ATOM     75  C   UNL     1      -9.083  -1.024   3.689  1.00  0.00    -0.014 A 
ATOM     76  C   UNL     1      -9.768  -0.370   2.653  1.00  0.00     0.009 A 
ATOM     77  C   UNL     1      -7.946  -1.785   3.372  1.00  0.00     0.009 A 
ATOM     78  C   UNL     1      -9.343  -0.501   1.328  1.00  0.00     0.001 A 
ATOM     79  C   UNL     1      -7.504  -1.886   2.051  1.00  0.00     0.001 A 
ATOM     80  C   UNL     1      -8.209  -1.254   1.029  1.00  0.00     0.000 A 
ENDBRANCH  56  75
BRANCH  68  81
ATOM     81  C   UNL     1     -14.841  -3.326   6.875  1.00  0.00    -0.014 A 
ATOM     82  C   UNL     1     -14.798  -4.668   6.468  1.00  0.00     0.009 A 
ATOM     83  C   UNL     1     -16.073  -2.652   6.859  1.00  0.00     0.009 A 
ATOM     84  C   UNL     1     -15.958  -5.309   6.023  1.00  0.00     0.001 A 
ATOM     85  C   UNL     1     -17.236  -3.304   6.448  1.00  0.00     0.001 A 
ATOM     86  C   UNL     1     -17.175  -4.628   6.020  1.00  0.00     0.000 A 
ENDBRANCH  68  81
ENDBRANCH  42  43
ENDBRANCH  35  37
ENDBRANCH  34  35
ENDBRANCH  33  34
ENDBRANCH  32  33
ENDBRANCH  31  32
ENDBRANCH  30  31
ENDBRANCH  29  30
ENDBRANCH  28  29
ENDBRANCH   1  28
TORSDOF 24
