REMARK SMILES CCC(CC)(CC)NC(=O)NC[C@@H]1CC[C@H](C(=O)OCCOCCOCCOCCOC(=O)c2ccc(-c3c4nc(c(-c5ccccc5)c5ccc([nH]5)c(-c5ccccc5)c5nc(c(-c6ccccc6)c6ccc3[nH]6)C=C5)C=C4)cc2)O1
REMARK SMILES IDX 24 1 23 2 22 3 21 4 20 5 19 6 17 7 18 8 16 9 13 10 14 11
REMARK SMILES IDX 82 12 15 13 12 14 11 15 8 16 9 17 10 19 3 21 2 22 1 23 4 24
REMARK SMILES IDX 5 25 6 26 7 27 25 28 26 29 27 30 28 31 29 32 30 33 31 34
REMARK SMILES IDX 32 35 33 36 34 37 35 38 81 39 36 40 80 41 37 42 38 43 39 44
REMARK SMILES IDX 74 45 40 46 79 47 73 48 75 49 41 50 78 51 72 52 71 53 42 55
REMARK SMILES IDX 64 56 49 57 63 58 50 59 53 60 62 61 76 62 51 63 52 64 61 66
REMARK SMILES IDX 77 67 54 68 43 69 44 70 48 71 45 72 47 73 46 74 65 75 66 76
REMARK SMILES IDX 70 77 67 78 69 79 68 80 55 81 56 82 60 83 57 84 59 85 58 86
REMARK H PARENT 8 18 11 20 75 54 53 65
REMARK Flexibility Score: inf
ROOT
ATOM      1  C   UNL     1      -0.593  -4.358  -1.739  1.00  0.00     0.188 C 
ENDROOT
BRANCH   1   2
ATOM      2  C   UNL     1      -1.916  -4.162  -2.504  1.00  0.00     0.188 C 
BRANCH   2   3
ATOM      3  O   UNL     1      -1.857  -3.756  -3.858  1.00  0.00    -0.376 OA
BRANCH   3   4
ATOM      4  C   UNL     1      -1.339  -2.475  -4.173  1.00  0.00     0.202 C 
BRANCH   4   5
ATOM      5  C   UNL     1      -1.206  -1.334  -3.145  1.00  0.00     0.261 C 
BRANCH   5   6
ATOM      6  O   UNL     1      -0.975  -1.665  -1.756  1.00  0.00    -0.461 OA
BRANCH   6   7
ATOM      7  C   UNL     1      -1.714  -1.075  -0.783  1.00  0.00     0.335 C 
ATOM      8  O   UNL     1      -2.764  -0.485  -1.024  1.00  0.00    -0.249 OA
BRANCH   7   9
ATOM      9  C   UNL     1      -1.068  -1.107   0.656  1.00  0.00     0.228 C 
ATOM     10  C   UNL     1       0.582   0.184   1.815  1.00  0.00     0.138 C 
ATOM     11  C   UNL     1       1.182  -1.196   1.650  1.00  0.00     0.037 C 
ATOM     12  O   UNL     1      -0.658   0.212   1.070  1.00  0.00    -0.361 OA
ATOM     13  C   UNL     1       0.077  -2.048   1.028  1.00  0.00     0.047 C 
BRANCH  10  14
ATOM     14  C   UNL     1       1.478   1.495   1.630  1.00  0.00     0.149 C 
BRANCH  14  15
ATOM     15  N   UNL     1       2.711   1.571   0.773  1.00  0.00    -0.336 N 
ATOM     16  N   UNL     1       2.576   2.346  -1.542  1.00  0.00    -0.333 N 
ATOM     17  C   UNL     1       3.211   2.067  -0.381  1.00  0.00     0.315 C 
ATOM     18  H   UNL     1       3.200   2.647  -2.243  1.00  0.00     0.165 HD
ATOM     19  O   UNL     1       4.444   2.192  -0.408  1.00  0.00    -0.249 OA
ATOM     20  H   UNL     1       3.427   1.067   1.224  1.00  0.00     0.165 HD
BRANCH  16  21
ATOM     21  C   UNL     1       1.178   2.311  -2.020  1.00  0.00     0.041 C 
BRANCH  21  22
ATOM     22  C   UNL     1       0.557   1.113  -1.334  1.00  0.00     0.025 C 
ATOM     23  C   UNL     1       1.457  -0.147  -1.440  1.00  0.00     0.006 C 
ENDBRANCH  21  22
BRANCH  21  24
ATOM     24  C   UNL     1       0.956   1.992  -3.557  1.00  0.00     0.025 C 
ATOM     25  C   UNL     1      -0.533   2.081  -3.995  1.00  0.00     0.006 C 
ENDBRANCH  21  24
BRANCH  21  26
ATOM     26  C   UNL     1       0.525   3.711  -1.816  1.00  0.00     0.025 C 
ATOM     27  C   UNL     1       1.152   4.665  -0.810  1.00  0.00     0.006 C 
ENDBRANCH  21  26
ENDBRANCH  16  21
ENDBRANCH  14  15
ENDBRANCH  10  14
ENDBRANCH   7   9
ENDBRANCH   6   7
ENDBRANCH   5   6
ENDBRANCH   4   5
ENDBRANCH   3   4
ENDBRANCH   2   3
ENDBRANCH   1   2
BRANCH   1  28
ATOM     28  O   UNL     1       0.518  -3.635  -2.251  1.00  0.00    -0.377 OA
BRANCH  28  29
ATOM     29  C   UNL     1       1.365  -4.251  -3.212  1.00  0.00     0.188 C 
BRANCH  29  30
ATOM     30  C   UNL     1       0.790  -5.329  -4.147  1.00  0.00     0.188 C 
BRANCH  30  31
ATOM     31  O   UNL     1      -0.060  -6.263  -3.505  1.00  0.00    -0.376 OA
BRANCH  31  32
ATOM     32  C   UNL     1       0.476  -7.474  -3.000  1.00  0.00     0.202 C 
BRANCH  32  33
ATOM     33  C   UNL     1       1.631  -7.419  -1.985  1.00  0.00     0.261 C 
BRANCH  33  34
ATOM     34  O   UNL     1       2.830  -6.742  -2.392  1.00  0.00    -0.460 OA
BRANCH  34  35
ATOM     35  C   UNL     1       3.433  -7.143  -3.534  1.00  0.00     0.338 C 
ATOM     36  O   UNL     1       3.118  -8.060  -4.252  1.00  0.00    -0.246 OA
BRANCH  35  37
ATOM     37  C   UNL     1       4.466  -6.132  -3.859  1.00  0.00     0.060 A 
ATOM     38  C   UNL     1       4.380  -5.433  -5.070  1.00  0.00     0.016 A 
ATOM     39  C   UNL     1       5.528  -5.905  -2.982  1.00  0.00     0.016 A 
ATOM     40  C   UNL     1       5.389  -4.540  -5.434  1.00  0.00     0.010 A 
ATOM     41  C   UNL     1       6.548  -5.029  -3.357  1.00  0.00     0.010 A 
ATOM     42  C   UNL     1       6.505  -4.378  -4.604  1.00  0.00    -0.014 A 
BRANCH  42  43
ATOM     43  C   UNL     1       7.729  -3.728  -5.129  1.00  0.00     0.031 A 
ATOM     44  C   UNL     1       8.833  -4.612  -5.645  1.00  0.00     0.074 A 
ATOM     45  C   UNL     1       7.865  -2.391  -5.160  1.00  0.00     0.049 A 
ATOM     46  N   UNL     1      10.029  -4.293  -6.067  1.00  0.00    -0.248 NA
ATOM     47  C   UNL     1       8.546  -6.057  -5.685  1.00  0.00     0.031 C 
ATOM     48  C   UNL     1       6.850  -1.424  -4.748  1.00  0.00     0.029 A 
ATOM     49  N   UNL     1       8.931  -1.619  -5.549  1.00  0.00    -0.354 N 
ATOM     50  C   UNL     1      10.639  -5.494  -6.409  1.00  0.00     0.074 A 
ATOM     51  C   UNL     1       9.696  -6.550  -6.115  1.00  0.00     0.031 C 
ATOM     52  C   UNL     1       7.349  -0.183  -4.895  1.00  0.00     0.029 A 
ATOM     53  C   UNL     1       8.729  -0.273  -5.369  1.00  0.00     0.049 A 
ATOM     54  H   UNL     1       9.761  -1.995  -5.922  1.00  0.00     0.167 HD
ATOM     55  C   UNL     1      11.873  -5.701  -6.925  1.00  0.00     0.031 A 
ATOM     56  C   UNL     1       9.575   0.762  -5.539  1.00  0.00     0.031 A 
ATOM     57  C   UNL     1      12.819  -4.652  -7.197  1.00  0.00     0.049 A 
ATOM     58  C   UNL     1      10.982   0.497  -6.013  1.00  0.00     0.074 A 
ATOM     59  C   UNL     1      14.096  -4.757  -7.718  1.00  0.00     0.029 A 
ATOM     60  N   UNL     1      12.590  -3.306  -6.960  1.00  0.00    -0.354 N 
ATOM     61  N   UNL     1      11.546  -0.639  -6.346  1.00  0.00    -0.248 NA
ATOM     62  C   UNL     1      11.868   1.665  -6.140  1.00  0.00     0.031 C 
ATOM     63  C   UNL     1      14.664  -3.480  -7.738  1.00  0.00     0.029 A 
ATOM     64  C   UNL     1      13.713  -2.571  -7.300  1.00  0.00     0.049 A 
ATOM     65  H   UNL     1      11.754  -2.928  -6.604  1.00  0.00     0.167 HD
ATOM     66  C   UNL     1      12.836  -0.318  -6.757  1.00  0.00     0.074 A 
ATOM     67  C   UNL     1      12.966   1.119  -6.645  1.00  0.00     0.031 C 
ATOM     68  C   UNL     1      13.824  -1.139  -7.192  1.00  0.00     0.031 A 
BRANCH  55  69
ATOM     69  C   UNL     1      12.282  -7.123  -7.189  1.00  0.00    -0.014 A 
ATOM     70  C   UNL     1      11.692  -7.876  -8.218  1.00  0.00     0.009 A 
ATOM     71  C   UNL     1      13.291  -7.713  -6.412  1.00  0.00     0.009 A 
ATOM     72  C   UNL     1      12.080  -9.200  -8.438  1.00  0.00     0.001 A 
ATOM     73  C   UNL     1      13.700  -9.025  -6.655  1.00  0.00     0.001 A 
ATOM     74  C   UNL     1      13.087  -9.771  -7.661  1.00  0.00     0.000 A 
ENDBRANCH  55  69
BRANCH  56  75
ATOM     75  C   UNL     1       9.134   2.151  -5.234  1.00  0.00    -0.014 A 
ATOM     76  C   UNL     1       9.024   3.108  -6.256  1.00  0.00     0.009 A 
ATOM     77  C   UNL     1       8.858   2.540  -3.914  1.00  0.00     0.009 A 
ATOM     78  C   UNL     1       8.682   4.429  -5.957  1.00  0.00     0.001 A 
ATOM     79  C   UNL     1       8.481   3.853  -3.622  1.00  0.00     0.001 A 
ATOM     80  C   UNL     1       8.407   4.799  -4.642  1.00  0.00     0.000 A 
ENDBRANCH  56  75
BRANCH  68  81
ATOM     81  C   UNL     1      15.114  -0.502  -7.636  1.00  0.00    -0.014 A 
ATOM     82  C   UNL     1      16.000   0.084  -6.719  1.00  0.00     0.009 A 
ATOM     83  C   UNL     1      15.468  -0.537  -8.995  1.00  0.00     0.009 A 
ATOM     84  C   UNL     1      17.196   0.655  -7.160  1.00  0.00     0.001 A 
ATOM     85  C   UNL     1      16.680   0.003  -9.428  1.00  0.00     0.001 A 
ATOM     86  C   UNL     1      17.538   0.608  -8.512  1.00  0.00     0.000 A 
ENDBRANCH  68  81
ENDBRANCH  42  43
ENDBRANCH  35  37
ENDBRANCH  34  35
ENDBRANCH  33  34
ENDBRANCH  32  33
ENDBRANCH  31  32
ENDBRANCH  30  31
ENDBRANCH  29  30
ENDBRANCH  28  29
ENDBRANCH   1  28
TORSDOF 26
