REMARK SMILES O=C(Cc1ccccc1-c1ccn(C(F)F)c(=O)c1)OCCOCCOCCOCCOC(=O)c1ccc(-c2c3nc(c(-c4ccccc4)c4ccc([nH]4)c(-c4ccccc4)c4nc(c(-c5ccccc5)c5ccc2[nH]5)C=C4)C=C3)cc1
REMARK SMILES IDX 25 1 24 2 23 3 22 4 21 5 20 6 2 7 1 8 3 9 4 10 5 11 9 12
REMARK SMILES IDX 6 13 8 14 7 15 10 16 11 17 19 18 12 19 17 20 13 21 18 22
REMARK SMILES IDX 14 23 15 24 16 25 26 26 27 27 28 28 29 29 30 30 31 31 32 32
REMARK SMILES IDX 33 33 34 34 35 35 36 36 82 37 37 38 81 39 38 40 39 41 40 42
REMARK SMILES IDX 75 43 41 44 80 45 74 46 76 47 42 48 79 49 73 50 72 51 43 53
REMARK SMILES IDX 65 54 50 55 64 56 51 57 54 58 63 59 77 60 52 61 53 62 62 64
REMARK SMILES IDX 78 65 55 66 44 67 45 68 49 69 46 70 48 71 47 72 66 73 67 74
REMARK SMILES IDX 71 75 68 76 70 77 69 78 56 79 57 80 61 81 58 82 60 83 59 84
REMARK H PARENT 76 52 54 63
REMARK Flexibility Score: inf
ROOT
ATOM      1  C   UNL     1       2.072  -2.934   0.941  1.00  0.00     0.188 C 
ENDROOT
BRANCH   1   2
ATOM      2  C   UNL     1       2.508  -1.623   0.311  1.00  0.00     0.188 C 
BRANCH   2   3
ATOM      3  O   UNL     1       3.813  -1.529  -0.250  1.00  0.00    -0.376 OA
BRANCH   3   4
ATOM      4  C   UNL     1       4.674  -0.446   0.091  1.00  0.00     0.202 C 
BRANCH   4   5
ATOM      5  C   UNL     1       4.117   0.831   0.728  1.00  0.00     0.261 C 
BRANCH   5   6
ATOM      6  O   UNL     1       2.763   1.240   0.435  1.00  0.00    -0.463 OA
BRANCH   6   7
ATOM      7  C   UNL     1       2.052   0.912  -0.673  1.00  0.00     0.310 C 
ATOM      8  O   UNL     1       0.866   0.599  -0.561  1.00  0.00    -0.252 OA
BRANCH   7   9
ATOM      9  C   UNL     1       2.736   0.982  -2.018  1.00  0.00     0.158 C 
BRANCH   9  10
ATOM     10  C   UNL     1       3.634   2.193  -2.116  1.00  0.00    -0.029 A 
ATOM     11  C   UNL     1       5.001   1.993  -2.351  1.00  0.00     0.005 A 
ATOM     12  C   UNL     1       3.135   3.492  -1.831  1.00  0.00    -0.014 A 
ATOM     13  C   UNL     1       5.897   3.032  -2.150  1.00  0.00     0.000 A 
ATOM     14  C   UNL     1       4.050   4.524  -1.629  1.00  0.00     0.009 A 
ATOM     15  C   UNL     1       5.424   4.285  -1.763  1.00  0.00     0.001 A 
BRANCH  12  16
ATOM     16  C   UNL     1       1.668   3.716  -1.733  1.00  0.00    -0.011 A 
ATOM     17  C   UNL     1       0.915   3.650  -0.490  1.00  0.00     0.027 A 
ATOM     18  C   UNL     1       0.995   3.689  -2.898  1.00  0.00     0.080 A 
ATOM     19  C   UNL     1      -0.377   3.288  -0.511  1.00  0.00     0.095 A 
ATOM     20  C   UNL     1      -0.471   3.420  -2.928  1.00  0.00     0.255 A 
ATOM     21  N   UNL     1      -1.043   3.100  -1.709  1.00  0.00    -0.258 N 
ATOM     22  O   UNL     1      -1.040   3.414  -4.014  1.00  0.00    -0.269 OA
BRANCH  21  23
ATOM     23  C   UNL     1      -2.384   2.571  -1.726  1.00  0.00     0.451 C 
ATOM     24  F   UNL     1      -3.280   3.541  -2.028  1.00  0.00    -0.185 F 
ATOM     25  F   UNL     1      -2.521   1.581  -2.645  1.00  0.00    -0.185 F 
ENDBRANCH  21  23
ENDBRANCH  12  16
ENDBRANCH   9  10
ENDBRANCH   7   9
ENDBRANCH   6   7
ENDBRANCH   5   6
ENDBRANCH   4   5
ENDBRANCH   3   4
ENDBRANCH   2   3
ENDBRANCH   1   2
BRANCH   1  26
ATOM     26  O   UNL     1       2.785  -3.335   2.104  1.00  0.00    -0.377 OA
BRANCH  26  27
ATOM     27  C   UNL     1       4.190  -3.116   2.075  1.00  0.00     0.188 C 
BRANCH  27  28
ATOM     28  C   UNL     1       5.005  -3.834   0.972  1.00  0.00     0.188 C 
BRANCH  28  29
ATOM     29  O   UNL     1       4.262  -4.149  -0.191  1.00  0.00    -0.376 OA
BRANCH  29  30
ATOM     30  C   UNL     1       3.808  -5.483  -0.373  1.00  0.00     0.202 C 
BRANCH  30  31
ATOM     31  C   UNL     1       3.053  -6.244   0.742  1.00  0.00     0.261 C 
BRANCH  31  32
ATOM     32  O   UNL     1       3.455  -6.015   2.099  1.00  0.00    -0.460 OA
BRANCH  32  33
ATOM     33  C   UNL     1       4.605  -6.571   2.524  1.00  0.00     0.338 C 
ATOM     34  O   UNL     1       5.346  -7.302   1.885  1.00  0.00    -0.246 OA
BRANCH  33  35
ATOM     35  C   UNL     1       4.960  -5.935   3.816  1.00  0.00     0.060 A 
ATOM     36  C   UNL     1       6.208  -5.300   3.925  1.00  0.00     0.016 A 
ATOM     37  C   UNL     1       4.059  -5.899   4.884  1.00  0.00     0.016 A 
ATOM     38  C   UNL     1       6.569  -4.655   5.106  1.00  0.00     0.010 A 
ATOM     39  C   UNL     1       4.441  -5.296   6.087  1.00  0.00     0.010 A 
ATOM     40  C   UNL     1       5.713  -4.707   6.212  1.00  0.00    -0.014 A 
BRANCH  40  41
ATOM     41  C   UNL     1       6.267  -4.412   7.554  1.00  0.00     0.031 A 
ATOM     42  C   UNL     1       6.825  -5.571   8.337  1.00  0.00     0.074 A 
ATOM     43  C   UNL     1       6.325  -3.165   8.051  1.00  0.00     0.049 A 
ATOM     44  N   UNL     1       7.342  -5.593   9.537  1.00  0.00    -0.248 NA
ATOM     45  C   UNL     1       6.794  -6.884   7.669  1.00  0.00     0.031 C 
ATOM     46  C   UNL     1       5.880  -1.954   7.365  1.00  0.00     0.029 A 
ATOM     47  N   UNL     1       6.788  -2.717   9.264  1.00  0.00    -0.354 N 
ATOM     48  C   UNL     1       7.685  -6.920   9.770  1.00  0.00     0.074 A 
ATOM     49  C   UNL     1       7.296  -7.676   8.601  1.00  0.00     0.031 C 
ATOM     50  C   UNL     1       6.079  -0.899   8.177  1.00  0.00     0.029 A 
ATOM     51  C   UNL     1       6.631  -1.366   9.447  1.00  0.00     0.049 A 
ATOM     52  H   UNL     1       7.193  -3.310   9.937  1.00  0.00     0.167 HD
ATOM     53  C   UNL     1       8.273  -7.463  10.860  1.00  0.00     0.031 A 
ATOM     54  C   UNL     1       6.882  -0.603  10.530  1.00  0.00     0.031 A 
ATOM     55  C   UNL     1       8.638  -6.714  12.030  1.00  0.00     0.049 A 
ATOM     56  C   UNL     1       7.452  -1.246  11.769  1.00  0.00     0.074 A 
ATOM     57  C   UNL     1       9.245  -7.168  13.187  1.00  0.00     0.029 A 
ATOM     58  N   UNL     1       8.419  -5.356  12.195  1.00  0.00    -0.354 N 
ATOM     59  N   UNL     1       7.792  -2.496  11.973  1.00  0.00    -0.248 NA
ATOM     60  C   UNL     1       7.682  -0.367  12.926  1.00  0.00     0.031 C 
ATOM     61  C   UNL     1       9.330  -6.096  14.081  1.00  0.00     0.029 A 
ATOM     62  C   UNL     1       8.848  -4.960  13.450  1.00  0.00     0.049 A 
ATOM     63  H   UNL     1       8.017  -4.761  11.521  1.00  0.00     0.167 HD
ATOM     64  C   UNL     1       8.303  -2.548  13.266  1.00  0.00     0.074 A 
ATOM     65  C   UNL     1       8.244  -1.199  13.791  1.00  0.00     0.031 C 
ATOM     66  C   UNL     1       8.781  -3.613  13.956  1.00  0.00     0.031 A 
BRANCH  53  67
ATOM     67  C   UNL     1       8.504  -8.948  10.853  1.00  0.00    -0.014 A 
ATOM     68  C   UNL     1       9.465  -9.539  10.017  1.00  0.00     0.009 A 
ATOM     69  C   UNL     1       7.759  -9.767  11.715  1.00  0.00     0.009 A 
ATOM     70  C   UNL     1       9.652 -10.923  10.023  1.00  0.00     0.001 A 
ATOM     71  C   UNL     1       7.971 -11.146  11.743  1.00  0.00     0.001 A 
ATOM     72  C   UNL     1       8.910 -11.724  10.890  1.00  0.00     0.000 A 
ENDBRANCH  53  67
BRANCH  54  73
ATOM     73  C   UNL     1       6.567   0.852  10.510  1.00  0.00    -0.014 A 
ATOM     74  C   UNL     1       7.588   1.813  10.572  1.00  0.00     0.009 A 
ATOM     75  C   UNL     1       5.233   1.287  10.461  1.00  0.00     0.009 A 
ATOM     76  C   UNL     1       7.279   3.175  10.611  1.00  0.00     0.001 A 
ATOM     77  C   UNL     1       4.928   2.650  10.467  1.00  0.00     0.001 A 
ATOM     78  C   UNL     1       5.950   3.593  10.552  1.00  0.00     0.000 A 
ENDBRANCH  54  73
BRANCH  66  79
ATOM     79  C   UNL     1       9.323  -3.359  15.336  1.00  0.00    -0.014 A 
ATOM     80  C   UNL     1       8.480  -3.032  16.409  1.00  0.00     0.009 A 
ATOM     81  C   UNL     1      10.700  -3.501  15.574  1.00  0.00     0.009 A 
ATOM     82  C   UNL     1       9.011  -2.814  17.683  1.00  0.00     0.001 A 
ATOM     83  C   UNL     1      11.223  -3.318  16.855  1.00  0.00     0.001 A 
ATOM     84  C   UNL     1      10.380  -2.963  17.906  1.00  0.00     0.000 A 
ENDBRANCH  66  79
ENDBRANCH  40  41
ENDBRANCH  33  35
ENDBRANCH  32  33
ENDBRANCH  31  32
ENDBRANCH  30  31
ENDBRANCH  29  30
ENDBRANCH  28  29
ENDBRANCH  27  28
ENDBRANCH  26  27
ENDBRANCH   1  26
TORSDOF 23
