REMARK SMILES C[C@@H]1CCCN(C(=O)CSc2nnc3c4ccccc4n(CC(=O)OCCOCCOCCOCCOC(=O)c4ccc(-c5c6nc(c(-c7ccccc7)c7ccc([nH]7)c(-c7ccccc7)c7nc(c(-c8ccccc8)c8ccc5[nH]8)C=C7)C=C6)cc4)c3n2)C1
REMARK SMILES IDX 29 1 28 2 27 3 26 4 25 5 23 6 24 7 22 8 21 9 11 10 12 11
REMARK SMILES IDX 89 12 13 13 88 14 14 15 15 16 20 17 16 18 19 19 17 20 18 21
REMARK SMILES IDX 10 22 9 23 7 24 8 25 6 26 1 27 2 28 3 29 90 30 4 31 5 32
REMARK SMILES IDX 30 33 31 34 32 35 33 36 34 37 35 38 36 39 37 40 38 41 39 42
REMARK SMILES IDX 40 43 41 44 87 45 42 46 86 47 43 48 44 49 45 50 80 51 46 52
REMARK SMILES IDX 85 53 79 54 81 55 47 56 84 57 78 58 77 59 48 61 70 62 55 63
REMARK SMILES IDX 69 64 56 65 59 66 68 67 82 68 57 69 58 70 67 72 83 73 60 74
REMARK SMILES IDX 49 75 50 76 54 77 51 78 53 79 52 80 71 81 72 82 76 83 73 84
REMARK SMILES IDX 75 85 74 86 61 87 62 88 66 89 63 90 65 91 64 92
REMARK H PARENT 81 60 59 71
REMARK Flexibility Score: inf
ROOT
ATOM      1  C   UNL     1       3.554   5.376   8.246  1.00  0.00     0.188 C 
ENDROOT
BRANCH   1   2
ATOM      2  O   UNL     1       3.816   4.027   8.610  1.00  0.00    -0.376 OA
BRANCH   2   3
ATOM      3  C   UNL     1       5.067   3.430   8.352  1.00  0.00     0.202 C 
BRANCH   3   4
ATOM      4  C   UNL     1       5.169   2.750   6.977  1.00  0.00     0.261 C 
BRANCH   4   5
ATOM      5  O   UNL     1       4.313   3.308   5.954  1.00  0.00    -0.462 OA
BRANCH   5   6
ATOM      6  C   UNL     1       3.122   2.687   5.751  1.00  0.00     0.326 C 
ATOM      7  O   UNL     1       2.785   1.660   6.338  1.00  0.00    -0.250 OA
BRANCH   6   8
ATOM      8  C   UNL     1       2.159   3.379   4.802  1.00  0.00     0.246 C 
BRANCH   8   9
ATOM      9  N   UNL     1       2.642   4.473   3.961  1.00  0.00    -0.313 N 
ATOM     10  C   UNL     1       4.229   3.327   1.010  1.00  0.00     0.211 A 
ATOM     11  N   UNL     1       4.606   4.522   0.482  1.00  0.00    -0.122 NA
ATOM     12  N   UNL     1       3.612   3.115   2.195  1.00  0.00    -0.201 NA
ATOM     13  N   UNL     1       4.340   5.653   1.122  1.00  0.00    -0.144 NA
ATOM     14  C   UNL     1       3.325   4.289   2.785  1.00  0.00     0.165 A 
ATOM     15  C   UNL     1       3.649   5.538   2.284  1.00  0.00     0.138 A 
ATOM     16  C   UNL     1       3.095   6.517   3.141  1.00  0.00     0.030 A 
ATOM     17  C   UNL     1       2.334   5.827   4.098  1.00  0.00     0.053 A 
ATOM     18  C   UNL     1       3.119   7.927   3.160  1.00  0.00     0.013 A 
ATOM     19  C   UNL     1       1.515   6.520   5.009  1.00  0.00     0.027 A 
ATOM     20  C   UNL     1       2.372   8.616   4.119  1.00  0.00     0.001 A 
ATOM     21  C   UNL     1       1.565   7.921   5.013  1.00  0.00     0.002 A 
BRANCH  10  22
ATOM     22  S   UNL     1       4.582   1.878   0.054  1.00  0.00    -0.074 SA
BRANCH  22  23
ATOM     23  C   UNL     1       3.307   2.072  -1.225  1.00  0.00     0.178 C 
BRANCH  23  24
ATOM     24  C   UNL     1       1.893   2.219  -0.677  1.00  0.00     0.233 C 
ATOM     25  O   UNL     1       1.345   3.325  -0.717  1.00  0.00    -0.274 OA
BRANCH  24  26
ATOM     26  N   UNL     1       1.218   1.087  -0.225  1.00  0.00    -0.342 N 
ATOM     27  C   UNL     1      -2.473   0.130   0.119  1.00  0.00     0.009 C 
ATOM     28  C   UNL     1      -1.018   0.020  -0.326  1.00  0.00     0.005 C 
ATOM     29  C   UNL     1      -0.397  -1.291   0.170  1.00  0.00     0.007 C 
ATOM     30  C   UNL     1      -0.190   1.218   0.163  1.00  0.00     0.122 C 
ATOM     31  C   UNL     1       1.057  -1.389  -0.275  1.00  0.00     0.022 C 
ATOM     32  C   UNL     1       1.863  -0.170   0.155  1.00  0.00     0.119 C 
ENDBRANCH  24  26
ENDBRANCH  23  24
ENDBRANCH  22  23
ENDBRANCH  10  22
ENDBRANCH   8   9
ENDBRANCH   6   8
ENDBRANCH   5   6
ENDBRANCH   4   5
ENDBRANCH   3   4
ENDBRANCH   2   3
ENDBRANCH   1   2
BRANCH   1  33
ATOM     33  C   UNL     1       4.016   6.011   6.934  1.00  0.00     0.188 C 
BRANCH  33  34
ATOM     34  O   UNL     1       5.346   6.175   6.520  1.00  0.00    -0.377 OA
BRANCH  34  35
ATOM     35  C   UNL     1       6.379   6.378   7.440  1.00  0.00     0.188 C 
BRANCH  35  36
ATOM     36  C   UNL     1       6.181   7.312   8.628  1.00  0.00     0.188 C 
BRANCH  36  37
ATOM     37  O   UNL     1       5.006   8.086   8.527  1.00  0.00    -0.376 OA
BRANCH  37  38
ATOM     38  C   UNL     1       5.038   9.352   7.884  1.00  0.00     0.202 C 
BRANCH  38  39
ATOM     39  C   UNL     1       5.849   9.668   6.606  1.00  0.00     0.261 C 
BRANCH  39  40
ATOM     40  O   UNL     1       7.084   8.969   6.466  1.00  0.00    -0.460 OA
BRANCH  40  41
ATOM     41  C   UNL     1       8.275   9.570   6.670  1.00  0.00     0.338 C 
ATOM     42  O   UNL     1       8.495  10.744   6.914  1.00  0.00    -0.246 OA
BRANCH  41  43
ATOM     43  C   UNL     1       9.203   8.436   6.885  1.00  0.00     0.060 A 
ATOM     44  C   UNL     1       9.299   7.412   5.932  1.00  0.00     0.016 A 
ATOM     45  C   UNL     1       9.592   8.222   8.214  1.00  0.00     0.016 A 
ATOM     46  C   UNL     1       9.616   6.127   6.367  1.00  0.00     0.010 A 
ATOM     47  C   UNL     1       9.889   6.932   8.645  1.00  0.00     0.010 A 
ATOM     48  C   UNL     1       9.836   5.873   7.737  1.00  0.00    -0.014 A 
BRANCH  48  49
ATOM     49  C   UNL     1      10.227   4.511   8.120  1.00  0.00     0.031 A 
ATOM     50  C   UNL     1      11.519   4.119   7.504  1.00  0.00     0.074 A 
ATOM     51  C   UNL     1       9.660   3.701   9.040  1.00  0.00     0.049 A 
ATOM     52  N   UNL     1      11.777   3.121   6.726  1.00  0.00    -0.248 NA
ATOM     53  C   UNL     1      12.636   5.061   7.692  1.00  0.00     0.031 C 
ATOM     54  C   UNL     1       8.600   4.028   9.994  1.00  0.00     0.029 A 
ATOM     55  N   UNL     1      10.007   2.420   9.389  1.00  0.00    -0.354 N 
ATOM     56  C   UNL     1      13.132   3.229   6.438  1.00  0.00     0.074 A 
ATOM     57  C   UNL     1      13.564   4.517   6.915  1.00  0.00     0.031 C 
ATOM     58  C   UNL     1       8.534   3.060  10.936  1.00  0.00     0.029 A 
ATOM     59  C   UNL     1       9.477   2.002  10.604  1.00  0.00     0.049 A 
ATOM     60  H   UNL     1      10.580   1.848   8.829  1.00  0.00     0.167 HD
ATOM     61  C   UNL     1      13.882   2.172   6.034  1.00  0.00     0.031 A 
ATOM     62  C   UNL     1       9.841   0.918  11.336  1.00  0.00     0.031 A 
ATOM     63  C   UNL     1      13.088   1.105   5.498  1.00  0.00     0.049 A 
ATOM     64  C   UNL     1      10.582  -0.016  10.461  1.00  0.00     0.074 A 
ATOM     65  C   UNL     1      12.224   0.983   4.429  1.00  0.00     0.029 A 
ATOM     66  N   UNL     1      12.868   0.013   6.300  1.00  0.00    -0.354 N 
ATOM     67  N   UNL     1      10.046  -0.706   9.497  1.00  0.00    -0.248 NA
ATOM     68  C   UNL     1      12.035   0.057  10.440  1.00  0.00     0.031 C 
ATOM     69  C   UNL     1      11.234   0.052   4.851  1.00  0.00     0.029 A 
ATOM     70  C   UNL     1      11.560  -0.367   6.143  1.00  0.00     0.049 A 
ATOM     71  H   UNL     1      13.531  -0.421   6.883  1.00  0.00     0.167 HD
ATOM     72  C   UNL     1      11.037  -0.797   8.532  1.00  0.00     0.074 A 
ATOM     73  C   UNL     1      12.268  -0.425   9.218  1.00  0.00     0.031 C 
ATOM     74  C   UNL     1      10.726  -0.895   7.206  1.00  0.00     0.031 A 
BRANCH  61  75
ATOM     75  C   UNL     1      15.309   2.000   6.479  1.00  0.00    -0.014 A 
ATOM     76  C   UNL     1      15.848   2.670   7.598  1.00  0.00     0.009 A 
ATOM     77  C   UNL     1      16.083   0.967   5.930  1.00  0.00     0.009 A 
ATOM     78  C   UNL     1      17.100   2.357   8.125  1.00  0.00     0.001 A 
ATOM     79  C   UNL     1      17.318   0.614   6.488  1.00  0.00     0.001 A 
ATOM     80  C   UNL     1      17.828   1.312   7.581  1.00  0.00     0.000 A 
ENDBRANCH  61  75
BRANCH  62  81
ATOM     81  C   UNL     1       9.834   0.766  12.813  1.00  0.00    -0.014 A 
ATOM     82  C   UNL     1       9.974   1.896  13.640  1.00  0.00     0.009 A 
ATOM     83  C   UNL     1       9.943  -0.497  13.420  1.00  0.00     0.009 A 
ATOM     84  C   UNL     1      10.229   1.777  15.010  1.00  0.00     0.001 A 
ATOM     85  C   UNL     1      10.209  -0.617  14.794  1.00  0.00     0.001 A 
ATOM     86  C   UNL     1      10.361   0.519  15.585  1.00  0.00     0.000 A 
ENDBRANCH  62  81
BRANCH  74  87
ATOM     87  C   UNL     1       9.320  -1.285   6.814  1.00  0.00    -0.014 A 
ATOM     88  C   UNL     1       9.162  -2.310   5.866  1.00  0.00     0.009 A 
ATOM     89  C   UNL     1       8.179  -0.568   7.211  1.00  0.00     0.009 A 
ATOM     90  C   UNL     1       7.911  -2.594   5.312  1.00  0.00     0.001 A 
ATOM     91  C   UNL     1       6.922  -0.877   6.682  1.00  0.00     0.001 A 
ATOM     92  C   UNL     1       6.791  -1.877   5.721  1.00  0.00     0.000 A 
ENDBRANCH  74  87
ENDBRANCH  48  49
ENDBRANCH  41  43
ENDBRANCH  40  41
ENDBRANCH  39  40
ENDBRANCH  38  39
ENDBRANCH  37  38
ENDBRANCH  36  37
ENDBRANCH  35  36
ENDBRANCH  34  35
ENDBRANCH  33  34
ENDBRANCH   1  33
TORSDOF 25
