REMARK SMILES COc1ccc(NC(=O)NCc2ccc(C(=O)OCCOCCOCCOCCOC(=O)c3ccc(-c4c5nc(c(-c6ccccc6)c6ccc([nH]6)c(-c6ccccc6)c6nc(c(-c7ccccc7)c7ccc4[nH]7)C=C6)C=C5)cc3)cc2)c(OC)c1
REMARK SMILES IDX 23 1 22 2 21 3 20 4 19 5 18 6 16 7 17 8 15 9 12 10 13 11
REMARK SMILES IDX 82 12 14 13 81 14 11 15 10 16 7 17 8 18 9 20 6 22 3 23 4 24
REMARK SMILES IDX 86 25 5 26 83 27 2 28 1 29 84 30 85 31 24 32 25 33 26 34
REMARK SMILES IDX 27 35 28 36 29 37 30 38 31 39 32 40 33 41 34 42 80 43 35 44
REMARK SMILES IDX 79 45 36 46 37 47 38 48 73 49 39 50 78 51 72 52 74 53 40 54
REMARK SMILES IDX 77 55 71 56 70 57 41 59 63 60 48 61 62 62 49 63 52 64 61 65
REMARK SMILES IDX 75 66 50 67 51 68 60 70 76 71 53 72 42 73 43 74 47 75 44 76
REMARK SMILES IDX 46 77 45 78 64 79 65 80 69 81 66 82 68 83 67 84 54 85 55 86
REMARK SMILES IDX 59 87 56 88 58 89 57 90
REMARK H PARENT 7 19 10 21 74 58 52 69
REMARK Flexibility Score: inf
ROOT
ATOM      1  C   UNL     1      -3.587   4.221   4.653  1.00  0.00     0.188 C 
ENDROOT
BRANCH   1   2
ATOM      2  C   UNL     1      -4.963   4.913   4.781  1.00  0.00     0.188 C 
BRANCH   2   3
ATOM      3  O   UNL     1      -5.973   4.103   5.364  1.00  0.00    -0.376 OA
BRANCH   3   4
ATOM      4  C   UNL     1      -7.078   3.721   4.563  1.00  0.00     0.202 C 
BRANCH   4   5
ATOM      5  C   UNL     1      -6.772   2.724   3.442  1.00  0.00     0.261 C 
BRANCH   5   6
ATOM      6  O   UNL     1      -5.745   3.148   2.541  1.00  0.00    -0.460 OA
BRANCH   6   7
ATOM      7  C   UNL     1      -5.987   4.239   1.776  1.00  0.00     0.338 C 
ATOM      8  O   UNL     1      -7.029   4.862   1.697  1.00  0.00    -0.246 OA
BRANCH   7   9
ATOM      9  C   UNL     1      -4.683   4.668   1.216  1.00  0.00     0.060 A 
ATOM     10  C   UNL     1      -2.138   5.487   0.371  1.00  0.00    -0.029 A 
ATOM     11  C   UNL     1      -3.090   6.447   0.708  1.00  0.00     0.006 A 
ATOM     12  C   UNL     1      -2.480   4.118   0.465  1.00  0.00     0.006 A 
ATOM     13  C   UNL     1      -4.364   6.035   1.132  1.00  0.00     0.016 A 
ATOM     14  C   UNL     1      -3.733   3.708   0.882  1.00  0.00     0.016 A 
BRANCH  10  15
ATOM     15  C   UNL     1      -0.790   5.723  -0.241  1.00  0.00     0.153 C 
BRANCH  15  16
ATOM     16  N   UNL     1      -0.051   6.940  -0.101  1.00  0.00    -0.334 N 
ATOM     17  N   UNL     1       2.181   6.085  -0.332  1.00  0.00    -0.305 N 
ATOM     18  C   UNL     1       1.296   7.110  -0.175  1.00  0.00     0.319 C 
ATOM     19  H   UNL     1       3.107   6.339  -0.115  1.00  0.00     0.172 HD
ATOM     20  O   UNL     1       1.739   8.245   0.028  1.00  0.00    -0.248 OA
ATOM     21  H   UNL     1      -0.581   7.752   0.071  1.00  0.00     0.165 HD
BRANCH  17  22
ATOM     22  C   UNL     1       2.060   4.739  -0.737  1.00  0.00     0.085 A 
ATOM     23  C   UNL     1       1.382   2.031  -0.995  1.00  0.00     0.122 A 
ATOM     24  C   UNL     1       0.841   2.979  -1.863  1.00  0.00     0.049 A 
ATOM     25  C   UNL     1       2.404   2.414  -0.129  1.00  0.00     0.095 A 
ATOM     26  C   UNL     1       1.205   4.326  -1.757  1.00  0.00     0.034 A 
ATOM     27  C   UNL     1       2.788   3.760  -0.047  1.00  0.00     0.146 A 
BRANCH  23  28
ATOM     28  O   UNL     1       0.850   0.775  -1.098  1.00  0.00    -0.497 OA
ATOM     29  C   UNL     1       1.140  -0.127  -0.034  1.00  0.00     0.278 C 
ENDBRANCH  23  28
BRANCH  27  30
ATOM     30  O   UNL     1       3.812   4.175   0.771  1.00  0.00    -0.494 OA
ATOM     31  C   UNL     1       4.971   3.344   0.653  1.00  0.00     0.278 C 
ENDBRANCH  27  30
ENDBRANCH  17  22
ENDBRANCH  15  16
ENDBRANCH  10  15
ENDBRANCH   7   9
ENDBRANCH   6   7
ENDBRANCH   5   6
ENDBRANCH   4   5
ENDBRANCH   3   4
ENDBRANCH   2   3
ENDBRANCH   1   2
BRANCH   1  32
ATOM     32  O   UNL     1      -3.463   2.843   4.979  1.00  0.00    -0.377 OA
BRANCH  32  33
ATOM     33  C   UNL     1      -4.092   2.331   6.151  1.00  0.00     0.188 C 
BRANCH  33  34
ATOM     34  C   UNL     1      -4.346   3.227   7.387  1.00  0.00     0.188 C 
BRANCH  34  35
ATOM     35  O   UNL     1      -3.761   4.514   7.308  1.00  0.00    -0.376 OA
BRANCH  35  36
ATOM     36  C   UNL     1      -2.662   4.791   8.155  1.00  0.00     0.202 C 
BRANCH  36  37
ATOM     37  C   UNL     1      -1.386   3.977   7.912  1.00  0.00     0.261 C 
BRANCH  37  38
ATOM     38  O   UNL     1      -1.539   2.549   7.897  1.00  0.00    -0.460 OA
BRANCH  38  39
ATOM     39  C   UNL     1      -1.893   1.946   9.052  1.00  0.00     0.338 C 
ATOM     40  O   UNL     1      -2.103   2.473  10.131  1.00  0.00    -0.246 OA
BRANCH  39  41
ATOM     41  C   UNL     1      -2.167   0.529   8.736  1.00  0.00     0.060 A 
ATOM     42  C   UNL     1      -3.452   0.009   8.943  1.00  0.00     0.016 A 
ATOM     43  C   UNL     1      -1.154  -0.274   8.208  1.00  0.00     0.016 A 
ATOM     44  C   UNL     1      -3.721  -1.327   8.641  1.00  0.00     0.010 A 
ATOM     45  C   UNL     1      -1.417  -1.615   7.929  1.00  0.00     0.010 A 
ATOM     46  C   UNL     1      -2.693  -2.155   8.173  1.00  0.00    -0.014 A 
BRANCH  46  47
ATOM     47  C   UNL     1      -2.883  -3.624   8.128  1.00  0.00     0.031 A 
ATOM     48  C   UNL     1      -2.370  -4.439   9.283  1.00  0.00     0.074 A 
ATOM     49  C   UNL     1      -3.491  -4.225   7.090  1.00  0.00     0.049 A 
ATOM     50  N   UNL     1      -2.356  -5.737   9.442  1.00  0.00    -0.248 NA
ATOM     51  C   UNL     1      -1.790  -3.685  10.407  1.00  0.00     0.031 C 
ATOM     52  C   UNL     1      -4.072  -3.545   5.935  1.00  0.00     0.029 A 
ATOM     53  N   UNL     1      -3.709  -5.558   6.843  1.00  0.00    -0.354 N 
ATOM     54  C   UNL     1      -1.757  -5.954  10.677  1.00  0.00     0.074 A 
ATOM     55  C   UNL     1      -1.395  -4.660  11.210  1.00  0.00     0.031 C 
ATOM     56  C   UNL     1      -4.574  -4.468   5.095  1.00  0.00     0.029 A 
ATOM     57  C   UNL     1      -4.314  -5.802   5.635  1.00  0.00     0.049 A 
ATOM     58  H   UNL     1      -3.456  -6.272   7.473  1.00  0.00     0.167 HD
ATOM     59  C   UNL     1      -1.533  -7.127  11.314  1.00  0.00     0.031 A 
ATOM     60  C   UNL     1      -4.601  -6.969   5.025  1.00  0.00     0.031 A 
ATOM     61  C   UNL     1      -1.877  -8.414  10.775  1.00  0.00     0.049 A 
ATOM     62  C   UNL     1      -4.254  -8.267   5.712  1.00  0.00     0.074 A 
ATOM     63  C   UNL     1      -1.707  -9.661  11.350  1.00  0.00     0.029 A 
ATOM     64  N   UNL     1      -2.451  -8.619   9.530  1.00  0.00    -0.354 N 
ATOM     65  N   UNL     1      -3.719  -8.461   6.893  1.00  0.00    -0.248 NA
ATOM     66  C   UNL     1      -4.555  -9.507   4.979  1.00  0.00     0.031 C 
ATOM     67  C   UNL     1      -2.116 -10.625  10.424  1.00  0.00     0.029 A 
ATOM     68  C   UNL     1      -2.607  -9.975   9.303  1.00  0.00     0.049 A 
ATOM     69  H   UNL     1      -2.709  -7.906   8.902  1.00  0.00     0.167 HD
ATOM     70  C   UNL     1      -3.650  -9.840   7.058  1.00  0.00     0.074 A 
ATOM     71  C   UNL     1      -4.207 -10.434   5.861  1.00  0.00     0.031 C 
ATOM     72  C   UNL     1      -3.170 -10.551   8.108  1.00  0.00     0.031 A 
BRANCH  59  73
ATOM     73  C   UNL     1      -0.843  -7.069  12.648  1.00  0.00    -0.014 A 
ATOM     74  C   UNL     1      -1.486  -6.551  13.783  1.00  0.00     0.009 A 
ATOM     75  C   UNL     1       0.462  -7.568  12.776  1.00  0.00     0.009 A 
ATOM     76  C   UNL     1      -0.822  -6.501  15.011  1.00  0.00     0.001 A 
ATOM     77  C   UNL     1       1.112  -7.547  14.011  1.00  0.00     0.001 A 
ATOM     78  C   UNL     1       0.474  -7.004  15.124  1.00  0.00     0.000 A 
ENDBRANCH  59  73
BRANCH  60  79
ATOM     79  C   UNL     1      -5.226  -6.975   3.675  1.00  0.00    -0.014 A 
ATOM     80  C   UNL     1      -6.534  -7.451   3.493  1.00  0.00     0.009 A 
ATOM     81  C   UNL     1      -4.507  -6.529   2.555  1.00  0.00     0.009 A 
ATOM     82  C   UNL     1      -7.097  -7.505   2.215  1.00  0.00     0.001 A 
ATOM     83  C   UNL     1      -5.083  -6.554   1.283  1.00  0.00     0.001 A 
ATOM     84  C   UNL     1      -6.374  -7.052   1.112  1.00  0.00     0.000 A 
ENDBRANCH  60  79
BRANCH  72  85
ATOM     85  C   UNL     1      -3.260 -12.050   8.038  1.00  0.00    -0.014 A 
ATOM     86  C   UNL     1      -2.426 -12.795   7.190  1.00  0.00     0.009 A 
ATOM     87  C   UNL     1      -4.141 -12.731   8.894  1.00  0.00     0.009 A 
ATOM     88  C   UNL     1      -2.491 -14.190   7.184  1.00  0.00     0.001 A 
ATOM     89  C   UNL     1      -4.181 -14.126   8.909  1.00  0.00     0.001 A 
ATOM     90  C   UNL     1      -3.361 -14.854   8.049  1.00  0.00     0.000 A 
ENDBRANCH  72  85
ENDBRANCH  46  47
ENDBRANCH  39  41
ENDBRANCH  38  39
ENDBRANCH  37  38
ENDBRANCH  36  37
ENDBRANCH  35  36
ENDBRANCH  34  35
ENDBRANCH  33  34
ENDBRANCH  32  33
ENDBRANCH   1  32
TORSDOF 25
