REMARK SMILES O=C(Cc1cccc(-c2ccn(C(F)F)c(=O)c2)c1)OCCOCCOCCOCCOC(=O)c1ccc(-c2c3nc(c(-c4ccccc4)c4ccc([nH]4)c(-c4ccccc4)c4nc(c(-c5ccccc5)c5ccc2[nH]5)C=C4)C=C3)cc1
REMARK SMILES IDX 25 1 24 2 23 3 22 4 21 5 20 6 2 7 1 8 3 9 4 10 5 11 19 12
REMARK SMILES IDX 6 13 8 14 7 15 9 16 10 17 18 18 11 19 16 20 12 21 17 22
REMARK SMILES IDX 13 23 14 24 15 25 26 26 27 27 28 28 29 29 30 30 31 31 32 32
REMARK SMILES IDX 33 33 34 34 35 35 36 36 82 37 37 38 81 39 38 40 39 41 40 42
REMARK SMILES IDX 75 43 41 44 80 45 74 46 76 47 42 48 79 49 73 50 72 51 43 53
REMARK SMILES IDX 65 54 50 55 64 56 51 57 54 58 63 59 77 60 52 61 53 62 62 64
REMARK SMILES IDX 78 65 55 66 44 67 45 68 49 69 46 70 48 71 47 72 66 73 67 74
REMARK SMILES IDX 71 75 68 76 70 77 69 78 56 79 57 80 61 81 58 82 60 83 59 84
REMARK H PARENT 76 52 54 63
REMARK Flexibility Score: inf
ROOT
ATOM      1  C   UNL     1       2.013  -2.198  -1.210  1.00  0.00     0.188 C 
ENDROOT
BRANCH   1   2
ATOM      2  C   UNL     1       2.546  -0.821  -1.606  1.00  0.00     0.188 C 
BRANCH   2   3
ATOM      3  O   UNL     1       3.928  -0.557  -1.389  1.00  0.00    -0.376 OA
BRANCH   3   4
ATOM      4  C   UNL     1       4.570  -0.524  -0.128  1.00  0.00     0.202 C 
BRANCH   4   5
ATOM      5  C   UNL     1       3.817  -0.854   1.150  1.00  0.00     0.261 C 
BRANCH   5   6
ATOM      6  O   UNL     1       2.533  -0.246   1.391  1.00  0.00    -0.463 OA
BRANCH   6   7
ATOM      7  C   UNL     1       2.087   1.002   1.169  1.00  0.00     0.310 C 
ATOM      8  O   UNL     1       0.978   1.324   1.598  1.00  0.00    -0.252 OA
BRANCH   7   9
ATOM      9  C   UNL     1       2.885   1.964   0.341  1.00  0.00     0.158 C 
BRANCH   9  10
ATOM     10  C   UNL     1       3.809   2.870   1.094  1.00  0.00    -0.036 A 
ATOM     11  C   UNL     1       4.827   2.445   1.950  1.00  0.00     0.004 A 
ATOM     12  C   UNL     1       3.665   4.234   0.864  1.00  0.00     0.013 A 
ATOM     13  C   UNL     1       5.654   3.373   2.588  1.00  0.00     0.001 A 
ATOM     14  C   UNL     1       4.450   5.175   1.530  1.00  0.00    -0.018 A 
ATOM     15  C   UNL     1       5.457   4.740   2.391  1.00  0.00     0.009 A 
BRANCH  14  16
ATOM     16  C   UNL     1       4.119   6.583   1.280  1.00  0.00    -0.011 A 
ATOM     17  C   UNL     1       2.750   7.058   1.386  1.00  0.00     0.027 A 
ATOM     18  C   UNL     1       5.069   7.403   0.805  1.00  0.00     0.080 A 
ATOM     19  C   UNL     1       2.420   8.275   0.950  1.00  0.00     0.095 A 
ATOM     20  C   UNL     1       4.722   8.782   0.366  1.00  0.00     0.255 A 
ATOM     21  N   UNL     1       3.380   9.124   0.440  1.00  0.00    -0.258 N 
ATOM     22  O   UNL     1       5.622   9.505  -0.049  1.00  0.00    -0.269 OA
BRANCH  21  23
ATOM     23  C   UNL     1       3.010  10.430  -0.031  1.00  0.00     0.451 C 
ATOM     24  F   UNL     1       3.631  11.398   0.683  1.00  0.00    -0.185 F 
ATOM     25  F   UNL     1       3.339  10.588  -1.336  1.00  0.00    -0.185 F 
ENDBRANCH  21  23
ENDBRANCH  14  16
ENDBRANCH   9  10
ENDBRANCH   7   9
ENDBRANCH   6   7
ENDBRANCH   5   6
ENDBRANCH   4   5
ENDBRANCH   3   4
ENDBRANCH   2   3
ENDBRANCH   1   2
BRANCH   1  26
ATOM     26  O   UNL     1       2.626  -3.313  -1.844  1.00  0.00    -0.377 OA
BRANCH  26  27
ATOM     27  C   UNL     1       4.032  -3.419  -1.659  1.00  0.00     0.188 C 
BRANCH  27  28
ATOM     28  C   UNL     1       4.864  -2.813  -2.808  1.00  0.00     0.188 C 
BRANCH  28  29
ATOM     29  O   UNL     1       4.078  -2.130  -3.779  1.00  0.00    -0.376 OA
BRANCH  29  30
ATOM     30  C   UNL     1       3.796  -2.854  -4.972  1.00  0.00     0.202 C 
BRANCH  30  31
ATOM     31  C   UNL     1       2.863  -4.066  -4.816  1.00  0.00     0.261 C 
BRANCH  31  32
ATOM     32  O   UNL     1       3.361  -5.135  -3.987  1.00  0.00    -0.460 OA
BRANCH  32  33
ATOM     33  C   UNL     1       4.548  -5.692  -4.305  1.00  0.00     0.338 C 
ATOM     34  O   UNL     1       5.214  -5.488  -5.305  1.00  0.00    -0.246 OA
BRANCH  33  35
ATOM     35  C   UNL     1       5.045  -6.413  -3.108  1.00  0.00     0.060 A 
ATOM     36  C   UNL     1       6.352  -6.152  -2.672  1.00  0.00     0.016 A 
ATOM     37  C   UNL     1       4.217  -7.267  -2.370  1.00  0.00     0.016 A 
ATOM     38  C   UNL     1       6.848  -6.778  -1.529  1.00  0.00     0.010 A 
ATOM     39  C   UNL     1       4.722  -7.913  -1.236  1.00  0.00     0.010 A 
ATOM     40  C   UNL     1       6.053  -7.702  -0.836  1.00  0.00    -0.014 A 
BRANCH  40  41
ATOM     41  C   UNL     1       6.711  -8.622   0.124  1.00  0.00     0.031 A 
ATOM     42  C   UNL     1       7.215  -9.938  -0.409  1.00  0.00     0.074 A 
ATOM     43  C   UNL     1       6.933  -8.284   1.406  1.00  0.00     0.049 A 
ATOM     44  N   UNL     1       7.901 -10.872   0.197  1.00  0.00    -0.248 NA
ATOM     45  C   UNL     1       6.912 -10.231  -1.820  1.00  0.00     0.031 C 
ATOM     46  C   UNL     1       6.525  -7.034   2.042  1.00  0.00     0.029 A 
ATOM     47  N   UNL     1       7.574  -8.977   2.404  1.00  0.00    -0.354 N 
ATOM     48  C   UNL     1       8.127 -11.850  -0.763  1.00  0.00     0.074 A 
ATOM     49  C   UNL     1       7.468 -11.422  -1.976  1.00  0.00     0.031 C 
ATOM     50  C   UNL     1       6.926  -7.048   3.327  1.00  0.00     0.029 A 
ATOM     51  C   UNL     1       7.607  -8.313   3.606  1.00  0.00     0.049 A 
ATOM     52  H   UNL     1       7.974  -9.867   2.270  1.00  0.00     0.167 HD
ATOM     53  C   UNL     1       8.836 -12.998  -0.657  1.00  0.00     0.031 A 
ATOM     54  C   UNL     1       8.123  -8.687   4.793  1.00  0.00     0.031 A 
ATOM     55  C   UNL     1       9.463 -13.453   0.552  1.00  0.00     0.049 A 
ATOM     56  C   UNL     1       8.838 -10.011   4.909  1.00  0.00     0.074 A 
ATOM     57  C   UNL     1      10.189 -14.612   0.764  1.00  0.00     0.029 A 
ATOM     58  N   UNL     1       9.429 -12.774   1.758  1.00  0.00    -0.354 N 
ATOM     59  N   UNL     1       9.075 -10.909   3.983  1.00  0.00    -0.248 NA
ATOM     60  C   UNL     1       9.372 -10.361   6.234  1.00  0.00     0.031 C 
ATOM     61  C   UNL     1      10.552 -14.658   2.114  1.00  0.00     0.029 A 
ATOM     62  C   UNL     1      10.103 -13.498   2.726  1.00  0.00     0.049 A 
ATOM     63  H   UNL     1       8.990 -11.905   1.906  1.00  0.00     0.167 HD
ATOM     64  C   UNL     1       9.804 -11.915   4.607  1.00  0.00     0.074 A 
ATOM     65  C   UNL     1       9.993 -11.504   5.982  1.00  0.00     0.031 C 
ATOM     66  C   UNL     1      10.273 -13.079   4.092  1.00  0.00     0.031 A 
BRANCH  53  67
ATOM     67  C   UNL     1       8.945 -13.850  -1.889  1.00  0.00    -0.014 A 
ATOM     68  C   UNL     1       9.745 -13.454  -2.974  1.00  0.00     0.009 A 
ATOM     69  C   UNL     1       8.257 -15.070  -1.960  1.00  0.00     0.009 A 
ATOM     70  C   UNL     1       9.832 -14.252  -4.116  1.00  0.00     0.001 A 
ATOM     71  C   UNL     1       8.367 -15.878  -3.093  1.00  0.00     0.001 A 
ATOM     72  C   UNL     1       9.148 -15.465  -4.172  1.00  0.00     0.000 A 
ENDBRANCH  53  67
BRANCH  54  73
ATOM     73  C   UNL     1       7.974  -7.813   5.989  1.00  0.00    -0.014 A 
ATOM     74  C   UNL     1       9.088  -7.197   6.579  1.00  0.00     0.009 A 
ATOM     75  C   UNL     1       6.712  -7.636   6.579  1.00  0.00     0.009 A 
ATOM     76  C   UNL     1       8.947  -6.452   7.754  1.00  0.00     0.001 A 
ATOM     77  C   UNL     1       6.569  -6.866   7.735  1.00  0.00     0.001 A 
ATOM     78  C   UNL     1       7.688  -6.284   8.328  1.00  0.00     0.000 A 
ENDBRANCH  54  73
BRANCH  66  79
ATOM     79  C   UNL     1      11.057 -13.973   5.014  1.00  0.00    -0.014 A 
ATOM     80  C   UNL     1      10.433 -14.667   6.063  1.00  0.00     0.009 A 
ATOM     81  C   UNL     1      12.437 -14.138   4.817  1.00  0.00     0.009 A 
ATOM     82  C   UNL     1      11.183 -15.471   6.923  1.00  0.00     0.001 A 
ATOM     83  C   UNL     1      13.179 -14.968   5.659  1.00  0.00     0.001 A 
ATOM     84  C   UNL     1      12.554 -15.623   6.719  1.00  0.00     0.000 A 
ENDBRANCH  66  79
ENDBRANCH  40  41
ENDBRANCH  33  35
ENDBRANCH  32  33
ENDBRANCH  31  32
ENDBRANCH  30  31
ENDBRANCH  29  30
ENDBRANCH  28  29
ENDBRANCH  27  28
ENDBRANCH  26  27
ENDBRANCH   1  26
TORSDOF 23
