REMARK SMILES O=C(N[C@@H](C(=O)OCCOCCOCCOCCOC(=O)c1ccc(-c2c3nc(c(-c4ccccc4)c4ccc([nH]4)c(-c4ccccc4)c4nc(c(-c5ccccc5)c5ccc2[nH]5)C=C4)C=C3)cc1)c1ccccc1)c1ccc(Br)nc1
REMARK SMILES IDX 13 1 12 2 11 3 10 4 9 5 8 6 7 7 5 8 6 9 4 10 3 11 1 12 2 13
REMARK SMILES IDX 76 15 77 16 82 17 78 18 81 19 79 20 80 21 70 22 71 23 75 24
REMARK SMILES IDX 72 25 74 26 73 27 14 28 15 29 16 30 17 31 18 32 19 33 20 34
REMARK SMILES IDX 21 35 22 36 23 37 69 38 24 39 68 40 25 41 26 42 27 43 62 44
REMARK SMILES IDX 28 45 67 46 61 47 63 48 29 49 66 50 60 51 59 52 30 54 52 55
REMARK SMILES IDX 37 56 51 57 38 58 41 59 50 60 64 61 39 62 40 63 49 65 65 66
REMARK SMILES IDX 42 67 31 68 32 69 36 70 33 71 35 72 34 73 53 74 54 75 58 76
REMARK SMILES IDX 55 77 57 78 56 79 43 80 44 81 48 82 45 83 47 84 46 85
REMARK H PARENT 3 14 63 53 41 64
REMARK Flexibility Score: inf
ROOT
ATOM      1  O   UNL     1       3.290  -0.619  -4.038  1.00  0.00    -0.377 OA
ENDROOT
BRANCH   1   2
ATOM      2  C   UNL     1       3.590   0.736  -3.776  1.00  0.00     0.188 C 
BRANCH   2   3
ATOM      3  C   UNL     1       5.013   1.183  -4.149  1.00  0.00     0.188 C 
BRANCH   3   4
ATOM      4  O   UNL     1       5.876   0.323  -4.876  1.00  0.00    -0.376 OA
BRANCH   4   5
ATOM      5  C   UNL     1       5.918  -1.071  -4.612  1.00  0.00     0.202 C 
BRANCH   5   6
ATOM      6  C   UNL     1       5.970  -1.643  -3.179  1.00  0.00     0.261 C 
BRANCH   6   7
ATOM      7  O   UNL     1       5.157  -0.998  -2.180  1.00  0.00    -0.461 OA
BRANCH   7   8
ATOM      8  C   UNL     1       5.823  -0.190  -1.317  1.00  0.00     0.333 C 
ATOM      9  O   UNL     1       7.046  -0.068  -1.318  1.00  0.00    -0.249 OA
BRANCH   8  10
ATOM     10  C   UNL     1       4.901   0.588  -0.323  1.00  0.00     0.223 C 
BRANCH  10  11
ATOM     11  N   UNL     1       3.436   0.379  -0.294  1.00  0.00    -0.335 N 
ATOM     12  O   UNL     1       1.418  -0.347   0.386  1.00  0.00    -0.269 OA
ATOM     13  C   UNL     1       2.630  -0.301   0.571  1.00  0.00     0.253 C 
ATOM     14  H   UNL     1       2.954   0.811  -1.036  1.00  0.00     0.165 HD
BRANCH  13  15
ATOM     15  C   UNL     1       3.219  -1.034   1.688  1.00  0.00     0.058 A 
ATOM     16  C   UNL     1       2.990  -2.402   1.790  1.00  0.00     0.018 A 
ATOM     17  C   UNL     1       4.052  -0.418   2.606  1.00  0.00     0.126 A 
ATOM     18  C   UNL     1       3.703  -3.125   2.740  1.00  0.00     0.037 A 
ATOM     19  N   UNL     1       4.774  -1.100   3.520  1.00  0.00    -0.249 NA
ATOM     20  C   UNL     1       4.603  -2.442   3.551  1.00  0.00     0.106 A 
ATOM     21  Br  UNL     1       5.704  -3.435   4.729  1.00  0.00    -0.029 Br
ENDBRANCH  13  15
ENDBRANCH  10  11
BRANCH  10  22
ATOM     22  C   UNL     1       5.224   2.087  -0.350  1.00  0.00    -0.014 A 
ATOM     23  C   UNL     1       6.441   2.516   0.207  1.00  0.00     0.006 A 
ATOM     24  C   UNL     1       4.389   3.057  -0.935  1.00  0.00     0.006 A 
ATOM     25  C   UNL     1       6.808   3.860   0.191  1.00  0.00     0.000 A 
ATOM     26  C   UNL     1       4.759   4.405  -0.950  1.00  0.00     0.000 A 
ATOM     27  C   UNL     1       5.965   4.805  -0.385  1.00  0.00     0.000 A 
ENDBRANCH  10  22
ENDBRANCH   8  10
ENDBRANCH   7   8
ENDBRANCH   6   7
ENDBRANCH   5   6
ENDBRANCH   4   5
ENDBRANCH   3   4
ENDBRANCH   2   3
ENDBRANCH   1   2
BRANCH   1  28
ATOM     28  C   UNL     1       2.590  -0.892  -5.241  1.00  0.00     0.188 C 
BRANCH  28  29
ATOM     29  C   UNL     1       2.931  -0.033  -6.473  1.00  0.00     0.188 C 
BRANCH  29  30
ATOM     30  O   UNL     1       2.885   1.367  -6.230  1.00  0.00    -0.376 OA
BRANCH  30  31
ATOM     31  C   UNL     1       1.708   2.090  -6.558  1.00  0.00     0.202 C 
BRANCH  31  32
ATOM     32  C   UNL     1       0.419   1.781  -5.775  1.00  0.00     0.261 C 
BRANCH  32  33
ATOM     33  O   UNL     1      -0.047   0.423  -5.804  1.00  0.00    -0.460 OA
BRANCH  33  34
ATOM     34  C   UNL     1      -0.304  -0.136  -7.003  1.00  0.00     0.338 C 
ATOM     35  O   UNL     1      -0.254   0.407  -8.095  1.00  0.00    -0.246 OA
BRANCH  34  36
ATOM     36  C   UNL     1      -0.454  -1.593  -6.799  1.00  0.00     0.060 A 
ATOM     37  C   UNL     1       0.412  -2.462  -7.478  1.00  0.00     0.016 A 
ATOM     38  C   UNL     1      -1.430  -2.099  -5.938  1.00  0.00     0.016 A 
ATOM     39  C   UNL     1       0.278  -3.842  -7.328  1.00  0.00     0.010 A 
ATOM     40  C   UNL     1      -1.583  -3.483  -5.812  1.00  0.00     0.010 A 
ATOM     41  C   UNL     1      -0.754  -4.360  -6.536  1.00  0.00    -0.014 A 
BRANCH  41  42
ATOM     42  C   UNL     1      -1.106  -5.796  -6.644  1.00  0.00     0.031 A 
ATOM     43  C   UNL     1      -2.232  -6.180  -7.567  1.00  0.00     0.074 A 
ATOM     44  C   UNL     1      -0.429  -6.744  -5.973  1.00  0.00     0.049 A 
ATOM     45  N   UNL     1      -2.754  -7.357  -7.797  1.00  0.00    -0.248 NA
ATOM     46  C   UNL     1      -2.850  -5.086  -8.334  1.00  0.00     0.031 C 
ATOM     47  C   UNL     1       0.718  -6.511  -5.098  1.00  0.00     0.029 A 
ATOM     48  N   UNL     1      -0.621  -8.102  -5.924  1.00  0.00    -0.354 N 
ATOM     49  C   UNL     1      -3.766  -7.143  -8.725  1.00  0.00     0.074 A 
ATOM     50  C   UNL     1      -3.806  -5.723  -8.993  1.00  0.00     0.031 C 
ATOM     51  C   UNL     1       1.124  -7.689  -4.592  1.00  0.00     0.029 A 
ATOM     52  C   UNL     1       0.242  -8.750  -5.075  1.00  0.00     0.049 A 
ATOM     53  H   UNL     1      -1.312  -8.568  -6.449  1.00  0.00     0.167 HD
ATOM     54  C   UNL     1      -4.587  -8.047  -9.307  1.00  0.00     0.031 A 
ATOM     55  C   UNL     1       0.294 -10.047  -4.711  1.00  0.00     0.031 A 
ATOM     56  C   UNL     1      -4.562  -9.457  -9.027  1.00  0.00     0.049 A 
ATOM     57  C   UNL     1      -0.700 -11.019  -5.296  1.00  0.00     0.074 A 
ATOM     58  C   UNL     1      -5.351 -10.457  -9.568  1.00  0.00     0.029 A 
ATOM     59  N   UNL     1      -3.707 -10.065  -8.122  1.00  0.00    -0.354 N 
ATOM     60  N   UNL     1      -1.641 -10.809  -6.186  1.00  0.00    -0.248 NA
ATOM     61  C   UNL     1      -0.619 -12.411  -4.828  1.00  0.00     0.031 C 
ATOM     62  C   UNL     1      -5.018 -11.661  -8.940  1.00  0.00     0.029 A 
ATOM     63  C   UNL     1      -3.970 -11.423  -8.065  1.00  0.00     0.049 A 
ATOM     64  H   UNL     1      -3.015  -9.601  -7.597  1.00  0.00     0.167 HD
ATOM     65  C   UNL     1      -2.236 -12.046  -6.409  1.00  0.00     0.074 A 
ATOM     66  C   UNL     1      -1.540 -13.002  -5.574  1.00  0.00     0.031 C 
ATOM     67  C   UNL     1      -3.266 -12.364  -7.233  1.00  0.00     0.031 A 
BRANCH  54  68
ATOM     68  C   UNL     1      -5.613  -7.529 -10.277  1.00  0.00    -0.014 A 
ATOM     69  C   UNL     1      -5.244  -7.027 -11.535  1.00  0.00     0.009 A 
ATOM     70  C   UNL     1      -6.974  -7.575  -9.937  1.00  0.00     0.009 A 
ATOM     71  C   UNL     1      -6.215  -6.553 -12.420  1.00  0.00     0.001 A 
ATOM     72  C   UNL     1      -7.945  -7.130 -10.836  1.00  0.00     0.001 A 
ATOM     73  C   UNL     1      -7.565  -6.611 -12.072  1.00  0.00     0.000 A 
ENDBRANCH  54  68
BRANCH  55  74
ATOM     74  C   UNL     1       1.301 -10.511  -3.718  1.00  0.00    -0.014 A 
ATOM     75  C   UNL     1       2.317 -11.406  -4.088  1.00  0.00     0.009 A 
ATOM     76  C   UNL     1       1.221 -10.097  -2.378  1.00  0.00     0.009 A 
ATOM     77  C   UNL     1       3.208 -11.902  -3.133  1.00  0.00     0.001 A 
ATOM     78  C   UNL     1       2.135 -10.568  -1.432  1.00  0.00     0.001 A 
ATOM     79  C   UNL     1       3.119 -11.480  -1.808  1.00  0.00     0.000 A 
ENDBRANCH  55  74
BRANCH  67  80
ATOM     80  C   UNL     1      -3.671 -13.811  -7.313  1.00  0.00    -0.014 A 
ATOM     81  C   UNL     1      -4.313 -14.456  -6.244  1.00  0.00     0.009 A 
ATOM     82  C   UNL     1      -3.446 -14.527  -8.500  1.00  0.00     0.009 A 
ATOM     83  C   UNL     1      -4.686 -15.798  -6.350  1.00  0.00     0.001 A 
ATOM     84  C   UNL     1      -3.851 -15.857  -8.616  1.00  0.00     0.001 A 
ATOM     85  C   UNL     1      -4.460 -16.495  -7.537  1.00  0.00     0.000 A 
ENDBRANCH  67  80
ENDBRANCH  41  42
ENDBRANCH  34  36
ENDBRANCH  33  34
ENDBRANCH  32  33
ENDBRANCH  31  32
ENDBRANCH  30  31
ENDBRANCH  29  30
ENDBRANCH  28  29
ENDBRANCH   1  28
TORSDOF 23
