REMARK SMILES COc1cccc(S(=O)(=O)N[C@H](CC(C)C)C(=O)OCCOCCOCCOCCOC(=O)c2ccc(-c3c4nc(c(-c5ccccc5)c5ccc([nH]5)c(-c5ccccc5)c5nc(c(-c6ccccc6)c6ccc3[nH]6)C=C5)C=C4)cc2)c1
REMARK SMILES IDX 24 1 23 2 22 3 21 4 20 5 19 6 17 7 18 8 12 9 11 10 8 12 9 13
REMARK SMILES IDX 10 14 7 15 3 16 4 17 82 18 5 19 6 20 2 21 1 22 13 23 14 24
REMARK SMILES IDX 15 25 16 26 25 27 26 28 27 29 28 30 29 31 30 32 31 33 32 34
REMARK SMILES IDX 33 35 34 36 35 37 81 38 36 39 80 40 37 41 38 42 39 43 74 44
REMARK SMILES IDX 40 45 79 46 73 47 75 48 41 49 78 50 72 51 71 52 42 54 64 55
REMARK SMILES IDX 49 56 63 57 50 58 53 59 62 60 76 61 51 62 52 63 61 65 77 66
REMARK SMILES IDX 54 67 43 68 44 69 48 70 45 71 47 72 46 73 65 74 66 75 70 76
REMARK SMILES IDX 67 77 69 78 68 79 55 80 56 81 60 82 57 83 59 84 58 85
REMARK H PARENT 11 11 75 53 53 64
REMARK Flexibility Score: inf
ROOT
ATOM      1  C   UNL     1       5.848   0.402   0.994  1.00  0.00     0.188 C 
ENDROOT
BRANCH   1   2
ATOM      2  C   UNL     1       5.171  -0.862   0.434  1.00  0.00     0.188 C 
BRANCH   2   3
ATOM      3  O   UNL     1       5.948  -1.929  -0.100  1.00  0.00    -0.376 OA
BRANCH   3   4
ATOM      4  C   UNL     1       7.191  -1.662  -0.727  1.00  0.00     0.202 C 
BRANCH   4   5
ATOM      5  C   UNL     1       7.184  -0.828  -2.011  1.00  0.00     0.261 C 
BRANCH   5   6
ATOM      6  O   UNL     1       6.489   0.430  -1.946  1.00  0.00    -0.462 OA
BRANCH   6   7
ATOM      7  C   UNL     1       5.374   0.559  -2.731  1.00  0.00     0.324 C 
ATOM      8  O   UNL     1       4.862  -0.353  -3.367  1.00  0.00    -0.250 OA
BRANCH   7   9
ATOM      9  C   UNL     1       4.919   2.038  -2.843  1.00  0.00     0.180 C 
BRANCH   9  10
ATOM     10  N   UNL     1       6.062   2.717  -3.511  1.00  0.00    -0.197 NA
ATOM     11  H   UNL     1       6.789   2.817  -2.802  1.00  0.00     0.142 HD
BRANCH  10  12
ATOM     12  S   UNL     1       5.899   4.217  -4.229  1.00  0.00     0.241 S 
ATOM     13  O   UNL     1       4.498   4.395  -4.563  1.00  0.00    -0.207 OA
ATOM     14  O   UNL     1       6.940   4.295  -5.219  1.00  0.00    -0.207 OA
BRANCH  12  15
ATOM     15  C   UNL     1       6.334   5.346  -2.934  1.00  0.00     0.086 A 
ATOM     16  C   UNL     1       7.454   5.769  -0.838  1.00  0.00     0.120 A 
ATOM     17  C   UNL     1       6.810   7.009  -0.771  1.00  0.00     0.046 A 
ATOM     18  C   UNL     1       7.241   4.948  -1.942  1.00  0.00     0.068 A 
ATOM     19  C   UNL     1       5.931   7.417  -1.778  1.00  0.00     0.005 A 
ATOM     20  C   UNL     1       5.681   6.579  -2.861  1.00  0.00     0.022 A 
BRANCH  16  21
ATOM     21  O   UNL     1       8.236   5.466   0.242  1.00  0.00    -0.497 OA
ATOM     22  C   UNL     1       8.681   4.117   0.355  1.00  0.00     0.278 C 
ENDBRANCH  16  21
ENDBRANCH  12  15
ENDBRANCH  10  12
ENDBRANCH   9  10
BRANCH   9  23
ATOM     23  C   UNL     1       4.603   2.601  -1.450  1.00  0.00     0.035 C 
BRANCH  23  24
ATOM     24  C   UNL     1       3.639   3.797  -1.346  1.00  0.00    -0.015 C 
ATOM     25  C   UNL     1       2.183   3.376  -1.542  1.00  0.00     0.007 C 
ATOM     26  C   UNL     1       3.790   4.469   0.026  1.00  0.00     0.007 C 
ENDBRANCH  23  24
ENDBRANCH   9  23
ENDBRANCH   7   9
ENDBRANCH   6   7
ENDBRANCH   5   6
ENDBRANCH   4   5
ENDBRANCH   3   4
ENDBRANCH   2   3
ENDBRANCH   1   2
BRANCH   1  27
ATOM     27  O   UNL     1       7.233   0.276   1.248  1.00  0.00    -0.377 OA
BRANCH  27  28
ATOM     28  C   UNL     1       7.597   0.187   2.613  1.00  0.00     0.188 C 
BRANCH  28  29
ATOM     29  C   UNL     1       6.904  -0.934   3.394  1.00  0.00     0.188 C 
BRANCH  29  30
ATOM     30  O   UNL     1       5.510  -0.679   3.590  1.00  0.00    -0.376 OA
BRANCH  30  31
ATOM     31  C   UNL     1       5.140  -0.170   4.872  1.00  0.00     0.202 C 
BRANCH  31  32
ATOM     32  C   UNL     1       5.291   1.354   5.007  1.00  0.00     0.261 C 
BRANCH  32  33
ATOM     33  O   UNL     1       6.644   1.843   4.995  1.00  0.00    -0.460 OA
BRANCH  33  34
ATOM     34  C   UNL     1       7.494   1.344   5.918  1.00  0.00     0.338 C 
ATOM     35  O   UNL     1       7.223   0.606   6.847  1.00  0.00    -0.246 OA
BRANCH  34  36
ATOM     36  C   UNL     1       8.872   1.667   5.497  1.00  0.00     0.060 A 
ATOM     37  C   UNL     1       9.790   0.616   5.378  1.00  0.00     0.016 A 
ATOM     38  C   UNL     1       9.262   2.983   5.233  1.00  0.00     0.016 A 
ATOM     39  C   UNL     1      11.117   0.883   5.046  1.00  0.00     0.010 A 
ATOM     40  C   UNL     1      10.599   3.253   4.924  1.00  0.00     0.010 A 
ATOM     41  C   UNL     1      11.537   2.208   4.871  1.00  0.00    -0.014 A 
BRANCH  41  42
ATOM     42  C   UNL     1      12.987   2.512   4.877  1.00  0.00     0.031 A 
ATOM     43  C   UNL     1      13.639   2.811   6.200  1.00  0.00     0.074 A 
ATOM     44  C   UNL     1      13.720   2.495   3.751  1.00  0.00     0.049 A 
ATOM     45  N   UNL     1      14.888   3.095   6.466  1.00  0.00    -0.248 NA
ATOM     46  C   UNL     1      12.762   2.779   7.383  1.00  0.00     0.031 C 
ATOM     47  C   UNL     1      13.220   2.177   2.415  1.00  0.00     0.029 A 
ATOM     48  N   UNL     1      15.053   2.756   3.561  1.00  0.00    -0.354 N 
ATOM     49  C   UNL     1      14.946   3.272   7.843  1.00  0.00     0.074 A 
ATOM     50  C   UNL     1      13.605   3.092   8.354  1.00  0.00     0.031 C 
ATOM     51  C   UNL     1      14.237   2.268   1.539  1.00  0.00     0.029 A 
ATOM     52  C   UNL     1      15.449   2.673   2.249  1.00  0.00     0.049 A 
ATOM     53  H   UNL     1      15.668   2.982   4.296  1.00  0.00     0.167 HD
ATOM     54  C   UNL     1      16.018   3.556   8.617  1.00  0.00     0.031 A 
ATOM     55  C   UNL     1      16.651   2.910   1.689  1.00  0.00     0.031 A 
ATOM     56  C   UNL     1      17.346   3.768   8.114  1.00  0.00     0.049 A 
ATOM     57  C   UNL     1      17.811   3.315   2.560  1.00  0.00     0.074 A 
ATOM     58  C   UNL     1      18.500   4.059   8.820  1.00  0.00     0.029 A 
ATOM     59  N   UNL     1      17.693   3.725   6.774  1.00  0.00    -0.354 N 
ATOM     60  N   UNL     1      17.860   3.449   3.864  1.00  0.00    -0.248 NA
ATOM     61  C   UNL     1      19.084   3.597   1.879  1.00  0.00     0.031 C 
ATOM     62  C   UNL     1      19.538   4.241   7.899  1.00  0.00     0.029 A 
ATOM     63  C   UNL     1      19.038   4.013   6.627  1.00  0.00     0.049 A 
ATOM     64  H   UNL     1      17.074   3.521   6.036  1.00  0.00     0.167 HD
ATOM     65  C   UNL     1      19.171   3.804   4.160  1.00  0.00     0.074 A 
ATOM     66  C   UNL     1      19.887   3.855   2.903  1.00  0.00     0.031 C 
ATOM     67  C   UNL     1      19.733   4.061   5.367  1.00  0.00     0.031 A 
BRANCH  54  68
ATOM     68  C   UNL     1      15.776   3.691  10.093  1.00  0.00    -0.014 A 
ATOM     69  C   UNL     1      15.525   2.565  10.893  1.00  0.00     0.009 A 
ATOM     70  C   UNL     1      15.802   4.960  10.689  1.00  0.00     0.009 A 
ATOM     71  C   UNL     1      15.272   2.713  12.258  1.00  0.00     0.001 A 
ATOM     72  C   UNL     1      15.572   5.103  12.058  1.00  0.00     0.001 A 
ATOM     73  C   UNL     1      15.298   3.981  12.839  1.00  0.00     0.000 A 
ENDBRANCH  54  68
BRANCH  55  74
ATOM     74  C   UNL     1      16.823   2.790   0.218  1.00  0.00    -0.014 A 
ATOM     75  C   UNL     1      17.574   1.739  -0.331  1.00  0.00     0.009 A 
ATOM     76  C   UNL     1      16.257   3.742  -0.643  1.00  0.00     0.009 A 
ATOM     77  C   UNL     1      17.772   1.658  -1.712  1.00  0.00     0.001 A 
ATOM     78  C   UNL     1      16.436   3.644  -2.025  1.00  0.00     0.001 A 
ATOM     79  C   UNL     1      17.200   2.607  -2.557  1.00  0.00     0.000 A 
ENDBRANCH  55  74
BRANCH  67  80
ATOM     80  C   UNL     1      21.198   4.390   5.390  1.00  0.00    -0.014 A 
ATOM     81  C   UNL     1      21.671   5.640   4.962  1.00  0.00     0.009 A 
ATOM     82  C   UNL     1      22.112   3.453   5.898  1.00  0.00     0.009 A 
ATOM     83  C   UNL     1      23.035   5.934   5.017  1.00  0.00     0.001 A 
ATOM     84  C   UNL     1      23.471   3.759   5.975  1.00  0.00     0.001 A 
ATOM     85  C   UNL     1      23.932   4.996   5.528  1.00  0.00     0.000 A 
ENDBRANCH  67  80
ENDBRANCH  41  42
ENDBRANCH  34  36
ENDBRANCH  33  34
ENDBRANCH  32  33
ENDBRANCH  31  32
ENDBRANCH  30  31
ENDBRANCH  29  30
ENDBRANCH  28  29
ENDBRANCH  27  28
ENDBRANCH   1  27
TORSDOF 26
