REMARK SMILES CNC(=O)[C@H](C)S(=O)(=O)c1cc(C(=O)OCCOCCOCCOCCOC(=O)c2ccc(-c3c4nc(c(-c5ccccc5)c5ccc([nH]5)c(-c5ccccc5)c5nc(c(-c6ccccc6)c6ccc3[nH]6)C=C5)C=C4)cc2)c(C)cc1C
REMARK SMILES IDX 20 1 19 2 18 3 17 4 16 5 15 6 13 7 14 8 12 9 10 10 11 11
REMARK SMILES IDX 81 12 80 13 82 14 78 15 79 16 7 17 8 18 9 19 5 20 6 21 3 22
REMARK SMILES IDX 1 23 2 24 4 26 21 27 22 28 23 29 24 30 25 31 26 32 27 33
REMARK SMILES IDX 28 34 29 35 30 36 31 37 77 38 32 39 76 40 33 41 34 42 35 43
REMARK SMILES IDX 70 44 36 45 75 46 69 47 71 48 37 49 74 50 68 51 67 52 38 54
REMARK SMILES IDX 60 55 45 56 59 57 46 58 49 59 58 60 72 61 47 62 48 63 57 65
REMARK SMILES IDX 73 66 50 67 39 68 40 69 44 70 41 71 43 72 42 73 61 74 62 75
REMARK SMILES IDX 66 76 63 77 65 78 64 79 51 80 52 81 56 82 53 83 55 84 54 85
REMARK H PARENT 2 25 71 53 49 64
REMARK Flexibility Score: inf
ROOT
ATOM      1  C   UNL     1       1.796  -2.432  -1.295  1.00  0.00     0.188 C 
ENDROOT
BRANCH   1   2
ATOM      2  C   UNL     1       0.560  -3.354  -1.185  1.00  0.00     0.188 C 
BRANCH   2   3
ATOM      3  O   UNL     1       0.701  -4.576  -1.889  1.00  0.00    -0.376 OA
BRANCH   3   4
ATOM      4  C   UNL     1      -0.054  -4.804  -3.063  1.00  0.00     0.202 C 
BRANCH   4   5
ATOM      5  C   UNL     1       0.019  -3.807  -4.228  1.00  0.00     0.261 C 
BRANCH   5   6
ATOM      6  O   UNL     1       0.234  -2.446  -3.852  1.00  0.00    -0.460 OA
BRANCH   6   7
ATOM      7  C   UNL     1      -0.851  -1.712  -3.551  1.00  0.00     0.338 C 
ATOM      8  O   UNL     1      -2.009  -2.094  -3.578  1.00  0.00    -0.246 OA
BRANCH   7   9
ATOM      9  C   UNL     1      -0.433  -0.404  -2.978  1.00  0.00     0.064 A 
ATOM     10  C   UNL     1      -0.940   1.275  -1.253  1.00  0.00     0.071 A 
ATOM     11  C   UNL     1      -1.087  -0.015  -1.791  1.00  0.00     0.036 A 
ATOM     12  C   UNL     1      -0.286   2.227  -2.044  1.00  0.00    -0.032 A 
ATOM     13  C   UNL     1       0.538   1.770  -3.096  1.00  0.00     0.009 A 
ATOM     14  C   UNL     1      -0.547   3.707  -2.078  1.00  0.00     0.046 C 
ATOM     15  C   UNL     1       0.524   0.443  -3.545  1.00  0.00    -0.036 A 
ATOM     16  C   UNL     1       1.452   0.086  -4.670  1.00  0.00     0.045 C 
BRANCH  10  17
ATOM     17  S   UNL     1      -1.820   1.609   0.276  1.00  0.00     0.190 S 
ATOM     18  O   UNL     1      -2.863   0.594   0.344  1.00  0.00    -0.223 OA
ATOM     19  O   UNL     1      -2.268   2.986   0.269  1.00  0.00    -0.223 OA
BRANCH  17  20
ATOM     20  C   UNL     1      -0.770   1.345   1.689  1.00  0.00     0.199 C 
ATOM     21  C   UNL     1      -0.671  -0.165   2.002  1.00  0.00     0.036 C 
BRANCH  20  22
ATOM     22  C   UNL     1       0.627   1.935   1.742  1.00  0.00     0.238 C 
ATOM     23  C   UNL     1       0.397   4.383   1.031  1.00  0.00     0.142 C 
ATOM     24  N   UNL     1       0.955   3.247   1.710  1.00  0.00    -0.358 N 
ATOM     25  H   UNL     1       1.736   3.468   2.266  1.00  0.00     0.163 HD
ATOM     26  O   UNL     1       1.590   1.215   2.055  1.00  0.00    -0.274 OA
ENDBRANCH  20  22
ENDBRANCH  17  20
ENDBRANCH  10  17
ENDBRANCH   7   9
ENDBRANCH   6   7
ENDBRANCH   5   6
ENDBRANCH   4   5
ENDBRANCH   3   4
ENDBRANCH   2   3
ENDBRANCH   1   2
BRANCH   1  27
ATOM     27  O   UNL     1       2.739  -2.688  -2.326  1.00  0.00    -0.377 OA
BRANCH  27  28
ATOM     28  C   UNL     1       3.317  -3.988  -2.443  1.00  0.00     0.188 C 
BRANCH  28  29
ATOM     29  C   UNL     1       3.314  -5.004  -1.274  1.00  0.00     0.188 C 
BRANCH  29  30
ATOM     30  O   UNL     1       2.923  -4.475  -0.019  1.00  0.00    -0.376 OA
BRANCH  30  31
ATOM     31  C   UNL     1       3.923  -4.298   0.967  1.00  0.00     0.202 C 
BRANCH  31  32
ATOM     32  C   UNL     1       5.026  -3.279   0.652  1.00  0.00     0.261 C 
BRANCH  32  33
ATOM     33  O   UNL     1       5.734  -3.482  -0.581  1.00  0.00    -0.460 OA
BRANCH  33  34
ATOM     34  C   UNL     1       6.482  -4.607  -0.683  1.00  0.00     0.338 C 
ATOM     35  O   UNL     1       6.635  -5.471   0.147  1.00  0.00    -0.246 OA
BRANCH  34  36
ATOM     36  C   UNL     1       6.947  -4.689  -2.086  1.00  0.00     0.060 A 
ATOM     37  C   UNL     1       6.555  -5.780  -2.874  1.00  0.00     0.016 A 
ATOM     38  C   UNL     1       7.757  -3.684  -2.615  1.00  0.00     0.016 A 
ATOM     39  C   UNL     1       7.000  -5.881  -4.192  1.00  0.00     0.010 A 
ATOM     40  C   UNL     1       8.220  -3.797  -3.927  1.00  0.00     0.010 A 
ATOM     41  C   UNL     1       7.870  -4.912  -4.710  1.00  0.00    -0.014 A 
BRANCH  41  42
ATOM     42  C   UNL     1       8.573  -5.155  -5.991  1.00  0.00     0.031 A 
ATOM     43  C   UNL     1       9.975  -5.697  -5.940  1.00  0.00     0.074 A 
ATOM     44  C   UNL     1       7.986  -4.907  -7.174  1.00  0.00     0.049 A 
ATOM     45  N   UNL     1      10.812  -5.933  -6.917  1.00  0.00    -0.248 NA
ATOM     46  C   UNL     1      10.503  -6.013  -4.602  1.00  0.00     0.031 C 
ATOM     47  C   UNL     1       6.617  -4.430  -7.360  1.00  0.00     0.029 A 
ATOM     48  N   UNL     1       8.483  -5.018  -8.449  1.00  0.00    -0.354 N 
ATOM     49  C   UNL     1      11.966  -6.414  -6.312  1.00  0.00     0.074 A 
ATOM     50  C   UNL     1      11.735  -6.406  -4.885  1.00  0.00     0.031 C 
ATOM     51  C   UNL     1       6.384  -4.284  -8.676  1.00  0.00     0.029 A 
ATOM     52  C   UNL     1       7.598  -4.617  -9.420  1.00  0.00     0.049 A 
ATOM     53  H   UNL     1       9.386  -5.354  -8.648  1.00  0.00     0.167 HD
ATOM     54  C   UNL     1      13.116  -6.830  -6.893  1.00  0.00     0.031 A 
ATOM     55  C   UNL     1       7.762  -4.510 -10.753  1.00  0.00     0.031 A 
ATOM     56  C   UNL     1      13.355  -6.814  -8.311  1.00  0.00     0.049 A 
ATOM     57  C   UNL     1       9.086  -4.883 -11.368  1.00  0.00     0.074 A 
ATOM     58  C   UNL     1      14.484  -7.221  -8.999  1.00  0.00     0.029 A 
ATOM     59  N   UNL     1      12.452  -6.355  -9.256  1.00  0.00    -0.354 N 
ATOM     60  N   UNL     1      10.164  -5.358 -10.792  1.00  0.00    -0.248 NA
ATOM     61  C   UNL     1       9.211  -4.710 -12.823  1.00  0.00     0.031 C 
ATOM     62  C   UNL     1      14.289  -6.946 -10.356  1.00  0.00     0.029 A 
ATOM     63  C   UNL     1      13.010  -6.437 -10.521  1.00  0.00     0.049 A 
ATOM     64  H   UNL     1      11.547  -6.020  -9.059  1.00  0.00     0.167 HD
ATOM     65  C   UNL     1      11.081  -5.572 -11.815  1.00  0.00     0.074 A 
ATOM     66  C   UNL     1      10.428  -5.186 -13.049  1.00  0.00     0.031 C 
ATOM     67  C   UNL     1      12.348  -6.048 -11.740  1.00  0.00     0.031 A 
BRANCH  54  68
ATOM     68  C   UNL     1      14.219  -7.293  -5.981  1.00  0.00    -0.014 A 
ATOM     69  C   UNL     1      14.112  -8.488  -5.249  1.00  0.00     0.009 A 
ATOM     70  C   UNL     1      15.389  -6.527  -5.861  1.00  0.00     0.009 A 
ATOM     71  C   UNL     1      15.137  -8.882  -4.386  1.00  0.00     0.001 A 
ATOM     72  C   UNL     1      16.426  -6.941  -5.024  1.00  0.00     0.001 A 
ATOM     73  C   UNL     1      16.294  -8.112  -4.278  1.00  0.00     0.000 A 
ENDBRANCH  54  68
BRANCH  55  74
ATOM     74  C   UNL     1       6.650  -4.007 -11.603  1.00  0.00    -0.014 A 
ATOM     75  C   UNL     1       6.009  -4.856 -12.520  1.00  0.00     0.009 A 
ATOM     76  C   UNL     1       6.237  -2.668 -11.520  1.00  0.00     0.009 A 
ATOM     77  C   UNL     1       4.997  -4.368 -13.351  1.00  0.00     0.001 A 
ATOM     78  C   UNL     1       5.204  -2.190 -12.329  1.00  0.00     0.001 A 
ATOM     79  C   UNL     1       4.592  -3.038 -13.251  1.00  0.00     0.000 A 
ENDBRANCH  55  74
BRANCH  67  80
ATOM     80  C   UNL     1      13.101  -6.223 -13.031  1.00  0.00    -0.014 A 
ATOM     81  C   UNL     1      13.558  -5.122 -13.771  1.00  0.00     0.009 A 
ATOM     82  C   UNL     1      13.401  -7.518 -13.488  1.00  0.00     0.009 A 
ATOM     83  C   UNL     1      14.268  -5.314 -14.959  1.00  0.00     0.001 A 
ATOM     84  C   UNL     1      14.139  -7.707 -14.656  1.00  0.00     0.001 A 
ATOM     85  C   UNL     1      14.564  -6.605 -15.396  1.00  0.00     0.000 A 
ENDBRANCH  67  80
ENDBRANCH  41  42
ENDBRANCH  34  36
ENDBRANCH  33  34
ENDBRANCH  32  33
ENDBRANCH  31  32
ENDBRANCH  30  31
ENDBRANCH  29  30
ENDBRANCH  28  29
ENDBRANCH  27  28
ENDBRANCH   1  27
TORSDOF 23
