REMARK SMILES Cc1nc([C@]2(C)CCCO2)nc(C)c1C(=O)OCCOCCOCCOCCOC(=O)c1ccc(-c2c3nc(c(-c4ccccc4)c4ccc([nH]4)c(-c4ccccc4)c4nc(c(-c5ccccc5)c5ccc2[nH]5)C=C4)C=C3)cc1
REMARK SMILES IDX 24 1 23 2 22 3 21 4 20 5 19 6 18 7 17 8 15 9 16 10 14 11
REMARK SMILES IDX 1 12 2 13 3 14 4 15 12 16 11 17 13 18 5 19 7 20 10 21 6 22
REMARK SMILES IDX 8 23 9 24 25 25 26 26 27 27 28 28 29 29 30 30 31 31 32 32
REMARK SMILES IDX 33 33 79 34 34 35 78 36 35 37 36 38 37 39 72 40 38 41 77 42
REMARK SMILES IDX 71 43 73 44 39 45 76 46 70 47 69 48 40 50 62 51 47 52 61 53
REMARK SMILES IDX 48 54 51 55 60 56 74 57 49 58 50 59 59 61 75 62 52 63 41 64
REMARK SMILES IDX 42 65 46 66 43 67 45 68 44 69 63 70 64 71 68 72 65 73 67 74
REMARK SMILES IDX 66 75 53 76 54 77 58 78 55 79 57 80 56 81
REMARK H PARENT 73 49 51 60
REMARK Flexibility Score: inf
ROOT
ATOM      1  C   UNL     1      -5.793  -4.550   5.777  1.00  0.00     0.188 C 
ENDROOT
BRANCH   1   2
ATOM      2  O   UNL     1      -4.861  -4.332   4.724  1.00  0.00    -0.377 OA
BRANCH   2   3
ATOM      3  C   UNL     1      -4.498  -3.006   4.383  1.00  0.00     0.188 C 
BRANCH   3   4
ATOM      4  C   UNL     1      -5.621  -1.978   4.145  1.00  0.00     0.188 C 
BRANCH   4   5
ATOM      5  O   UNL     1      -6.943  -2.483   4.319  1.00  0.00    -0.376 OA
BRANCH   5   6
ATOM      6  C   UNL     1      -7.725  -2.581   3.135  1.00  0.00     0.202 C 
BRANCH   6   7
ATOM      7  C   UNL     1      -7.370  -3.795   2.276  1.00  0.00     0.261 C 
BRANCH   7   8
ATOM      8  O   UNL     1      -5.990  -3.815   1.878  1.00  0.00    -0.460 OA
BRANCH   8   9
ATOM      9  C   UNL     1      -5.612  -2.945   0.921  1.00  0.00     0.341 C 
ATOM     10  O   UNL     1      -6.343  -2.165   0.334  1.00  0.00    -0.246 OA
BRANCH   9  11
ATOM     11  C   UNL     1      -4.146  -3.002   0.755  1.00  0.00     0.102 A 
ATOM     12  C   UNL     1      -4.080  -5.548   0.834  1.00  0.00     0.068 C 
ATOM     13  C   UNL     1      -3.449  -4.199   0.644  1.00  0.00     0.056 A 
ATOM     14  N   UNL     1      -2.114  -4.234   0.415  1.00  0.00    -0.234 NA
ATOM     15  C   UNL     1      -1.449  -3.066   0.314  1.00  0.00     0.160 A 
ATOM     16  C   UNL     1      -3.380  -1.842   0.706  1.00  0.00     0.056 A 
ATOM     17  N   UNL     1      -2.045  -1.870   0.472  1.00  0.00    -0.234 NA
ATOM     18  C   UNL     1      -3.892  -0.482   1.086  1.00  0.00     0.068 C 
BRANCH  15  19
ATOM     19  C   UNL     1       0.038  -3.107  -0.068  1.00  0.00     0.125 C 
ATOM     20  C   UNL     1       0.227  -3.675  -1.477  1.00  0.00     0.046 C 
ATOM     21  O   UNL     1       0.764  -4.010   0.801  1.00  0.00    -0.367 OA
ATOM     22  C   UNL     1       0.695  -1.728   0.056  1.00  0.00     0.051 C 
ATOM     23  C   UNL     1       0.311  -5.166  -1.246  1.00  0.00     0.032 C 
ATOM     24  C   UNL     1       0.905  -5.277   0.144  1.00  0.00     0.161 C 
ENDBRANCH  15  19
ENDBRANCH   9  11
ENDBRANCH   8   9
ENDBRANCH   7   8
ENDBRANCH   6   7
ENDBRANCH   5   6
ENDBRANCH   4   5
ENDBRANCH   3   4
ENDBRANCH   2   3
ENDBRANCH   1   2
BRANCH   1  25
ATOM     25  C   UNL     1      -6.022  -3.493   6.879  1.00  0.00     0.188 C 
BRANCH  25  26
ATOM     26  O   UNL     1      -4.990  -2.525   7.009  1.00  0.00    -0.376 OA
BRANCH  26  27
ATOM     27  C   UNL     1      -4.157  -2.636   8.154  1.00  0.00     0.202 C 
BRANCH  27  28
ATOM     28  C   UNL     1      -3.151  -3.790   8.084  1.00  0.00     0.261 C 
BRANCH  28  29
ATOM     29  O   UNL     1      -3.737  -5.101   8.046  1.00  0.00    -0.460 OA
BRANCH  29  30
ATOM     30  C   UNL     1      -4.511  -5.465   9.091  1.00  0.00     0.338 C 
ATOM     31  O   UNL     1      -4.748  -4.827  10.100  1.00  0.00    -0.246 OA
BRANCH  30  32
ATOM     32  C   UNL     1      -5.185  -6.722   8.724  1.00  0.00     0.060 A 
ATOM     33  C   UNL     1      -6.585  -6.767   8.719  1.00  0.00     0.016 A 
ATOM     34  C   UNL     1      -4.432  -7.845   8.374  1.00  0.00     0.016 A 
ATOM     35  C   UNL     1      -7.238  -7.956   8.394  1.00  0.00     0.010 A 
ATOM     36  C   UNL     1      -5.086  -9.039   8.071  1.00  0.00     0.010 A 
ATOM     37  C   UNL     1      -6.489  -9.106   8.112  1.00  0.00    -0.014 A 
BRANCH  37  38
ATOM     38  C   UNL     1      -7.154 -10.428   8.072  1.00  0.00     0.031 A 
ATOM     39  C   UNL     1      -7.193 -11.237   9.339  1.00  0.00     0.074 A 
ATOM     40  C   UNL     1      -7.709 -10.903   6.944  1.00  0.00     0.049 A 
ATOM     41  N   UNL     1      -7.670 -12.437   9.543  1.00  0.00    -0.248 NA
ATOM     42  C   UNL     1      -6.612 -10.605  10.536  1.00  0.00     0.031 C 
ATOM     43  C   UNL     1      -7.770 -10.201   5.664  1.00  0.00     0.029 A 
ATOM     44  N   UNL     1      -8.322 -12.107   6.700  1.00  0.00    -0.354 N 
ATOM     45  C   UNL     1      -7.448 -12.702  10.888  1.00  0.00     0.074 A 
ATOM     46  C   UNL     1      -6.767 -11.554  11.445  1.00  0.00     0.031 C 
ATOM     47  C   UNL     1      -8.376 -10.994   4.763  1.00  0.00     0.029 A 
ATOM     48  C   UNL     1      -8.717 -12.267   5.396  1.00  0.00     0.049 A 
ATOM     49  H   UNL     1      -8.464 -12.790   7.395  1.00  0.00     0.167 HD
ATOM     50  C   UNL     1      -7.784 -13.802  11.601  1.00  0.00     0.031 A 
ATOM     51  C   UNL     1      -9.270 -13.332   4.782  1.00  0.00     0.031 A 
ATOM     52  C   UNL     1      -8.434 -14.956  11.045  1.00  0.00     0.049 A 
ATOM     53  C   UNL     1      -9.556 -14.579   5.578  1.00  0.00     0.074 A 
ATOM     54  C   UNL     1      -8.815 -16.122  11.684  1.00  0.00     0.029 A 
ATOM     55  N   UNL     1      -8.790 -15.092   9.713  1.00  0.00    -0.354 N 
ATOM     56  N   UNL     1      -9.367 -14.809   6.855  1.00  0.00    -0.248 NA
ATOM     57  C   UNL     1     -10.140 -15.713   4.844  1.00  0.00     0.031 C 
ATOM     58  C   UNL     1      -9.357 -16.986  10.727  1.00  0.00     0.029 A 
ATOM     59  C   UNL     1      -9.365 -16.333   9.504  1.00  0.00     0.049 A 
ATOM     60  H   UNL     1      -8.653 -14.408   9.018  1.00  0.00     0.167 HD
ATOM     61  C   UNL     1      -9.834 -16.099   7.082  1.00  0.00     0.074 A 
ATOM     62  C   UNL     1     -10.328 -16.596   5.815  1.00  0.00     0.031 C 
ATOM     63  C   UNL     1      -9.855 -16.808   8.237  1.00  0.00     0.031 A 
BRANCH  50  64
ATOM     64  C   UNL     1      -7.421 -13.814  13.057  1.00  0.00    -0.014 A 
ATOM     65  C   UNL     1      -8.114 -13.017  13.983  1.00  0.00     0.009 A 
ATOM     66  C   UNL     1      -6.389 -14.648  13.512  1.00  0.00     0.009 A 
ATOM     67  C   UNL     1      -7.758 -13.036  15.334  1.00  0.00     0.001 A 
ATOM     68  C   UNL     1      -6.054 -14.683  14.866  1.00  0.00     0.001 A 
ATOM     69  C   UNL     1      -6.733 -13.872  15.774  1.00  0.00     0.000 A 
ENDBRANCH  50  64
BRANCH  51  70
ATOM     70  C   UNL     1      -9.570 -13.286   3.326  1.00  0.00    -0.014 A 
ATOM     71  C   UNL     1     -10.896 -13.282   2.866  1.00  0.00     0.009 A 
ATOM     72  C   UNL     1      -8.527 -13.287   2.387  1.00  0.00     0.009 A 
ATOM     73  C   UNL     1     -11.170 -13.310   1.497  1.00  0.00     0.001 A 
ATOM     74  C   UNL     1      -8.804 -13.286   1.018  1.00  0.00     0.001 A 
ATOM     75  C   UNL     1     -10.124 -13.309   0.574  1.00  0.00     0.000 A 
ENDBRANCH  51  70
BRANCH  63  76
ATOM     76  C   UNL     1     -10.466 -18.181   8.195  1.00  0.00    -0.014 A 
ATOM     77  C   UNL     1      -9.804 -19.257   7.584  1.00  0.00     0.009 A 
ATOM     78  C   UNL     1     -11.700 -18.409   8.824  1.00  0.00     0.009 A 
ATOM     79  C   UNL     1     -10.383 -20.528   7.576  1.00  0.00     0.001 A 
ATOM     80  C   UNL     1     -12.263 -19.686   8.840  1.00  0.00     0.001 A 
ATOM     81  C   UNL     1     -11.608 -20.742   8.208  1.00  0.00     0.000 A 
ENDBRANCH  63  76
ENDBRANCH  37  38
ENDBRANCH  30  32
ENDBRANCH  29  30
ENDBRANCH  28  29
ENDBRANCH  27  28
ENDBRANCH  26  27
ENDBRANCH  25  26
ENDBRANCH   1  25
TORSDOF 21
