REMARK SMILES CCc1ccnc(C(=O)c2[nH]c3ccc(OC(F)(F)F)cc3c2CC(=O)OCCOCCOCCOCCOC(=O)c2ccc(-c3c4nc(c(-c5ccccc5)c5ccc([nH]5)c(-c5ccccc5)c5nc(c(-c6ccccc6)c6ccc3[nH]6)C=C5)C=C4)cc2)c1
REMARK SMILES IDX 32 1 31 2 30 3 29 4 28 5 27 6 25 7 26 8 24 9 23 10 10 11
REMARK SMILES IDX 11 12 12 13 22 15 13 16 21 17 14 18 15 19 8 20 9 21 7 22
REMARK SMILES IDX 3 23 4 24 90 25 5 26 6 27 2 28 1 29 16 30 17 31 18 32 19 33
REMARK SMILES IDX 20 34 33 35 34 36 35 37 36 38 37 39 38 40 39 41 40 42 41 43
REMARK SMILES IDX 42 44 43 45 89 46 44 47 88 48 45 49 46 50 47 51 82 52 48 53
REMARK SMILES IDX 87 54 81 55 83 56 49 57 86 58 80 59 79 60 50 62 72 63 57 64
REMARK SMILES IDX 71 65 58 66 61 67 70 68 84 69 59 70 60 71 69 73 85 74 62 75
REMARK SMILES IDX 51 76 52 77 56 78 53 79 55 80 54 81 73 82 74 83 78 84 75 85
REMARK SMILES IDX 77 86 76 87 63 88 64 89 68 90 65 91 67 92 66 93
REMARK H PARENT 11 14 83 61 61 72
REMARK Flexibility Score: inf
ROOT
ATOM      1  C   UNL     1       2.704   0.013  -8.259  1.00  0.00     0.188 C 
ENDROOT
BRANCH   1   2
ATOM      2  C   UNL     1       2.049  -0.418  -9.570  1.00  0.00     0.188 C 
BRANCH   2   3
ATOM      3  O   UNL     1       2.871  -0.505 -10.715  1.00  0.00    -0.376 OA
BRANCH   3   4
ATOM      4  C   UNL     1       3.501   0.696 -11.155  1.00  0.00     0.202 C 
BRANCH   4   5
ATOM      5  C   UNL     1       2.749   2.042 -11.074  1.00  0.00     0.261 C 
BRANCH   5   6
ATOM      6  O   UNL     1       2.430   2.509  -9.733  1.00  0.00    -0.463 OA
BRANCH   6   7
ATOM      7  C   UNL     1       1.174   2.988  -9.551  1.00  0.00     0.310 C 
ATOM      8  O   UNL     1       0.360   3.080 -10.472  1.00  0.00    -0.252 OA
BRANCH   7   9
ATOM      9  C   UNL     1       0.754   3.398  -8.149  1.00  0.00     0.161 C 
BRANCH   9  10
ATOM     10  C   UNL     1       1.713   3.438  -6.976  1.00  0.00     0.000 A 
ATOM     11  C   UNL     1       1.840   2.509  -5.927  1.00  0.00     0.093 A 
ATOM     12  N   UNL     1       2.882   2.958  -5.139  1.00  0.00    -0.352 N 
ATOM     13  C   UNL     1       3.096   4.298  -5.366  1.00  0.00     0.046 A 
ATOM     14  H   UNL     1       3.395   2.402  -4.509  1.00  0.00     0.167 HD
ATOM     15  C   UNL     1       2.392   4.622  -6.521  1.00  0.00     0.008 A 
ATOM     16  C   UNL     1       3.821   5.244  -4.630  1.00  0.00     0.030 A 
ATOM     17  C   UNL     1       2.381   5.970  -6.936  1.00  0.00     0.057 A 
ATOM     18  C   UNL     1       3.745   6.585  -5.036  1.00  0.00     0.049 A 
ATOM     19  C   UNL     1       3.010   6.955  -6.160  1.00  0.00     0.130 A 
BRANCH  11  20
ATOM     20  C   UNL     1       1.034   1.311  -5.687  1.00  0.00     0.227 C 
ATOM     21  O   UNL     1       0.134   0.957  -6.451  1.00  0.00    -0.285 OA
BRANCH  20  22
ATOM     22  C   UNL     1       1.199   0.473  -4.466  1.00  0.00     0.113 A 
ATOM     23  C   UNL     1       0.812   0.164  -2.117  1.00  0.00    -0.044 A 
ATOM     24  C   UNL     1       0.846  -1.216  -2.348  1.00  0.00     0.024 A 
ATOM     25  C   UNL     1       0.996   1.027  -3.207  1.00  0.00     0.036 A 
ATOM     26  C   UNL     1       1.098  -1.676  -3.630  1.00  0.00     0.112 A 
ATOM     27  N   UNL     1       1.287  -0.864  -4.689  1.00  0.00    -0.253 NA
BRANCH  23  28
ATOM     28  C   UNL     1       0.419   0.736  -0.776  1.00  0.00     0.032 C 
ATOM     29  C   UNL     1       1.045   0.048   0.429  1.00  0.00     0.009 C 
ENDBRANCH  23  28
ENDBRANCH  20  22
ENDBRANCH  11  20
BRANCH  19  30
ATOM     30  O   UNL     1       2.797   8.229  -6.611  1.00  0.00    -0.406 OA
BRANCH  30  31
ATOM     31  C   UNL     1       3.161   9.303  -5.762  1.00  0.00     0.573 C 
ATOM     32  F   UNL     1       2.615   9.177  -4.533  1.00  0.00    -0.132 F 
ATOM     33  F   UNL     1       4.503   9.393  -5.652  1.00  0.00    -0.132 F 
ATOM     34  F   UNL     1       2.705  10.455  -6.304  1.00  0.00    -0.132 F 
ENDBRANCH  30  31
ENDBRANCH  19  30
ENDBRANCH   9  10
ENDBRANCH   7   9
ENDBRANCH   6   7
ENDBRANCH   5   6
ENDBRANCH   4   5
ENDBRANCH   3   4
ENDBRANCH   2   3
ENDBRANCH   1   2
BRANCH   1  35
ATOM     35  O   UNL     1       3.860   0.832  -8.310  1.00  0.00    -0.377 OA
BRANCH  35  36
ATOM     36  C   UNL     1       5.148   0.253  -8.172  1.00  0.00     0.188 C 
BRANCH  36  37
ATOM     37  C   UNL     1       5.249  -1.268  -8.075  1.00  0.00     0.188 C 
BRANCH  37  38
ATOM     38  O   UNL     1       4.722  -1.914  -6.915  1.00  0.00    -0.376 OA
BRANCH  38  39
ATOM     39  C   UNL     1       4.545  -1.174  -5.710  1.00  0.00     0.202 C 
BRANCH  39  40
ATOM     40  C   UNL     1       5.750  -1.180  -4.778  1.00  0.00     0.261 C 
BRANCH  40  41
ATOM     41  O   UNL     1       6.786  -0.335  -5.291  1.00  0.00    -0.460 OA
BRANCH  41  42
ATOM     42  C   UNL     1       7.751  -0.978  -5.983  1.00  0.00     0.338 C 
ATOM     43  O   UNL     1       7.899  -2.182  -6.119  1.00  0.00    -0.246 OA
BRANCH  42  44
ATOM     44  C   UNL     1       8.548   0.019  -6.713  1.00  0.00     0.060 A 
ATOM     45  C   UNL     1       8.871  -0.248  -8.050  1.00  0.00     0.016 A 
ATOM     46  C   UNL     1       9.012   1.174  -6.078  1.00  0.00     0.016 A 
ATOM     47  C   UNL     1       9.710   0.612  -8.744  1.00  0.00     0.010 A 
ATOM     48  C   UNL     1       9.867   2.029  -6.768  1.00  0.00     0.010 A 
ATOM     49  C   UNL     1      10.254   1.719  -8.084  1.00  0.00    -0.014 A 
BRANCH  49  50
ATOM     50  C   UNL     1      11.414   2.411  -8.675  1.00  0.00     0.031 A 
ATOM     51  C   UNL     1      12.783   2.005  -8.212  1.00  0.00     0.074 A 
ATOM     52  C   UNL     1      11.248   3.357  -9.612  1.00  0.00     0.049 A 
ATOM     53  N   UNL     1      13.949   2.500  -8.530  1.00  0.00    -0.248 NA
ATOM     54  C   UNL     1      12.841   0.889  -7.250  1.00  0.00     0.031 C 
ATOM     55  C   UNL     1       9.967   3.772 -10.179  1.00  0.00     0.029 A 
ATOM     56  N   UNL     1      12.174   4.138 -10.247  1.00  0.00    -0.354 N 
ATOM     57  C   UNL     1      14.876   1.764  -7.803  1.00  0.00     0.074 A 
ATOM     58  C   UNL     1      14.138   0.819  -6.997  1.00  0.00     0.031 C 
ATOM     59  C   UNL     1      10.190   4.741 -11.083  1.00  0.00     0.029 A 
ATOM     60  C   UNL     1      11.620   5.037 -11.122  1.00  0.00     0.049 A 
ATOM     61  H   UNL     1      13.144   4.063 -10.092  1.00  0.00     0.167 HD
ATOM     62  C   UNL     1      16.226   1.866  -7.811  1.00  0.00     0.031 A 
ATOM     63  C   UNL     1      12.210   6.002 -11.851  1.00  0.00     0.031 A 
ATOM     64  C   UNL     1      16.944   2.834  -8.593  1.00  0.00     0.049 A 
ATOM     65  C   UNL     1      13.702   6.174 -11.758  1.00  0.00     0.074 A 
ATOM     66  C   UNL     1      18.309   3.039  -8.676  1.00  0.00     0.029 A 
ATOM     67  N   UNL     1      16.344   3.771  -9.423  1.00  0.00    -0.354 N 
ATOM     68  N   UNL     1      14.576   5.474 -11.073  1.00  0.00    -0.248 NA
ATOM     69  C   UNL     1      14.289   7.267 -12.544  1.00  0.00     0.031 C 
ATOM     70  C   UNL     1      18.530   4.144  -9.505  1.00  0.00     0.029 A 
ATOM     71  C   UNL     1      17.309   4.578  -9.999  1.00  0.00     0.049 A 
ATOM     72  H   UNL     1      15.375   3.850  -9.579  1.00  0.00     0.167 HD
ATOM     73  C   UNL     1      15.819   6.017 -11.375  1.00  0.00     0.074 A 
ATOM     74  C   UNL     1      15.584   7.099 -12.310  1.00  0.00     0.031 C 
ATOM     75  C   UNL     1      17.047   5.650 -10.927  1.00  0.00     0.031 A 
BRANCH  62  76
ATOM     76  C   UNL     1      16.988   0.940  -6.902  1.00  0.00    -0.014 A 
ATOM     77  C   UNL     1      17.019  -0.447  -7.124  1.00  0.00     0.009 A 
ATOM     78  C   UNL     1      17.670   1.461  -5.792  1.00  0.00     0.009 A 
ATOM     79  C   UNL     1      17.671  -1.295  -6.226  1.00  0.00     0.001 A 
ATOM     80  C   UNL     1      18.352   0.615  -4.915  1.00  0.00     0.001 A 
ATOM     81  C   UNL     1      18.339  -0.763  -5.124  1.00  0.00     0.000 A 
ENDBRANCH  62  76
BRANCH  63  82
ATOM     82  C   UNL     1      11.389   6.876 -12.729  1.00  0.00    -0.014 A 
ATOM     83  C   UNL     1      11.498   6.786 -14.124  1.00  0.00     0.009 A 
ATOM     84  C   UNL     1      10.488   7.801 -12.178  1.00  0.00     0.009 A 
ATOM     85  C   UNL     1      10.738   7.618 -14.950  1.00  0.00     0.001 A 
ATOM     86  C   UNL     1       9.707   8.611 -13.006  1.00  0.00     0.001 A 
ATOM     87  C   UNL     1       9.839   8.524 -14.391  1.00  0.00     0.000 A 
ENDBRANCH  63  82
BRANCH  75  88
ATOM     88  C   UNL     1      18.231   6.393 -11.481  1.00  0.00    -0.014 A 
ATOM     89  C   UNL     1      18.496   7.725 -11.129  1.00  0.00     0.009 A 
ATOM     90  C   UNL     1      19.125   5.725 -12.334  1.00  0.00     0.009 A 
ATOM     91  C   UNL     1      19.614   8.383 -11.648  1.00  0.00     0.001 A 
ATOM     92  C   UNL     1      20.259   6.373 -12.822  1.00  0.00     0.001 A 
ATOM     93  C   UNL     1      20.497   7.704 -12.488  1.00  0.00     0.000 A 
ENDBRANCH  75  88
ENDBRANCH  49  50
ENDBRANCH  42  44
ENDBRANCH  41  42
ENDBRANCH  40  41
ENDBRANCH  39  40
ENDBRANCH  38  39
ENDBRANCH  37  38
ENDBRANCH  36  37
ENDBRANCH  35  36
ENDBRANCH   1  35
TORSDOF 26
