REMARK SMILES Cc1ccc(C(=O)OCCOCCOCCOCCOC(=O)c2ccc(-c3c4nc(c(-c5ccccc5)c5ccc([nH]5)c(-c5ccccc5)c5nc(c(-c6ccccc6)c6ccc3[nH]6)C=C5)C=C4)cc2)c2c1N[C@H](c1ccccc1F)[C@H]1CC=C[C@@H]21
REMARK SMILES IDX 15 1 14 2 13 3 12 4 11 5 10 6 9 7 8 8 6 9 7 10 5 11 1 12
REMARK SMILES IDX 2 13 3 14 72 15 4 16 71 17 73 18 86 19 74 20 82 22 85 23
REMARK SMILES IDX 83 24 84 25 75 26 76 27 80 28 77 29 79 30 81 31 78 32 16 33
REMARK SMILES IDX 17 34 18 35 19 36 20 37 21 38 22 39 23 40 24 41 70 42 25 43
REMARK SMILES IDX 69 44 26 45 27 46 28 47 63 48 29 49 68 50 62 51 64 52 30 53
REMARK SMILES IDX 67 54 61 55 60 56 31 58 53 59 38 60 52 61 39 62 42 63 51 64
REMARK SMILES IDX 65 65 40 66 41 67 50 69 66 70 43 71 32 72 33 73 37 74 34 75
REMARK SMILES IDX 36 76 35 77 54 78 55 79 59 80 56 81 58 82 57 83 44 84 45 85
REMARK SMILES IDX 49 86 46 87 48 88 47 89
REMARK H PARENT 73 21 64 57 42 68
REMARK Flexibility Score: inf
ROOT
ATOM      1  C   UNL     1       1.357  -6.485   5.486  1.00  0.00     0.188 C 
ENDROOT
BRANCH   1   2
ATOM      2  O   UNL     1       1.259  -5.436   4.533  1.00  0.00    -0.377 OA
BRANCH   2   3
ATOM      3  C   UNL     1       0.052  -4.699   4.445  1.00  0.00     0.188 C 
BRANCH   3   4
ATOM      4  C   UNL     1      -1.286  -5.459   4.512  1.00  0.00     0.188 C 
BRANCH   4   5
ATOM      5  O   UNL     1      -1.191  -6.880   4.474  1.00  0.00    -0.376 OA
BRANCH   5   6
ATOM      6  C   UNL     1      -1.638  -7.474   3.259  1.00  0.00     0.202 C 
BRANCH   6   7
ATOM      7  C   UNL     1      -0.601  -7.381   2.139  1.00  0.00     0.261 C 
BRANCH   7   8
ATOM      8  O   UNL     1      -0.274  -6.029   1.776  1.00  0.00    -0.460 OA
BRANCH   8   9
ATOM      9  C   UNL     1      -1.220  -5.325   1.109  1.00  0.00     0.338 C 
ATOM     10  O   UNL     1      -2.302  -5.752   0.750  1.00  0.00    -0.246 OA
BRANCH   9  11
ATOM     11  C   UNL     1      -0.709  -3.942   0.903  1.00  0.00     0.065 A 
ATOM     12  C   UNL     1       1.147  -0.119   0.162  1.00  0.00     0.046 C 
ATOM     13  C   UNL     1       0.480  -1.436   0.464  1.00  0.00    -0.028 A 
ATOM     14  C   UNL     1       1.167  -2.610   0.138  1.00  0.00     0.006 A 
ATOM     15  C   UNL     1      -0.820  -1.509   1.016  1.00  0.00     0.042 A 
ATOM     16  C   UNL     1       0.575  -3.849   0.344  1.00  0.00     0.016 A 
ATOM     17  C   UNL     1      -1.415  -2.770   1.279  1.00  0.00    -0.003 A 
ATOM     18  N   UNL     1      -1.502  -0.339   1.321  1.00  0.00    -0.377 N 
ATOM     19  C   UNL     1      -2.683  -2.806   2.118  1.00  0.00     0.050 C 
ATOM     20  C   UNL     1      -2.934  -0.378   1.572  1.00  0.00     0.117 C 
ATOM     21  H   UNL     1      -1.017   0.517   1.367  1.00  0.00     0.161 HD
ATOM     22  C   UNL     1      -3.179  -1.436   2.657  1.00  0.00     0.031 C 
ATOM     23  C   UNL     1      -3.939  -3.344   1.494  1.00  0.00    -0.023 C 
ATOM     24  C   UNL     1      -4.669  -1.669   2.958  1.00  0.00     0.034 C 
ATOM     25  C   UNL     1      -5.029  -2.745   1.988  1.00  0.00    -0.030 C 
BRANCH  20  26
ATOM     26  C   UNL     1      -3.403   1.045   1.800  1.00  0.00     0.010 A 
ATOM     27  C   UNL     1      -3.566   1.870   0.667  1.00  0.00     0.009 A 
ATOM     28  C   UNL     1      -3.647   1.608   3.054  1.00  0.00     0.128 A 
ATOM     29  C   UNL     1      -3.971   3.200   0.792  1.00  0.00     0.001 A 
ATOM     30  C   UNL     1      -4.057   2.936   3.184  1.00  0.00     0.039 A 
ATOM     31  F   UNL     1      -3.499   0.887   4.173  1.00  0.00    -0.207 F 
ATOM     32  C   UNL     1      -4.219   3.733   2.053  1.00  0.00     0.003 A 
ENDBRANCH  20  26
ENDBRANCH   9  11
ENDBRANCH   8   9
ENDBRANCH   7   8
ENDBRANCH   6   7
ENDBRANCH   5   6
ENDBRANCH   4   5
ENDBRANCH   3   4
ENDBRANCH   2   3
ENDBRANCH   1   2
BRANCH   1  33
ATOM     33  C   UNL     1       0.565  -6.407   6.807  1.00  0.00     0.188 C 
BRANCH  33  34
ATOM     34  O   UNL     1       0.130  -5.099   7.159  1.00  0.00    -0.376 OA
BRANCH  34  35
ATOM     35  C   UNL     1       0.808  -4.484   8.244  1.00  0.00     0.202 C 
BRANCH  35  36
ATOM     36  C   UNL     1       2.200  -3.955   7.885  1.00  0.00     0.261 C 
BRANCH  36  37
ATOM     37  O   UNL     1       3.154  -4.957   7.499  1.00  0.00    -0.460 OA
BRANCH  37  38
ATOM     38  C   UNL     1       3.444  -5.926   8.393  1.00  0.00     0.338 C 
ATOM     39  O   UNL     1       3.023  -6.050   9.527  1.00  0.00    -0.246 OA
BRANCH  38  40
ATOM     40  C   UNL     1       4.250  -6.935   7.683  1.00  0.00     0.060 A 
ATOM     41  C   UNL     1       3.735  -8.227   7.515  1.00  0.00     0.016 A 
ATOM     42  C   UNL     1       5.497  -6.586   7.160  1.00  0.00     0.016 A 
ATOM     43  C   UNL     1       4.479  -9.183   6.826  1.00  0.00     0.010 A 
ATOM     44  C   UNL     1       6.258  -7.554   6.510  1.00  0.00     0.010 A 
ATOM     45  C   UNL     1       5.764  -8.861   6.366  1.00  0.00    -0.014 A 
BRANCH  45  46
ATOM     46  C   UNL     1       6.687  -9.942   5.962  1.00  0.00     0.031 A 
ATOM     47  C   UNL     1       7.463 -10.635   7.047  1.00  0.00     0.074 A 
ATOM     48  C   UNL     1       6.842 -10.299   4.676  1.00  0.00     0.049 A 
ATOM     49  N   UNL     1       8.363 -11.577   6.946  1.00  0.00    -0.248 NA
ATOM     50  C   UNL     1       7.181 -10.214   8.432  1.00  0.00     0.031 C 
ATOM     51  C   UNL     1       6.108  -9.740   3.543  1.00  0.00     0.029 A 
ATOM     52  N   UNL     1       7.683 -11.227   4.113  1.00  0.00    -0.354 N 
ATOM     53  C   UNL     1       8.743 -11.867   8.249  1.00  0.00     0.074 A 
ATOM     54  C   UNL     1       7.995 -10.995   9.124  1.00  0.00     0.031 C 
ATOM     55  C   UNL     1       6.537 -10.335   2.415  1.00  0.00     0.029 A 
ATOM     56  C   UNL     1       7.592 -11.292   2.745  1.00  0.00     0.049 A 
ATOM     57  H   UNL     1       8.292 -11.792   4.641  1.00  0.00     0.167 HD
ATOM     58  C   UNL     1       9.637 -12.783   8.680  1.00  0.00     0.031 A 
ATOM     59  C   UNL     1       8.296 -12.029   1.863  1.00  0.00     0.031 A 
ATOM     60  C   UNL     1      10.411 -13.624   7.814  1.00  0.00     0.049 A 
ATOM     61  C   UNL     1       9.365 -12.964   2.360  1.00  0.00     0.074 A 
ATOM     62  C   UNL     1      11.356 -14.572   8.162  1.00  0.00     0.029 A 
ATOM     63  N   UNL     1      10.334 -13.611   6.433  1.00  0.00    -0.354 N 
ATOM     64  N   UNL     1       9.717 -13.231   3.595  1.00  0.00    -0.248 NA
ATOM     65  C   UNL     1      10.138 -13.697   1.345  1.00  0.00     0.031 C 
ATOM     66  C   UNL     1      11.886 -15.103   6.984  1.00  0.00     0.029 A 
ATOM     67  C   UNL     1      11.233 -14.520   5.909  1.00  0.00     0.049 A 
ATOM     68  H   UNL     1       9.731 -13.040   5.903  1.00  0.00     0.167 HD
ATOM     69  C   UNL     1      10.734 -14.173   3.506  1.00  0.00     0.074 A 
ATOM     70  C   UNL     1      10.944 -14.436   2.098  1.00  0.00     0.031 C 
ATOM     71  C   UNL     1      11.428 -14.770   4.505  1.00  0.00     0.031 A 
BRANCH  58  72
ATOM     72  C   UNL     1       9.844 -12.908  10.157  1.00  0.00    -0.014 A 
ATOM     73  C   UNL     1       8.919 -13.601  10.953  1.00  0.00     0.009 A 
ATOM     74  C   UNL     1      11.008 -12.392  10.747  1.00  0.00     0.009 A 
ATOM     75  C   UNL     1       9.156 -13.771  12.317  1.00  0.00     0.001 A 
ATOM     76  C   UNL     1      11.249 -12.579  12.108  1.00  0.00     0.001 A 
ATOM     77  C   UNL     1      10.323 -13.267  12.891  1.00  0.00     0.000 A 
ENDBRANCH  58  72
BRANCH  59  78
ATOM     78  C   UNL     1       8.014 -11.904   0.410  1.00  0.00    -0.014 A 
ATOM     79  C   UNL     1       7.330 -12.921  -0.271  1.00  0.00     0.009 A 
ATOM     80  C   UNL     1       8.413 -10.759  -0.298  1.00  0.00     0.009 A 
ATOM     81  C   UNL     1       7.054 -12.796  -1.635  1.00  0.00     0.001 A 
ATOM     82  C   UNL     1       8.119 -10.629  -1.657  1.00  0.00     0.001 A 
ATOM     83  C   UNL     1       7.443 -11.649  -2.325  1.00  0.00     0.000 A 
ENDBRANCH  59  78
BRANCH  71  84
ATOM     84  C   UNL     1      12.472 -15.783   4.139  1.00  0.00    -0.014 A 
ATOM     85  C   UNL     1      13.740 -15.381   3.697  1.00  0.00     0.009 A 
ATOM     86  C   UNL     1      12.227 -17.145   4.375  1.00  0.00     0.009 A 
ATOM     87  C   UNL     1      14.746 -16.328   3.498  1.00  0.00     0.001 A 
ATOM     88  C   UNL     1      13.241 -18.086   4.194  1.00  0.00     0.001 A 
ATOM     89  C   UNL     1      14.499 -17.676   3.756  1.00  0.00     0.000 A 
ENDBRANCH  71  84
ENDBRANCH  45  46
ENDBRANCH  38  40
ENDBRANCH  37  38
ENDBRANCH  36  37
ENDBRANCH  35  36
ENDBRANCH  34  35
ENDBRANCH  33  34
ENDBRANCH   1  33
TORSDOF 21
