REMARK SMILES C[C@@H]1CCC[C@@]1(C(=O)OCCOCCOCCOCCOC(=O)c1ccc(-c2c3nc(c(-c4ccccc4)c4ccc([nH]4)c(-c4ccccc4)c4nc(c(-c5ccccc5)c5ccc2[nH]5)C=C4)C=C3)cc1)c1ccc(Cl)cc1Cl
REMARK SMILES IDX 16 1 15 2 14 3 13 4 12 5 11 6 10 7 9 8 7 9 8 10 6 11 1 12
REMARK SMILES IDX 2 13 3 14 4 15 5 16 72 17 73 18 78 19 74 20 77 21 79 22
REMARK SMILES IDX 75 23 76 24 17 25 18 26 19 27 20 28 21 29 22 30 23 31 24 32
REMARK SMILES IDX 25 33 71 34 26 35 70 36 27 37 28 38 29 39 64 40 30 41 69 42
REMARK SMILES IDX 63 43 65 44 31 45 68 46 62 47 61 48 32 50 54 51 39 52 53 53
REMARK SMILES IDX 40 54 43 55 52 56 66 57 41 58 42 59 51 61 67 62 44 63 33 64
REMARK SMILES IDX 34 65 38 66 35 67 37 68 36 69 55 70 56 71 60 72 57 73 59 74
REMARK SMILES IDX 58 75 45 76 46 77 50 78 47 79 49 80 48 81
REMARK H PARENT 65 49 43 60
REMARK Flexibility Score: inf
ROOT
ATOM      1  C   UNL     1       3.841   1.216  -1.387  1.00  0.00     0.188 C 
ENDROOT
BRANCH   1   2
ATOM      2  O   UNL     1       2.430   1.361  -1.562  1.00  0.00    -0.377 OA
BRANCH   2   3
ATOM      3  C   UNL     1       1.954   2.195  -2.605  1.00  0.00     0.188 C 
BRANCH   3   4
ATOM      4  C   UNL     1       1.976   3.686  -2.283  1.00  0.00     0.188 C 
BRANCH   4   5
ATOM      5  O   UNL     1       3.191   4.068  -1.665  1.00  0.00    -0.376 OA
BRANCH   5   6
ATOM      6  C   UNL     1       3.185   4.310  -0.259  1.00  0.00     0.202 C 
BRANCH   6   7
ATOM      7  C   UNL     1       1.982   4.001   0.648  1.00  0.00     0.261 C 
BRANCH   7   8
ATOM      8  O   UNL     1       1.546   2.622   0.832  1.00  0.00    -0.463 OA
BRANCH   8   9
ATOM      9  C   UNL     1       0.214   2.407   0.594  1.00  0.00     0.316 C 
ATOM     10  O   UNL     1      -0.476   3.220  -0.028  1.00  0.00    -0.251 OA
BRANCH   9  11
ATOM     11  C   UNL     1      -0.454   1.159   1.270  1.00  0.00     0.097 C 
ATOM     12  C   UNL     1       1.579  -0.404   0.548  1.00  0.00     0.009 C 
ATOM     13  C   UNL     1       0.348  -0.197   1.408  1.00  0.00     0.008 C 
ATOM     14  C   UNL     1      -0.624  -1.341   1.040  1.00  0.00     0.005 C 
ATOM     15  C   UNL     1      -1.638  -0.750   0.084  1.00  0.00     0.002 C 
ATOM     16  C   UNL     1      -1.573   0.763   0.232  1.00  0.00     0.024 C 
BRANCH  11  17
ATOM     17  C   UNL     1      -1.126   1.495   2.670  1.00  0.00    -0.012 A 
ATOM     18  C   UNL     1      -2.019   0.539   3.224  1.00  0.00     0.008 A 
ATOM     19  C   UNL     1      -0.905   2.629   3.487  1.00  0.00     0.046 A 
ATOM     20  C   UNL     1      -2.564   0.640   4.511  1.00  0.00     0.021 A 
ATOM     21  C   UNL     1      -1.465   2.737   4.777  1.00  0.00     0.041 A 
ATOM     22  Cl  UNL     1      -0.017   4.038   3.070  1.00  0.00    -0.084 Cl
ATOM     23  C   UNL     1      -2.270   1.738   5.291  1.00  0.00     0.042 A 
ATOM     24  Cl  UNL     1      -2.918   1.880   6.874  1.00  0.00    -0.084 Cl
ENDBRANCH  11  17
ENDBRANCH   9  11
ENDBRANCH   8   9
ENDBRANCH   7   8
ENDBRANCH   6   7
ENDBRANCH   5   6
ENDBRANCH   4   5
ENDBRANCH   3   4
ENDBRANCH   2   3
ENDBRANCH   1   2
BRANCH   1  25
ATOM     25  C   UNL     1       4.688   1.099  -2.650  1.00  0.00     0.188 C 
BRANCH  25  26
ATOM     26  O   UNL     1       4.257   0.161  -3.635  1.00  0.00    -0.376 OA
BRANCH  26  27
ATOM     27  C   UNL     1       3.579  -1.018  -3.209  1.00  0.00     0.202 C 
BRANCH  27  28
ATOM     28  C   UNL     1       4.484  -2.154  -2.735  1.00  0.00     0.261 C 
BRANCH  28  29
ATOM     29  O   UNL     1       5.033  -1.903  -1.429  1.00  0.00    -0.460 OA
BRANCH  29  30
ATOM     30  C   UNL     1       6.327  -1.513  -1.425  1.00  0.00     0.338 C 
ATOM     31  O   UNL     1       7.053  -1.348  -2.389  1.00  0.00    -0.246 OA
BRANCH  30  32
ATOM     32  C   UNL     1       6.772  -1.213  -0.051  1.00  0.00     0.060 A 
ATOM     33  C   UNL     1       7.553  -0.067   0.139  1.00  0.00     0.016 A 
ATOM     34  C   UNL     1       6.574  -2.122   0.993  1.00  0.00     0.016 A 
ATOM     35  C   UNL     1       8.219   0.127   1.345  1.00  0.00     0.010 A 
ATOM     36  C   UNL     1       7.247  -1.929   2.203  1.00  0.00     0.010 A 
ATOM     37  C   UNL     1       8.121  -0.838   2.356  1.00  0.00    -0.014 A 
BRANCH  37  38
ATOM     38  C   UNL     1       9.118  -0.826   3.453  1.00  0.00     0.031 A 
ATOM     39  C   UNL     1      10.343  -1.692   3.316  1.00  0.00     0.074 A 
ATOM     40  C   UNL     1       8.975  -0.017   4.516  1.00  0.00     0.049 A 
ATOM     41  N   UNL     1      11.359  -1.829   4.129  1.00  0.00    -0.248 NA
ATOM     42  C   UNL     1      10.433  -2.513   2.096  1.00  0.00     0.031 C 
ATOM     43  C   UNL     1       7.862   0.904   4.736  1.00  0.00     0.029 A 
ATOM     44  N   UNL     1       9.785   0.161   5.607  1.00  0.00    -0.354 N 
ATOM     45  C   UNL     1      12.204  -2.750   3.521  1.00  0.00     0.074 A 
ATOM     46  C   UNL     1      11.570  -3.164   2.290  1.00  0.00     0.031 C 
ATOM     47  C   UNL     1       8.061   1.554   5.897  1.00  0.00     0.029 A 
ATOM     48  C   UNL     1       9.300   1.076   6.508  1.00  0.00     0.049 A 
ATOM     49  H   UNL     1      10.634  -0.321   5.734  1.00  0.00     0.167 HD
ATOM     50  C   UNL     1      13.407  -3.207   3.943  1.00  0.00     0.031 A 
ATOM     51  C   UNL     1       9.799   1.474   7.693  1.00  0.00     0.031 A 
ATOM     52  C   UNL     1      14.035  -2.808   5.173  1.00  0.00     0.049 A 
ATOM     53  C   UNL     1      11.107   0.905   8.173  1.00  0.00     0.074 A 
ATOM     54  C   UNL     1      15.249  -3.217   5.696  1.00  0.00     0.029 A 
ATOM     55  N   UNL     1      13.493  -1.905   6.073  1.00  0.00    -0.354 N 
ATOM     56  N   UNL     1      11.901   0.043   7.584  1.00  0.00    -0.248 NA
ATOM     57  C   UNL     1      11.594   1.379   9.476  1.00  0.00     0.031 C 
ATOM     58  C   UNL     1      15.421  -2.593   6.937  1.00  0.00     0.029 A 
ATOM     59  C   UNL     1      14.339  -1.754   7.157  1.00  0.00     0.049 A 
ATOM     60  H   UNL     1      12.632  -1.440   5.959  1.00  0.00     0.167 HD
ATOM     61  C   UNL     1      12.996  -0.101   8.427  1.00  0.00     0.074 A 
ATOM     62  C   UNL     1      12.768   0.768   9.563  1.00  0.00     0.031 C 
ATOM     63  C   UNL     1      14.096  -0.879   8.274  1.00  0.00     0.031 A 
BRANCH  50  64
ATOM     64  C   UNL     1      14.100  -4.220   3.075  1.00  0.00    -0.014 A 
ATOM     65  C   UNL     1      14.679  -3.856   1.849  1.00  0.00     0.009 A 
ATOM     66  C   UNL     1      14.181  -5.556   3.495  1.00  0.00     0.009 A 
ATOM     67  C   UNL     1      15.293  -4.818   1.044  1.00  0.00     0.001 A 
ATOM     68  C   UNL     1      14.819  -6.511   2.701  1.00  0.00     0.001 A 
ATOM     69  C   UNL     1      15.365  -6.143   1.472  1.00  0.00     0.000 A 
ENDBRANCH  50  64
BRANCH  51  70
ATOM     70  C   UNL     1       9.058   2.464   8.517  1.00  0.00    -0.014 A 
ATOM     71  C   UNL     1       9.552   3.766   8.691  1.00  0.00     0.009 A 
ATOM     72  C   UNL     1       7.860   2.102   9.152  1.00  0.00     0.009 A 
ATOM     73  C   UNL     1       8.874   4.676   9.505  1.00  0.00     0.001 A 
ATOM     74  C   UNL     1       7.170   3.023   9.944  1.00  0.00     0.001 A 
ATOM     75  C   UNL     1       7.683   4.306  10.128  1.00  0.00     0.000 A 
ENDBRANCH  51  70
BRANCH  63  76
ATOM     76  C   UNL     1      15.157  -0.785   9.334  1.00  0.00    -0.014 A 
ATOM     77  C   UNL     1      14.972  -1.341  10.609  1.00  0.00     0.009 A 
ATOM     78  C   UNL     1      16.376  -0.155   9.036  1.00  0.00     0.009 A 
ATOM     79  C   UNL     1      15.973  -1.234  11.577  1.00  0.00     0.001 A 
ATOM     80  C   UNL     1      17.386  -0.075   9.996  1.00  0.00     0.001 A 
ATOM     81  C   UNL     1      17.179  -0.605  11.268  1.00  0.00     0.000 A 
ENDBRANCH  63  76
ENDBRANCH  37  38
ENDBRANCH  30  32
ENDBRANCH  29  30
ENDBRANCH  28  29
ENDBRANCH  27  28
ENDBRANCH  26  27
ENDBRANCH  25  26
ENDBRANCH   1  25
TORSDOF 21
