REMARK SMILES CCCCCCNC(=O)Oc1cccc(-c2ccc([C@@H](C)C(=O)OCCOCCOCCOCCOC(=O)c3ccc(-c4c5nc(c(-c6ccccc6)c6ccc([nH]6)c(-c6ccccc6)c6nc(c(-c7ccccc7)c7ccc4[nH]7)C=C6)C=C5)cc3)cc2N)c1
REMARK SMILES IDX 26 1 25 2 24 3 22 4 23 5 20 6 21 7 19 8 16 9 17 10 88 11
REMARK SMILES IDX 18 12 87 13 15 14 11 15 12 16 90 17 13 18 14 19 10 20 8 21
REMARK SMILES IDX 7 22 9 24 6 25 5 26 4 27 3 28 2 29 1 30 89 31 27 34 28 35
REMARK SMILES IDX 29 36 30 37 31 38 32 39 33 40 34 41 35 42 36 43 37 44 38 45
REMARK SMILES IDX 39 46 40 47 86 48 41 49 85 50 42 51 43 52 44 53 79 54 45 55
REMARK SMILES IDX 84 56 78 57 80 58 46 59 83 60 77 61 76 62 47 64 69 65 54 66
REMARK SMILES IDX 68 67 55 68 58 69 67 70 81 71 56 72 57 73 66 75 82 76 59 77
REMARK SMILES IDX 48 78 49 79 53 80 50 81 52 82 51 83 70 84 71 85 75 86 72 87
REMARK SMILES IDX 74 88 73 89 60 90 61 91 65 92 62 93 64 94 63 95
REMARK H PARENT 7 23 89 32 89 33 80 63 58 74
REMARK Flexibility Score: inf
ROOT
ATOM      1  C   UNL     1      -1.373 -11.747  10.441  1.00  0.00     0.202 C 
ENDROOT
BRANCH   1   2
ATOM      2  C   UNL     1      -2.876 -12.024  10.637  1.00  0.00     0.261 C 
BRANCH   2   3
ATOM      3  O   UNL     1      -3.802 -11.105  10.018  1.00  0.00    -0.463 OA
BRANCH   3   4
ATOM      4  C   UNL     1      -4.422 -10.235  10.847  1.00  0.00     0.313 C 
ATOM      5  O   UNL     1      -4.252 -10.225  12.066  1.00  0.00    -0.252 OA
BRANCH   4   6
ATOM      6  C   UNL     1      -5.401  -9.262  10.192  1.00  0.00     0.126 C 
ATOM      7  C   UNL     1      -6.818  -9.679  10.570  1.00  0.00     0.025 C 
BRANCH   6   8
ATOM      8  C   UNL     1      -5.308  -8.911   8.706  1.00  0.00    -0.032 A 
ATOM      9  C   UNL     1      -5.135  -8.096   5.956  1.00  0.00     0.005 A 
ATOM     10  C   UNL     1      -5.347  -9.442   6.331  1.00  0.00     0.011 A 
ATOM     11  C   UNL     1      -5.004  -7.144   6.991  1.00  0.00     0.040 A 
ATOM     12  C   UNL     1      -5.439  -9.844   7.677  1.00  0.00     0.005 A 
ATOM     13  C   UNL     1      -5.080  -7.566   8.334  1.00  0.00     0.030 A 
BRANCH   9  14
ATOM     14  C   UNL     1      -5.158  -7.720   4.516  1.00  0.00    -0.013 A 
ATOM     15  C   UNL     1      -4.242  -6.572   2.572  1.00  0.00     0.133 A 
ATOM     16  C   UNL     1      -5.385  -6.856   1.828  1.00  0.00     0.047 A 
ATOM     17  C   UNL     1      -4.113  -7.005   3.898  1.00  0.00     0.056 A 
ATOM     18  C   UNL     1      -6.410  -7.593   2.410  1.00  0.00     0.004 A 
ATOM     19  C   UNL     1      -6.298  -8.013   3.740  1.00  0.00     0.009 A 
BRANCH  15  20
ATOM     20  O   UNL     1      -3.321  -5.688   1.975  1.00  0.00    -0.410 OA
BRANCH  20  21
ATOM     21  C   UNL     1      -1.968  -5.986   1.978  1.00  0.00     0.412 C 
ATOM     22  N   UNL     1      -1.199  -5.007   1.406  1.00  0.00    -0.321 N 
ATOM     23  H   UNL     1      -0.228  -5.167   1.390  1.00  0.00     0.167 HD
ATOM     24  O   UNL     1      -1.459  -7.009   2.421  1.00  0.00    -0.224 OA
BRANCH  22  25
ATOM     25  C   UNL     1      -1.655  -3.758   0.820  1.00  0.00     0.119 C 
BRANCH  25  26
ATOM     26  C   UNL     1      -1.056  -2.537   1.521  1.00  0.00     0.021 C 
BRANCH  26  27
ATOM     27  C   UNL     1       0.472  -2.426   1.439  1.00  0.00     0.002 C 
BRANCH  27  28
ATOM     28  C   UNL     1       1.055  -2.322   0.025  1.00  0.00    -0.000 C 
BRANCH  28  29
ATOM     29  C   UNL     1       0.589  -1.116  -0.793  1.00  0.00    -0.003 C 
ATOM     30  C   UNL     1       0.995   0.219  -0.187  1.00  0.00     0.004 C 
ENDBRANCH  28  29
ENDBRANCH  27  28
ENDBRANCH  26  27
ENDBRANCH  25  26
ENDBRANCH  22  25
ENDBRANCH  20  21
ENDBRANCH  15  20
ENDBRANCH   9  14
BRANCH  11  31
ATOM     31  N   UNL     1      -4.702  -5.804   6.742  1.00  0.00    -0.398 N 
ATOM     32  H   UNL     1      -4.641  -5.477   5.815  1.00  0.00     0.156 HD
ATOM     33  H   UNL     1      -4.549  -5.186   7.493  1.00  0.00     0.156 HD
ENDBRANCH  11  31
ENDBRANCH   6   8
ENDBRANCH   4   6
ENDBRANCH   3   4
ENDBRANCH   2   3
ENDBRANCH   1   2
BRANCH   1  34
ATOM     34  O   UNL     1      -0.823 -10.464  10.700  1.00  0.00    -0.376 OA
BRANCH  34  35
ATOM     35  C   UNL     1      -1.380  -9.299  10.105  1.00  0.00     0.188 C 
BRANCH  35  36
ATOM     36  C   UNL     1      -1.944  -9.329   8.677  1.00  0.00     0.188 C 
BRANCH  36  37
ATOM     37  O   UNL     1      -2.023 -10.613   8.092  1.00  0.00    -0.377 OA
BRANCH  37  38
ATOM     38  C   UNL     1      -1.036 -10.920   7.123  1.00  0.00     0.188 C 
BRANCH  38  39
ATOM     39  C   UNL     1       0.407 -10.481   7.435  1.00  0.00     0.188 C 
BRANCH  39  40
ATOM     40  O   UNL     1       0.536  -9.096   7.737  1.00  0.00    -0.376 OA
BRANCH  40  41
ATOM     41  C   UNL     1       0.899  -8.198   6.697  1.00  0.00     0.202 C 
BRANCH  41  42
ATOM     42  C   UNL     1      -0.073  -7.991   5.523  1.00  0.00     0.261 C 
BRANCH  42  43
ATOM     43  O   UNL     1      -0.459  -9.158   4.787  1.00  0.00    -0.460 OA
BRANCH  43  44
ATOM     44  C   UNL     1       0.501  -9.916   4.217  1.00  0.00     0.338 C 
ATOM     45  O   UNL     1       1.696  -9.729   4.223  1.00  0.00    -0.246 OA
BRANCH  44  46
ATOM     46  C   UNL     1      -0.160 -11.160   3.754  1.00  0.00     0.060 A 
ATOM     47  C   UNL     1       0.258 -12.394   4.272  1.00  0.00     0.016 A 
ATOM     48  C   UNL     1      -1.198 -11.098   2.824  1.00  0.00     0.016 A 
ATOM     49  C   UNL     1      -0.335 -13.579   3.828  1.00  0.00     0.010 A 
ATOM     50  C   UNL     1      -1.769 -12.283   2.358  1.00  0.00     0.010 A 
ATOM     51  C   UNL     1      -1.315 -13.529   2.829  1.00  0.00    -0.014 A 
BRANCH  51  52
ATOM     52  C   UNL     1      -1.696 -14.752   2.083  1.00  0.00     0.031 A 
ATOM     53  C   UNL     1      -1.003 -15.007   0.772  1.00  0.00     0.074 A 
ATOM     54  C   UNL     1      -2.652 -15.590   2.518  1.00  0.00     0.049 A 
ATOM     55  N   UNL     1      -1.277 -15.883  -0.159  1.00  0.00    -0.248 NA
ATOM     56  C   UNL     1       0.150 -14.142   0.467  1.00  0.00     0.031 C 
ATOM     57  C   UNL     1      -3.346 -15.498   3.800  1.00  0.00     0.029 A 
ATOM     58  N   UNL     1      -3.222 -16.677   1.901  1.00  0.00    -0.354 N 
ATOM     59  C   UNL     1      -0.352 -15.654  -1.169  1.00  0.00     0.074 A 
ATOM     60  C   UNL     1       0.483 -14.552  -0.747  1.00  0.00     0.031 C 
ATOM     61  C   UNL     1      -4.273 -16.472   3.862  1.00  0.00     0.029 A 
ATOM     62  C   UNL     1      -4.270 -17.219   2.604  1.00  0.00     0.049 A 
ATOM     63  H   UNL     1      -2.910 -17.033   1.038  1.00  0.00     0.167 HD
ATOM     64  C   UNL     1      -0.215 -16.299  -2.351  1.00  0.00     0.031 A 
ATOM     65  C   UNL     1      -5.152 -18.176   2.251  1.00  0.00     0.031 A 
ATOM     66  C   UNL     1      -1.059 -17.382  -2.774  1.00  0.00     0.049 A 
ATOM     67  C   UNL     1      -5.043 -18.817   0.888  1.00  0.00     0.074 A 
ATOM     68  C   UNL     1      -1.000 -18.108  -3.950  1.00  0.00     0.029 A 
ATOM     69  N   UNL     1      -2.119 -17.887  -2.039  1.00  0.00    -0.354 N 
ATOM     70  N   UNL     1      -4.164 -18.600  -0.061  1.00  0.00    -0.248 NA
ATOM     71  C   UNL     1      -6.050 -19.834   0.547  1.00  0.00     0.031 C 
ATOM     72  C   UNL     1      -2.067 -19.010  -3.954  1.00  0.00     0.029 A 
ATOM     73  C   UNL     1      -2.739 -18.899  -2.747  1.00  0.00     0.049 A 
ATOM     74  H   UNL     1      -2.389 -17.572  -1.146  1.00  0.00     0.167 HD
ATOM     75  C   UNL     1      -4.483 -19.484  -1.086  1.00  0.00     0.074 A 
ATOM     76  C   UNL     1      -5.637 -20.238  -0.647  1.00  0.00     0.031 C 
ATOM     77  C   UNL     1      -3.869 -19.660  -2.282  1.00  0.00     0.031 A 
BRANCH  64  78
ATOM     78  C   UNL     1       0.853 -15.814  -3.290  1.00  0.00    -0.014 A 
ATOM     79  C   UNL     1       2.215 -16.006  -3.014  1.00  0.00     0.009 A 
ATOM     80  C   UNL     1       0.484 -15.185  -4.489  1.00  0.00     0.009 A 
ATOM     81  C   UNL     1       3.187 -15.550  -3.908  1.00  0.00     0.001 A 
ATOM     82  C   UNL     1       1.456 -14.760  -5.396  1.00  0.00     0.001 A 
ATOM     83  C   UNL     1       2.806 -14.934  -5.100  1.00  0.00     0.000 A 
ENDBRANCH  64  78
BRANCH  65  84
ATOM     84  C   UNL     1      -6.250 -18.566   3.177  1.00  0.00    -0.014 A 
ATOM     85  C   UNL     1      -6.290 -19.850   3.743  1.00  0.00     0.009 A 
ATOM     86  C   UNL     1      -7.288 -17.667   3.473  1.00  0.00     0.009 A 
ATOM     87  C   UNL     1      -7.358 -20.235   4.557  1.00  0.00     0.001 A 
ATOM     88  C   UNL     1      -8.338 -18.044   4.314  1.00  0.00     0.001 A 
ATOM     89  C   UNL     1      -8.379 -19.331   4.846  1.00  0.00     0.000 A 
ENDBRANCH  65  84
BRANCH  77  90
ATOM     90  C   UNL     1      -4.368 -20.759  -3.179  1.00  0.00    -0.014 A 
ATOM     91  C   UNL     1      -5.572 -20.644  -3.889  1.00  0.00     0.009 A 
ATOM     92  C   UNL     1      -3.556 -21.886  -3.393  1.00  0.00     0.009 A 
ATOM     93  C   UNL     1      -5.958 -21.645  -4.784  1.00  0.00     0.001 A 
ATOM     94  C   UNL     1      -3.929 -22.867  -4.310  1.00  0.00     0.001 A 
ATOM     95  C   UNL     1      -5.132 -22.748  -5.002  1.00  0.00     0.000 A 
ENDBRANCH  77  90
ENDBRANCH  51  52
ENDBRANCH  44  46
ENDBRANCH  43  44
ENDBRANCH  42  43
ENDBRANCH  41  42
ENDBRANCH  40  41
ENDBRANCH  39  40
ENDBRANCH  38  39
ENDBRANCH  37  38
ENDBRANCH  36  37
ENDBRANCH  35  36
ENDBRANCH  34  35
ENDBRANCH   1  34
TORSDOF 30
