REMARK SMILES CCC[C@]1(C(=O)OCCOCCOCCOCCOC(=O)c2ccc(-c3c4nc(c(-c5ccccc5)c5ccc([nH]5)c(-c5ccccc5)c5nc(c(-c6ccccc6)c6ccc3[nH]6)C=C5)C=C4)cc2)CCC[N@@H+](C[C@@H]2C[N@@H+](C)CCO2)C1
REMARK SMILES IDX 13 1 12 2 11 3 10 4 9 5 8 6 7 7 5 8 6 9 4 10 70 11 82 12
REMARK SMILES IDX 71 13 73 14 72 15 3 17 2 18 1 19 74 20 75 21 76 22 81 23
REMARK SMILES IDX 77 24 80 25 78 26 79 27 14 29 15 30 16 31 17 32 18 33 19 34
REMARK SMILES IDX 20 35 21 36 22 37 23 38 69 39 24 40 68 41 25 42 26 43 27 44
REMARK SMILES IDX 62 45 28 46 67 47 61 48 63 49 29 50 66 51 60 52 59 53 30 55
REMARK SMILES IDX 52 56 37 57 51 58 38 59 41 60 50 61 64 62 39 63 40 64 49 66
REMARK SMILES IDX 65 67 42 68 31 69 32 70 36 71 33 72 35 73 34 74 53 75 54 76
REMARK SMILES IDX 58 77 55 78 57 79 56 80 43 81 44 82 48 83 45 84 47 85 46 86
REMARK H PARENT 73 16 77 28 63 54 41 65
REMARK Flexibility Score: inf
ROOT
ATOM      1  O   UNL     1      -1.892   1.592  -5.433  1.00  0.00    -0.377 OA
ENDROOT
BRANCH   1   2
ATOM      2  C   UNL     1      -1.636   2.474  -4.358  1.00  0.00     0.188 C 
BRANCH   2   3
ATOM      3  C   UNL     1      -0.607   3.587  -4.621  1.00  0.00     0.188 C 
BRANCH   3   4
ATOM      4  O   UNL     1      -0.040   3.758  -5.912  1.00  0.00    -0.376 OA
BRANCH   4   5
ATOM      5  C   UNL     1       0.254   2.625  -6.712  1.00  0.00     0.202 C 
BRANCH   5   6
ATOM      6  C   UNL     1       1.073   1.455  -6.143  1.00  0.00     0.261 C 
BRANCH   6   7
ATOM      7  O   UNL     1       0.721   0.982  -4.825  1.00  0.00    -0.463 OA
BRANCH   7   8
ATOM      8  C   UNL     1       1.591   1.296  -3.834  1.00  0.00     0.317 C 
ATOM      9  O   UNL     1       2.616   1.946  -4.034  1.00  0.00    -0.251 OA
BRANCH   8  10
ATOM     10  C   UNL     1       1.255   0.704  -2.428  1.00  0.00     0.117 C 
ATOM     11  C   UNL     1      -0.210   0.300  -2.163  1.00  0.00     0.030 C 
ATOM     12  C   UNL     1       2.142  -0.568  -2.448  1.00  0.00     0.281 C 
ATOM     13  C   UNL     1      -0.398  -0.680  -1.012  1.00  0.00     0.063 C 
ATOM     14  N   UNL     1       1.874  -1.663  -1.510  1.00  0.00    -0.332 N 
ATOM     15  C   UNL     1       0.477  -1.892  -1.193  1.00  0.00     0.262 C 
ATOM     16  H   UNL     1       2.303  -1.351  -0.639  1.00  0.00     0.348 HD
BRANCH  10  17
ATOM     17  C   UNL     1       1.692   1.867  -1.471  1.00  0.00     0.024 C 
BRANCH  17  18
ATOM     18  C   UNL     1       1.214   1.963  -0.024  1.00  0.00    -0.002 C 
ATOM     19  C   UNL     1       1.947   1.036   0.924  1.00  0.00     0.004 C 
ENDBRANCH  17  18
ENDBRANCH  10  17
BRANCH  14  20
ATOM     20  C   UNL     1       2.499  -2.937  -1.977  1.00  0.00     0.300 C 
BRANCH  20  21
ATOM     21  C   UNL     1       1.891  -3.914  -3.071  1.00  0.00     0.228 C 
ATOM     22  C   UNL     1       1.554  -3.359  -4.466  1.00  0.00     0.300 C 
ATOM     23  O   UNL     1       0.881  -4.819  -2.584  1.00  0.00    -0.361 OA
ATOM     24  N   UNL     1       0.257  -2.680  -4.494  1.00  0.00    -0.333 N 
ATOM     25  C   UNL     1      -0.487  -4.519  -2.881  1.00  0.00     0.222 C 
ATOM     26  C   UNL     1      -0.020  -2.100  -5.805  1.00  0.00     0.332 C 
ATOM     27  C   UNL     1      -0.795  -3.632  -4.112  1.00  0.00     0.290 C 
ATOM     28  H   UNL     1       0.278  -1.909  -3.826  1.00  0.00     0.348 HD
ENDBRANCH  20  21
ENDBRANCH  14  20
ENDBRANCH   8  10
ENDBRANCH   7   8
ENDBRANCH   6   7
ENDBRANCH   5   6
ENDBRANCH   4   5
ENDBRANCH   3   4
ENDBRANCH   2   3
ENDBRANCH   1   2
BRANCH   1  29
ATOM     29  C   UNL     1      -3.097   1.829  -6.141  1.00  0.00     0.188 C 
BRANCH  29  30
ATOM     30  C   UNL     1      -3.403   3.299  -6.482  1.00  0.00     0.188 C 
BRANCH  30  31
ATOM     31  O   UNL     1      -3.370   4.164  -5.353  1.00  0.00    -0.376 OA
BRANCH  31  32
ATOM     32  C   UNL     1      -4.574   4.497  -4.681  1.00  0.00     0.202 C 
BRANCH  32  33
ATOM     33  C   UNL     1      -5.350   3.385  -3.956  1.00  0.00     0.261 C 
BRANCH  33  34
ATOM     34  O   UNL     1      -5.736   2.247  -4.737  1.00  0.00    -0.460 OA
BRANCH  34  35
ATOM     35  C   UNL     1      -6.475   2.459  -5.849  1.00  0.00     0.338 C 
ATOM     36  O   UNL     1      -6.909   3.508  -6.262  1.00  0.00    -0.246 OA
BRANCH  35  37
ATOM     37  C   UNL     1      -6.500   1.179  -6.590  1.00  0.00     0.060 A 
ATOM     38  C   UNL     1      -5.980   1.127  -7.891  1.00  0.00     0.016 A 
ATOM     39  C   UNL     1      -7.029   0.037  -5.988  1.00  0.00     0.016 A 
ATOM     40  C   UNL     1      -6.025  -0.065  -8.614  1.00  0.00     0.010 A 
ATOM     41  C   UNL     1      -7.102  -1.146  -6.720  1.00  0.00     0.010 A 
ATOM     42  C   UNL     1      -6.638  -1.189  -8.047  1.00  0.00    -0.014 A 
BRANCH  42  43
ATOM     43  C   UNL     1      -7.052  -2.325  -8.899  1.00  0.00     0.031 A 
ATOM     44  C   UNL     1      -8.470  -2.329  -9.399  1.00  0.00     0.074 A 
ATOM     45  C   UNL     1      -6.223  -3.344  -9.178  1.00  0.00     0.049 A 
ATOM     46  N   UNL     1      -9.140  -3.281  -9.992  1.00  0.00    -0.248 NA
ATOM     47  C   UNL     1      -9.239  -1.090  -9.184  1.00  0.00     0.031 C 
ATOM     48  C   UNL     1      -4.812  -3.420  -8.808  1.00  0.00     0.029 A 
ATOM     49  N   UNL     1      -6.471  -4.529  -9.823  1.00  0.00    -0.354 N 
ATOM     50  C   UNL     1     -10.415  -2.766 -10.194  1.00  0.00     0.074 A 
ATOM     51  C   UNL     1     -10.431  -1.429  -9.647  1.00  0.00     0.031 C 
ATOM     52  C   UNL     1      -4.323  -4.607  -9.210  1.00  0.00     0.029 A 
ATOM     53  C   UNL     1      -5.400  -5.388  -9.817  1.00  0.00     0.049 A 
ATOM     54  H   UNL     1      -7.333  -4.742 -10.249  1.00  0.00     0.167 HD
ATOM     55  C   UNL     1     -11.480  -3.360 -10.778  1.00  0.00     0.031 A 
ATOM     56  C   UNL     1      -5.319  -6.672 -10.218  1.00  0.00     0.031 A 
ATOM     57  C   UNL     1     -11.461  -4.698 -11.300  1.00  0.00     0.049 A 
ATOM     58  C   UNL     1      -6.545  -7.347 -10.781  1.00  0.00     0.074 A 
ATOM     59  C   UNL     1     -12.484  -5.397 -11.915  1.00  0.00     0.029 A 
ATOM     60  N   UNL     1     -10.361  -5.540 -11.260  1.00  0.00    -0.354 N 
ATOM     61  N   UNL     1      -7.747  -6.857 -10.972  1.00  0.00    -0.248 NA
ATOM     62  C   UNL     1      -6.401  -8.754 -11.186  1.00  0.00     0.031 C 
ATOM     63  C   UNL     1     -12.020  -6.686 -12.191  1.00  0.00     0.029 A 
ATOM     64  C   UNL     1     -10.687  -6.762 -11.819  1.00  0.00     0.049 A 
ATOM     65  H   UNL     1      -9.481  -5.304 -10.889  1.00  0.00     0.167 HD
ATOM     66  C   UNL     1      -8.486  -7.878 -11.560  1.00  0.00     0.074 A 
ATOM     67  C   UNL     1      -7.598  -9.014 -11.692  1.00  0.00     0.031 C 
ATOM     68  C   UNL     1      -9.780  -7.873 -11.962  1.00  0.00     0.031 A 
BRANCH  55  69
ATOM     69  C   UNL     1     -12.764  -2.582 -10.830  1.00  0.00    -0.014 A 
ATOM     70  C   UNL     1     -12.907  -1.453 -11.653  1.00  0.00     0.009 A 
ATOM     71  C   UNL     1     -13.857  -2.997 -10.053  1.00  0.00     0.009 A 
ATOM     72  C   UNL     1     -14.105  -0.737 -11.668  1.00  0.00     0.001 A 
ATOM     73  C   UNL     1     -15.064  -2.299 -10.095  1.00  0.00     0.001 A 
ATOM     74  C   UNL     1     -15.184  -1.163 -10.894  1.00  0.00     0.000 A 
ENDBRANCH  55  69
BRANCH  56  75
ATOM     75  C   UNL     1      -4.042  -7.421 -10.075  1.00  0.00    -0.014 A 
ATOM     76  C   UNL     1      -3.320  -7.827 -11.208  1.00  0.00     0.009 A 
ATOM     77  C   UNL     1      -3.550  -7.759  -8.803  1.00  0.00     0.009 A 
ATOM     78  C   UNL     1      -2.150  -8.578 -11.072  1.00  0.00     0.001 A 
ATOM     79  C   UNL     1      -2.362  -8.482  -8.670  1.00  0.00     0.001 A 
ATOM     80  C   UNL     1      -1.669  -8.900  -9.804  1.00  0.00     0.000 A 
ENDBRANCH  56  75
BRANCH  68  81
ATOM     81  C   UNL     1     -10.305  -9.099 -12.657  1.00  0.00    -0.014 A 
ATOM     82  C   UNL     1     -10.574 -10.286 -11.961  1.00  0.00     0.009 A 
ATOM     83  C   UNL     1     -10.614  -9.028 -14.026  1.00  0.00     0.009 A 
ATOM     84  C   UNL     1     -11.122 -11.384 -12.628  1.00  0.00     0.001 A 
ATOM     85  C   UNL     1     -11.191 -10.115 -14.682  1.00  0.00     0.001 A 
ATOM     86  C   UNL     1     -11.438 -11.295 -13.984  1.00  0.00     0.000 A 
ENDBRANCH  68  81
ENDBRANCH  42  43
ENDBRANCH  35  37
ENDBRANCH  34  35
ENDBRANCH  33  34
ENDBRANCH  32  33
ENDBRANCH  31  32
ENDBRANCH  30  31
ENDBRANCH  29  30
ENDBRANCH   1  29
TORSDOF 24
