REMARK SMILES O=C(OCCOCCOCCOCCOC(=O)c1ccc(-c2c3nc(c(-c4ccccc4)c4ccc([nH]4)c(-c4ccccc4)c4nc(c(-c5ccccc5)c5ccc2[nH]5)C=C4)C=C3)cc1)C1=Cc2c(Cl)ccc(Cl)c2O[C@@H]1C(F)(F)F
REMARK SMILES IDX 10 1 9 2 8 3 7 4 6 5 5 6 4 7 3 8 2 9 1 10 66 11 67 12 77 13
REMARK SMILES IDX 68 14 76 15 69 16 75 17 70 18 71 19 73 20 72 21 74 22 78 23
REMARK SMILES IDX 79 24 80 25 81 26 11 27 12 28 13 29 14 30 15 31 16 32 17 33
REMARK SMILES IDX 18 34 19 35 65 36 20 37 64 38 21 39 22 40 23 41 58 42 24 43
REMARK SMILES IDX 63 44 57 45 59 46 25 47 62 48 56 49 55 50 26 52 48 53 33 54
REMARK SMILES IDX 47 55 34 56 37 57 46 58 60 59 35 60 36 61 45 63 61 64 38 65
REMARK SMILES IDX 27 66 28 67 32 68 29 69 31 70 30 71 49 72 50 73 54 74 51 75
REMARK SMILES IDX 53 76 52 77 39 78 40 79 44 80 41 81 43 82 42 83
REMARK H PARENT 59 51 37 62
REMARK Flexibility Score: inf
ROOT
ATOM      1  C   UNL     1       4.177   3.695   0.616  1.00  0.00     0.188 C 
ENDROOT
BRANCH   1   2
ATOM      2  O   UNL     1       2.845   4.067   0.876  1.00  0.00    -0.377 OA
BRANCH   2   3
ATOM      3  C   UNL     1       1.950   2.990   0.721  1.00  0.00     0.188 C 
BRANCH   3   4
ATOM      4  C   UNL     1       2.220   1.791   1.639  1.00  0.00     0.188 C 
BRANCH   4   5
ATOM      5  O   UNL     1       3.529   1.134   1.769  1.00  0.00    -0.376 OA
BRANCH   5   6
ATOM      6  C   UNL     1       4.265  -0.100   0.947  1.00  0.00     0.202 C 
BRANCH   6   7
ATOM      7  C   UNL     1       3.520  -1.174  -0.784  1.00  0.00     0.261 C 
BRANCH   7   8
ATOM      8  O   UNL     1       2.611  -2.382  -0.782  1.00  0.00    -0.460 OA
BRANCH   8   9
ATOM      9  C   UNL     1       2.826  -3.170   0.278  1.00  0.00     0.338 C 
ATOM     10  O   UNL     1       2.172  -4.114   0.646  1.00  0.00    -0.246 OA
BRANCH   9  11
ATOM     11  C   UNL     1       3.694  -2.261   1.012  1.00  0.00     0.087 C 
ATOM     12  C   UNL     1       5.067  -2.195   0.489  1.00  0.00     0.029 C 
ATOM     13  C   UNL     1       2.427  -0.822   0.922  1.00  0.00     0.316 C 
ATOM     14  C   UNL     1       5.722  -0.846  -0.530  1.00  0.00     0.037 A 
ATOM     15  O   UNL     1       3.037   0.587  -0.272  1.00  0.00    -0.474 OA
ATOM     16  C   UNL     1       6.987  -0.912  -1.070  1.00  0.00     0.052 A 
ATOM     17  C   UNL     1       4.720   0.491  -1.008  1.00  0.00     0.148 A 
ATOM     18  Cl  UNL     1       8.075  -2.202  -0.774  1.00  0.00    -0.084 Cl
ATOM     19  C   UNL     1       7.347   0.131  -1.946  1.00  0.00     0.023 A 
ATOM     20  C   UNL     1       5.142   1.430  -1.921  1.00  0.00     0.083 A 
ATOM     21  C   UNL     1       6.478   1.229  -2.349  1.00  0.00     0.026 A 
ATOM     22  Cl  UNL     1       4.189   2.659  -2.608  1.00  0.00    -0.080 Cl
BRANCH  13  23
ATOM     23  C   UNL     1       2.131  -0.849   2.559  1.00  0.00     0.430 C 
ATOM     24  F   UNL     1       1.248   0.034   3.057  1.00  0.00    -0.167 F 
ATOM     25  F   UNL     1       1.570  -2.067   2.831  1.00  0.00    -0.167 F 
ATOM     26  F   UNL     1       3.239  -0.813   3.340  1.00  0.00    -0.167 F 
ENDBRANCH  13  23
ENDBRANCH   9  11
ENDBRANCH   8   9
ENDBRANCH   7   8
ENDBRANCH   6   7
ENDBRANCH   5   6
ENDBRANCH   4   5
ENDBRANCH   3   4
ENDBRANCH   2   3
ENDBRANCH   1   2
BRANCH   1  27
ATOM     27  C   UNL     1       5.149   3.764   1.798  1.00  0.00     0.188 C 
BRANCH  27  28
ATOM     28  O   UNL     1       4.718   3.797   3.147  1.00  0.00    -0.376 OA
BRANCH  28  29
ATOM     29  C   UNL     1       3.514   4.438   3.524  1.00  0.00     0.202 C 
BRANCH  29  30
ATOM     30  C   UNL     1       3.259   5.928   3.239  1.00  0.00     0.261 C 
BRANCH  30  31
ATOM     31  O   UNL     1       3.502   6.377   1.899  1.00  0.00    -0.460 OA
BRANCH  31  32
ATOM     32  C   UNL     1       4.742   6.847   1.645  1.00  0.00     0.338 C 
ATOM     33  O   UNL     1       5.649   7.003   2.444  1.00  0.00    -0.246 OA
BRANCH  32  34
ATOM     34  C   UNL     1       4.920   6.988   0.182  1.00  0.00     0.060 A 
ATOM     35  C   UNL     1       6.056   6.419  -0.419  1.00  0.00     0.016 A 
ATOM     36  C   UNL     1       3.992   7.686  -0.592  1.00  0.00     0.016 A 
ATOM     37  C   UNL     1       6.285   6.566  -1.786  1.00  0.00     0.010 A 
ATOM     38  C   UNL     1       4.248   7.880  -1.950  1.00  0.00     0.010 A 
ATOM     39  C   UNL     1       5.414   7.355  -2.540  1.00  0.00    -0.014 A 
BRANCH  39  40
ATOM     40  C   UNL     1       5.838   7.866  -3.862  1.00  0.00     0.031 A 
ATOM     41  C   UNL     1       6.421   9.248  -3.916  1.00  0.00     0.074 A 
ATOM     42  C   UNL     1       5.676   7.152  -4.987  1.00  0.00     0.049 A 
ATOM     43  N   UNL     1       6.702   9.993  -4.952  1.00  0.00    -0.248 NA
ATOM     44  C   UNL     1       6.705   9.882  -2.617  1.00  0.00     0.031 C 
ATOM     45  C   UNL     1       5.179   5.782  -5.052  1.00  0.00     0.029 A 
ATOM     46  N   UNL     1       5.883   7.505  -6.296  1.00  0.00    -0.354 N 
ATOM     47  C   UNL     1       7.155  11.197  -4.430  1.00  0.00     0.074 A 
ATOM     48  C   UNL     1       7.096  11.089  -2.989  1.00  0.00     0.031 C 
ATOM     49  C   UNL     1       5.082   5.419  -6.343  1.00  0.00     0.029 A 
ATOM     50  C   UNL     1       5.457   6.552  -7.188  1.00  0.00     0.049 A 
ATOM     51  H   UNL     1       6.296   8.356  -6.569  1.00  0.00     0.167 HD
ATOM     52  C   UNL     1       7.570  12.301  -5.095  1.00  0.00     0.031 A 
ATOM     53  C   UNL     1       5.330   6.610  -8.528  1.00  0.00     0.031 A 
ATOM     54  C   UNL     1       7.591  12.406  -6.528  1.00  0.00     0.049 A 
ATOM     55  C   UNL     1       5.717   7.874  -9.252  1.00  0.00     0.074 A 
ATOM     56  C   UNL     1       8.016  13.466  -7.307  1.00  0.00     0.029 A 
ATOM     57  N   UNL     1       7.144  11.421  -7.397  1.00  0.00    -0.354 N 
ATOM     58  N   UNL     1       6.170   9.002  -8.760  1.00  0.00    -0.248 NA
ATOM     59  C   UNL     1       5.578   7.873 -10.716  1.00  0.00     0.031 C 
ATOM     60  C   UNL     1       7.744  13.158  -8.643  1.00  0.00     0.029 A 
ATOM     61  C   UNL     1       7.243  11.866  -8.704  1.00  0.00     0.049 A 
ATOM     62  H   UNL     1       6.807  10.537  -7.125  1.00  0.00     0.167 HD
ATOM     63  C   UNL     1       6.403   9.831  -9.851  1.00  0.00     0.074 A 
ATOM     64  C   UNL     1       6.044   9.074 -11.033  1.00  0.00     0.031 C 
ATOM     65  C   UNL     1       6.882  11.100  -9.872  1.00  0.00     0.031 A 
BRANCH  52  66
ATOM     66  C   UNL     1       7.950  13.500  -4.269  1.00  0.00    -0.014 A 
ATOM     67  C   UNL     1       9.060  13.490  -3.408  1.00  0.00     0.009 A 
ATOM     68  C   UNL     1       7.167  14.663  -4.345  1.00  0.00     0.009 A 
ATOM     69  C   UNL     1       9.339  14.593  -2.598  1.00  0.00     0.001 A 
ATOM     70  C   UNL     1       7.473  15.780  -3.567  1.00  0.00     0.001 A 
ATOM     71  C   UNL     1       8.547  15.738  -2.681  1.00  0.00     0.000 A 
ENDBRANCH  52  66
BRANCH  53  72
ATOM     72  C   UNL     1       4.768   5.444  -9.261  1.00  0.00    -0.014 A 
ATOM     73  C   UNL     1       5.571   4.673 -10.113  1.00  0.00     0.009 A 
ATOM     74  C   UNL     1       3.422   5.081  -9.086  1.00  0.00     0.009 A 
ATOM     75  C   UNL     1       5.035   3.570 -10.783  1.00  0.00     0.001 A 
ATOM     76  C   UNL     1       2.898   3.958  -9.730  1.00  0.00     0.001 A 
ATOM     77  C   UNL     1       3.703   3.207 -10.583  1.00  0.00     0.000 A 
ENDBRANCH  53  72
BRANCH  65  78
ATOM     78  C   UNL     1       7.108  11.746 -11.213  1.00  0.00    -0.014 A 
ATOM     79  C   UNL     1       6.043  12.157 -12.027  1.00  0.00     0.009 A 
ATOM     80  C   UNL     1       8.423  12.029 -11.621  1.00  0.00     0.009 A 
ATOM     81  C   UNL     1       6.292  12.820 -13.232  1.00  0.00     0.001 A 
ATOM     82  C   UNL     1       8.667  12.723 -12.806  1.00  0.00     0.001 A 
ATOM     83  C   UNL     1       7.601  13.112 -13.615  1.00  0.00     0.000 A 
ENDBRANCH  65  78
ENDBRANCH  39  40
ENDBRANCH  32  34
ENDBRANCH  31  32
ENDBRANCH  30  31
ENDBRANCH  29  30
ENDBRANCH  28  29
ENDBRANCH  27  28
ENDBRANCH   1  27
TORSDOF 21
