REMARK SMILES CSc1ncccc1C(=O)N1CSC[C@H]1C(=O)OCCOCCOCCOCCOC(=O)c1ccc(-c2c3nc(c(-c4ccccc4)c4ccc([nH]4)c(-c4ccccc4)c4nc(c(-c5ccccc5)c5ccc2[nH]5)C=C4)C=C3)cc1
REMARK SMILES IDX 23 1 22 2 21 3 20 4 19 5 18 6 16 7 17 8 15 9 11 10 12 11
REMARK SMILES IDX 13 12 14 13 9 14 10 15 8 16 3 17 4 18 5 19 7 20 6 21 2 22
REMARK SMILES IDX 1 23 24 24 25 25 26 26 27 27 28 28 29 29 30 30 31 31 32 32
REMARK SMILES IDX 33 33 34 34 80 35 35 36 79 37 36 38 37 39 38 40 73 41 39 42
REMARK SMILES IDX 78 43 72 44 74 45 40 46 77 47 71 48 70 49 41 51 63 52 48 53
REMARK SMILES IDX 62 54 49 55 52 56 61 57 75 58 50 59 51 60 60 62 76 63 53 64
REMARK SMILES IDX 42 65 43 66 47 67 44 68 46 69 45 70 64 71 65 72 69 73 66 74
REMARK SMILES IDX 68 75 67 76 54 77 55 78 59 79 56 80 58 81 57 82
REMARK H PARENT 74 50 52 61
REMARK Flexibility Score: inf
ROOT
ATOM      1  C   UNL     1       1.827  -2.061   1.758  1.00  0.00     0.188 C 
ENDROOT
BRANCH   1   2
ATOM      2  C   UNL     1       3.083  -2.608   1.058  1.00  0.00     0.188 C 
BRANCH   2   3
ATOM      3  O   UNL     1       3.104  -4.023   1.064  1.00  0.00    -0.376 OA
BRANCH   3   4
ATOM      4  C   UNL     1       3.712  -4.736   2.124  1.00  0.00     0.202 C 
BRANCH   4   5
ATOM      5  C   UNL     1       3.689  -4.259   3.592  1.00  0.00     0.261 C 
BRANCH   5   6
ATOM      6  O   UNL     1       3.460  -2.859   3.835  1.00  0.00    -0.462 OA
BRANCH   6   7
ATOM      7  C   UNL     1       4.531  -2.042   3.943  1.00  0.00     0.329 C 
ATOM      8  O   UNL     1       5.688  -2.450   3.935  1.00  0.00    -0.250 OA
BRANCH   7   9
ATOM      9  C   UNL     1       4.166  -0.570   4.263  1.00  0.00     0.206 C 
ATOM     10  N   UNL     1       2.903   0.125   3.884  1.00  0.00    -0.315 N 
ATOM     11  C   UNL     1       1.831  -0.060   4.842  1.00  0.00     0.191 C 
ATOM     12  S   UNL     1       2.632  -0.118   6.457  1.00  0.00    -0.138 SA
ATOM     13  C   UNL     1       4.295  -0.444   5.788  1.00  0.00     0.108 C 
BRANCH  10  14
ATOM     14  C   UNL     1       2.912   1.041   2.810  1.00  0.00     0.258 C 
ATOM     15  O   UNL     1       3.714   0.899   1.891  1.00  0.00    -0.269 OA
BRANCH  14  16
ATOM     16  C   UNL     1       2.090   2.296   2.861  1.00  0.00     0.072 A 
ATOM     17  C   UNL     1       1.478   2.978   1.795  1.00  0.00     0.108 A 
ATOM     18  N   UNL     1       0.870   4.191   2.004  1.00  0.00    -0.249 NA
ATOM     19  C   UNL     1       0.939   4.798   3.199  1.00  0.00     0.112 A 
ATOM     20  C   UNL     1       2.157   2.986   4.095  1.00  0.00     0.018 A 
ATOM     21  C   UNL     1       1.582   4.240   4.272  1.00  0.00     0.021 A 
BRANCH  17  22
ATOM     22  S   UNL     1       1.377   2.701   0.042  1.00  0.00    -0.109 SA
ATOM     23  C   UNL     1       1.610   0.956  -0.249  1.00  0.00     0.092 C 
ENDBRANCH  17  22
ENDBRANCH  14  16
ENDBRANCH  10  14
ENDBRANCH   7   9
ENDBRANCH   6   7
ENDBRANCH   5   6
ENDBRANCH   4   5
ENDBRANCH   3   4
ENDBRANCH   2   3
ENDBRANCH   1   2
BRANCH   1  24
ATOM     24  O   UNL     1       0.573  -2.405   1.196  1.00  0.00    -0.377 OA
BRANCH  24  25
ATOM     25  C   UNL     1       0.342  -3.798   1.118  1.00  0.00     0.188 C 
BRANCH  25  26
ATOM     26  C   UNL     1       0.481  -4.383  -0.300  1.00  0.00     0.188 C 
BRANCH  26  27
ATOM     27  O   UNL     1       0.805  -3.597  -1.441  1.00  0.00    -0.376 OA
BRANCH  27  28
ATOM     28  C   UNL     1       0.514  -2.212  -1.505  1.00  0.00     0.202 C 
BRANCH  28  29
ATOM     29  C   UNL     1      -0.939  -1.721  -1.439  1.00  0.00     0.261 C 
BRANCH  29  30
ATOM     30  O   UNL     1      -1.738  -2.317  -0.412  1.00  0.00    -0.460 OA
BRANCH  30  31
ATOM     31  C   UNL     1      -2.547  -3.306  -0.833  1.00  0.00     0.338 C 
ATOM     32  O   UNL     1      -2.716  -3.698  -1.986  1.00  0.00    -0.246 OA
BRANCH  31  33
ATOM     33  C   UNL     1      -3.107  -4.013   0.325  1.00  0.00     0.060 A 
ATOM     34  C   UNL     1      -2.929  -5.402   0.373  1.00  0.00     0.016 A 
ATOM     35  C   UNL     1      -3.832  -3.347   1.318  1.00  0.00     0.016 A 
ATOM     36  C   UNL     1      -3.519  -6.143   1.382  1.00  0.00     0.010 A 
ATOM     37  C   UNL     1      -4.465  -4.098   2.311  1.00  0.00     0.010 A 
ATOM     38  C   UNL     1      -4.350  -5.499   2.305  1.00  0.00    -0.014 A 
BRANCH  38  39
ATOM     39  C   UNL     1      -5.317  -6.340   3.038  1.00  0.00     0.031 A 
ATOM     40  C   UNL     1      -6.669  -6.545   2.410  1.00  0.00     0.074 A 
ATOM     41  C   UNL     1      -4.959  -6.991   4.155  1.00  0.00     0.049 A 
ATOM     42  N   UNL     1      -7.671  -7.278   2.817  1.00  0.00    -0.248 NA
ATOM     43  C   UNL     1      -6.920  -5.833   1.143  1.00  0.00     0.031 C 
ATOM     44  C   UNL     1      -3.645  -6.922   4.792  1.00  0.00     0.029 A 
ATOM     45  N   UNL     1      -5.673  -7.856   4.941  1.00  0.00    -0.354 N 
ATOM     46  C   UNL     1      -8.667  -7.111   1.861  1.00  0.00     0.074 A 
ATOM     47  C   UNL     1      -8.165  -6.187   0.872  1.00  0.00     0.031 C 
ATOM     48  C   UNL     1      -3.647  -7.714   5.878  1.00  0.00     0.029 A 
ATOM     49  C   UNL     1      -4.970  -8.318   6.024  1.00  0.00     0.049 A 
ATOM     50  H   UNL     1      -6.601  -8.120   4.747  1.00  0.00     0.167 HD
ATOM     51  C   UNL     1      -9.890  -7.685   1.811  1.00  0.00     0.031 A 
ATOM     52  C   UNL     1      -5.365  -9.128   7.024  1.00  0.00     0.031 A 
ATOM     53  C   UNL     1     -10.383  -8.588   2.814  1.00  0.00     0.049 A 
ATOM     54  C   UNL     1      -6.766  -9.681   6.994  1.00  0.00     0.074 A 
ATOM     55  C   UNL     1     -11.611  -9.218   2.880  1.00  0.00     0.029 A 
ATOM     56  N   UNL     1      -9.663  -8.983   3.932  1.00  0.00    -0.354 N 
ATOM     57  N   UNL     1      -7.701  -9.519   6.088  1.00  0.00    -0.248 NA
ATOM     58  C   UNL     1      -7.160 -10.540   8.118  1.00  0.00     0.031 C 
ATOM     59  C   UNL     1     -11.656  -9.950   4.071  1.00  0.00     0.029 A 
ATOM     60  C   UNL     1     -10.430  -9.832   4.708  1.00  0.00     0.049 A 
ATOM     61  H   UNL     1      -8.744  -8.701   4.141  1.00  0.00     0.167 HD
ATOM     62  C   UNL     1      -8.780 -10.283   6.513  1.00  0.00     0.074 A 
ATOM     63  C   UNL     1      -8.376 -10.918   7.751  1.00  0.00     0.031 C 
ATOM     64  C   UNL     1      -9.995 -10.452   5.934  1.00  0.00     0.031 A 
BRANCH  51  65
ATOM     65  C   UNL     1     -10.786  -7.307   0.665  1.00  0.00    -0.014 A 
ATOM     66  C   UNL     1     -10.518  -7.729  -0.648  1.00  0.00     0.009 A 
ATOM     67  C   UNL     1     -11.923  -6.521   0.904  1.00  0.00     0.009 A 
ATOM     68  C   UNL     1     -11.353  -7.344  -1.700  1.00  0.00     0.001 A 
ATOM     69  C   UNL     1     -12.773  -6.163  -0.144  1.00  0.00     0.001 A 
ATOM     70  C   UNL     1     -12.482  -6.566  -1.446  1.00  0.00     0.000 A 
ENDBRANCH  51  65
BRANCH  52  71
ATOM     71  C   UNL     1      -4.438  -9.446   8.142  1.00  0.00    -0.014 A 
ATOM     72  C   UNL     1      -3.956 -10.749   8.334  1.00  0.00     0.009 A 
ATOM     73  C   UNL     1      -4.046  -8.441   9.042  1.00  0.00     0.009 A 
ATOM     74  C   UNL     1      -3.127 -11.045   9.419  1.00  0.00     0.001 A 
ATOM     75  C   UNL     1      -3.192  -8.733  10.108  1.00  0.00     0.001 A 
ATOM     76  C   UNL     1      -2.742 -10.037  10.302  1.00  0.00     0.000 A 
ENDBRANCH  52  71
BRANCH  64  77
ATOM     77  C   UNL     1     -10.949 -11.399   6.606  1.00  0.00    -0.014 A 
ATOM     78  C   UNL     1     -11.571 -11.077   7.821  1.00  0.00     0.009 A 
ATOM     79  C   UNL     1     -11.260 -12.619   5.982  1.00  0.00     0.009 A 
ATOM     80  C   UNL     1     -12.454 -11.978   8.419  1.00  0.00     0.001 A 
ATOM     81  C   UNL     1     -12.169 -13.500   6.565  1.00  0.00     0.001 A 
ATOM     82  C   UNL     1     -12.756 -13.185   7.789  1.00  0.00     0.000 A 
ENDBRANCH  64  77
ENDBRANCH  38  39
ENDBRANCH  31  33
ENDBRANCH  30  31
ENDBRANCH  29  30
ENDBRANCH  28  29
ENDBRANCH  27  28
ENDBRANCH  26  27
ENDBRANCH  25  26
ENDBRANCH  24  25
ENDBRANCH   1  24
TORSDOF 23
