REMARK SMILES O=C(CC[C@@H]1CN(c2ccncc2)CC[C@@H]1[NH+]1CCOCC1)OCCOCCOCCOCCOC(=O)c1ccc(-c2c3nc(c(-c4ccccc4)c4ccc([nH]4)c(-c4ccccc4)c4nc(c(-c5ccccc5)c5ccc2[nH]5)C=C4)C=C3)cc1
REMARK SMILES IDX 28 1 27 2 26 3 25 4 24 5 23 6 2 7 1 8 3 9 4 10 5 11 6 12
REMARK SMILES IDX 16 13 7 14 15 15 14 16 17 17 18 18 22 19 19 21 21 22 20 23
REMARK SMILES IDX 8 24 9 25 13 26 10 27 12 28 11 29 29 30 30 31 31 32 32 33
REMARK SMILES IDX 33 34 34 35 35 36 36 37 37 38 38 39 39 40 85 41 40 42 84 43
REMARK SMILES IDX 41 44 42 45 43 46 78 47 44 48 83 49 77 50 79 51 45 52 82 53
REMARK SMILES IDX 76 54 75 55 46 57 68 58 53 59 67 60 54 61 57 62 66 63 80 64
REMARK SMILES IDX 55 65 56 66 65 68 81 69 58 70 47 71 48 72 52 73 49 74 51 75
REMARK SMILES IDX 50 76 69 77 70 78 74 79 71 80 73 81 72 82 59 83 60 84 64 85
REMARK SMILES IDX 61 86 63 87 62 88
REMARK H PARENT 17 20 79 56 57 67
REMARK Flexibility Score: inf
ROOT
ATOM      1  C   UNL     1       5.107   3.395  -3.677  1.00  0.00     0.188 C 
ENDROOT
BRANCH   1   2
ATOM      2  C   UNL     1       5.312   3.296  -2.160  1.00  0.00     0.188 C 
BRANCH   2   3
ATOM      3  O   UNL     1       5.031   2.005  -1.618  1.00  0.00    -0.376 OA
BRANCH   3   4
ATOM      4  C   UNL     1       3.646   1.675  -1.602  1.00  0.00     0.202 C 
BRANCH   4   5
ATOM      5  C   UNL     1       3.111   1.640  -0.189  1.00  0.00     0.261 C 
BRANCH   5   6
ATOM      6  O   UNL     1       3.332   2.862   0.532  1.00  0.00    -0.463 OA
BRANCH   6   7
ATOM      7  C   UNL     1       4.395   3.196   1.294  1.00  0.00     0.305 C 
ATOM      8  O   UNL     1       4.334   4.230   1.962  1.00  0.00    -0.252 OA
BRANCH   7   9
ATOM      9  C   UNL     1       5.662   2.361   1.322  1.00  0.00     0.123 C 
BRANCH   9  10
ATOM     10  C   UNL     1       5.795   1.380   2.485  1.00  0.00     0.023 C 
BRANCH  10  11
ATOM     11  C   UNL     1       5.083   0.034   2.268  1.00  0.00     0.067 C 
ATOM     12  C   UNL     1       4.948  -0.761   3.566  1.00  0.00     0.126 C 
ATOM     13  C   UNL     1       5.583  -0.847   1.056  1.00  0.00     0.190 C 
ATOM     14  N   UNL     1       4.089  -1.904   3.282  1.00  0.00    -0.371 N 
ATOM     15  C   UNL     1       4.708  -2.113   0.953  1.00  0.00     0.087 C 
ATOM     16  C   UNL     1       4.521  -2.852   2.273  1.00  0.00     0.122 C 
BRANCH  13  17
ATOM     17  N   UNL     1       7.043  -1.016   0.911  1.00  0.00    -0.328 N 
ATOM     18  C   UNL     1       7.502  -1.186  -0.491  1.00  0.00     0.291 C 
ATOM     19  C   UNL     1       7.764  -1.966   1.766  1.00  0.00     0.291 C 
ATOM     20  H   UNL     1       7.309  -0.104   1.282  1.00  0.00     0.348 HD
ATOM     21  C   UNL     1       7.637  -2.637  -0.988  1.00  0.00     0.221 C 
ATOM     22  C   UNL     1       7.899  -3.400   1.214  1.00  0.00     0.221 C 
ATOM     23  O   UNL     1       8.450  -3.413  -0.105  1.00  0.00    -0.370 OA
ENDBRANCH  13  17
BRANCH  14  24
ATOM     24  C   UNL     1       3.099  -2.259   4.172  1.00  0.00     0.040 A 
ATOM     25  C   UNL     1       3.204  -3.397   4.965  1.00  0.00     0.046 A 
ATOM     26  C   UNL     1       1.937  -1.494   4.267  1.00  0.00     0.046 A 
ATOM     27  C   UNL     1       2.154  -3.723   5.808  1.00  0.00     0.113 A 
ATOM     28  C   UNL     1       0.930  -1.909   5.123  1.00  0.00     0.113 A 
ATOM     29  N   UNL     1       1.012  -3.009   5.900  1.00  0.00    -0.265 NA
ENDBRANCH  14  24
ENDBRANCH  10  11
ENDBRANCH   9  10
ENDBRANCH   7   9
ENDBRANCH   6   7
ENDBRANCH   5   6
ENDBRANCH   4   5
ENDBRANCH   3   4
ENDBRANCH   2   3
ENDBRANCH   1   2
BRANCH   1  30
ATOM     30  O   UNL     1       4.301   2.343  -4.187  1.00  0.00    -0.377 OA
BRANCH  30  31
ATOM     31  C   UNL     1       4.955   1.136  -4.575  1.00  0.00     0.188 C 
BRANCH  31  32
ATOM     32  C   UNL     1       6.281   0.682  -3.926  1.00  0.00     0.188 C 
BRANCH  32  33
ATOM     33  O   UNL     1       7.311   1.666  -3.930  1.00  0.00    -0.376 OA
BRANCH  33  34
ATOM     34  C   UNL     1       8.335   1.509  -4.910  1.00  0.00     0.202 C 
BRANCH  34  35
ATOM     35  C   UNL     1       7.905   1.899  -6.332  1.00  0.00     0.261 C 
BRANCH  35  36
ATOM     36  O   UNL     1       6.888   1.055  -6.900  1.00  0.00    -0.460 OA
BRANCH  36  37
ATOM     37  C   UNL     1       7.159  -0.264  -7.019  1.00  0.00     0.338 C 
ATOM     38  O   UNL     1       8.245  -0.797  -6.869  1.00  0.00    -0.246 OA
BRANCH  37  39
ATOM     39  C   UNL     1       5.870  -1.000  -7.110  1.00  0.00     0.060 A 
ATOM     40  C   UNL     1       5.737  -2.189  -6.381  1.00  0.00     0.016 A 
ATOM     41  C   UNL     1       4.781  -0.502  -7.836  1.00  0.00     0.016 A 
ATOM     42  C   UNL     1       4.539  -2.908  -6.416  1.00  0.00     0.010 A 
ATOM     43  C   UNL     1       3.582  -1.222  -7.872  1.00  0.00     0.010 A 
ATOM     44  C   UNL     1       3.469  -2.450  -7.198  1.00  0.00    -0.014 A 
BRANCH  44  45
ATOM     45  C   UNL     1       2.354  -3.373  -7.534  1.00  0.00     0.031 A 
ATOM     46  C   UNL     1       2.471  -4.165  -8.811  1.00  0.00     0.074 A 
ATOM     47  C   UNL     1       1.276  -3.532  -6.745  1.00  0.00     0.049 A 
ATOM     48  N   UNL     1       1.632  -5.015  -9.344  1.00  0.00    -0.248 NA
ATOM     49  C   UNL     1       3.705  -3.966  -9.590  1.00  0.00     0.031 C 
ATOM     50  C   UNL     1       1.047  -2.866  -5.465  1.00  0.00     0.029 A 
ATOM     51  N   UNL     1       0.161  -4.317  -6.921  1.00  0.00    -0.354 N 
ATOM     52  C   UNL     1       2.236  -5.448 -10.518  1.00  0.00     0.074 A 
ATOM     53  C   UNL     1       3.493  -4.745 -10.637  1.00  0.00     0.031 C 
ATOM     54  C   UNL     1      -0.141  -3.266  -4.973  1.00  0.00     0.029 A 
ATOM     55  C   UNL     1      -0.768  -4.194  -5.916  1.00  0.00     0.049 A 
ATOM     56  H   UNL     1       0.039  -4.912  -7.696  1.00  0.00     0.167 HD
ATOM     57  C   UNL     1       1.794  -6.355 -11.419  1.00  0.00     0.031 A 
ATOM     58  C   UNL     1      -1.988  -4.753  -5.783  1.00  0.00     0.031 A 
ATOM     59  C   UNL     1       0.537  -7.042 -11.328  1.00  0.00     0.049 A 
ATOM     60  C   UNL     1      -2.500  -5.692  -6.848  1.00  0.00     0.074 A 
ATOM     61  C   UNL     1       0.004  -7.980 -12.194  1.00  0.00     0.029 A 
ATOM     62  N   UNL     1      -0.389  -6.855 -10.316  1.00  0.00    -0.354 N 
ATOM     63  N   UNL     1      -1.905  -6.118  -7.936  1.00  0.00    -0.248 NA
ATOM     64  C   UNL     1      -3.857  -6.232  -6.659  1.00  0.00     0.031 C 
ATOM     65  C   UNL     1      -1.271  -8.323 -11.733  1.00  0.00     0.029 A 
ATOM     66  C   UNL     1      -1.504  -7.641 -10.549  1.00  0.00     0.049 A 
ATOM     67  H   UNL     1      -0.272  -6.253  -9.546  1.00  0.00     0.167 HD
ATOM     68  C   UNL     1      -2.799  -6.995  -8.541  1.00  0.00     0.074 A 
ATOM     69  C   UNL     1      -3.971  -7.052  -7.695  1.00  0.00     0.031 C 
ATOM     70  C   UNL     1      -2.661  -7.693  -9.695  1.00  0.00     0.031 A 
BRANCH  57  71
ATOM     71  C   UNL     1       2.675  -6.623 -12.604  1.00  0.00    -0.014 A 
ATOM     72  C   UNL     1       3.870  -7.349 -12.471  1.00  0.00     0.009 A 
ATOM     73  C   UNL     1       2.301  -6.150 -13.870  1.00  0.00     0.009 A 
ATOM     74  C   UNL     1       4.689  -7.566 -13.580  1.00  0.00     0.001 A 
ATOM     75  C   UNL     1       3.109  -6.392 -14.982  1.00  0.00     0.001 A 
ATOM     76  C   UNL     1       4.306  -7.091 -14.834  1.00  0.00     0.000 A 
ENDBRANCH  57  71
BRANCH  58  77
ATOM     77  C   UNL     1      -2.843  -4.431  -4.608  1.00  0.00    -0.014 A 
ATOM     78  C   UNL     1      -3.131  -5.408  -3.642  1.00  0.00     0.009 A 
ATOM     79  C   UNL     1      -3.424  -3.160  -4.478  1.00  0.00     0.009 A 
ATOM     80  C   UNL     1      -4.007  -5.128  -2.589  1.00  0.00     0.001 A 
ATOM     81  C   UNL     1      -4.277  -2.874  -3.409  1.00  0.00     0.001 A 
ATOM     82  C   UNL     1      -4.576  -3.861  -2.472  1.00  0.00     0.000 A 
ENDBRANCH  58  77
BRANCH  70  83
ATOM     83  C   UNL     1      -3.783  -8.611 -10.094  1.00  0.00    -0.014 A 
ATOM     84  C   UNL     1      -5.000  -8.111 -10.580  1.00  0.00     0.009 A 
ATOM     85  C   UNL     1      -3.595 -10.002 -10.033  1.00  0.00     0.009 A 
ATOM     86  C   UNL     1      -6.018  -8.986 -10.970  1.00  0.00     0.001 A 
ATOM     87  C   UNL     1      -4.603 -10.873 -10.450  1.00  0.00     0.001 A 
ATOM     88  C   UNL     1      -5.816 -10.364 -10.909  1.00  0.00     0.000 A 
ENDBRANCH  70  83
ENDBRANCH  44  45
ENDBRANCH  37  39
ENDBRANCH  36  37
ENDBRANCH  35  36
ENDBRANCH  34  35
ENDBRANCH  33  34
ENDBRANCH  32  33
ENDBRANCH  31  32
ENDBRANCH  30  31
ENDBRANCH   1  30
TORSDOF 24
