REMARK SMILES Cc1ccc([C@H](Nc2ccc(Cl)c(Br)c2)C(=O)OCCOCCOCCOCCOC(=O)c2ccc(-c3c4nc(c(-c5ccccc5)c5ccc([nH]5)c(-c5ccccc5)c5nc(c(-c6ccccc6)c6ccc3[nH]6)C=C5)C=C4)cc2)s1
REMARK SMILES IDX 24 1 23 2 22 3 21 4 20 5 19 6 18 7 16 8 17 9 6 10 5 11 1 12
REMARK SMILES IDX 2 13 3 14 81 15 4 16 7 17 8 19 9 20 15 21 10 22 13 23 11 24
REMARK SMILES IDX 14 25 12 26 25 27 26 28 27 29 28 30 29 31 30 32 31 33 32 34
REMARK SMILES IDX 33 35 34 36 80 37 35 38 79 39 36 40 37 41 38 42 73 43 39 44
REMARK SMILES IDX 78 45 72 46 74 47 40 48 77 49 71 50 70 51 41 53 63 54 48 55
REMARK SMILES IDX 62 56 49 57 52 58 61 59 75 60 50 61 51 62 60 64 76 65 53 66
REMARK SMILES IDX 42 67 43 68 47 69 44 70 46 71 45 72 64 73 65 74 69 75 66 76
REMARK SMILES IDX 68 77 67 78 54 79 55 80 59 81 56 82 58 83 57 84
REMARK H PARENT 7 18 74 52 52 63
REMARK Flexibility Score: inf
ROOT
ATOM      1  O   UNL     1      -2.002   1.149  -3.416  1.00  0.00    -0.377 OA
ENDROOT
BRANCH   1   2
ATOM      2  C   UNL     1      -3.102   0.316  -3.730  1.00  0.00     0.188 C 
BRANCH   2   3
ATOM      3  C   UNL     1      -4.453   0.997  -3.492  1.00  0.00     0.188 C 
BRANCH   3   4
ATOM      4  O   UNL     1      -4.623   2.328  -3.957  1.00  0.00    -0.376 OA
BRANCH   4   5
ATOM      5  C   UNL     1      -3.716   3.336  -3.525  1.00  0.00     0.202 C 
BRANCH   5   6
ATOM      6  C   UNL     1      -3.459   3.566  -2.023  1.00  0.00     0.261 C 
BRANCH   6   7
ATOM      7  O   UNL     1      -2.751   2.539  -1.289  1.00  0.00    -0.461 OA
BRANCH   7   8
ATOM      8  C   UNL     1      -3.501   1.795  -0.425  1.00  0.00     0.334 C 
ATOM      9  O   UNL     1      -4.733   1.843  -0.399  1.00  0.00    -0.249 OA
BRANCH   8  10
ATOM     10  C   UNL     1      -2.712   1.041   0.680  1.00  0.00     0.231 C 
BRANCH  10  11
ATOM     11  C   UNL     1      -2.892   1.902   1.918  1.00  0.00     0.038 A 
ATOM     12  C   UNL     1      -3.358   2.768   5.703  1.00  0.00     0.056 C 
ATOM     13  C   UNL     1      -3.190   2.698   4.228  1.00  0.00     0.002 A 
ATOM     14  C   UNL     1      -3.059   3.741   3.338  1.00  0.00     0.015 A 
ATOM     15  S   UNL     1      -3.130   1.177   3.448  1.00  0.00    -0.143 S 
ATOM     16  C   UNL     1      -2.859   3.283   2.011  1.00  0.00     0.018 A 
ENDBRANCH  10  11
BRANCH  10  17
ATOM     17  N   UNL     1      -1.275   0.789   0.453  1.00  0.00    -0.368 N 
ATOM     18  H   UNL     1      -0.621   1.426   0.822  1.00  0.00     0.161 HD
BRANCH  17  19
ATOM     19  C   UNL     1      -0.806  -0.303  -0.256  1.00  0.00     0.036 A 
ATOM     20  C   UNL     1      -0.070  -0.057  -1.410  1.00  0.00     0.027 A 
ATOM     21  C   UNL     1      -0.857  -1.620   0.216  1.00  0.00     0.043 A 
ATOM     22  C   UNL     1       0.480  -1.095  -2.164  1.00  0.00     0.024 A 
ATOM     23  C   UNL     1      -0.286  -2.673  -0.525  1.00  0.00     0.038 A 
ATOM     24  C   UNL     1       0.342  -2.413  -1.745  1.00  0.00     0.055 A 
ATOM     25  Br  UNL     1      -0.353  -4.424   0.213  1.00  0.00    -0.049 Br
ATOM     26  Cl  UNL     1       0.964  -3.644  -2.783  1.00  0.00    -0.083 Cl
ENDBRANCH  17  19
ENDBRANCH  10  17
ENDBRANCH   8  10
ENDBRANCH   7   8
ENDBRANCH   6   7
ENDBRANCH   5   6
ENDBRANCH   4   5
ENDBRANCH   3   4
ENDBRANCH   2   3
ENDBRANCH   1   2
BRANCH   1  27
ATOM     27  C   UNL     1      -1.015   1.451  -4.396  1.00  0.00     0.188 C 
BRANCH  27  28
ATOM     28  C   UNL     1      -1.355   1.266  -5.875  1.00  0.00     0.188 C 
BRANCH  28  29
ATOM     29  O   UNL     1      -1.511  -0.068  -6.363  1.00  0.00    -0.376 OA
BRANCH  29  30
ATOM     30  C   UNL     1      -0.805  -1.130  -5.725  1.00  0.00     0.202 C 
BRANCH  30  31
ATOM     31  C   UNL     1       0.646  -1.293  -6.170  1.00  0.00     0.261 C 
BRANCH  31  32
ATOM     32  O   UNL     1       1.473  -0.243  -5.642  1.00  0.00    -0.460 OA
BRANCH  32  33
ATOM     33  C   UNL     1       1.839   0.706  -6.529  1.00  0.00     0.338 C 
ATOM     34  O   UNL     1       1.595   0.737  -7.727  1.00  0.00    -0.246 OA
BRANCH  33  35
ATOM     35  C   UNL     1       2.462   1.832  -5.812  1.00  0.00     0.060 A 
ATOM     36  C   UNL     1       3.432   1.628  -4.827  1.00  0.00     0.016 A 
ATOM     37  C   UNL     1       2.100   3.127  -6.200  1.00  0.00     0.016 A 
ATOM     38  C   UNL     1       4.087   2.731  -4.275  1.00  0.00     0.010 A 
ATOM     39  C   UNL     1       2.757   4.225  -5.655  1.00  0.00     0.010 A 
ATOM     40  C   UNL     1       3.783   4.030  -4.721  1.00  0.00    -0.014 A 
BRANCH  40  41
ATOM     41  C   UNL     1       4.662   5.170  -4.376  1.00  0.00     0.031 A 
ATOM     42  C   UNL     1       4.210   6.255  -3.453  1.00  0.00     0.074 A 
ATOM     43  C   UNL     1       5.860   5.241  -4.988  1.00  0.00     0.049 A 
ATOM     44  N   UNL     1       4.863   7.316  -3.057  1.00  0.00    -0.248 NA
ATOM     45  C   UNL     1       2.848   6.144  -2.910  1.00  0.00     0.031 C 
ATOM     46  C   UNL     1       6.371   4.250  -5.939  1.00  0.00     0.029 A 
ATOM     47  N   UNL     1       6.862   6.173  -4.909  1.00  0.00    -0.354 N 
ATOM     48  C   UNL     1       4.002   7.994  -2.207  1.00  0.00     0.074 A 
ATOM     49  C   UNL     1       2.759   7.253  -2.185  1.00  0.00     0.031 C 
ATOM     50  C   UNL     1       7.604   4.605  -6.323  1.00  0.00     0.029 A 
ATOM     51  C   UNL     1       7.954   5.870  -5.687  1.00  0.00     0.049 A 
ATOM     52  H   UNL     1       6.805   6.981  -4.349  1.00  0.00     0.167 HD
ATOM     53  C   UNL     1       4.244   9.123  -1.498  1.00  0.00     0.031 A 
ATOM     54  C   UNL     1       9.111   6.534  -5.869  1.00  0.00     0.031 A 
ATOM     55  C   UNL     1       5.480   9.861  -1.566  1.00  0.00     0.049 A 
ATOM     56  C   UNL     1       9.335   7.810  -5.110  1.00  0.00     0.074 A 
ATOM     57  C   UNL     1       5.837  11.003  -0.870  1.00  0.00     0.029 A 
ATOM     58  N   UNL     1       6.555   9.540  -2.384  1.00  0.00    -0.354 N 
ATOM     59  N   UNL     1       8.542   8.403  -4.249  1.00  0.00    -0.248 NA
ATOM     60  C   UNL     1      10.612   8.502  -5.329  1.00  0.00     0.031 C 
ATOM     61  C   UNL     1       7.089  11.417  -1.326  1.00  0.00     0.029 A 
ATOM     62  C   UNL     1       7.560  10.481  -2.235  1.00  0.00     0.049 A 
ATOM     63  H   UNL     1       6.597   8.759  -2.982  1.00  0.00     0.167 HD
ATOM     64  C   UNL     1       9.232   9.521  -3.801  1.00  0.00     0.074 A 
ATOM     65  C   UNL     1      10.516   9.514  -4.476  1.00  0.00     0.031 C 
ATOM     66  C   UNL     1       8.835  10.463  -2.912  1.00  0.00     0.031 A 
BRANCH  53  67
ATOM     67  C   UNL     1       3.161   9.633  -0.584  1.00  0.00    -0.014 A 
ATOM     68  C   UNL     1       2.578  10.890  -0.813  1.00  0.00     0.009 A 
ATOM     69  C   UNL     1       2.785   8.915   0.564  1.00  0.00     0.009 A 
ATOM     70  C   UNL     1       1.657  11.423   0.092  1.00  0.00     0.001 A 
ATOM     71  C   UNL     1       1.838   9.435   1.449  1.00  0.00     0.001 A 
ATOM     72  C   UNL     1       1.283  10.693   1.218  1.00  0.00     0.000 A 
ENDBRANCH  53  67
BRANCH  54  73
ATOM     73  C   UNL     1      10.149   5.951  -6.761  1.00  0.00    -0.014 A 
ATOM     74  C   UNL     1       9.921   5.820  -8.142  1.00  0.00     0.009 A 
ATOM     75  C   UNL     1      11.335   5.430  -6.223  1.00  0.00     0.009 A 
ATOM     76  C   UNL     1      10.836   5.147  -8.955  1.00  0.00     0.001 A 
ATOM     77  C   UNL     1      12.266   4.789  -7.045  1.00  0.00     0.001 A 
ATOM     78  C   UNL     1      12.009   4.634  -8.406  1.00  0.00     0.000 A 
ENDBRANCH  54  73
BRANCH  66  79
ATOM     79  C   UNL     1       9.796  11.575  -2.584  1.00  0.00    -0.014 A 
ATOM     80  C   UNL     1      10.305  11.690  -1.279  1.00  0.00     0.009 A 
ATOM     81  C   UNL     1      10.095  12.579  -3.517  1.00  0.00     0.009 A 
ATOM     82  C   UNL     1      11.062  12.800  -0.906  1.00  0.00     0.001 A 
ATOM     83  C   UNL     1      10.886  13.670  -3.152  1.00  0.00     0.001 A 
ATOM     84  C   UNL     1      11.355  13.788  -1.844  1.00  0.00     0.000 A 
ENDBRANCH  66  79
ENDBRANCH  40  41
ENDBRANCH  33  35
ENDBRANCH  32  33
ENDBRANCH  31  32
ENDBRANCH  30  31
ENDBRANCH  29  30
ENDBRANCH  28  29
ENDBRANCH  27  28
ENDBRANCH   1  27
TORSDOF 23
