REMARK SMILES C[C@H]1CN(C(=O)NCCOCC(=O)OCCOCCOCCOCCOC(=O)c2ccc(-c3c4nc(c(-c5ccccc5)c5ccc([nH]5)c(-c5ccccc5)c5nc(c(-c6ccccc6)c6ccc3[nH]6)C=C5)C=C4)cc2)CC[N@@H+]1C
REMARK SMILES IDX 18 1 17 2 16 3 15 4 14 5 12 6 13 7 11 8 10 9 9 10 8 11 7 12
REMARK SMILES IDX 5 13 6 14 4 16 1 17 2 18 3 19 79 20 78 21 80 22 77 24 19 25
REMARK SMILES IDX 20 26 21 27 22 28 23 29 24 30 25 31 26 32 27 33 28 34 29 35
REMARK SMILES IDX 30 36 76 37 31 38 75 39 32 40 33 41 34 42 69 43 35 44 74 45
REMARK SMILES IDX 68 46 70 47 36 48 73 49 67 50 66 51 37 53 59 54 44 55 58 56
REMARK SMILES IDX 45 57 48 58 57 59 71 60 46 61 47 62 56 64 72 65 49 66 38 67
REMARK SMILES IDX 39 68 43 69 40 70 42 71 41 72 60 73 61 74 65 75 62 76 64 77
REMARK SMILES IDX 63 78 50 79 51 80 55 81 52 82 54 83 53 84
REMARK H PARENT 7 15 79 23 70 52 48 63
REMARK Flexibility Score: inf
ROOT
ATOM      1  C   UNL     1      -2.238  -5.417   0.488  1.00  0.00     0.188 C 
ENDROOT
BRANCH   1   2
ATOM      2  O   UNL     1      -3.210  -6.442   0.697  1.00  0.00    -0.376 OA
BRANCH   2   3
ATOM      3  C   UNL     1      -2.744  -7.708   1.156  1.00  0.00     0.202 C 
BRANCH   3   4
ATOM      4  C   UNL     1      -1.801  -8.499   0.230  1.00  0.00     0.261 C 
BRANCH   4   5
ATOM      5  O   UNL     1      -0.575  -7.826  -0.142  1.00  0.00    -0.462 OA
BRANCH   5   6
ATOM      6  C   UNL     1      -0.454  -7.515  -1.459  1.00  0.00     0.332 C 
ATOM      7  O   UNL     1      -1.298  -7.781  -2.312  1.00  0.00    -0.250 OA
BRANCH   6   8
ATOM      8  C   UNL     1       0.841  -6.762  -1.841  1.00  0.00     0.282 C 
BRANCH   8   9
ATOM      9  O   UNL     1       1.962  -6.458  -1.045  1.00  0.00    -0.368 OA
BRANCH   9  10
ATOM     10  C   UNL     1       1.879  -5.376  -0.118  1.00  0.00     0.182 C 
BRANCH  10  11
ATOM     11  C   UNL     1       1.786  -3.944  -0.692  1.00  0.00     0.146 C 
BRANCH  11  12
ATOM     12  N   UNL     1       0.457  -3.537  -1.144  1.00  0.00    -0.336 N 
ATOM     13  C   UNL     1      -0.568  -2.742  -0.815  1.00  0.00     0.317 C 
ATOM     14  O   UNL     1      -1.499  -2.793  -1.629  1.00  0.00    -0.249 OA
ATOM     15  H   UNL     1       0.240  -4.013  -1.978  1.00  0.00     0.165 HD
BRANCH  13  16
ATOM     16  N   UNL     1      -0.653  -1.966   0.292  1.00  0.00    -0.313 N 
ATOM     17  C   UNL     1       1.742   0.086   2.420  1.00  0.00     0.077 C 
ATOM     18  C   UNL     1       0.674  -0.149   1.344  1.00  0.00     0.200 C 
ATOM     19  C   UNL     1       0.324  -1.661   1.326  1.00  0.00     0.186 C 
ATOM     20  N   UNL     1      -0.554   0.658   1.589  1.00  0.00    -0.332 N 
ATOM     21  C   UNL     1      -1.602   0.312   0.594  1.00  0.00     0.284 C 
ATOM     22  C   UNL     1      -0.305   2.100   1.544  1.00  0.00     0.333 C 
ATOM     23  H   UNL     1      -0.869   0.428   2.532  1.00  0.00     0.348 HD
ATOM     24  C   UNL     1      -1.892  -1.200   0.513  1.00  0.00     0.183 C 
ENDBRANCH  13  16
ENDBRANCH  11  12
ENDBRANCH  10  11
ENDBRANCH   9  10
ENDBRANCH   8   9
ENDBRANCH   6   8
ENDBRANCH   5   6
ENDBRANCH   4   5
ENDBRANCH   3   4
ENDBRANCH   2   3
ENDBRANCH   1   2
BRANCH   1  25
ATOM     25  C   UNL     1      -1.344  -5.102   1.687  1.00  0.00     0.188 C 
BRANCH  25  26
ATOM     26  O   UNL     1      -0.576  -6.236   2.072  1.00  0.00    -0.377 OA
BRANCH  26  27
ATOM     27  C   UNL     1      -0.303  -6.471   3.448  1.00  0.00     0.188 C 
BRANCH  27  28
ATOM     28  C   UNL     1      -1.180  -5.743   4.466  1.00  0.00     0.188 C 
BRANCH  28  29
ATOM     29  O   UNL     1      -0.929  -4.358   4.721  1.00  0.00    -0.376 OA
BRANCH  29  30
ATOM     30  C   UNL     1       0.280  -3.763   4.270  1.00  0.00     0.202 C 
BRANCH  30  31
ATOM     31  C   UNL     1       1.493  -3.853   5.194  1.00  0.00     0.261 C 
BRANCH  31  32
ATOM     32  O   UNL     1       1.751  -5.190   5.617  1.00  0.00    -0.460 OA
BRANCH  32  33
ATOM     33  C   UNL     1       1.107  -5.519   6.762  1.00  0.00     0.338 C 
ATOM     34  O   UNL     1       0.429  -4.805   7.473  1.00  0.00    -0.246 OA
BRANCH  33  35
ATOM     35  C   UNL     1       1.227  -6.969   6.956  1.00  0.00     0.060 A 
ATOM     36  C   UNL     1       0.064  -7.676   7.281  1.00  0.00     0.016 A 
ATOM     37  C   UNL     1       2.470  -7.603   6.885  1.00  0.00     0.016 A 
ATOM     38  C   UNL     1       0.144  -9.023   7.583  1.00  0.00     0.010 A 
ATOM     39  C   UNL     1       2.557  -8.949   7.222  1.00  0.00     0.010 A 
ATOM     40  C   UNL     1       1.399  -9.639   7.620  1.00  0.00    -0.014 A 
BRANCH  40  41
ATOM     41  C   UNL     1       1.502 -10.927   8.320  1.00  0.00     0.031 A 
ATOM     42  C   UNL     1       1.881 -10.910   9.771  1.00  0.00     0.074 A 
ATOM     43  C   UNL     1       1.173 -12.063   7.691  1.00  0.00     0.049 A 
ATOM     44  N   UNL     1       1.967 -11.902  10.616  1.00  0.00    -0.248 NA
ATOM     45  C   UNL     1       2.203  -9.594  10.349  1.00  0.00     0.031 C 
ATOM     46  C   UNL     1       0.742 -12.161   6.298  1.00  0.00     0.029 A 
ATOM     47  N   UNL     1       1.139 -13.349   8.154  1.00  0.00    -0.354 N 
ATOM     48  C   UNL     1       2.359 -11.332  11.819  1.00  0.00     0.074 A 
ATOM     49  C   UNL     1       2.532  -9.916  11.588  1.00  0.00     0.031 C 
ATOM     50  C   UNL     1       0.486 -13.448   6.016  1.00  0.00     0.029 A 
ATOM     51  C   UNL     1       0.764 -14.258   7.200  1.00  0.00     0.049 A 
ATOM     52  H   UNL     1       1.363 -13.597   9.080  1.00  0.00     0.167 HD
ATOM     53  C   UNL     1       2.553 -11.939  13.013  1.00  0.00     0.031 A 
ATOM     54  C   UNL     1       0.673 -15.597   7.279  1.00  0.00     0.031 A 
ATOM     55  C   UNL     1       2.404 -13.356  13.211  1.00  0.00     0.049 A 
ATOM     56  C   UNL     1       0.961 -16.263   8.595  1.00  0.00     0.074 A 
ATOM     57  C   UNL     1       2.566 -14.088  14.372  1.00  0.00     0.029 A 
ATOM     58  N   UNL     1       2.072 -14.257  12.208  1.00  0.00    -0.354 N 
ATOM     59  N   UNL     1       1.306 -15.718   9.739  1.00  0.00    -0.248 NA
ATOM     60  C   UNL     1       0.831 -17.724   8.637  1.00  0.00     0.031 C 
ATOM     61  C   UNL     1       2.403 -15.441  14.055  1.00  0.00     0.029 A 
ATOM     62  C   UNL     1       2.060 -15.545  12.715  1.00  0.00     0.049 A 
ATOM     63  H   UNL     1       1.875 -14.016  11.275  1.00  0.00     0.167 HD
ATOM     64  C   UNL     1       1.409 -16.765  10.645  1.00  0.00     0.074 A 
ATOM     65  C   UNL     1       1.076 -17.975   9.916  1.00  0.00     0.031 C 
ATOM     66  C   UNL     1       1.741 -16.733  11.960  1.00  0.00     0.031 A 
BRANCH  53  67
ATOM     67  C   UNL     1       3.012 -11.074  14.155  1.00  0.00    -0.014 A 
ATOM     68  C   UNL     1       2.188 -10.082  14.712  1.00  0.00     0.009 A 
ATOM     69  C   UNL     1       4.310 -11.237  14.664  1.00  0.00     0.009 A 
ATOM     70  C   UNL     1       2.672  -9.237  15.714  1.00  0.00     0.001 A 
ATOM     71  C   UNL     1       4.780 -10.416  15.690  1.00  0.00     0.001 A 
ATOM     72  C   UNL     1       3.967  -9.406  16.203  1.00  0.00     0.000 A 
ENDBRANCH  53  67
BRANCH  54  73
ATOM     73  C   UNL     1       0.303 -16.372   6.069  1.00  0.00    -0.014 A 
ATOM     74  C   UNL     1      -0.946 -17.000   5.965  1.00  0.00     0.009 A 
ATOM     75  C   UNL     1       1.190 -16.439   4.980  1.00  0.00     0.009 A 
ATOM     76  C   UNL     1      -1.295 -17.687   4.800  1.00  0.00     0.001 A 
ATOM     77  C   UNL     1       0.826 -17.102   3.807  1.00  0.00     0.001 A 
ATOM     78  C   UNL     1      -0.414 -17.730   3.720  1.00  0.00     0.000 A 
ENDBRANCH  54  73
BRANCH  66  79
ATOM     79  C   UNL     1       1.728 -18.041  12.701  1.00  0.00    -0.014 A 
ATOM     80  C   UNL     1       2.696 -19.030  12.464  1.00  0.00     0.009 A 
ATOM     81  C   UNL     1       0.753 -18.266  13.687  1.00  0.00     0.009 A 
ATOM     82  C   UNL     1       2.662 -20.233  13.172  1.00  0.00     0.001 A 
ATOM     83  C   UNL     1       0.744 -19.454  14.417  1.00  0.00     0.001 A 
ATOM     84  C   UNL     1       1.691 -20.441  14.151  1.00  0.00     0.000 A 
ENDBRANCH  66  79
ENDBRANCH  40  41
ENDBRANCH  33  35
ENDBRANCH  32  33
ENDBRANCH  31  32
ENDBRANCH  30  31
ENDBRANCH  29  30
ENDBRANCH  28  29
ENDBRANCH  27  28
ENDBRANCH  26  27
ENDBRANCH  25  26
ENDBRANCH   1  25
TORSDOF 25
