REMARK SMILES COCCS(=O)(=O)Cc1c(C(=O)OCCOCCOCCOCCOC(=O)c2ccc(-c3c4nc(c(-c5ccccc5)c5ccc([nH]5)c(-c5ccccc5)c5nc(c(-c6ccccc6)c6ccc3[nH]6)C=C5)C=C4)cc2)oc2ccccc12
REMARK SMILES IDX 17 1 16 2 15 3 14 4 13 5 11 6 12 7 10 8 9 9 82 10 76 11
REMARK SMILES IDX 77 12 81 13 78 14 80 15 79 16 8 17 5 18 6 19 7 20 4 21 3 22
REMARK SMILES IDX 2 23 1 24 18 25 19 26 20 27 21 28 22 29 23 30 24 31 25 32
REMARK SMILES IDX 26 33 27 34 28 35 29 36 75 37 30 38 74 39 31 40 32 41 33 42
REMARK SMILES IDX 68 43 34 44 73 45 67 46 69 47 35 48 72 49 66 50 65 51 36 53
REMARK SMILES IDX 58 54 43 55 57 56 44 57 47 58 56 59 70 60 45 61 46 62 55 64
REMARK SMILES IDX 71 65 48 66 37 67 38 68 42 69 39 70 41 71 40 72 59 73 60 74
REMARK SMILES IDX 64 75 61 76 63 77 62 78 49 79 50 80 54 81 51 82 53 83 52 84
REMARK H PARENT 69 52 47 63
REMARK Flexibility Score: inf
ROOT
ATOM      1  C   UNL     1      -2.082  -1.372  -1.388  1.00  0.00     0.188 C 
ENDROOT
BRANCH   1   2
ATOM      2  O   UNL     1      -1.182  -2.464  -1.243  1.00  0.00    -0.376 OA
BRANCH   2   3
ATOM      3  C   UNL     1      -0.781  -2.861   0.066  1.00  0.00     0.202 C 
BRANCH   3   4
ATOM      4  C   UNL     1      -1.777  -2.657   1.218  1.00  0.00     0.261 C 
BRANCH   4   5
ATOM      5  O   UNL     1      -2.150  -1.279   1.405  1.00  0.00    -0.457 OA
BRANCH   5   6
ATOM      6  C   UNL     1      -1.150  -0.377   1.609  1.00  0.00     0.374 C 
ATOM      7  O   UNL     1      -0.043  -0.655   2.053  1.00  0.00    -0.242 OA
BRANCH   6   8
ATOM      8  C   UNL     1      -1.542   0.897   1.038  1.00  0.00     0.217 A 
ATOM      9  C   UNL     1      -0.819   1.960   0.485  1.00  0.00     0.028 A 
ATOM     10  C   UNL     1      -1.807   2.944   0.132  1.00  0.00     0.025 A 
ATOM     11  O   UNL     1      -2.884   1.129   0.898  1.00  0.00    -0.449 OA
ATOM     12  C   UNL     1      -3.043   2.364   0.375  1.00  0.00     0.135 A 
ATOM     13  C   UNL     1      -1.791   4.263  -0.358  1.00  0.00     0.012 A 
ATOM     14  C   UNL     1      -4.271   2.975   0.136  1.00  0.00     0.048 A 
ATOM     15  C   UNL     1      -3.009   4.924  -0.578  1.00  0.00     0.001 A 
ATOM     16  C   UNL     1      -4.229   4.286  -0.342  1.00  0.00     0.004 A 
BRANCH   9  17
ATOM     17  C   UNL     1       0.669   2.113   0.377  1.00  0.00     0.177 C 
BRANCH  17  18
ATOM     18  S   UNL     1       1.407   2.241  -1.270  1.00  0.00     0.156 S 
ATOM     19  O   UNL     1       2.828   2.466  -1.067  1.00  0.00    -0.228 OA
ATOM     20  O   UNL     1       0.655   3.229  -2.026  1.00  0.00    -0.228 OA
BRANCH  18  21
ATOM     21  C   UNL     1       1.210   0.683  -2.134  1.00  0.00     0.165 C 
BRANCH  21  22
ATOM     22  C   UNL     1       2.452  -0.198  -2.175  1.00  0.00     0.176 C 
BRANCH  22  23
ATOM     23  O   UNL     1       2.375  -1.335  -1.314  1.00  0.00    -0.384 OA
ATOM     24  C   UNL     1       2.572  -1.029   0.053  1.00  0.00     0.194 C 
ENDBRANCH  22  23
ENDBRANCH  21  22
ENDBRANCH  18  21
ENDBRANCH  17  18
ENDBRANCH   9  17
ENDBRANCH   6   8
ENDBRANCH   5   6
ENDBRANCH   4   5
ENDBRANCH   3   4
ENDBRANCH   2   3
ENDBRANCH   1   2
BRANCH   1  25
ATOM     25  C   UNL     1      -2.380  -1.033  -2.847  1.00  0.00     0.188 C 
BRANCH  25  26
ATOM     26  O   UNL     1      -3.031  -2.064  -3.581  1.00  0.00    -0.377 OA
BRANCH  26  27
ATOM     27  C   UNL     1      -2.438  -3.354  -3.483  1.00  0.00     0.188 C 
BRANCH  27  28
ATOM     28  C   UNL     1      -0.997  -3.535  -4.012  1.00  0.00     0.188 C 
BRANCH  28  29
ATOM     29  O   UNL     1      -0.282  -2.333  -4.288  1.00  0.00    -0.376 OA
BRANCH  29  30
ATOM     30  C   UNL     1      -0.061  -2.063  -5.673  1.00  0.00     0.202 C 
BRANCH  30  31
ATOM     31  C   UNL     1      -1.269  -1.456  -6.402  1.00  0.00     0.261 C 
BRANCH  31  32
ATOM     32  O   UNL     1      -2.440  -2.286  -6.422  1.00  0.00    -0.460 OA
BRANCH  32  33
ATOM     33  C   UNL     1      -2.349  -3.477  -7.051  1.00  0.00     0.338 C 
ATOM     34  O   UNL     1      -1.408  -3.898  -7.697  1.00  0.00    -0.246 OA
BRANCH  33  35
ATOM     35  C   UNL     1      -3.510  -4.294  -6.633  1.00  0.00     0.060 A 
ATOM     36  C   UNL     1      -3.272  -5.597  -6.173  1.00  0.00     0.016 A 
ATOM     37  C   UNL     1      -4.804  -3.762  -6.610  1.00  0.00     0.016 A 
ATOM     38  C   UNL     1      -4.330  -6.374  -5.700  1.00  0.00     0.010 A 
ATOM     39  C   UNL     1      -5.867  -4.552  -6.168  1.00  0.00     0.010 A 
ATOM     40  C   UNL     1      -5.638  -5.869  -5.735  1.00  0.00    -0.014 A 
BRANCH  40  41
ATOM     41  C   UNL     1      -6.779  -6.797  -5.565  1.00  0.00     0.031 A 
ATOM     42  C   UNL     1      -7.300  -7.485  -6.797  1.00  0.00     0.074 A 
ATOM     43  C   UNL     1      -7.332  -7.042  -4.364  1.00  0.00     0.049 A 
ATOM     44  N   UNL     1      -8.283  -8.337  -6.921  1.00  0.00    -0.248 NA
ATOM     45  C   UNL     1      -6.612  -7.167  -8.061  1.00  0.00     0.031 C 
ATOM     46  C   UNL     1      -6.899  -6.468  -3.092  1.00  0.00     0.029 A 
ATOM     47  N   UNL     1      -8.393  -7.846  -4.028  1.00  0.00    -0.354 N 
ATOM     48  C   UNL     1      -8.325  -8.662  -8.271  1.00  0.00     0.074 A 
ATOM     49  C   UNL     1      -7.292  -7.896  -8.931  1.00  0.00     0.031 C 
ATOM     50  C   UNL     1      -7.696  -6.934  -2.112  1.00  0.00     0.029 A 
ATOM     51  C   UNL     1      -8.707  -7.816  -2.691  1.00  0.00     0.049 A 
ATOM     52  H   UNL     1      -8.883  -8.393  -4.684  1.00  0.00     0.167 HD
ATOM     53  C   UNL     1      -9.146  -9.527  -8.909  1.00  0.00     0.031 A 
ATOM     54  C   UNL     1      -9.708  -8.422  -2.021  1.00  0.00     0.031 A 
ATOM     55  C   UNL     1     -10.200 -10.260  -8.267  1.00  0.00     0.049 A 
ATOM     56  C   UNL     1     -10.670  -9.309  -2.772  1.00  0.00     0.074 A 
ATOM     57  C   UNL     1     -11.094 -11.154  -8.828  1.00  0.00     0.029 A 
ATOM     58  N   UNL     1     -10.510 -10.169  -6.920  1.00  0.00    -0.354 N 
ATOM     59  N   UNL     1     -10.677  -9.638  -4.041  1.00  0.00    -0.248 NA
ATOM     60  C   UNL     1     -11.760  -9.915  -1.990  1.00  0.00     0.031 C 
ATOM     61  C   UNL     1     -11.978 -11.568  -7.827  1.00  0.00     0.029 A 
ATOM     62  C   UNL     1     -11.598 -10.974  -6.634  1.00  0.00     0.049 A 
ATOM     63  H   UNL     1     -10.027  -9.616  -6.264  1.00  0.00     0.167 HD
ATOM     64  C   UNL     1     -11.749 -10.509  -4.204  1.00  0.00     0.074 A 
ATOM     65  C   UNL     1     -12.361 -10.668  -2.901  1.00  0.00     0.031 C 
ATOM     66  C   UNL     1     -12.188 -11.123  -5.329  1.00  0.00     0.031 A 
BRANCH  53  67
ATOM     67  C   UNL     1      -8.950  -9.690 -10.387  1.00  0.00    -0.014 A 
ATOM     68  C   UNL     1      -7.843 -10.387 -10.898  1.00  0.00     0.009 A 
ATOM     69  C   UNL     1      -9.888  -9.151 -11.280  1.00  0.00     0.009 A 
ATOM     70  C   UNL     1      -7.665 -10.515 -12.276  1.00  0.00     0.001 A 
ATOM     71  C   UNL     1      -9.721  -9.303 -12.657  1.00  0.00     0.001 A 
ATOM     72  C   UNL     1      -8.606  -9.977 -13.154  1.00  0.00     0.000 A 
ENDBRANCH  53  67
BRANCH  54  73
ATOM     73  C   UNL     1      -9.882  -8.199  -0.560  1.00  0.00    -0.014 A 
ATOM     74  C   UNL     1      -9.665  -9.240   0.356  1.00  0.00     0.009 A 
ATOM     75  C   UNL     1     -10.316  -6.954  -0.079  1.00  0.00     0.009 A 
ATOM     76  C   UNL     1      -9.908  -9.047   1.719  1.00  0.00     0.001 A 
ATOM     77  C   UNL     1     -10.532  -6.756   1.287  1.00  0.00     0.001 A 
ATOM     78  C   UNL     1     -10.338  -7.805   2.183  1.00  0.00     0.000 A 
ENDBRANCH  54  73
BRANCH  66  79
ATOM     79  C   UNL     1     -13.359 -12.055  -5.199  1.00  0.00    -0.014 A 
ATOM     80  C   UNL     1     -14.661 -11.569  -5.002  1.00  0.00     0.009 A 
ATOM     81  C   UNL     1     -13.162 -13.439  -5.332  1.00  0.00     0.009 A 
ATOM     82  C   UNL     1     -15.737 -12.454  -4.911  1.00  0.00     0.001 A 
ATOM     83  C   UNL     1     -14.243 -14.318  -5.270  1.00  0.00     0.001 A 
ATOM     84  C   UNL     1     -15.528 -13.826  -5.051  1.00  0.00     0.000 A 
ENDBRANCH  66  79
ENDBRANCH  40  41
ENDBRANCH  33  35
ENDBRANCH  32  33
ENDBRANCH  31  32
ENDBRANCH  30  31
ENDBRANCH  29  30
ENDBRANCH  28  29
ENDBRANCH  27  28
ENDBRANCH  26  27
ENDBRANCH  25  26
ENDBRANCH   1  25
TORSDOF 25
