REMARK SMILES CCN(CC)S(=O)(=O)c1cccc(C(=O)N2C[C@H](O)C[C@H]2C(=O)OCCOCCOCCOCCOC(=O)c2ccc(-c3c4nc(c(-c5ccccc5)c5ccc([nH]5)c(-c5ccccc5)c5nc(c(-c6ccccc6)c6ccc3[nH]6)C=C5)C=C4)cc2)c1
REMARK SMILES IDX 28 1 27 2 26 3 25 4 24 5 22 6 23 7 21 8 16 9 17 10 18 11
REMARK SMILES IDX 20 12 14 13 15 14 13 15 9 16 10 17 87 18 11 19 12 20 6 21
REMARK SMILES IDX 7 22 8 23 3 24 2 25 1 26 4 27 5 28 19 29 29 31 30 32 31 33
REMARK SMILES IDX 32 34 33 35 34 36 35 37 36 38 37 39 38 40 39 41 40 42 86 43
REMARK SMILES IDX 41 44 85 45 42 46 43 47 44 48 79 49 45 50 84 51 78 52 80 53
REMARK SMILES IDX 46 54 83 55 77 56 76 57 47 59 69 60 54 61 68 62 55 63 58 64
REMARK SMILES IDX 67 65 81 66 56 67 57 68 66 70 82 71 59 72 48 73 49 74 53 75
REMARK SMILES IDX 50 76 52 77 51 78 70 79 71 80 75 81 72 82 74 83 73 84 60 85
REMARK SMILES IDX 61 86 65 87 62 88 64 89 63 90
REMARK H PARENT 19 30 80 58 58 69
REMARK Flexibility Score: inf
ROOT
ATOM      1  C   UNL     1       0.820   7.960  -7.959  1.00  0.00     0.188 C 
ENDROOT
BRANCH   1   2
ATOM      2  O   UNL     1       1.350   8.996  -8.767  1.00  0.00    -0.376 OA
BRANCH   2   3
ATOM      3  C   UNL     1       2.413   9.807  -8.273  1.00  0.00     0.202 C 
BRANCH   3   4
ATOM      4  C   UNL     1       2.437  10.249  -6.800  1.00  0.00     0.261 C 
BRANCH   4   5
ATOM      5  O   UNL     1       2.773   9.206  -5.848  1.00  0.00    -0.462 OA
BRANCH   5   6
ATOM      6  C   UNL     1       1.818   8.952  -4.925  1.00  0.00     0.329 C 
ATOM      7  O   UNL     1       0.720   9.516  -4.921  1.00  0.00    -0.250 OA
BRANCH   6   8
ATOM      8  C   UNL     1       2.101   7.872  -3.859  1.00  0.00     0.198 C 
ATOM      9  N   UNL     1       3.332   7.151  -3.476  1.00  0.00    -0.322 N 
ATOM     10  C   UNL     1       3.666   7.340  -2.072  1.00  0.00     0.152 C 
ATOM     11  C   UNL     1       2.356   7.786  -1.442  1.00  0.00     0.136 C 
ATOM     12  C   UNL     1       1.723   8.608  -2.542  1.00  0.00     0.071 C 
BRANCH   9  13
ATOM     13  C   UNL     1       4.049   6.281  -4.267  1.00  0.00     0.254 C 
ATOM     14  O   UNL     1       4.895   6.715  -5.044  1.00  0.00    -0.269 OA
BRANCH  13  15
ATOM     15  C   UNL     1       3.893   4.782  -4.096  1.00  0.00     0.041 A 
ATOM     16  C   UNL     1       3.234   2.736  -2.928  1.00  0.00     0.083 A 
ATOM     17  C   UNL     1       3.799   1.951  -3.939  1.00  0.00     0.022 A 
ATOM     18  C   UNL     1       3.264   4.146  -3.014  1.00  0.00     0.035 A 
ATOM     19  C   UNL     1       4.433   2.572  -5.011  1.00  0.00     0.002 A 
ATOM     20  C   UNL     1       4.497   3.969  -5.071  1.00  0.00     0.014 A 
BRANCH  16  21
ATOM     21  S   UNL     1       2.809   1.936  -1.376  1.00  0.00     0.243 S 
ATOM     22  O   UNL     1       3.186   2.856  -0.318  1.00  0.00    -0.207 OA
ATOM     23  O   UNL     1       3.388   0.615  -1.420  1.00  0.00    -0.207 OA
BRANCH  21  24
ATOM     24  N   UNL     1       1.101   1.759  -1.354  1.00  0.00    -0.198 NA
BRANCH  24  25
ATOM     25  C   UNL     1       0.582   1.013  -0.151  1.00  0.00     0.099 C 
ATOM     26  C   UNL     1       0.865  -0.475  -0.187  1.00  0.00     0.022 C 
ENDBRANCH  24  25
BRANCH  24  27
ATOM     27  C   UNL     1       0.275   2.977  -1.605  1.00  0.00     0.099 C 
ATOM     28  C   UNL     1       0.282   3.973  -0.458  1.00  0.00     0.022 C 
ENDBRANCH  24  27
ENDBRANCH  21  24
ENDBRANCH  16  21
ENDBRANCH  13  15
ENDBRANCH   9  13
BRANCH  11  29
ATOM     29  O   UNL     1       1.509   6.684  -1.142  1.00  0.00    -0.391 OA
ATOM     30  H   UNL     1       1.340   6.176  -1.952  1.00  0.00     0.211 HD
ENDBRANCH  11  29
ENDBRANCH   6   8
ENDBRANCH   5   6
ENDBRANCH   4   5
ENDBRANCH   3   4
ENDBRANCH   2   3
ENDBRANCH   1   2
BRANCH   1  31
ATOM     31  C   UNL     1       1.627   6.665  -7.851  1.00  0.00     0.188 C 
BRANCH  31  32
ATOM     32  O   UNL     1       2.875   6.767  -7.187  1.00  0.00    -0.377 OA
BRANCH  32  33
ATOM     33  C   UNL     1       4.069   6.938  -7.956  1.00  0.00     0.188 C 
BRANCH  33  34
ATOM     34  C   UNL     1       4.038   6.547  -9.438  1.00  0.00     0.188 C 
BRANCH  34  35
ATOM     35  O   UNL     1       3.675   5.196  -9.739  1.00  0.00    -0.376 OA
BRANCH  35  36
ATOM     36  C   UNL     1       4.067   4.180  -8.821  1.00  0.00     0.202 C 
BRANCH  36  37
ATOM     37  C   UNL     1       5.510   3.696  -8.970  1.00  0.00     0.261 C 
BRANCH  37  38
ATOM     38  O   UNL     1       6.466   4.698  -8.581  1.00  0.00    -0.460 OA
BRANCH  38  39
ATOM     39  C   UNL     1       7.093   5.315  -9.610  1.00  0.00     0.338 C 
ATOM     40  O   UNL     1       6.941   5.097 -10.801  1.00  0.00    -0.246 OA
BRANCH  39  41
ATOM     41  C   UNL     1       7.942   6.417  -9.117  1.00  0.00     0.060 A 
ATOM     42  C   UNL     1       7.930   7.616  -9.841  1.00  0.00     0.016 A 
ATOM     43  C   UNL     1       8.823   6.246  -8.046  1.00  0.00     0.016 A 
ATOM     44  C   UNL     1       8.844   8.623  -9.541  1.00  0.00     0.010 A 
ATOM     45  C   UNL     1       9.747   7.254  -7.751  1.00  0.00     0.010 A 
ATOM     46  C   UNL     1       9.791   8.425  -8.528  1.00  0.00    -0.014 A 
BRANCH  46  47
ATOM     47  C   UNL     1      10.939   9.355  -8.422  1.00  0.00     0.031 A 
ATOM     48  C   UNL     1      12.229   8.987  -9.107  1.00  0.00     0.074 A 
ATOM     49  C   UNL     1      10.821  10.533  -7.785  1.00  0.00     0.049 A 
ATOM     50  N   UNL     1      13.361   9.641  -9.150  1.00  0.00    -0.248 NA
ATOM     51  C   UNL     1      12.239   7.716  -9.850  1.00  0.00     0.031 C 
ATOM     52  C   UNL     1       9.607  11.030  -7.140  1.00  0.00     0.029 A 
ATOM     53  N   UNL     1      11.744  11.528  -7.584  1.00  0.00    -0.354 N 
ATOM     54  C   UNL     1      14.213   8.866  -9.927  1.00  0.00     0.074 A 
ATOM     55  C   UNL     1      13.481   7.678 -10.308  1.00  0.00     0.031 C 
ATOM     56  C   UNL     1       9.861  12.241  -6.613  1.00  0.00     0.029 A 
ATOM     57  C   UNL     1      11.260  12.586  -6.855  1.00  0.00     0.049 A 
ATOM     58  H   UNL     1      12.665  11.487  -7.929  1.00  0.00     0.167 HD
ATOM     59  C   UNL     1      15.489   9.122 -10.300  1.00  0.00     0.031 A 
ATOM     60  C   UNL     1      11.885  13.697  -6.420  1.00  0.00     0.031 A 
ATOM     61  C   UNL     1      16.228  10.289  -9.903  1.00  0.00     0.049 A 
ATOM     62  C   UNL     1      13.339  13.904  -6.756  1.00  0.00     0.074 A 
ATOM     63  C   UNL     1      17.535  10.629 -10.206  1.00  0.00     0.029 A 
ATOM     64  N   UNL     1      15.721  11.307  -9.112  1.00  0.00    -0.354 N 
ATOM     65  N   UNL     1      14.134  13.163  -7.490  1.00  0.00    -0.248 NA
ATOM     66  C   UNL     1      13.980  15.107  -6.203  1.00  0.00     0.031 C 
ATOM     67  C   UNL     1      17.832  11.834  -9.561  1.00  0.00     0.029 A 
ATOM     68  C   UNL     1      16.694  12.268  -8.901  1.00  0.00     0.049 A 
ATOM     69  H   UNL     1      14.805  11.342  -8.753  1.00  0.00     0.167 HD
ATOM     70  C   UNL     1      15.355  13.825  -7.513  1.00  0.00     0.074 A 
ATOM     71  C   UNL     1      15.194  15.033  -6.731  1.00  0.00     0.031 C 
ATOM     72  C   UNL     1      16.509  13.467  -8.128  1.00  0.00     0.031 A 
BRANCH  59  73
ATOM     73  C   UNL     1      16.173   8.104 -11.166  1.00  0.00    -0.014 A 
ATOM     74  C   UNL     1      15.839   7.966 -12.523  1.00  0.00     0.009 A 
ATOM     75  C   UNL     1      17.186   7.295 -10.629  1.00  0.00     0.009 A 
ATOM     76  C   UNL     1      16.490   7.021 -13.318  1.00  0.00     0.001 A 
ATOM     77  C   UNL     1      17.851   6.367 -11.432  1.00  0.00     0.001 A 
ATOM     78  C   UNL     1      17.498   6.226 -12.774  1.00  0.00     0.000 A 
ENDBRANCH  59  73
BRANCH  60  79
ATOM     79  C   UNL     1      11.158  14.696  -5.593  1.00  0.00    -0.014 A 
ATOM     80  C   UNL     1      10.887  15.979  -6.093  1.00  0.00     0.009 A 
ATOM     81  C   UNL     1      10.776  14.386  -4.279  1.00  0.00     0.009 A 
ATOM     82  C   UNL     1      10.279  16.940  -5.282  1.00  0.00     0.001 A 
ATOM     83  C   UNL     1      10.142  15.339  -3.480  1.00  0.00     0.001 A 
ATOM     84  C   UNL     1       9.904  16.619  -3.978  1.00  0.00     0.000 A 
ENDBRANCH  60  79
BRANCH  72  85
ATOM     85  C   UNL     1      17.669  14.415  -8.018  1.00  0.00    -0.014 A 
ATOM     86  C   UNL     1      18.392  14.548  -6.822  1.00  0.00     0.009 A 
ATOM     87  C   UNL     1      18.069  15.154  -9.143  1.00  0.00     0.009 A 
ATOM     88  C   UNL     1      19.472  15.430  -6.747  1.00  0.00     0.001 A 
ATOM     89  C   UNL     1      19.166  16.014  -9.072  1.00  0.00     0.001 A 
ATOM     90  C   UNL     1      19.860  16.157  -7.872  1.00  0.00     0.000 A 
ENDBRANCH  72  85
ENDBRANCH  46  47
ENDBRANCH  39  41
ENDBRANCH  38  39
ENDBRANCH  37  38
ENDBRANCH  36  37
ENDBRANCH  35  36
ENDBRANCH  34  35
ENDBRANCH  33  34
ENDBRANCH  32  33
ENDBRANCH  31  32
ENDBRANCH   1  31
TORSDOF 27
