REMARK SMILES O=C(OCCOCCOCCOCCOC(=O)c1ccc(-c2c3nc(c(-c4ccccc4)c4ccc([nH]4)c(-c4ccccc4)c4nc(c(-c5ccccc5)c5ccc2[nH]5)C=C4)C=C3)cc1)C1=Cc2cc(Cl)cc(-c3ccccc3)c2O[C@@H]1C(F)(F)F
REMARK SMILES IDX 10 1 9 2 8 3 7 4 6 5 5 6 4 7 3 8 2 9 1 10 66 11 67 12 82 13
REMARK SMILES IDX 68 14 81 15 69 16 80 17 70 18 73 19 71 20 72 21 83 22 84 23
REMARK SMILES IDX 85 24 86 25 74 26 75 27 79 28 76 29 78 30 77 31 11 32 12 33
REMARK SMILES IDX 13 34 14 35 15 36 16 37 17 38 18 39 19 40 65 41 20 42 64 43
REMARK SMILES IDX 21 44 22 45 23 46 58 47 24 48 63 49 57 50 59 51 25 52 62 53
REMARK SMILES IDX 56 54 55 55 26 57 48 58 33 59 47 60 34 61 37 62 46 63 60 64
REMARK SMILES IDX 35 65 36 66 45 68 61 69 38 70 27 71 28 72 32 73 29 74 31 75
REMARK SMILES IDX 30 76 49 77 50 78 54 79 51 80 53 81 52 82 39 83 40 84 44 85
REMARK SMILES IDX 41 86 43 87 42 88
REMARK H PARENT 59 56 37 67
REMARK Flexibility Score: inf
ROOT
ATOM      1  C   UNL     1       3.688  -2.157   3.219  1.00  0.00     0.188 C 
ENDROOT
BRANCH   1   2
ATOM      2  O   UNL     1       2.407  -2.722   3.097  1.00  0.00    -0.377 OA
BRANCH   2   3
ATOM      3  C   UNL     1       1.691  -2.048   2.101  1.00  0.00     0.188 C 
BRANCH   3   4
ATOM      4  C   UNL     1       2.227  -2.432   0.733  1.00  0.00     0.188 C 
BRANCH   4   5
ATOM      5  O   UNL     1       3.582  -2.168   0.241  1.00  0.00    -0.376 OA
BRANCH   5   6
ATOM      6  C   UNL     1       4.379  -0.890  -0.441  1.00  0.00     0.202 C 
BRANCH   6   7
ATOM      7  C   UNL     1       3.678   1.171  -0.613  1.00  0.00     0.261 C 
BRANCH   7   8
ATOM      8  O   UNL     1       2.779   1.730  -1.706  1.00  0.00    -0.460 OA
BRANCH   8   9
ATOM      9  C   UNL     1       2.980   1.137  -2.889  1.00  0.00     0.338 C 
ATOM     10  O   UNL     1       2.333   1.242  -3.901  1.00  0.00    -0.246 OA
BRANCH   9  11
ATOM     11  C   UNL     1       3.827   0.065  -2.397  1.00  0.00     0.087 C 
ATOM     12  C   UNL     1       5.205   0.455  -2.127  1.00  0.00     0.027 C 
ATOM     13  C   UNL     1       2.559  -0.488  -1.064  1.00  0.00     0.316 C 
ATOM     14  C   UNL     1       5.878   0.715  -0.483  1.00  0.00     0.019 A 
ATOM     15  O   UNL     1       3.210  -0.074   0.739  1.00  0.00    -0.475 OA
ATOM     16  C   UNL     1       7.187   1.117  -0.408  1.00  0.00     0.032 A 
ATOM     17  C   UNL     1       4.912   0.614   0.962  1.00  0.00     0.135 A 
ATOM     18  C   UNL     1       7.647   1.424   0.873  1.00  0.00     0.042 A 
ATOM     19  C   UNL     1       5.448   1.052   2.180  1.00  0.00     0.026 A 
ATOM     20  Cl  UNL     1       9.307   1.896   1.032  1.00  0.00    -0.084 Cl
ATOM     21  C   UNL     1       6.836   1.407   2.067  1.00  0.00     0.033 A 
BRANCH  13  22
ATOM     22  C   UNL     1       2.315  -1.929  -1.968  1.00  0.00     0.430 C 
ATOM     23  F   UNL     1       1.477  -2.882  -1.524  1.00  0.00    -0.167 F 
ATOM     24  F   UNL     1       1.739  -1.537  -3.150  1.00  0.00    -0.167 F 
ATOM     25  F   UNL     1       3.458  -2.558  -2.346  1.00  0.00    -0.167 F 
ENDBRANCH  13  22
BRANCH  19  26
ATOM     26  C   UNL     1       4.862   1.254   3.505  1.00  0.00    -0.015 A 
ATOM     27  C   UNL     1       4.497   2.513   4.006  1.00  0.00     0.009 A 
ATOM     28  C   UNL     1       4.864   0.226   4.428  1.00  0.00     0.009 A 
ATOM     29  C   UNL     1       3.936   2.656   5.288  1.00  0.00     0.001 A 
ATOM     30  C   UNL     1       4.123   0.316   5.601  1.00  0.00     0.001 A 
ATOM     31  C   UNL     1       3.662   1.534   6.051  1.00  0.00     0.000 A 
ENDBRANCH  19  26
ENDBRANCH   9  11
ENDBRANCH   8   9
ENDBRANCH   7   8
ENDBRANCH   6   7
ENDBRANCH   5   6
ENDBRANCH   4   5
ENDBRANCH   3   4
ENDBRANCH   2   3
ENDBRANCH   1   2
BRANCH   1  32
ATOM     32  C   UNL     1       4.877  -3.039   2.873  1.00  0.00     0.188 C 
BRANCH  32  33
ATOM     33  O   UNL     1       4.546  -4.235   2.221  1.00  0.00    -0.376 OA
BRANCH  33  34
ATOM     34  C   UNL     1       3.922  -5.277   2.957  1.00  0.00     0.202 C 
BRANCH  34  35
ATOM     35  C   UNL     1       3.203  -5.092   4.315  1.00  0.00     0.261 C 
BRANCH  35  36
ATOM     36  O   UNL     1       3.770  -4.202   5.294  1.00  0.00    -0.460 OA
BRANCH  36  37
ATOM     37  C   UNL     1       5.028  -4.423   5.730  1.00  0.00     0.338 C 
ATOM     38  O   UNL     1       5.760  -5.345   5.423  1.00  0.00    -0.246 OA
BRANCH  37  39
ATOM     39  C   UNL     1       5.455  -3.211   6.483  1.00  0.00     0.060 A 
ATOM     40  C   UNL     1       6.678  -2.600   6.164  1.00  0.00     0.016 A 
ATOM     41  C   UNL     1       4.635  -2.652   7.467  1.00  0.00     0.016 A 
ATOM     42  C   UNL     1       7.106  -1.456   6.854  1.00  0.00     0.010 A 
ATOM     43  C   UNL     1       5.060  -1.505   8.153  1.00  0.00     0.010 A 
ATOM     44  C   UNL     1       6.321  -0.925   7.885  1.00  0.00    -0.014 A 
BRANCH  44  45
ATOM     45  C   UNL     1       6.931  -0.017   8.897  1.00  0.00     0.031 A 
ATOM     46  C   UNL     1       7.298  -0.657  10.213  1.00  0.00     0.074 A 
ATOM     47  C   UNL     1       7.190   1.293   8.700  1.00  0.00     0.049 A 
ATOM     48  N   UNL     1       7.860  -0.134  11.271  1.00  0.00    -0.248 NA
ATOM     49  C   UNL     1       6.977  -2.090  10.353  1.00  0.00     0.031 C 
ATOM     50  C   UNL     1       6.945   2.045   7.473  1.00  0.00     0.029 A 
ATOM     51  N   UNL     1       7.722   2.232   9.556  1.00  0.00    -0.354 N 
ATOM     52  C   UNL     1       7.957  -1.175  12.184  1.00  0.00     0.074 A 
ATOM     53  C   UNL     1       7.304  -2.324  11.609  1.00  0.00     0.031 C 
ATOM     54  C   UNL     1       7.296   3.332   7.661  1.00  0.00     0.029 A 
ATOM     55  C   UNL     1       7.807   3.497   9.020  1.00  0.00     0.049 A 
ATOM     56  H   UNL     1       8.017   2.017  10.471  1.00  0.00     0.167 HD
ATOM     57  C   UNL     1       8.581  -1.204  13.382  1.00  0.00     0.031 A 
ATOM     58  C   UNL     1       8.260   4.649   9.559  1.00  0.00     0.031 A 
ATOM     59  C   UNL     1       9.224  -0.069  13.971  1.00  0.00     0.049 A 
ATOM     60  C   UNL     1       8.854   4.626  10.949  1.00  0.00     0.074 A 
ATOM     61  C   UNL     1       9.905   0.006  15.171  1.00  0.00     0.029 A 
ATOM     62  N   UNL     1       9.248   1.196  13.408  1.00  0.00    -0.354 N 
ATOM     63  N   UNL     1       9.011   3.614  11.768  1.00  0.00    -0.248 NA
ATOM     64  C   UNL     1       9.379   5.900  11.467  1.00  0.00     0.031 C 
ATOM     65  C   UNL     1      10.269   1.339  15.374  1.00  0.00     0.029 A 
ATOM     66  C   UNL     1       9.900   2.072  14.256  1.00  0.00     0.049 A 
ATOM     67  H   UNL     1       8.860   1.436  12.536  1.00  0.00     0.167 HD
ATOM     68  C   UNL     1       9.707   4.114  12.865  1.00  0.00     0.074 A 
ATOM     69  C   UNL     1       9.944   5.518  12.603  1.00  0.00     0.031 C 
ATOM     70  C   UNL     1      10.131   3.466  13.979  1.00  0.00     0.031 A 
BRANCH  57  71
ATOM     71  C   UNL     1       8.557  -2.510  14.125  1.00  0.00    -0.014 A 
ATOM     72  C   UNL     1       9.226  -3.646  13.636  1.00  0.00     0.009 A 
ATOM     73  C   UNL     1       7.822  -2.614  15.314  1.00  0.00     0.009 A 
ATOM     74  C   UNL     1       9.111  -4.872  14.293  1.00  0.00     0.001 A 
ATOM     75  C   UNL     1       7.744  -3.830  15.992  1.00  0.00     0.001 A 
ATOM     76  C   UNL     1       8.375  -4.961  15.473  1.00  0.00     0.000 A 
ENDBRANCH  57  71
BRANCH  58  77
ATOM     77  C   UNL     1       8.226   5.927   8.788  1.00  0.00    -0.014 A 
ATOM     78  C   UNL     1       9.416   6.553   8.378  1.00  0.00     0.009 A 
ATOM     79  C   UNL     1       7.007   6.568   8.515  1.00  0.00     0.009 A 
ATOM     80  C   UNL     1       9.389   7.805   7.755  1.00  0.00     0.001 A 
ATOM     81  C   UNL     1       6.981   7.806   7.863  1.00  0.00     0.001 A 
ATOM     82  C   UNL     1       8.172   8.429   7.495  1.00  0.00     0.000 A 
ENDBRANCH  58  77
BRANCH  70  83
ATOM     83  C   UNL     1      10.955   4.244  14.970  1.00  0.00    -0.014 A 
ATOM     84  C   UNL     1      10.415   5.295  15.726  1.00  0.00     0.009 A 
ATOM     85  C   UNL     1      12.296   3.878  15.179  1.00  0.00     0.009 A 
ATOM     86  C   UNL     1      11.216   5.998  16.630  1.00  0.00     0.001 A 
ATOM     87  C   UNL     1      13.081   4.552  16.115  1.00  0.00     0.001 A 
ATOM     88  C   UNL     1      12.545   5.622  16.827  1.00  0.00     0.000 A 
ENDBRANCH  70  83
ENDBRANCH  44  45
ENDBRANCH  37  39
ENDBRANCH  36  37
ENDBRANCH  35  36
ENDBRANCH  34  35
ENDBRANCH  33  34
ENDBRANCH  32  33
ENDBRANCH   1  32
TORSDOF 22
