REMARK SMILES NS(=O)(=O)c1ccc(-n2nc(NC(=O)NCCCC(=O)OCCOCCOCCOCCOC(=O)c3ccc(-c4c5nc(c(-c6ccccc6)c6ccc([nH]6)c(-c6ccccc6)c6nc(c(-c7ccccc7)c7ccc4[nH]7)C=C6)C=C5)cc3)cc2-c2ccccc2)cc1
REMARK SMILES IDX 25 1 24 2 23 3 22 4 21 5 19 6 20 7 18 8 17 9 16 10 15 11
REMARK SMILES IDX 12 12 13 13 14 15 11 17 9 18 10 19 85 20 84 21 8 22 5 23
REMARK SMILES IDX 6 24 93 25 7 26 92 27 2 28 3 29 4 30 1 31 86 34 87 35 91 36
REMARK SMILES IDX 88 37 90 38 89 39 26 40 27 41 28 42 29 43 30 44 31 45 32 46
REMARK SMILES IDX 33 47 34 48 35 49 36 50 37 51 83 52 38 53 82 54 39 55 40 56
REMARK SMILES IDX 41 57 76 58 42 59 81 60 75 61 77 62 43 63 80 64 74 65 73 66
REMARK SMILES IDX 44 68 66 69 51 70 65 71 52 72 55 73 64 74 78 75 53 76 54 77
REMARK SMILES IDX 63 79 79 80 56 81 45 82 46 83 50 84 47 85 49 86 48 87 67 88
REMARK SMILES IDX 68 89 72 90 69 91 71 92 70 93 57 94 58 95 62 96 59 97 61 98
REMARK SMILES IDX 60 99
REMARK H PARENT 12 14 15 16 1 32 1 33 77 67 55 78
REMARK Flexibility Score: inf
ROOT
ATOM      1  C   UNL     1       2.952   4.040   1.127  1.00  0.00     0.188 C 
ENDROOT
BRANCH   1   2
ATOM      2  O   UNL     1       2.709   4.771   2.320  1.00  0.00    -0.376 OA
BRANCH   2   3
ATOM      3  C   UNL     1       1.748   5.811   2.321  1.00  0.00     0.202 C 
BRANCH   3   4
ATOM      4  C   UNL     1       2.201   7.174   1.775  1.00  0.00     0.261 C 
BRANCH   4   5
ATOM      5  O   UNL     1       3.022   7.157   0.594  1.00  0.00    -0.463 OA
BRANCH   5   6
ATOM      6  C   UNL     1       4.354   7.013   0.813  1.00  0.00     0.305 C 
ATOM      7  O   UNL     1       4.870   6.853   1.911  1.00  0.00    -0.252 OA
BRANCH   6   8
ATOM      8  C   UNL     1       5.169   7.182  -0.450  1.00  0.00     0.124 C 
BRANCH   8   9
ATOM      9  C   UNL     1       4.873   6.273  -1.638  1.00  0.00     0.033 C 
BRANCH   9  10
ATOM     10  C   UNL     1       3.668   6.572  -2.530  1.00  0.00     0.118 C 
BRANCH  10  11
ATOM     11  N   UNL     1       3.561   7.918  -3.019  1.00  0.00    -0.338 N 
ATOM     12  N   UNL     1       2.617   7.641  -5.189  1.00  0.00    -0.291 N 
ATOM     13  C   UNL     1       3.033   8.392  -4.158  1.00  0.00     0.320 C 
ATOM     14  H   UNL     1       2.513   8.173  -6.011  1.00  0.00     0.173 HD
ATOM     15  O   UNL     1       3.043   9.619  -4.311  1.00  0.00    -0.248 OA
ATOM     16  H   UNL     1       3.936   8.605  -2.421  1.00  0.00     0.165 HD
BRANCH  12  17
ATOM     17  C   UNL     1       2.298   6.316  -5.391  1.00  0.00     0.157 A 
ATOM     18  N   UNL     1       1.767   4.243  -5.196  1.00  0.00    -0.231 N 
ATOM     19  N   UNL     1       1.813   5.426  -4.516  1.00  0.00    -0.149 NA
ATOM     20  C   UNL     1       2.074   4.418  -6.538  1.00  0.00     0.076 A 
ATOM     21  C   UNL     1       2.389   5.752  -6.676  1.00  0.00     0.078 A 
BRANCH  18  22
ATOM     22  C   UNL     1       1.451   3.043  -4.495  1.00  0.00     0.065 A 
ATOM     23  C   UNL     1       0.442  -0.024  -2.842  1.00  0.00     0.082 A 
ATOM     24  C   UNL     1       1.658  -0.070  -4.171  1.00  0.00     0.024 A 
ATOM     25  C   UNL     1      -0.278   1.564  -2.324  1.00  0.00     0.024 A 
ATOM     26  C   UNL     1       2.142   1.464  -5.010  1.00  0.00     0.030 A 
ATOM     27  C   UNL     1       0.276   3.111  -3.113  1.00  0.00     0.030 A 
BRANCH  23  28
ATOM     28  S   UNL     1      -0.251  -1.531  -2.258  1.00  0.00     0.238 S 
ATOM     29  O   UNL     1       0.484  -2.621  -2.847  1.00  0.00    -0.207 OA
ATOM     30  O   UNL     1      -1.689  -1.407  -2.343  1.00  0.00    -0.207 OA
BRANCH  28  31
ATOM     31  N   UNL     1       0.102  -1.518  -0.612  1.00  0.00    -0.225 NA
ATOM     32  H   UNL     1      -0.266  -2.366  -0.179  1.00  0.00     0.137 HD
ATOM     33  H   UNL     1      -0.328  -0.701  -0.178  1.00  0.00     0.137 HD
ENDBRANCH  28  31
ENDBRANCH  23  28
ENDBRANCH  18  22
BRANCH  20  34
ATOM     34  C   UNL     1       1.849   3.475  -7.623  1.00  0.00     0.000 A 
ATOM     35  C   UNL     1       0.538   3.161  -7.974  1.00  0.00     0.010 A 
ATOM     36  C   UNL     1       2.900   2.975  -8.398  1.00  0.00     0.010 A 
ATOM     37  C   UNL     1       0.281   2.311  -9.041  1.00  0.00     0.001 A 
ATOM     38  C   UNL     1       2.639   2.091  -9.449  1.00  0.00     0.001 A 
ATOM     39  C   UNL     1       1.327   1.742  -9.757  1.00  0.00     0.000 A 
ENDBRANCH  20  34
ENDBRANCH  12  17
ENDBRANCH  10  11
ENDBRANCH   9  10
ENDBRANCH   8   9
ENDBRANCH   6   8
ENDBRANCH   5   6
ENDBRANCH   4   5
ENDBRANCH   3   4
ENDBRANCH   2   3
ENDBRANCH   1   2
BRANCH   1  40
ATOM     40  C   UNL     1       2.165   4.353  -0.145  1.00  0.00     0.188 C 
BRANCH  40  41
ATOM     41  O   UNL     1       0.770   4.493  -0.104  1.00  0.00    -0.377 OA
BRANCH  41  42
ATOM     42  C   UNL     1      -0.088   3.423   0.220  1.00  0.00     0.188 C 
BRANCH  42  43
ATOM     43  C   UNL     1       0.449   2.061   0.681  1.00  0.00     0.188 C 
BRANCH  43  44
ATOM     44  O   UNL     1       0.858   1.070  -0.263  1.00  0.00    -0.376 OA
BRANCH  44  45
ATOM     45  C   UNL     1       1.999   1.189  -1.113  1.00  0.00     0.202 C 
BRANCH  45  46
ATOM     46  C   UNL     1       1.910   1.697  -2.699  1.00  0.00     0.261 C 
BRANCH  46  47
ATOM     47  O   UNL     1       0.464   1.430  -4.058  1.00  0.00    -0.460 OA
BRANCH  47  48
ATOM     48  C   UNL     1      -0.659   1.327  -4.873  1.00  0.00     0.338 C 
ATOM     49  O   UNL     1      -0.637   0.667  -5.909  1.00  0.00    -0.246 OA
BRANCH  48  50
ATOM     50  C   UNL     1      -1.937   2.010  -4.473  1.00  0.00     0.060 A 
ATOM     51  C   UNL     1      -3.041   1.156  -4.554  1.00  0.00     0.016 A 
ATOM     52  C   UNL     1      -1.993   3.272  -5.052  1.00  0.00     0.016 A 
ATOM     53  C   UNL     1      -3.852   1.282  -5.664  1.00  0.00     0.010 A 
ATOM     54  C   UNL     1      -2.760   3.384  -6.174  1.00  0.00     0.010 A 
ATOM     55  C   UNL     1      -3.562   2.308  -6.557  1.00  0.00    -0.014 A 
BRANCH  55  56
ATOM     56  C   UNL     1      -4.016   2.260  -7.929  1.00  0.00     0.031 A 
ATOM     57  C   UNL     1      -4.803   3.423  -8.357  1.00  0.00     0.074 A 
ATOM     58  C   UNL     1      -3.597   1.385  -8.860  1.00  0.00     0.049 A 
ATOM     59  N   UNL     1      -6.082   3.525  -8.258  1.00  0.00    -0.248 NA
ATOM     60  C   UNL     1      -4.113   4.661  -8.752  1.00  0.00     0.031 C 
ATOM     61  C   UNL     1      -2.541   0.374  -8.809  1.00  0.00     0.029 A 
ATOM     62  N   UNL     1      -4.009   1.337 -10.154  1.00  0.00    -0.354 N 
ATOM     63  C   UNL     1      -6.377   4.779  -8.750  1.00  0.00     0.074 A 
ATOM     64  C   UNL     1      -5.137   5.515  -8.742  1.00  0.00     0.031 C 
ATOM     65  C   UNL     1      -2.251  -0.023 -10.075  1.00  0.00     0.029 A 
ATOM     66  C   UNL     1      -3.206   0.582 -10.988  1.00  0.00     0.049 A 
ATOM     67  H   UNL     1      -4.816   1.803 -10.473  1.00  0.00     0.167 HD
ATOM     68  C   UNL     1      -7.538   5.034  -9.406  1.00  0.00     0.031 A 
ATOM     69  C   UNL     1      -3.324   0.526 -12.335  1.00  0.00     0.031 A 
ATOM     70  C   UNL     1      -8.410   3.882  -9.422  1.00  0.00     0.049 A 
ATOM     71  C   UNL     1      -4.717   0.910 -12.677  1.00  0.00     0.074 A 
ATOM     72  C   UNL     1      -8.990   3.078  -8.460  1.00  0.00     0.029 A 
ATOM     73  N   UNL     1      -8.439   3.151 -10.591  1.00  0.00    -0.354 N 
ATOM     74  N   UNL     1      -5.753   0.188 -12.355  1.00  0.00    -0.248 NA
ATOM     75  C   UNL     1      -5.018   2.291 -13.028  1.00  0.00     0.031 C 
ATOM     76  C   UNL     1      -8.930   1.753  -8.989  1.00  0.00     0.029 A 
ATOM     77  C   UNL     1      -8.352   1.821 -10.258  1.00  0.00     0.049 A 
ATOM     78  H   UNL     1      -8.510   3.517 -11.502  1.00  0.00     0.167 HD
ATOM     79  C   UNL     1      -6.736   1.106 -12.018  1.00  0.00     0.074 A 
ATOM     80  C   UNL     1      -6.284   2.365 -12.601  1.00  0.00     0.031 C 
ATOM     81  C   UNL     1      -7.658   0.823 -11.049  1.00  0.00     0.031 A 
BRANCH  68  82
ATOM     82  C   UNL     1      -7.723   6.182 -10.351  1.00  0.00    -0.014 A 
ATOM     83  C   UNL     1      -9.027   6.519 -10.742  1.00  0.00     0.009 A 
ATOM     84  C   UNL     1      -6.667   6.828 -11.021  1.00  0.00     0.009 A 
ATOM     85  C   UNL     1      -9.258   7.447 -11.762  1.00  0.00     0.001 A 
ATOM     86  C   UNL     1      -6.893   7.794 -12.001  1.00  0.00     0.001 A 
ATOM     87  C   UNL     1      -8.191   8.089 -12.385  1.00  0.00     0.000 A 
ENDBRANCH  68  82
BRANCH  69  88
ATOM     88  C   UNL     1      -2.280   0.347 -13.359  1.00  0.00    -0.014 A 
ATOM     89  C   UNL     1      -2.612  -0.077 -14.653  1.00  0.00     0.009 A 
ATOM     90  C   UNL     1      -0.986   0.853 -13.143  1.00  0.00     0.009 A 
ATOM     91  C   UNL     1      -1.691   0.033 -15.703  1.00  0.00     0.001 A 
ATOM     92  C   UNL     1      -0.064   0.958 -14.189  1.00  0.00     0.001 A 
ATOM     93  C   UNL     1      -0.422   0.560 -15.473  1.00  0.00     0.000 A 
ENDBRANCH  69  88
BRANCH  81  94
ATOM     94  C   UNL     1      -7.738  -0.607 -10.561  1.00  0.00    -0.014 A 
ATOM     95  C   UNL     1      -6.650  -1.272  -9.964  1.00  0.00     0.009 A 
ATOM     96  C   UNL     1      -8.976  -1.264 -10.584  1.00  0.00     0.009 A 
ATOM     97  C   UNL     1      -6.784  -2.564  -9.448  1.00  0.00     0.001 A 
ATOM     98  C   UNL     1      -9.118  -2.548 -10.048  1.00  0.00     0.001 A 
ATOM     99  C   UNL     1      -8.021  -3.201  -9.488  1.00  0.00     0.000 A 
ENDBRANCH  81  94
ENDBRANCH  55  56
ENDBRANCH  48  50
ENDBRANCH  47  48
ENDBRANCH  46  47
ENDBRANCH  45  46
ENDBRANCH  44  45
ENDBRANCH  43  44
ENDBRANCH  42  43
ENDBRANCH  41  42
ENDBRANCH  40  41
ENDBRANCH   1  40
TORSDOF 28
