REMARK SMILES Cc1cc(C)n2ncc(C(=O)N(C)CCCC(=O)OCCOCCOCCOCCOC(=O)c3ccc(-c4c5nc(c(-c6ccccc6)c6ccc([nH]6)c(-c6ccccc6)c6nc(c(-c7ccccc7)c7ccc4[nH]7)C=C6)C=C5)cc3)c2n1
REMARK SMILES IDX 23 1 22 2 21 3 20 4 19 5 17 6 18 7 16 8 15 9 14 10 12 11
REMARK SMILES IDX 13 12 10 13 11 14 9 15 1 16 2 17 3 18 83 19 4 20 82 21 5 22
REMARK SMILES IDX 6 23 7 24 8 25 24 26 25 27 26 28 27 29 28 30 29 31 30 32
REMARK SMILES IDX 31 33 32 34 33 35 34 36 35 37 81 38 36 39 80 40 37 41 38 42
REMARK SMILES IDX 39 43 74 44 40 45 79 46 73 47 75 48 41 49 78 50 72 51 71 52
REMARK SMILES IDX 42 54 64 55 49 56 63 57 50 58 53 59 62 60 76 61 51 62 52 63
REMARK SMILES IDX 61 65 77 66 54 67 43 68 44 69 48 70 45 71 47 72 46 73 65 74
REMARK SMILES IDX 66 75 70 76 67 77 69 78 68 79 55 80 56 81 60 82 57 83 59 84
REMARK SMILES IDX 58 85
REMARK H PARENT 75 53 53 64
REMARK Flexibility Score: inf
ROOT
ATOM      1  C   UNL     1      -5.931   1.892   4.324  1.00  0.00     0.188 C 
ENDROOT
BRANCH   1   2
ATOM      2  O   UNL     1      -6.528   2.238   3.097  1.00  0.00    -0.376 OA
BRANCH   2   3
ATOM      3  C   UNL     1      -5.904   1.903   1.877  1.00  0.00     0.202 C 
BRANCH   3   4
ATOM      4  C   UNL     1      -4.960   0.704   1.707  1.00  0.00     0.261 C 
BRANCH   4   5
ATOM      5  O   UNL     1      -4.595  -0.005   2.894  1.00  0.00    -0.463 OA
BRANCH   5   6
ATOM      6  C   UNL     1      -3.320   0.125   3.317  1.00  0.00     0.305 C 
ATOM      7  O   UNL     1      -2.541   0.979   2.902  1.00  0.00    -0.252 OA
BRANCH   6   8
ATOM      8  C   UNL     1      -2.949  -0.805   4.462  1.00  0.00     0.124 C 
BRANCH   8   9
ATOM      9  C   UNL     1      -3.861  -1.922   4.997  1.00  0.00     0.033 C 
BRANCH   9  10
ATOM     10  C   UNL     1      -4.719  -2.741   4.028  1.00  0.00     0.120 C 
BRANCH  10  11
ATOM     11  N   UNL     1      -3.922  -3.738   3.318  1.00  0.00    -0.342 N 
ATOM     12  C   UNL     1      -4.095  -5.102   3.779  1.00  0.00     0.147 C 
BRANCH  11  13
ATOM     13  C   UNL     1      -3.192  -3.284   2.217  1.00  0.00     0.259 C 
ATOM     14  O   UNL     1      -3.555  -2.260   1.636  1.00  0.00    -0.269 OA
BRANCH  13  15
ATOM     15  C   UNL     1      -1.956  -3.930   1.806  1.00  0.00     0.104 A 
ATOM     16  C   UNL     1       0.686  -0.068   0.233  1.00  0.00     0.067 C 
ATOM     17  C   UNL     1       0.413  -1.535   0.451  1.00  0.00     0.042 A 
ATOM     18  C   UNL     1       1.390  -2.496  -0.150  1.00  0.00     0.047 A 
ATOM     19  N   UNL     1      -0.650  -1.882   1.116  1.00  0.00    -0.233 NA
ATOM     20  C   UNL     1       1.168  -3.800   0.091  1.00  0.00     0.043 A 
ATOM     21  C   UNL     1      -0.875  -3.225   1.283  1.00  0.00     0.168 A 
ATOM     22  C   UNL     1       2.035  -4.891  -0.450  1.00  0.00     0.067 C 
ATOM     23  N   UNL     1       0.048  -4.175   0.843  1.00  0.00    -0.219 N 
ATOM     24  N   UNL     1      -0.318  -5.425   1.214  1.00  0.00    -0.174 NA
ATOM     25  C   UNL     1      -1.522  -5.266   1.761  1.00  0.00     0.151 A 
ENDBRANCH  13  15
ENDBRANCH  11  13
ENDBRANCH  10  11
ENDBRANCH   9  10
ENDBRANCH   8   9
ENDBRANCH   6   8
ENDBRANCH   5   6
ENDBRANCH   4   5
ENDBRANCH   3   4
ENDBRANCH   2   3
ENDBRANCH   1   2
BRANCH   1  26
ATOM     26  C   UNL     1      -6.434   0.575   4.948  1.00  0.00     0.188 C 
BRANCH  26  27
ATOM     27  O   UNL     1      -7.208  -0.376   4.231  1.00  0.00    -0.377 OA
BRANCH  27  28
ATOM     28  C   UNL     1      -8.295   0.047   3.415  1.00  0.00     0.188 C 
BRANCH  28  29
ATOM     29  C   UNL     1      -9.111   1.314   3.757  1.00  0.00     0.188 C 
BRANCH  29  30
ATOM     30  O   UNL     1      -8.633   2.062   4.862  1.00  0.00    -0.376 OA
BRANCH  30  31
ATOM     31  C   UNL     1      -9.268   1.985   6.123  1.00  0.00     0.202 C 
BRANCH  31  32
ATOM     32  C   UNL     1      -9.383   0.625   6.814  1.00  0.00     0.261 C 
BRANCH  32  33
ATOM     33  O   UNL     1      -9.816  -0.439   5.984  1.00  0.00    -0.460 OA
BRANCH  33  34
ATOM     34  C   UNL     1     -11.081  -0.304   5.547  1.00  0.00     0.338 C 
ATOM     35  O   UNL     1     -11.777   0.693   5.586  1.00  0.00    -0.246 OA
BRANCH  34  36
ATOM     36  C   UNL     1     -11.579  -1.618   5.151  1.00  0.00     0.060 A 
ATOM     37  C   UNL     1     -12.832  -1.618   4.549  1.00  0.00     0.016 A 
ATOM     38  C   UNL     1     -10.995  -2.780   5.685  1.00  0.00     0.016 A 
ATOM     39  C   UNL     1     -13.609  -2.735   4.713  1.00  0.00     0.010 A 
ATOM     40  C   UNL     1     -11.775  -3.904   5.837  1.00  0.00     0.010 A 
ATOM     41  C   UNL     1     -13.100  -3.831   5.432  1.00  0.00    -0.014 A 
BRANCH  41  42
ATOM     42  C   UNL     1     -14.003  -4.947   5.606  1.00  0.00     0.031 A 
ATOM     43  C   UNL     1     -14.345  -5.554   4.312  1.00  0.00     0.074 A 
ATOM     44  C   UNL     1     -14.515  -5.354   6.781  1.00  0.00     0.049 A 
ATOM     45  N   UNL     1     -15.422  -5.340   3.638  1.00  0.00    -0.248 NA
ATOM     46  C   UNL     1     -13.299  -6.286   3.584  1.00  0.00     0.031 C 
ATOM     47  C   UNL     1     -14.061  -5.009   8.130  1.00  0.00     0.029 A 
ATOM     48  N   UNL     1     -15.524  -6.244   7.010  1.00  0.00    -0.354 N 
ATOM     49  C   UNL     1     -15.302  -6.134   2.511  1.00  0.00     0.074 A 
ATOM     50  C   UNL     1     -13.915  -6.514   2.422  1.00  0.00     0.031 C 
ATOM     51  C   UNL     1     -14.625  -5.862   9.018  1.00  0.00     0.029 A 
ATOM     52  C   UNL     1     -15.602  -6.685   8.323  1.00  0.00     0.049 A 
ATOM     53  H   UNL     1     -16.142  -6.546   6.306  1.00  0.00     0.167 HD
ATOM     54  C   UNL     1     -16.415  -6.719   1.998  1.00  0.00     0.031 A 
ATOM     55  C   UNL     1     -16.395  -7.680   8.787  1.00  0.00     0.031 A 
ATOM     56  C   UNL     1     -17.619  -6.087   2.481  1.00  0.00     0.049 A 
ATOM     57  C   UNL     1     -17.547  -7.811   7.870  1.00  0.00     0.074 A 
ATOM     58  C   UNL     1     -18.344  -4.944   2.228  1.00  0.00     0.029 A 
ATOM     59  N   UNL     1     -18.015  -6.554   3.704  1.00  0.00    -0.354 N 
ATOM     60  N   UNL     1     -18.472  -6.901   7.751  1.00  0.00    -0.248 NA
ATOM     61  C   UNL     1     -17.526  -8.832   6.828  1.00  0.00     0.031 C 
ATOM     62  C   UNL     1     -19.139  -4.702   3.391  1.00  0.00     0.029 A 
ATOM     63  C   UNL     1     -18.908  -5.717   4.314  1.00  0.00     0.049 A 
ATOM     64  H   UNL     1     -17.695  -7.396   4.100  1.00  0.00     0.167 HD
ATOM     65  C   UNL     1     -18.853  -6.985   6.428  1.00  0.00     0.074 A 
ATOM     66  C   UNL     1     -18.384  -8.285   5.965  1.00  0.00     0.031 C 
ATOM     67  C   UNL     1     -19.197  -5.872   5.722  1.00  0.00     0.031 A 
BRANCH  54  68
ATOM     68  C   UNL     1     -16.429  -8.180   1.604  1.00  0.00    -0.014 A 
ATOM     69  C   UNL     1     -17.621  -8.718   1.091  1.00  0.00     0.009 A 
ATOM     70  C   UNL     1     -15.440  -9.102   2.005  1.00  0.00     0.009 A 
ATOM     71  C   UNL     1     -17.824 -10.102   1.025  1.00  0.00     0.001 A 
ATOM     72  C   UNL     1     -15.626 -10.482   1.909  1.00  0.00     0.001 A 
ATOM     73  C   UNL     1     -16.827 -10.982   1.437  1.00  0.00     0.000 A 
ENDBRANCH  54  68
BRANCH  55  74
ATOM     74  C   UNL     1     -16.102  -8.716   9.801  1.00  0.00    -0.014 A 
ATOM     75  C   UNL     1     -17.137  -9.522  10.305  1.00  0.00     0.009 A 
ATOM     76  C   UNL     1     -14.778  -9.131  10.027  1.00  0.00     0.009 A 
ATOM     77  C   UNL     1     -16.859 -10.737  10.944  1.00  0.00     0.001 A 
ATOM     78  C   UNL     1     -14.501 -10.342  10.671  1.00  0.00     0.001 A 
ATOM     79  C   UNL     1     -15.541 -11.156  11.109  1.00  0.00     0.000 A 
ENDBRANCH  55  74
BRANCH  67  80
ATOM     80  C   UNL     1     -19.749  -4.699   6.470  1.00  0.00    -0.014 A 
ATOM     81  C   UNL     1     -19.010  -3.921   7.374  1.00  0.00     0.009 A 
ATOM     82  C   UNL     1     -21.068  -4.321   6.175  1.00  0.00     0.009 A 
ATOM     83  C   UNL     1     -19.587  -2.790   7.966  1.00  0.00     0.001 A 
ATOM     84  C   UNL     1     -21.634  -3.185   6.751  1.00  0.00     0.001 A 
ATOM     85  C   UNL     1     -20.894  -2.420   7.647  1.00  0.00     0.000 A 
ENDBRANCH  67  80
ENDBRANCH  41  42
ENDBRANCH  34  36
ENDBRANCH  33  34
ENDBRANCH  32  33
ENDBRANCH  31  32
ENDBRANCH  30  31
ENDBRANCH  29  30
ENDBRANCH  28  29
ENDBRANCH  27  28
ENDBRANCH  26  27
ENDBRANCH   1  26
TORSDOF 25
