REMARK SMILES CC(C)n1c2c(c3ccccc31)[C@@H](c1ccccc1)N(CC(=O)OCCOCCOCCOCCOC(=O)c1ccc(-c3c4nc(c(-c5ccccc5)c5ccc([nH]5)c(-c5ccccc5)c5nc(c(-c6ccccc6)c6ccc3[nH]6)C=C5)C=C4)cc1)C2=O
REMARK SMILES IDX 30 1 29 2 28 3 27 4 26 5 25 6 24 7 22 8 23 9 21 10 20 11
REMARK SMILES IDX 4 12 5 13 12 14 6 15 87 16 7 17 11 18 13 19 88 20 8 21 10 22
REMARK SMILES IDX 9 23 2 24 1 25 3 26 14 27 15 28 19 29 16 30 18 31 17 32
REMARK SMILES IDX 31 33 32 34 33 35 34 36 35 37 36 38 37 39 38 40 39 41 40 42
REMARK SMILES IDX 86 43 41 44 85 45 42 46 43 47 44 48 79 49 45 50 84 51 78 52
REMARK SMILES IDX 80 53 46 54 83 55 77 56 76 57 47 59 69 60 54 61 68 62 55 63
REMARK SMILES IDX 58 64 67 65 81 66 56 67 57 68 66 70 82 71 59 72 48 73 49 74
REMARK SMILES IDX 53 75 50 76 52 77 51 78 70 79 71 80 75 81 72 82 74 83 73 84
REMARK SMILES IDX 60 85 61 86 65 87 62 88 64 89 63 90
REMARK H PARENT 80 58 58 69
REMARK Flexibility Score: inf
ROOT
ATOM      1  O   UNL     1      -5.431  -2.135   0.988  1.00  0.00    -0.377 OA
ENDROOT
BRANCH   1   2
ATOM      2  C   UNL     1      -6.489  -2.761   0.315  1.00  0.00     0.188 C 
BRANCH   2   3
ATOM      3  C   UNL     1      -7.122  -3.916   1.074  1.00  0.00     0.188 C 
BRANCH   3   4
ATOM      4  O   UNL     1      -7.098  -3.906   2.487  1.00  0.00    -0.376 OA
BRANCH   4   5
ATOM      5  C   UNL     1      -5.866  -3.772   3.190  1.00  0.00     0.202 C 
BRANCH   5   6
ATOM      6  C   UNL     1      -4.548  -4.448   2.748  1.00  0.00     0.261 C 
BRANCH   6   7
ATOM      7  O   UNL     1      -3.945  -3.966   1.517  1.00  0.00    -0.462 OA
BRANCH   7   8
ATOM      8  C   UNL     1      -3.913  -4.827   0.474  1.00  0.00     0.325 C 
ATOM      9  O   UNL     1      -4.275  -6.001   0.563  1.00  0.00    -0.250 OA
BRANCH   8  10
ATOM     10  C   UNL     1      -3.430  -4.271  -0.889  1.00  0.00     0.243 C 
BRANCH  10  11
ATOM     11  N   UNL     1      -3.059  -2.896  -1.236  1.00  0.00    -0.315 N 
ATOM     12  N   UNL     1      -0.922  -0.016  -1.445  1.00  0.00    -0.334 N 
ATOM     13  C   UNL     1      -1.764  -1.078  -1.414  1.00  0.00     0.114 A 
ATOM     14  C   UNL     1      -1.703   1.133  -1.581  1.00  0.00     0.049 A 
ATOM     15  C   UNL     1      -3.003  -0.687  -1.841  1.00  0.00     0.018 A 
ATOM     16  C   UNL     1      -1.745  -2.452  -1.021  1.00  0.00     0.272 C 
ATOM     17  C   UNL     1      -2.995   0.721  -1.954  1.00  0.00     0.006 A 
ATOM     18  C   UNL     1      -1.389   2.490  -1.395  1.00  0.00     0.027 A 
ATOM     19  C   UNL     1      -3.959  -1.838  -1.816  1.00  0.00     0.150 C 
ATOM     20  O   UNL     1      -0.824  -3.092  -0.564  1.00  0.00    -0.267 OA
ATOM     21  C   UNL     1      -3.948   1.706  -2.270  1.00  0.00     0.011 A 
ATOM     22  C   UNL     1      -2.398   3.437  -1.592  1.00  0.00     0.002 A 
ATOM     23  C   UNL     1      -3.654   3.055  -2.049  1.00  0.00     0.001 A 
BRANCH  12  24
ATOM     24  C   UNL     1       0.534  -0.017  -1.346  1.00  0.00     0.082 C 
ATOM     25  C   UNL     1       0.993  -0.006   0.106  1.00  0.00     0.031 C 
ATOM     26  C   UNL     1       1.205  -1.127  -2.159  1.00  0.00     0.031 C 
ENDBRANCH  12  24
BRANCH  19  27
ATOM     27  C   UNL     1      -4.566  -2.086  -3.199  1.00  0.00    -0.021 A 
ATOM     28  C   UNL     1      -5.567  -3.071  -3.344  1.00  0.00     0.006 A 
ATOM     29  C   UNL     1      -4.317  -1.298  -4.340  1.00  0.00     0.006 A 
ATOM     30  C   UNL     1      -6.277  -3.259  -4.535  1.00  0.00     0.000 A 
ATOM     31  C   UNL     1      -5.040  -1.467  -5.531  1.00  0.00     0.000 A 
ATOM     32  C   UNL     1      -6.020  -2.447  -5.629  1.00  0.00     0.000 A 
ENDBRANCH  19  27
ENDBRANCH  10  11
ENDBRANCH   8  10
ENDBRANCH   7   8
ENDBRANCH   6   7
ENDBRANCH   5   6
ENDBRANCH   4   5
ENDBRANCH   3   4
ENDBRANCH   2   3
ENDBRANCH   1   2
BRANCH   1  33
ATOM     33  C   UNL     1      -5.615  -0.896   1.636  1.00  0.00     0.188 C 
BRANCH  33  34
ATOM     34  C   UNL     1      -7.038  -0.460   1.997  1.00  0.00     0.188 C 
BRANCH  34  35
ATOM     35  O   UNL     1      -7.883  -0.377   0.865  1.00  0.00    -0.376 OA
BRANCH  35  36
ATOM     36  C   UNL     1      -7.947   0.826   0.115  1.00  0.00     0.202 C 
BRANCH  36  37
ATOM     37  C   UNL     1      -6.696   1.666  -0.200  1.00  0.00     0.261 C 
BRANCH  37  38
ATOM     38  O   UNL     1      -5.750   1.791   0.866  1.00  0.00    -0.460 OA
BRANCH  38  39
ATOM     39  C   UNL     1      -5.701   2.865   1.675  1.00  0.00     0.338 C 
ATOM     40  O   UNL     1      -6.283   3.921   1.542  1.00  0.00    -0.246 OA
BRANCH  39  41
ATOM     41  C   UNL     1      -5.126   2.321   2.935  1.00  0.00     0.060 A 
ATOM     42  C   UNL     1      -3.912   1.619   2.965  1.00  0.00     0.016 A 
ATOM     43  C   UNL     1      -6.021   2.233   4.009  1.00  0.00     0.016 A 
ATOM     44  C   UNL     1      -3.654   0.755   4.035  1.00  0.00     0.010 A 
ATOM     45  C   UNL     1      -5.785   1.329   5.041  1.00  0.00     0.010 A 
ATOM     46  C   UNL     1      -4.621   0.556   5.041  1.00  0.00    -0.014 A 
BRANCH  46  47
ATOM     47  C   UNL     1      -4.282  -0.272   6.213  1.00  0.00     0.031 A 
ATOM     48  C   UNL     1      -3.214   0.350   7.043  1.00  0.00     0.074 A 
ATOM     49  C   UNL     1      -4.945  -1.363   6.665  1.00  0.00     0.049 A 
ATOM     50  N   UNL     1      -2.075  -0.147   7.394  1.00  0.00    -0.248 NA
ATOM     51  C   UNL     1      -3.408   1.760   7.431  1.00  0.00     0.031 C 
ATOM     52  C   UNL     1      -6.197  -1.919   6.149  1.00  0.00     0.029 A 
ATOM     53  N   UNL     1      -4.691  -2.162   7.755  1.00  0.00    -0.354 N 
ATOM     54  C   UNL     1      -1.472   0.828   8.184  1.00  0.00     0.074 A 
ATOM     55  C   UNL     1      -2.257   2.026   8.041  1.00  0.00     0.031 C 
ATOM     56  C   UNL     1      -6.687  -2.832   7.020  1.00  0.00     0.029 A 
ATOM     57  C   UNL     1      -5.750  -2.997   8.117  1.00  0.00     0.049 A 
ATOM     58  H   UNL     1      -3.834  -2.147   8.239  1.00  0.00     0.167 HD
ATOM     59  C   UNL     1      -0.505   0.529   9.089  1.00  0.00     0.031 A 
ATOM     60  C   UNL     1      -5.898  -3.732   9.252  1.00  0.00     0.031 A 
ATOM     61  C   UNL     1       0.136  -0.723   8.802  1.00  0.00     0.049 A 
ATOM     62  C   UNL     1      -4.566  -3.893   9.867  1.00  0.00     0.074 A 
ATOM     63  C   UNL     1       0.882  -1.206   7.747  1.00  0.00     0.029 A 
ATOM     64  N   UNL     1      -0.257  -1.820   9.526  1.00  0.00    -0.354 N 
ATOM     65  N   UNL     1      -3.604  -4.594   9.342  1.00  0.00    -0.248 NA
ATOM     66  C   UNL     1      -4.168  -2.926  10.873  1.00  0.00     0.031 C 
ATOM     67  C   UNL     1       0.514  -2.576   7.631  1.00  0.00     0.029 A 
ATOM     68  C   UNL     1      -0.386  -2.871   8.657  1.00  0.00     0.049 A 
ATOM     69  H   UNL     1      -0.418  -1.847  10.497  1.00  0.00     0.167 HD
ATOM     70  C   UNL     1      -2.459  -3.860   9.609  1.00  0.00     0.074 A 
ATOM     71  C   UNL     1      -2.857  -2.893  10.630  1.00  0.00     0.031 C 
ATOM     72  C   UNL     1      -1.376  -3.920   8.783  1.00  0.00     0.031 A 
BRANCH  59  73
ATOM     73  C   UNL     1      -0.422   1.207  10.433  1.00  0.00    -0.014 A 
ATOM     74  C   UNL     1      -1.481   1.961  10.982  1.00  0.00     0.009 A 
ATOM     75  C   UNL     1       0.635   0.885  11.299  1.00  0.00     0.009 A 
ATOM     76  C   UNL     1      -1.486   2.383  12.312  1.00  0.00     0.001 A 
ATOM     77  C   UNL     1       0.612   1.267  12.647  1.00  0.00     0.001 A 
ATOM     78  C   UNL     1      -0.447   2.017  13.152  1.00  0.00     0.000 A 
ENDBRANCH  59  73
BRANCH  60  79
ATOM     79  C   UNL     1      -7.140  -4.015  10.023  1.00  0.00    -0.014 A 
ATOM     80  C   UNL     1      -8.218  -3.113   9.968  1.00  0.00     0.009 A 
ATOM     81  C   UNL     1      -7.175  -4.997  11.031  1.00  0.00     0.009 A 
ATOM     82  C   UNL     1      -9.264  -3.159  10.898  1.00  0.00     0.001 A 
ATOM     83  C   UNL     1      -8.223  -5.042  11.967  1.00  0.00     0.001 A 
ATOM     84  C   UNL     1      -9.258  -4.113  11.909  1.00  0.00     0.000 A 
ENDBRANCH  60  79
BRANCH  72  85
ATOM     85  C   UNL     1      -1.325  -5.001   7.726  1.00  0.00    -0.014 A 
ATOM     86  C   UNL     1      -0.171  -5.801   7.669  1.00  0.00     0.009 A 
ATOM     87  C   UNL     1      -2.254  -5.099   6.676  1.00  0.00     0.009 A 
ATOM     88  C   UNL     1       0.074  -6.635   6.577  1.00  0.00     0.001 A 
ATOM     89  C   UNL     1      -2.020  -5.959   5.595  1.00  0.00     0.001 A 
ATOM     90  C   UNL     1      -0.847  -6.710   5.537  1.00  0.00     0.000 A 
ENDBRANCH  72  85
ENDBRANCH  46  47
ENDBRANCH  39  41
ENDBRANCH  38  39
ENDBRANCH  37  38
ENDBRANCH  36  37
ENDBRANCH  35  36
ENDBRANCH  34  35
ENDBRANCH  33  34
ENDBRANCH   1  33
TORSDOF 23
