REMARK SMILES CCOc1cc(OCC)cc(-c2ccc([C@@H](C)C(=O)OCCOCCOCCOCCOC(=O)c3ccc(-c4c5nc(c(-c6ccccc6)c6ccc([nH]6)c(-c6ccccc6)c6nc(c(-c7ccccc7)c7ccc4[nH]7)C=C6)C=C5)cc3)cc2F)c1
REMARK SMILES IDX 25 1 24 2 23 3 22 4 21 5 20 6 18 7 19 8 16 9 17 10 15 11
REMARK SMILES IDX 12 12 13 13 84 14 14 15 83 16 85 17 11 18 4 19 5 20 86 21
REMARK SMILES IDX 6 22 10 23 3 24 2 25 1 26 7 27 8 28 9 29 26 30 27 31 28 32
REMARK SMILES IDX 29 33 30 34 31 35 32 36 33 37 34 38 35 39 36 40 82 41 37 42
REMARK SMILES IDX 81 43 38 44 39 45 40 46 75 47 41 48 80 49 74 50 76 51 42 52
REMARK SMILES IDX 79 53 73 54 72 55 43 57 65 58 50 59 64 60 51 61 54 62 63 63
REMARK SMILES IDX 77 64 52 65 53 66 62 68 78 69 55 70 44 71 45 72 49 73 46 74
REMARK SMILES IDX 48 75 47 76 66 77 67 78 71 79 68 80 70 81 69 82 56 83 57 84
REMARK SMILES IDX 61 85 58 86 60 87 59 88
REMARK H PARENT 76 56 54 67
REMARK Flexibility Score: inf
ROOT
ATOM      1  C   UNL     1       5.847  -1.949  -3.124  1.00  0.00     0.188 C 
ENDROOT
BRANCH   1   2
ATOM      2  C   UNL     1       6.178  -2.440  -4.542  1.00  0.00     0.188 C 
BRANCH   2   3
ATOM      3  O   UNL     1       6.886  -3.654  -4.750  1.00  0.00    -0.376 OA
BRANCH   3   4
ATOM      4  C   UNL     1       7.925  -4.045  -3.867  1.00  0.00     0.202 C 
BRANCH   4   5
ATOM      5  C   UNL     1       9.085  -3.088  -3.534  1.00  0.00     0.261 C 
BRANCH   5   6
ATOM      6  O   UNL     1       8.736  -1.738  -3.164  1.00  0.00    -0.463 OA
BRANCH   6   7
ATOM      7  C   UNL     1       8.967  -0.784  -4.096  1.00  0.00     0.313 C 
ATOM      8  O   UNL     1       9.467  -1.020  -5.195  1.00  0.00    -0.252 OA
BRANCH   7   9
ATOM      9  C   UNL     1       8.602   0.646  -3.696  1.00  0.00     0.126 C 
ATOM     10  C   UNL     1       9.893   1.428  -3.479  1.00  0.00     0.025 C 
BRANCH   9  11
ATOM     11  C   UNL     1       7.596   0.922  -2.578  1.00  0.00    -0.031 A 
ATOM     12  C   UNL     1       5.623   1.488  -0.568  1.00  0.00     0.018 A 
ATOM     13  C   UNL     1       6.792   0.755  -0.278  1.00  0.00     0.012 A 
ATOM     14  C   UNL     1       5.462   1.917  -1.887  1.00  0.00     0.131 A 
ATOM     15  C   UNL     1       7.765   0.482  -1.260  1.00  0.00     0.005 A 
ATOM     16  C   UNL     1       6.427   1.657  -2.869  1.00  0.00     0.044 A 
ATOM     17  F   UNL     1       4.375   2.620  -2.242  1.00  0.00    -0.206 F 
BRANCH  12  18
ATOM     18  C   UNL     1       4.676   1.860   0.505  1.00  0.00    -0.008 A 
ATOM     19  C   UNL     1       2.457   1.974   1.510  1.00  0.00     0.123 A 
ATOM     20  C   UNL     1       2.974   2.646   2.616  1.00  0.00     0.092 A 
ATOM     21  C   UNL     1       3.298   1.595   0.454  1.00  0.00     0.055 A 
ATOM     22  C   UNL     1       4.330   2.959   2.670  1.00  0.00     0.123 A 
ATOM     23  C   UNL     1       5.163   2.564   1.621  1.00  0.00     0.055 A 
BRANCH  19  24
ATOM     24  O   UNL     1       1.094   1.882   1.423  1.00  0.00    -0.494 OA
BRANCH  24  25
ATOM     25  C   UNL     1       0.573   0.558   1.555  1.00  0.00     0.226 C 
ATOM     26  C   UNL     1       0.424  -0.084   0.193  1.00  0.00     0.049 C 
ENDBRANCH  24  25
ENDBRANCH  19  24
BRANCH  22  27
ATOM     27  O   UNL     1       4.736   3.643   3.784  1.00  0.00    -0.494 OA
BRANCH  27  28
ATOM     28  C   UNL     1       5.981   4.342   3.708  1.00  0.00     0.226 C 
ATOM     29  C   UNL     1       7.135   3.458   4.154  1.00  0.00     0.049 C 
ENDBRANCH  27  28
ENDBRANCH  22  27
ENDBRANCH  12  18
ENDBRANCH   9  11
ENDBRANCH   7   9
ENDBRANCH   6   7
ENDBRANCH   5   6
ENDBRANCH   4   5
ENDBRANCH   3   4
ENDBRANCH   2   3
ENDBRANCH   1   2
BRANCH   1  30
ATOM     30  O   UNL     1       6.456  -2.670  -2.072  1.00  0.00    -0.377 OA
BRANCH  30  31
ATOM     31  C   UNL     1       5.630  -3.585  -1.371  1.00  0.00     0.188 C 
BRANCH  31  32
ATOM     32  C   UNL     1       4.656  -4.440  -2.204  1.00  0.00     0.188 C 
BRANCH  32  33
ATOM     33  O   UNL     1       3.849  -3.693  -3.104  1.00  0.00    -0.376 OA
BRANCH  33  34
ATOM     34  C   UNL     1       2.539  -3.342  -2.691  1.00  0.00     0.202 C 
BRANCH  34  35
ATOM     35  C   UNL     1       2.400  -2.355  -1.525  1.00  0.00     0.261 C 
BRANCH  35  36
ATOM     36  O   UNL     1       3.024  -2.720  -0.282  1.00  0.00    -0.460 OA
BRANCH  36  37
ATOM     37  C   UNL     1       2.558  -3.808   0.358  1.00  0.00     0.338 C 
ATOM     38  O   UNL     1       1.588  -4.482   0.036  1.00  0.00    -0.246 OA
BRANCH  37  39
ATOM     39  C   UNL     1       3.527  -4.200   1.405  1.00  0.00     0.060 A 
ATOM     40  C   UNL     1       4.144  -5.452   1.295  1.00  0.00     0.016 A 
ATOM     41  C   UNL     1       3.814  -3.373   2.497  1.00  0.00     0.016 A 
ATOM     42  C   UNL     1       5.004  -5.905   2.294  1.00  0.00     0.010 A 
ATOM     43  C   UNL     1       4.661  -3.841   3.514  1.00  0.00     0.010 A 
ATOM     44  C   UNL     1       5.227  -5.127   3.437  1.00  0.00    -0.014 A 
BRANCH  44  45
ATOM     45  C   UNL     1       5.886  -5.760   4.610  1.00  0.00     0.031 A 
ATOM     46  C   UNL     1       5.023  -6.309   5.717  1.00  0.00     0.074 A 
ATOM     47  C   UNL     1       7.220  -5.934   4.658  1.00  0.00     0.049 A 
ATOM     48  N   UNL     1       5.370  -6.971   6.793  1.00  0.00    -0.248 NA
ATOM     49  C   UNL     1       3.574  -6.089   5.588  1.00  0.00     0.031 C 
ATOM     50  C   UNL     1       8.168  -5.499   3.634  1.00  0.00     0.029 A 
ATOM     51  N   UNL     1       8.004  -6.541   5.608  1.00  0.00    -0.354 N 
ATOM     52  C   UNL     1       4.184  -7.244   7.466  1.00  0.00     0.074 A 
ATOM     53  C   UNL     1       3.115  -6.646   6.698  1.00  0.00     0.031 C 
ATOM     54  C   UNL     1       9.408  -5.860   4.009  1.00  0.00     0.029 A 
ATOM     55  C   UNL     1       9.345  -6.527   5.308  1.00  0.00     0.049 A 
ATOM     56  H   UNL     1       7.640  -6.948   6.427  1.00  0.00     0.167 HD
ATOM     57  C   UNL     1       3.996  -7.938   8.615  1.00  0.00     0.031 A 
ATOM     58  C   UNL     1      10.400  -6.993   6.005  1.00  0.00     0.031 A 
ATOM     59  C   UNL     1       5.057  -8.517   9.397  1.00  0.00     0.049 A 
ATOM     60  C   UNL     1      10.172  -7.690   7.321  1.00  0.00     0.074 A 
ATOM     61  C   UNL     1       4.965  -9.244  10.571  1.00  0.00     0.029 A 
ATOM     62  N   UNL     1       6.405  -8.425   9.090  1.00  0.00    -0.354 N 
ATOM     63  N   UNL     1       9.044  -7.968   7.929  1.00  0.00    -0.248 NA
ATOM     64  C   UNL     1      11.370  -8.154   8.037  1.00  0.00     0.031 C 
ATOM     65  C   UNL     1       6.261  -9.534  11.010  1.00  0.00     0.029 A 
ATOM     66  C   UNL     1       7.158  -9.054  10.069  1.00  0.00     0.049 A 
ATOM     67  H   UNL     1       6.774  -7.978   8.294  1.00  0.00     0.167 HD
ATOM     68  C   UNL     1       9.395  -8.664   9.081  1.00  0.00     0.074 A 
ATOM     69  C   UNL     1      10.838  -8.787   9.072  1.00  0.00     0.031 C 
ATOM     70  C   UNL     1       8.595  -9.160  10.058  1.00  0.00     0.031 A 
BRANCH  57  71
ATOM     71  C   UNL     1       2.583  -8.071   9.117  1.00  0.00    -0.014 A 
ATOM     72  C   UNL     1       1.639  -8.868   8.450  1.00  0.00     0.009 A 
ATOM     73  C   UNL     1       2.199  -7.406  10.292  1.00  0.00     0.009 A 
ATOM     74  C   UNL     1       0.330  -8.965   8.930  1.00  0.00     0.001 A 
ATOM     75  C   UNL     1       0.900  -7.530  10.787  1.00  0.00     0.001 A 
ATOM     76  C   UNL     1      -0.037  -8.300  10.100  1.00  0.00     0.000 A 
ENDBRANCH  57  71
BRANCH  58  77
ATOM     77  C   UNL     1      11.783  -6.807   5.484  1.00  0.00    -0.014 A 
ATOM     78  C   UNL     1      12.558  -7.906   5.084  1.00  0.00     0.009 A 
ATOM     79  C   UNL     1      12.348  -5.523   5.421  1.00  0.00     0.009 A 
ATOM     80  C   UNL     1      13.878  -7.727   4.662  1.00  0.00     0.001 A 
ATOM     81  C   UNL     1      13.656  -5.343   4.966  1.00  0.00     0.001 A 
ATOM     82  C   UNL     1      14.424  -6.446   4.598  1.00  0.00     0.000 A 
ENDBRANCH  58  77
BRANCH  70  83
ATOM     83  C   UNL     1       9.264  -9.914  11.178  1.00  0.00    -0.014 A 
ATOM     84  C   UNL     1      10.093  -9.269  12.109  1.00  0.00     0.009 A 
ATOM     85  C   UNL     1       9.055 -11.297  11.304  1.00  0.00     0.009 A 
ATOM     86  C   UNL     1      10.743 -10.001  13.105  1.00  0.00     0.001 A 
ATOM     87  C   UNL     1       9.675 -12.021  12.323  1.00  0.00     0.001 A 
ATOM     88  C   UNL     1      10.532 -11.375  13.213  1.00  0.00     0.000 A 
ENDBRANCH  70  83
ENDBRANCH  44  45
ENDBRANCH  37  39
ENDBRANCH  36  37
ENDBRANCH  35  36
ENDBRANCH  34  35
ENDBRANCH  33  34
ENDBRANCH  32  33
ENDBRANCH  31  32
ENDBRANCH  30  31
ENDBRANCH   1  30
TORSDOF 26
