REMARK SMILES Cc1ccc(-c2cc(Cl)cc3c2O[C@H](C(F)(F)F)C(C(=O)OCCOCCOCCOCCOC(=O)c2ccc(-c4c5nc(c(-c6ccccc6)c6ccc([nH]6)c(-c6ccccc6)c6nc(c(-c7ccccc7)c7ccc4[nH]7)C=C6)C=C5)cc2)=C3)cc1F
REMARK SMILES IDX 29 1 28 2 27 3 26 4 25 5 24 6 23 7 22 8 20 9 21 10 19 11
REMARK SMILES IDX 6 12 7 13 12 14 8 15 11 16 13 17 9 18 10 19 85 20 14 21 5 22
REMARK SMILES IDX 1 23 2 24 3 25 87 26 4 27 86 28 88 29 15 30 16 31 17 32
REMARK SMILES IDX 18 33 30 34 31 35 32 36 33 37 34 38 35 39 36 40 37 41 38 42
REMARK SMILES IDX 84 43 39 44 83 45 40 46 41 47 42 48 77 49 43 50 82 51 76 52
REMARK SMILES IDX 78 53 44 54 81 55 75 56 74 57 45 59 67 60 52 61 66 62 53 63
REMARK SMILES IDX 56 64 65 65 79 66 54 67 55 68 64 70 80 71 57 72 46 73 47 74
REMARK SMILES IDX 51 75 48 76 50 77 49 78 68 79 69 80 73 81 70 82 72 83 71 84
REMARK SMILES IDX 58 85 59 86 63 87 60 88 62 89 61 90
REMARK H PARENT 78 58 56 69
REMARK Flexibility Score: inf
ROOT
ATOM      1  C   UNL     1      -4.264  -4.100   7.856  1.00  0.00     0.188 C 
ENDROOT
BRANCH   1   2
ATOM      2  O   UNL     1      -3.839  -4.226   6.498  1.00  0.00    -0.377 OA
BRANCH   2   3
ATOM      3  C   UNL     1      -4.846  -4.219   5.498  1.00  0.00     0.188 C 
BRANCH   3   4
ATOM      4  C   UNL     1      -5.483  -5.606   5.289  1.00  0.00     0.188 C 
BRANCH   4   5
ATOM      5  O   UNL     1      -5.143  -6.532   6.319  1.00  0.00    -0.376 OA
BRANCH   5   6
ATOM      6  C   UNL     1      -4.136  -7.495   6.033  1.00  0.00     0.202 C 
BRANCH   6   7
ATOM      7  C   UNL     1      -2.709  -6.986   5.777  1.00  0.00     0.261 C 
BRANCH   7   8
ATOM      8  O   UNL     1      -2.581  -6.014   4.728  1.00  0.00    -0.460 OA
BRANCH   8   9
ATOM      9  C   UNL     1      -2.860  -6.403   3.469  1.00  0.00     0.338 C 
ATOM     10  O   UNL     1      -3.156  -7.525   3.099  1.00  0.00    -0.246 OA
BRANCH   9  11
ATOM     11  C   UNL     1      -2.909  -5.189   2.623  1.00  0.00     0.087 C 
ATOM     12  C   UNL     1      -2.944  -1.835   0.102  1.00  0.00     0.026 A 
ATOM     13  C   UNL     1      -3.989  -1.714  -0.831  1.00  0.00     0.033 A 
ATOM     14  C   UNL     1      -2.985  -2.922   1.008  1.00  0.00     0.135 A 
ATOM     15  C   UNL     1      -5.026  -2.646  -0.865  1.00  0.00     0.042 A 
ATOM     16  C   UNL     1      -3.993  -3.891   0.926  1.00  0.00     0.019 A 
ATOM     17  O   UNL     1      -2.006  -2.965   1.964  1.00  0.00    -0.475 OA
ATOM     18  Cl  UNL     1      -6.291  -2.471  -2.018  1.00  0.00    -0.084 Cl
ATOM     19  C   UNL     1      -5.029  -3.736   0.002  1.00  0.00     0.032 A 
ATOM     20  C   UNL     1      -3.925  -5.083   1.758  1.00  0.00     0.027 C 
ATOM     21  C   UNL     1      -1.878  -4.113   2.837  1.00  0.00     0.316 C 
BRANCH  12  22
ATOM     22  C   UNL     1      -1.810  -0.886   0.068  1.00  0.00    -0.012 A 
ATOM     23  C   UNL     1       1.568   1.828  -0.027  1.00  0.00     0.047 C 
ATOM     24  C   UNL     1       0.387   0.908  -0.007  1.00  0.00    -0.015 A 
ATOM     25  C   UNL     1      -0.923   1.393   0.043  1.00  0.00     0.007 A 
ATOM     26  C   UNL     1       0.584  -0.471  -0.028  1.00  0.00     0.126 A 
ATOM     27  C   UNL     1      -2.008   0.505   0.081  1.00  0.00     0.009 A 
ATOM     28  C   UNL     1      -0.489  -1.356  -0.001  1.00  0.00     0.048 A 
ATOM     29  F   UNL     1       1.829  -0.967  -0.077  1.00  0.00    -0.207 F 
ENDBRANCH  12  22
BRANCH  21  30
ATOM     30  C   UNL     1      -0.441  -4.637   2.711  1.00  0.00     0.430 C 
ATOM     31  F   UNL     1       0.461  -3.639   2.874  1.00  0.00    -0.167 F 
ATOM     32  F   UNL     1      -0.152  -5.575   3.641  1.00  0.00    -0.167 F 
ATOM     33  F   UNL     1      -0.217  -5.189   1.496  1.00  0.00    -0.167 F 
ENDBRANCH  21  30
ENDBRANCH   9  11
ENDBRANCH   8   9
ENDBRANCH   7   8
ENDBRANCH   6   7
ENDBRANCH   5   6
ENDBRANCH   4   5
ENDBRANCH   3   4
ENDBRANCH   2   3
ENDBRANCH   1   2
BRANCH   1  34
ATOM     34  C   UNL     1      -5.678  -4.533   8.308  1.00  0.00     0.188 C 
BRANCH  34  35
ATOM     35  O   UNL     1      -6.724  -4.039   7.474  1.00  0.00    -0.376 OA
BRANCH  35  36
ATOM     36  C   UNL     1      -7.554  -3.022   8.019  1.00  0.00     0.202 C 
BRANCH  36  37
ATOM     37  C   UNL     1      -6.918  -1.628   8.000  1.00  0.00     0.261 C 
BRANCH  37  38
ATOM     38  O   UNL     1      -5.723  -1.493   8.786  1.00  0.00    -0.460 OA
BRANCH  38  39
ATOM     39  C   UNL     1      -5.808  -1.749  10.110  1.00  0.00     0.338 C 
ATOM     40  O   UNL     1      -6.807  -2.030  10.746  1.00  0.00    -0.246 OA
BRANCH  39  41
ATOM     41  C   UNL     1      -4.427  -1.827  10.632  1.00  0.00     0.060 A 
ATOM     42  C   UNL     1      -3.511  -0.808  10.357  1.00  0.00     0.016 A 
ATOM     43  C   UNL     1      -4.038  -2.951  11.372  1.00  0.00     0.016 A 
ATOM     44  C   UNL     1      -2.211  -0.899  10.855  1.00  0.00     0.010 A 
ATOM     45  C   UNL     1      -2.733  -3.043  11.864  1.00  0.00     0.010 A 
ATOM     46  C   UNL     1      -1.820  -2.004  11.631  1.00  0.00    -0.014 A 
BRANCH  46  47
ATOM     47  C   UNL     1      -0.527  -1.962  12.355  1.00  0.00     0.031 A 
ATOM     48  C   UNL     1       0.692  -2.679  11.862  1.00  0.00     0.074 A 
ATOM     49  C   UNL     1      -0.472  -1.226  13.482  1.00  0.00     0.049 A 
ATOM     50  N   UNL     1       1.910  -2.636  12.340  1.00  0.00    -0.248 NA
ATOM     51  C   UNL     1       0.534  -3.550  10.688  1.00  0.00     0.031 C 
ATOM     52  C   UNL     1      -1.601  -0.488  14.054  1.00  0.00     0.029 A 
ATOM     53  N   UNL     1       0.569  -0.956  14.333  1.00  0.00    -0.354 N 
ATOM     54  C   UNL     1       2.673  -3.449  11.514  1.00  0.00     0.074 A 
ATOM     55  C   UNL     1       1.771  -4.010  10.528  1.00  0.00     0.031 C 
ATOM     56  C   UNL     1      -1.181   0.182  15.137  1.00  0.00     0.029 A 
ATOM     57  C   UNL     1       0.233  -0.102  15.355  1.00  0.00     0.049 A 
ATOM     58  H   UNL     1       1.470  -1.337  14.222  1.00  0.00     0.167 HD
ATOM     59  C   UNL     1       4.005  -3.685  11.568  1.00  0.00     0.031 A 
ATOM     60  C   UNL     1       0.980   0.409  16.352  1.00  0.00     0.031 A 
ATOM     61  C   UNL     1       4.891  -3.140  12.567  1.00  0.00     0.049 A 
ATOM     62  C   UNL     1       2.441   0.069  16.423  1.00  0.00     0.074 A 
ATOM     63  C   UNL     1       6.261  -3.311  12.681  1.00  0.00     0.029 A 
ATOM     64  N   UNL     1       4.501  -2.332  13.623  1.00  0.00    -0.354 N 
ATOM     65  N   UNL     1       3.161  -0.646  15.593  1.00  0.00    -0.248 NA
ATOM     66  C   UNL     1       3.197   0.617  17.558  1.00  0.00     0.031 C 
ATOM     67  C   UNL     1       6.689  -2.662  13.840  1.00  0.00     0.029 A 
ATOM     68  C   UNL     1       5.600  -2.023  14.409  1.00  0.00     0.049 A 
ATOM     69  H   UNL     1       3.582  -2.023  13.790  1.00  0.00     0.167 HD
ATOM     70  C   UNL     1       4.458  -0.607  16.087  1.00  0.00     0.074 A 
ATOM     71  C   UNL     1       4.430   0.214  17.279  1.00  0.00     0.031 C 
ATOM     72  C   UNL     1       5.569  -1.200  15.591  1.00  0.00     0.031 A 
BRANCH  59  73
ATOM     73  C   UNL     1       4.626  -4.555  10.509  1.00  0.00    -0.014 A 
ATOM     74  C   UNL     1       5.174  -5.801  10.854  1.00  0.00     0.009 A 
ATOM     75  C   UNL     1       4.818  -4.066   9.208  1.00  0.00     0.009 A 
ATOM     76  C   UNL     1       5.926  -6.527   9.928  1.00  0.00     0.001 A 
ATOM     77  C   UNL     1       5.550  -4.806   8.276  1.00  0.00     0.001 A 
ATOM     78  C   UNL     1       6.115  -6.027   8.640  1.00  0.00     0.000 A 
ENDBRANCH  59  73
BRANCH  60  79
ATOM     79  C   UNL     1       0.360   1.335  17.336  1.00  0.00    -0.014 A 
ATOM     80  C   UNL     1      -0.614   0.877  18.238  1.00  0.00     0.009 A 
ATOM     81  C   UNL     1       0.721   2.690  17.359  1.00  0.00     0.009 A 
ATOM     82  C   UNL     1      -1.225   1.760  19.130  1.00  0.00     0.001 A 
ATOM     83  C   UNL     1       0.133   3.564  18.276  1.00  0.00     0.001 A 
ATOM     84  C   UNL     1      -0.846   3.100  19.155  1.00  0.00     0.000 A 
ENDBRANCH  60  79
BRANCH  72  85
ATOM     85  C   UNL     1       6.870  -0.977  16.313  1.00  0.00    -0.014 A 
ATOM     86  C   UNL     1       7.893  -0.240  15.693  1.00  0.00     0.009 A 
ATOM     87  C   UNL     1       7.124  -1.577  17.556  1.00  0.00     0.009 A 
ATOM     88  C   UNL     1       9.148  -0.124  16.293  1.00  0.00     0.001 A 
ATOM     89  C   UNL     1       8.370  -1.432  18.168  1.00  0.00     0.001 A 
ATOM     90  C   UNL     1       9.384  -0.717  17.532  1.00  0.00     0.000 A 
ENDBRANCH  72  85
ENDBRANCH  46  47
ENDBRANCH  39  41
ENDBRANCH  38  39
ENDBRANCH  37  38
ENDBRANCH  36  37
ENDBRANCH  35  36
ENDBRANCH  34  35
ENDBRANCH   1  34
TORSDOF 22
