REMARK SMILES CS(=O)(=O)c1ccc(/C=C(/C(=O)OCCOCCOCCOCCOC(=O)c2ccc(-c3c4nc(c(-c5ccccc5)c5ccc([nH]5)c(-c5ccccc5)c5nc(c(-c6ccccc6)c6ccc3[nH]6)C=C5)C=C4)cc2)c2ccccc2)cc1
REMARK SMILES IDX 19 1 18 2 17 3 16 4 15 5 14 6 13 7 11 8 12 9 10 10 9 11 8 12
REMARK SMILES IDX 5 13 6 14 83 15 7 16 82 17 2 18 1 19 3 20 4 21 76 22 77 23
REMARK SMILES IDX 81 24 78 25 80 26 79 27 20 28 21 29 22 30 23 31 24 32 25 33
REMARK SMILES IDX 26 34 27 35 28 36 29 37 75 38 30 39 74 40 31 41 32 42 33 43
REMARK SMILES IDX 68 44 34 45 73 46 67 47 69 48 35 49 72 50 66 51 65 52 36 54
REMARK SMILES IDX 58 55 43 56 57 57 44 58 47 59 56 60 70 61 45 62 46 63 55 65
REMARK SMILES IDX 71 66 48 67 37 68 38 69 42 70 39 71 41 72 40 73 59 74 60 75
REMARK SMILES IDX 64 76 61 77 63 78 62 79 49 80 50 81 54 82 51 83 53 84 52 85
REMARK H PARENT 69 53 47 64
REMARK Flexibility Score: inf
ROOT
ATOM      1  O   UNL     1       0.417   4.047   9.436  1.00  0.00    -0.377 OA
ENDROOT
BRANCH   1   2
ATOM      2  C   UNL     1       0.771   2.688   9.241  1.00  0.00     0.188 C 
BRANCH   2   3
ATOM      3  C   UNL     1       1.919   2.076  10.076  1.00  0.00     0.188 C 
BRANCH   3   4
ATOM      4  O   UNL     1       2.496   2.976  11.007  1.00  0.00    -0.376 OA
BRANCH   4   5
ATOM      5  C   UNL     1       3.795   3.459  10.716  1.00  0.00     0.202 C 
BRANCH   5   6
ATOM      6  C   UNL     1       3.959   4.314   9.450  1.00  0.00     0.261 C 
BRANCH   6   7
ATOM      7  O   UNL     1       3.345   3.796   8.257  1.00  0.00    -0.460 OA
BRANCH   7   8
ATOM      8  C   UNL     1       3.950   2.745   7.651  1.00  0.00     0.338 C 
ATOM      9  O   UNL     1       5.002   2.239   8.009  1.00  0.00    -0.246 OA
BRANCH   8  10
ATOM     10  C   UNL     1       3.075   2.188   6.560  1.00  0.00     0.067 C 
ATOM     11  C   UNL     1       2.376   3.045   5.774  1.00  0.00     0.024 C 
BRANCH  11  12
ATOM     12  C   UNL     1       1.607   2.759   4.537  1.00  0.00    -0.025 A 
ATOM     13  C   UNL     1       0.616   2.190   1.970  1.00  0.00     0.067 A 
ATOM     14  C   UNL     1       0.506   1.238   2.978  1.00  0.00     0.021 A 
ATOM     15  C   UNL     1       1.090   3.469   2.261  1.00  0.00     0.021 A 
ATOM     16  C   UNL     1       0.970   1.542   4.261  1.00  0.00     0.009 A 
ATOM     17  C   UNL     1       1.578   3.750   3.542  1.00  0.00     0.009 A 
BRANCH  13  18
ATOM     18  S   UNL     1       0.228   1.753   0.294  1.00  0.00     0.175 S 
ATOM     19  C   UNL     1       1.007   0.177   0.033  1.00  0.00     0.163 C 
ATOM     20  O   UNL     1       0.907   2.704  -0.567  1.00  0.00    -0.224 OA
ATOM     21  O   UNL     1      -1.208   1.571   0.228  1.00  0.00    -0.224 OA
ENDBRANCH  13  18
ENDBRANCH  11  12
BRANCH  10  22
ATOM     22  C   UNL     1       3.044   0.720   6.384  1.00  0.00    -0.011 A 
ATOM     23  C   UNL     1       2.168  -0.066   7.155  1.00  0.00     0.009 A 
ATOM     24  C   UNL     1       3.789   0.103   5.376  1.00  0.00     0.009 A 
ATOM     25  C   UNL     1       2.028  -1.433   6.918  1.00  0.00     0.001 A 
ATOM     26  C   UNL     1       3.640  -1.265   5.131  1.00  0.00     0.001 A 
ATOM     27  C   UNL     1       2.760  -2.030   5.899  1.00  0.00     0.000 A 
ENDBRANCH  10  22
ENDBRANCH   8  10
ENDBRANCH   7   8
ENDBRANCH   6   7
ENDBRANCH   5   6
ENDBRANCH   4   5
ENDBRANCH   3   4
ENDBRANCH   2   3
ENDBRANCH   1   2
BRANCH   1  28
ATOM     28  C   UNL     1       0.327   4.559  10.760  1.00  0.00     0.188 C 
BRANCH  28  29
ATOM     29  C   UNL     1      -0.072   3.636  11.935  1.00  0.00     0.188 C 
BRANCH  29  30
ATOM     30  O   UNL     1      -0.491   2.336  11.555  1.00  0.00    -0.376 OA
BRANCH  30  31
ATOM     31  C   UNL     1      -1.875   2.041  11.624  1.00  0.00     0.202 C 
BRANCH  31  32
ATOM     32  C   UNL     1      -2.800   2.828  10.684  1.00  0.00     0.261 C 
BRANCH  32  33
ATOM     33  O   UNL     1      -2.710   4.258  10.763  1.00  0.00    -0.460 OA
BRANCH  33  34
ATOM     34  C   UNL     1      -3.070   4.844  11.924  1.00  0.00     0.338 C 
ATOM     35  O   UNL     1      -3.482   4.296  12.933  1.00  0.00    -0.246 OA
BRANCH  34  36
ATOM     36  C   UNL     1      -2.691   6.268  11.834  1.00  0.00     0.060 A 
ATOM     37  C   UNL     1      -1.752   6.787  12.737  1.00  0.00     0.016 A 
ATOM     38  C   UNL     1      -3.240   7.078  10.838  1.00  0.00     0.016 A 
ATOM     39  C   UNL     1      -1.379   8.129  12.661  1.00  0.00     0.010 A 
ATOM     40  C   UNL     1      -2.887   8.427  10.781  1.00  0.00     0.010 A 
ATOM     41  C   UNL     1      -1.981   8.965  11.712  1.00  0.00    -0.014 A 
BRANCH  41  42
ATOM     42  C   UNL     1      -1.832  10.434  11.828  1.00  0.00     0.031 A 
ATOM     43  C   UNL     1      -2.921  11.201  12.527  1.00  0.00     0.074 A 
ATOM     44  C   UNL     1      -0.756  11.076  11.342  1.00  0.00     0.049 A 
ATOM     45  N   UNL     1      -3.045  12.490  12.710  1.00  0.00    -0.248 NA
ATOM     46  C   UNL     1      -4.021  10.402  13.093  1.00  0.00     0.031 C 
ATOM     47  C   UNL     1       0.389  10.443  10.691  1.00  0.00     0.029 A 
ATOM     48  N   UNL     1      -0.461  12.416  11.320  1.00  0.00    -0.354 N 
ATOM     49  C   UNL     1      -4.239  12.656  13.401  1.00  0.00     0.074 A 
ATOM     50  C   UNL     1      -4.816  11.342  13.578  1.00  0.00     0.031 C 
ATOM     51  C   UNL     1       1.262  11.399  10.324  1.00  0.00     0.029 A 
ATOM     52  C   UNL     1       0.719  12.709  10.680  1.00  0.00     0.049 A 
ATOM     53  H   UNL     1      -1.040  13.103  11.724  1.00  0.00     0.167 HD
ATOM     54  C   UNL     1      -4.803  13.800  13.854  1.00  0.00     0.031 A 
ATOM     55  C   UNL     1       1.280  13.900  10.395  1.00  0.00     0.031 A 
ATOM     56  C   UNL     1      -4.239  15.108  13.659  1.00  0.00     0.049 A 
ATOM     57  C   UNL     1       0.586  15.167  10.827  1.00  0.00     0.074 A 
ATOM     58  C   UNL     1      -4.729  16.329  14.087  1.00  0.00     0.029 A 
ATOM     59  N   UNL     1      -3.066  15.365  12.968  1.00  0.00    -0.354 N 
ATOM     60  N   UNL     1      -0.528  15.313  11.504  1.00  0.00    -0.248 NA
ATOM     61  C   UNL     1       1.234  16.435  10.460  1.00  0.00     0.031 C 
ATOM     62  C   UNL     1      -3.885  17.331  13.598  1.00  0.00     0.029 A 
ATOM     63  C   UNL     1      -2.831  16.729  12.930  1.00  0.00     0.049 A 
ATOM     64  H   UNL     1      -2.485  14.680  12.564  1.00  0.00     0.167 HD
ATOM     65  C   UNL     1      -0.696  16.683  11.672  1.00  0.00     0.074 A 
ATOM     66  C   UNL     1       0.439  17.323  11.040  1.00  0.00     0.031 C 
ATOM     67  C   UNL     1      -1.696  17.352  12.297  1.00  0.00     0.031 A 
BRANCH  54  68
ATOM     68  C   UNL     1      -6.123  13.685  14.565  1.00  0.00    -0.014 A 
ATOM     69  C   UNL     1      -6.222  13.101  15.838  1.00  0.00     0.009 A 
ATOM     70  C   UNL     1      -7.283  14.190  13.958  1.00  0.00     0.009 A 
ATOM     71  C   UNL     1      -7.462  12.994  16.472  1.00  0.00     0.001 A 
ATOM     72  C   UNL     1      -8.516  14.111  14.608  1.00  0.00     0.001 A 
ATOM     73  C   UNL     1      -8.606  13.504  15.859  1.00  0.00     0.000 A 
ENDBRANCH  54  68
BRANCH  55  74
ATOM     74  C   UNL     1       2.560  13.964   9.639  1.00  0.00    -0.014 A 
ATOM     75  C   UNL     1       3.732  14.436  10.249  1.00  0.00     0.009 A 
ATOM     76  C   UNL     1       2.608  13.582   8.289  1.00  0.00     0.009 A 
ATOM     77  C   UNL     1       4.917  14.551   9.516  1.00  0.00     0.001 A 
ATOM     78  C   UNL     1       3.801  13.668   7.567  1.00  0.00     0.001 A 
ATOM     79  C   UNL     1       4.951  14.162   8.178  1.00  0.00     0.000 A 
ENDBRANCH  55  74
BRANCH  67  80
ATOM     80  C   UNL     1      -1.589  18.851  12.372  1.00  0.00    -0.014 A 
ATOM     81  C   UNL     1      -1.752  19.658  11.236  1.00  0.00     0.009 A 
ATOM     82  C   UNL     1      -1.369  19.467  13.615  1.00  0.00     0.009 A 
ATOM     83  C   UNL     1      -1.660  21.048  11.337  1.00  0.00     0.001 A 
ATOM     84  C   UNL     1      -1.312  20.857  13.720  1.00  0.00     0.001 A 
ATOM     85  C   UNL     1      -1.446  21.646  12.579  1.00  0.00     0.000 A 
ENDBRANCH  67  80
ENDBRANCH  41  42
ENDBRANCH  34  36
ENDBRANCH  33  34
ENDBRANCH  32  33
ENDBRANCH  31  32
ENDBRANCH  30  31
ENDBRANCH  29  30
ENDBRANCH  28  29
ENDBRANCH   1  28
TORSDOF 23
