REMARK SMILES O=C(OCCOCCOCCOCCOC(=O)c1cc(F)c(F)cc1NS(=O)(=O)c1ccc2c(c1)CCC2)c1ccc(-c2c3nc(c(-c4ccccc4)c4ccc([nH]4)c(-c4ccccc4)c4nc(c(-c5ccccc5)c5ccc2[nH]5)C=C4)C=C3)cc1
REMARK SMILES IDX 10 1 9 2 8 3 7 4 6 5 5 6 4 7 3 8 2 9 1 10 39 11 40 12 86 13
REMARK SMILES IDX 41 14 85 15 42 16 43 17 44 18 79 19 45 20 84 21 78 22 80 23
REMARK SMILES IDX 46 24 83 25 77 26 76 27 47 29 69 30 54 31 68 32 55 33 58 34
REMARK SMILES IDX 67 35 81 36 56 37 57 38 66 40 82 41 59 42 48 43 49 44 53 45
REMARK SMILES IDX 50 46 52 47 51 48 70 49 71 50 75 51 72 52 74 53 73 54 60 55
REMARK SMILES IDX 61 56 65 57 62 58 64 59 63 60 11 61 12 62 13 63 14 64 15 65
REMARK SMILES IDX 16 66 17 67 18 68 19 69 25 70 20 71 24 72 21 73 22 74 23 75
REMARK SMILES IDX 26 76 27 78 28 79 29 80 30 81 31 82 35 83 32 84 34 85 33 86
REMARK SMILES IDX 36 87 38 88 37 89
REMARK H PARENT 80 28 58 39 26 77
REMARK Flexibility Score: inf
ROOT
ATOM      1  C   UNL     1       3.643   2.558  -2.845  1.00  0.00     0.188 C 
ENDROOT
BRANCH   1   2
ATOM      2  O   UNL     1       2.218   2.581  -2.863  1.00  0.00    -0.377 OA
BRANCH   2   3
ATOM      3  C   UNL     1       1.564   1.976  -1.749  1.00  0.00     0.188 C 
BRANCH   3   4
ATOM      4  C   UNL     1       1.990   0.534  -1.490  1.00  0.00     0.188 C 
BRANCH   4   5
ATOM      5  O   UNL     1       3.317   0.510  -0.953  1.00  0.00    -0.376 OA
BRANCH   5   6
ATOM      6  C   UNL     1       4.131  -0.571  -1.408  1.00  0.00     0.202 C 
BRANCH   6   7
ATOM      7  C   UNL     1       4.049  -1.804  -0.507  1.00  0.00     0.261 C 
BRANCH   7   8
ATOM      8  O   UNL     1       2.720  -2.012  -0.004  1.00  0.00    -0.460 OA
BRANCH   8   9
ATOM      9  C   UNL     1       2.153  -1.476   1.106  1.00  0.00     0.338 C 
ATOM     10  O   UNL     1       0.969  -1.730   1.328  1.00  0.00    -0.246 OA
BRANCH   9  11
ATOM     11  C   UNL     1       2.881  -0.639   2.117  1.00  0.00     0.060 A 
ATOM     12  C   UNL     1       4.048   0.095   1.895  1.00  0.00     0.016 A 
ATOM     13  C   UNL     1       2.307  -0.573   3.402  1.00  0.00     0.016 A 
ATOM     14  C   UNL     1       4.689   0.774   2.923  1.00  0.00     0.010 A 
ATOM     15  C   UNL     1       2.927   0.131   4.439  1.00  0.00     0.010 A 
ATOM     16  C   UNL     1       4.152   0.762   4.206  1.00  0.00    -0.014 A 
BRANCH  16  17
ATOM     17  C   UNL     1       5.012   1.220   5.310  1.00  0.00     0.031 A 
ATOM     18  C   UNL     1       5.737   0.173   6.104  1.00  0.00     0.074 A 
ATOM     19  C   UNL     1       5.265   2.530   5.474  1.00  0.00     0.049 A 
ATOM     20  N   UNL     1       6.556   0.312   7.111  1.00  0.00    -0.248 NA
ATOM     21  C   UNL     1       5.525  -1.226   5.688  1.00  0.00     0.031 C 
ATOM     22  C   UNL     1       4.722   3.606   4.643  1.00  0.00     0.029 A 
ATOM     23  N   UNL     1       6.080   3.171   6.367  1.00  0.00    -0.354 N 
ATOM     24  C   UNL     1       6.931  -0.978   7.465  1.00  0.00     0.074 A 
ATOM     25  C   UNL     1       6.253  -1.887   6.571  1.00  0.00     0.031 C 
ATOM     26  C   UNL     1       5.247   4.775   5.046  1.00  0.00     0.029 A 
ATOM     27  C   UNL     1       6.109   4.534   6.199  1.00  0.00     0.049 A 
ATOM     28  H   UNL     1       6.595   2.702   7.062  1.00  0.00     0.167 HD
ATOM     29  C   UNL     1       7.763  -1.367   8.458  1.00  0.00     0.031 A 
ATOM     30  C   UNL     1       6.749   5.473   6.920  1.00  0.00     0.031 A 
ATOM     31  C   UNL     1       8.411  -0.443   9.344  1.00  0.00     0.049 A 
ATOM     32  C   UNL     1       7.573   5.019   8.095  1.00  0.00     0.074 A 
ATOM     33  C   UNL     1       9.205  -0.703  10.444  1.00  0.00     0.029 A 
ATOM     34  N   UNL     1       8.332   0.938   9.216  1.00  0.00    -0.354 N 
ATOM     35  N   UNL     1       7.855   3.797   8.484  1.00  0.00    -0.248 NA
ATOM     36  C   UNL     1       8.152   6.070   8.940  1.00  0.00     0.031 C 
ATOM     37  C   UNL     1       9.570   0.525  11.009  1.00  0.00     0.029 A 
ATOM     38  C   UNL     1       9.047   1.547  10.229  1.00  0.00     0.049 A 
ATOM     39  H   UNL     1       7.839   1.412   8.509  1.00  0.00     0.167 HD
ATOM     40  C   UNL     1       8.655   3.930   9.610  1.00  0.00     0.074 A 
ATOM     41  C   UNL     1       8.830   5.354   9.826  1.00  0.00     0.031 C 
ATOM     42  C   UNL     1       9.193   2.970  10.402  1.00  0.00     0.031 A 
BRANCH  29  43
ATOM     43  C   UNL     1       7.913  -2.846   8.670  1.00  0.00    -0.014 A 
ATOM     44  C   UNL     1       8.638  -3.651   7.776  1.00  0.00     0.009 A 
ATOM     45  C   UNL     1       7.253  -3.455   9.749  1.00  0.00     0.009 A 
ATOM     46  C   UNL     1       8.657  -5.040   7.932  1.00  0.00     0.001 A 
ATOM     47  C   UNL     1       7.295  -4.840   9.917  1.00  0.00     0.001 A 
ATOM     48  C   UNL     1       7.985  -5.632   9.001  1.00  0.00     0.000 A 
ENDBRANCH  29  43
BRANCH  30  49
ATOM     49  C   UNL     1       6.592   6.916   6.593  1.00  0.00    -0.014 A 
ATOM     50  C   UNL     1       7.684   7.682   6.158  1.00  0.00     0.009 A 
ATOM     51  C   UNL     1       5.343   7.544   6.731  1.00  0.00     0.009 A 
ATOM     52  C   UNL     1       7.532   9.046   5.888  1.00  0.00     0.001 A 
ATOM     53  C   UNL     1       5.186   8.899   6.432  1.00  0.00     0.001 A 
ATOM     54  C   UNL     1       6.283   9.652   6.020  1.00  0.00     0.000 A 
ENDBRANCH  30  49
BRANCH  42  55
ATOM     55  C   UNL     1      10.042   3.438  11.546  1.00  0.00    -0.014 A 
ATOM     56  C   UNL     1       9.464   3.999  12.695  1.00  0.00     0.009 A 
ATOM     57  C   UNL     1      11.433   3.270  11.488  1.00  0.00     0.009 A 
ATOM     58  C   UNL     1      10.272   4.412  13.755  1.00  0.00     0.001 A 
ATOM     59  C   UNL     1      12.235   3.659  12.560  1.00  0.00     0.001 A 
ATOM     60  C   UNL     1      11.654   4.237  13.688  1.00  0.00     0.000 A 
ENDBRANCH  42  55
ENDBRANCH  16  17
ENDBRANCH   9  11
ENDBRANCH   8   9
ENDBRANCH   7   8
ENDBRANCH   6   7
ENDBRANCH   5   6
ENDBRANCH   4   5
ENDBRANCH   3   4
ENDBRANCH   2   3
ENDBRANCH   1   2
BRANCH   1  61
ATOM     61  C   UNL     1       4.353   3.223  -1.650  1.00  0.00     0.188 C 
BRANCH  61  62
ATOM     62  O   UNL     1       3.479   4.034  -0.876  1.00  0.00    -0.376 OA
BRANCH  62  63
ATOM     63  C   UNL     1       3.682   5.434  -0.968  1.00  0.00     0.202 C 
BRANCH  63  64
ATOM     64  C   UNL     1       3.255   6.091  -2.285  1.00  0.00     0.261 C 
BRANCH  64  65
ATOM     65  O   UNL     1       3.774   5.527  -3.500  1.00  0.00    -0.460 OA
BRANCH  65  66
ATOM     66  C   UNL     1       5.090   5.617  -3.814  1.00  0.00     0.340 C 
ATOM     67  O   UNL     1       5.986   6.081  -3.158  1.00  0.00    -0.246 OA
BRANCH  66  68
ATOM     68  C   UNL     1       5.239   4.847  -5.080  1.00  0.00     0.087 A 
ATOM     69  C   UNL     1       4.364   5.164  -6.135  1.00  0.00     0.060 A 
ATOM     70  C   UNL     1       6.075   3.709  -5.142  1.00  0.00     0.066 A 
ATOM     71  C   UNL     1       4.301   4.338  -7.245  1.00  0.00     0.159 A 
ATOM     72  C   UNL     1       5.932   2.864  -6.251  1.00  0.00     0.070 A 
ATOM     73  F   UNL     1       3.471   4.642  -8.250  1.00  0.00    -0.204 F 
ATOM     74  C   UNL     1       5.067   3.187  -7.295  1.00  0.00     0.160 A 
ATOM     75  F   UNL     1       4.992   2.369  -8.354  1.00  0.00    -0.204 F 
BRANCH  70  76
ATOM     76  N   UNL     1       7.069   3.482  -4.130  1.00  0.00    -0.279 N 
ATOM     77  H   UNL     1       7.380   4.269  -3.628  1.00  0.00     0.180 HD
BRANCH  76  78
ATOM     78  S   UNL     1       7.755   2.001  -3.720  1.00  0.00     0.261 S 
ATOM     79  O   UNL     1       8.728   2.261  -2.685  1.00  0.00    -0.201 OA
ATOM     80  O   UNL     1       6.664   1.069  -3.512  1.00  0.00    -0.201 OA
BRANCH  78  81
ATOM     81  C   UNL     1       8.653   1.482  -5.170  1.00  0.00     0.088 A 
ATOM     82  C   UNL     1       8.560   0.128  -5.560  1.00  0.00     0.022 A 
ATOM     83  C   UNL     1       9.158   2.458  -6.037  1.00  0.00     0.026 A 
ATOM     84  C   UNL     1       8.887  -0.249  -6.864  1.00  0.00     0.005 A 
ATOM     85  C   UNL     1       9.402   2.077  -7.344  1.00  0.00    -0.043 A 
ATOM     86  C   UNL     1       9.252   0.746  -7.756  1.00  0.00    -0.045 A 
ATOM     87  C   UNL     1       9.742   2.958  -8.506  1.00  0.00     0.036 C 
ATOM     88  C   UNL     1       9.487   0.622  -9.231  1.00  0.00     0.036 C 
ATOM     89  C   UNL     1       9.276   2.078  -9.675  1.00  0.00     0.010 C 
ENDBRANCH  78  81
ENDBRANCH  76  78
ENDBRANCH  70  76
ENDBRANCH  66  68
ENDBRANCH  65  66
ENDBRANCH  64  65
ENDBRANCH  63  64
ENDBRANCH  62  63
ENDBRANCH  61  62
ENDBRANCH   1  61
TORSDOF 23
