REMARK SMILES O=C(CNC(=O)c1ccco1)Nc1cccc(C(=O)OCCOCCOCCOCCOC(=O)c2ccc(-c3c4nc(c(-c5ccccc5)c5ccc([nH]5)c(-c5ccccc5)c5nc(c(-c6ccccc6)c6ccc3[nH]6)C=C5)C=C4)cc2)c1
REMARK SMILES IDX 25 1 24 2 23 3 22 4 21 5 20 6 18 7 19 8 17 9 13 10 14 11
REMARK SMILES IDX 83 12 15 13 16 14 12 15 1 16 2 17 3 19 4 20 5 21 6 23 7 24
REMARK SMILES IDX 8 25 11 26 9 27 10 28 26 29 27 30 28 31 29 32 30 33 31 34
REMARK SMILES IDX 32 35 33 36 34 37 35 38 36 39 82 40 37 41 81 42 38 43 39 44
REMARK SMILES IDX 40 45 75 46 41 47 80 48 74 49 76 50 42 51 79 52 73 53 72 54
REMARK SMILES IDX 43 56 65 57 50 58 64 59 51 60 54 61 63 62 77 63 52 64 53 65
REMARK SMILES IDX 62 67 78 68 55 69 44 70 45 71 49 72 46 73 48 74 47 75 66 76
REMARK SMILES IDX 67 77 71 78 68 79 70 80 69 81 56 82 57 83 61 84 58 85 60 86
REMARK SMILES IDX 59 87
REMARK H PARENT 12 18 4 22 76 55 54 66
REMARK Flexibility Score: inf
ROOT
ATOM      1  C   UNL     1       0.887  -4.114   4.146  1.00  0.00     0.188 C 
ENDROOT
BRANCH   1   2
ATOM      2  C   UNL     1      -0.397  -4.022   5.005  1.00  0.00     0.188 C 
BRANCH   2   3
ATOM      3  O   UNL     1      -1.488  -4.780   4.512  1.00  0.00    -0.376 OA
BRANCH   3   4
ATOM      4  C   UNL     1      -2.640  -4.098   4.056  1.00  0.00     0.202 C 
BRANCH   4   5
ATOM      5  C   UNL     1      -2.483  -3.228   2.804  1.00  0.00     0.261 C 
BRANCH   5   6
ATOM      6  O   UNL     1      -1.349  -2.354   2.803  1.00  0.00    -0.460 OA
BRANCH   6   7
ATOM      7  C   UNL     1      -1.383  -1.275   3.619  1.00  0.00     0.338 C 
ATOM      8  O   UNL     1      -2.282  -0.957   4.376  1.00  0.00    -0.246 OA
BRANCH   7   9
ATOM      9  C   UNL     1      -0.032  -0.668   3.588  1.00  0.00     0.062 A 
ATOM     10  C   UNL     1       1.941  -0.033   2.324  1.00  0.00     0.042 A 
ATOM     11  C   UNL     1       2.604   0.231   3.529  1.00  0.00     0.026 A 
ATOM     12  C   UNL     1       0.636  -0.522   2.369  1.00  0.00     0.041 A 
ATOM     13  C   UNL     1       1.939   0.085   4.754  1.00  0.00     0.003 A 
ATOM     14  C   UNL     1       0.610  -0.341   4.785  1.00  0.00     0.016 A 
BRANCH  10  15
ATOM     15  N   UNL     1       2.621   0.202   1.110  1.00  0.00    -0.325 N 
ATOM     16  O   UNL     1       0.848   0.073  -0.406  1.00  0.00    -0.273 OA
ATOM     17  C   UNL     1       2.039   0.229  -0.150  1.00  0.00     0.243 C 
ATOM     18  H   UNL     1       3.592   0.359   1.161  1.00  0.00     0.169 HD
BRANCH  17  19
ATOM     19  C   UNL     1       3.046   0.310  -1.291  1.00  0.00     0.216 C 
BRANCH  19  20
ATOM     20  N   UNL     1       4.065   1.321  -1.064  1.00  0.00    -0.340 N 
ATOM     21  C   UNL     1       5.432   1.206  -1.125  1.00  0.00     0.287 C 
ATOM     22  H   UNL     1       3.727   2.217  -0.833  1.00  0.00     0.164 HD
ATOM     23  O   UNL     1       6.091   2.180  -0.764  1.00  0.00    -0.266 OA
BRANCH  21  24
ATOM     24  C   UNL     1       6.013  -0.044  -1.559  1.00  0.00     0.191 A 
ATOM     25  C   UNL     1       5.716  -0.926  -2.585  1.00  0.00     0.056 A 
ATOM     26  O   UNL     1       7.082  -0.526  -0.852  1.00  0.00    -0.459 OA
ATOM     27  C   UNL     1       6.608  -2.018  -2.458  1.00  0.00     0.043 A 
ATOM     28  C   UNL     1       7.425  -1.720  -1.395  1.00  0.00     0.196 A 
ENDBRANCH  21  24
ENDBRANCH  19  20
ENDBRANCH  17  19
ENDBRANCH  10  15
ENDBRANCH   7   9
ENDBRANCH   6   7
ENDBRANCH   5   6
ENDBRANCH   4   5
ENDBRANCH   3   4
ENDBRANCH   2   3
ENDBRANCH   1   2
BRANCH   1  29
ATOM     29  O   UNL     1       0.910  -4.860   2.934  1.00  0.00    -0.377 OA
BRANCH  29  30
ATOM     30  C   UNL     1       0.134  -6.046   2.813  1.00  0.00     0.188 C 
BRANCH  30  31
ATOM     31  C   UNL     1       0.012  -7.017   4.009  1.00  0.00     0.188 C 
BRANCH  31  32
ATOM     32  O   UNL     1       0.722  -6.602   5.164  1.00  0.00    -0.376 OA
BRANCH  32  33
ATOM     33  C   UNL     1       1.899  -7.309   5.504  1.00  0.00     0.202 C 
BRANCH  33  34
ATOM     34  C   UNL     1       3.053  -7.298   4.492  1.00  0.00     0.261 C 
BRANCH  34  35
ATOM     35  O   UNL     1       2.726  -7.660   3.143  1.00  0.00    -0.460 OA
BRANCH  35  36
ATOM     36  C   UNL     1       2.355  -8.935   2.903  1.00  0.00     0.338 C 
ATOM     37  O   UNL     1       2.248  -9.843   3.711  1.00  0.00    -0.246 OA
BRANCH  36  38
ATOM     38  C   UNL     1       1.929  -8.999   1.491  1.00  0.00     0.060 A 
ATOM     39  C   UNL     1       0.597  -9.308   1.177  1.00  0.00     0.016 A 
ATOM     40  C   UNL     1       2.848  -8.713   0.481  1.00  0.00     0.016 A 
ATOM     41  C   UNL     1       0.186  -9.345  -0.157  1.00  0.00     0.010 A 
ATOM     42  C   UNL     1       2.442  -8.775  -0.852  1.00  0.00     0.010 A 
ATOM     43  C   UNL     1       1.117  -9.116  -1.178  1.00  0.00    -0.014 A 
BRANCH  43  44
ATOM     44  C   UNL     1       0.782  -9.417  -2.589  1.00  0.00     0.031 A 
ATOM     45  C   UNL     1       1.225 -10.738  -3.152  1.00  0.00     0.074 A 
ATOM     46  C   UNL     1       0.134  -8.531  -3.365  1.00  0.00     0.049 A 
ATOM     47  N   UNL     1       1.172 -11.178  -4.382  1.00  0.00    -0.248 NA
ATOM     48  C   UNL     1       1.817 -11.687  -2.195  1.00  0.00     0.031 C 
ATOM     49  C   UNL     1      -0.394  -7.242  -2.925  1.00  0.00     0.029 A 
ATOM     50  N   UNL     1      -0.171  -8.584  -4.702  1.00  0.00    -0.354 N 
ATOM     51  C   UNL     1       1.738 -12.446  -4.349  1.00  0.00     0.074 A 
ATOM     52  C   UNL     1       2.152 -12.694  -2.986  1.00  0.00     0.031 C 
ATOM     53  C   UNL     1      -0.946  -6.616  -3.980  1.00  0.00     0.029 A 
ATOM     54  C   UNL     1      -0.767  -7.440  -5.175  1.00  0.00     0.049 A 
ATOM     55  H   UNL     1       0.020  -9.366  -5.269  1.00  0.00     0.167 HD
ATOM     56  C   UNL     1       1.900 -13.325  -5.365  1.00  0.00     0.031 A 
ATOM     57  C   UNL     1      -1.098  -7.089  -6.433  1.00  0.00     0.031 A 
ATOM     58  C   UNL     1       1.509 -13.066  -6.724  1.00  0.00     0.049 A 
ATOM     59  C   UNL     1      -0.816  -8.045  -7.565  1.00  0.00     0.074 A 
ATOM     60  C   UNL     1       1.622 -13.895  -7.826  1.00  0.00     0.029 A 
ATOM     61  N   UNL     1       0.939 -11.883  -7.167  1.00  0.00    -0.354 N 
ATOM     62  N   UNL     1      -0.296  -9.248  -7.525  1.00  0.00    -0.248 NA
ATOM     63  C   UNL     1      -1.170  -7.591  -8.919  1.00  0.00     0.031 C 
ATOM     64  C   UNL     1       1.181 -13.188  -8.948  1.00  0.00     0.029 A 
ATOM     65  C   UNL     1       0.723 -11.947  -8.532  1.00  0.00     0.049 A 
ATOM     66  H   UNL     1       0.719 -11.112  -6.595  1.00  0.00     0.167 HD
ATOM     67  C   UNL     1      -0.296  -9.708  -8.837  1.00  0.00     0.074 A 
ATOM     68  C   UNL     1      -0.875  -8.658  -9.649  1.00  0.00     0.031 C 
ATOM     69  C   UNL     1       0.138 -10.896  -9.325  1.00  0.00     0.031 A 
BRANCH  56  70
ATOM     70  C   UNL     1       2.572 -14.632  -5.047  1.00  0.00    -0.014 A 
ATOM     71  C   UNL     1       1.940 -15.609  -4.262  1.00  0.00     0.009 A 
ATOM     72  C   UNL     1       3.851 -14.897  -5.562  1.00  0.00     0.009 A 
ATOM     73  C   UNL     1       2.591 -16.809  -3.968  1.00  0.00     0.001 A 
ATOM     74  C   UNL     1       4.485 -16.111  -5.294  1.00  0.00     0.001 A 
ATOM     75  C   UNL     1       3.860 -17.061  -4.489  1.00  0.00     0.000 A 
ENDBRANCH  56  70
BRANCH  57  76
ATOM     76  C   UNL     1      -1.708  -5.759  -6.705  1.00  0.00    -0.014 A 
ATOM     77  C   UNL     1      -3.033  -5.659  -7.157  1.00  0.00     0.009 A 
ATOM     78  C   UNL     1      -0.959  -4.583  -6.542  1.00  0.00     0.009 A 
ATOM     79  C   UNL     1      -3.584  -4.413  -7.466  1.00  0.00     0.001 A 
ATOM     80  C   UNL     1      -1.523  -3.336  -6.820  1.00  0.00     0.001 A 
ATOM     81  C   UNL     1      -2.831  -3.253  -7.293  1.00  0.00     0.000 A 
ENDBRANCH  57  76
BRANCH  69  82
ATOM     82  C   UNL     1      -0.043 -11.155 -10.796  1.00  0.00    -0.014 A 
ATOM     83  C   UNL     1       0.734 -10.495 -11.761  1.00  0.00     0.009 A 
ATOM     84  C   UNL     1      -0.965 -12.128 -11.217  1.00  0.00     0.009 A 
ATOM     85  C   UNL     1       0.571 -10.785 -13.117  1.00  0.00     0.001 A 
ATOM     86  C   UNL     1      -1.102 -12.439 -12.570  1.00  0.00     0.001 A 
ATOM     87  C   UNL     1      -0.341 -11.761 -13.520  1.00  0.00     0.000 A 
ENDBRANCH  69  82
ENDBRANCH  43  44
ENDBRANCH  36  38
ENDBRANCH  35  36
ENDBRANCH  34  35
ENDBRANCH  33  34
ENDBRANCH  32  33
ENDBRANCH  31  32
ENDBRANCH  30  31
ENDBRANCH  29  30
ENDBRANCH   1  29
TORSDOF 24
