REMARK SMILES CN1C(=O)/C(=C\c2ccc(-c3ccccc3C(=O)OCCOCCOCCOCCOC(=O)c3ccc(-c4c5nc(c(-c6ccccc6)c6ccc([nH]6)c(-c6ccccc6)c6nc(c(-c7ccccc7)c7ccc4[nH]7)C=C6)C=C5)cc3)o2)C(=O)[NH+]=C1S
REMARK SMILES IDX 24 1 23 2 22 3 21 4 20 5 19 6 17 7 18 8 16 9 11 10 12 11
REMARK SMILES IDX 13 12 15 13 14 14 10 15 7 16 8 17 82 18 9 19 6 20 1 21 2 22
REMARK SMILES IDX 3 23 86 24 4 25 5 26 85 27 83 28 84 30 87 31 25 33 26 34
REMARK SMILES IDX 27 35 28 36 29 37 30 38 31 39 32 40 33 41 34 42 35 43 81 44
REMARK SMILES IDX 36 45 80 46 37 47 38 48 39 49 74 50 40 51 79 52 73 53 75 54
REMARK SMILES IDX 41 55 78 56 72 57 71 58 42 60 64 61 49 62 63 63 50 64 53 65
REMARK SMILES IDX 62 66 76 67 51 68 52 69 61 71 77 72 54 73 43 74 44 75 48 76
REMARK SMILES IDX 45 77 47 78 46 79 65 80 66 81 70 82 67 83 69 84 68 85 55 86
REMARK SMILES IDX 56 87 60 88 57 89 59 90 58 91
REMARK H PARENT 85 29 87 32 75 59 53 70
REMARK Flexibility Score: inf
ROOT
ATOM      1  C   UNL     1       5.038  -8.062  -2.727  1.00  0.00     0.188 C 
ENDROOT
BRANCH   1   2
ATOM      2  C   UNL     1       6.544  -8.002  -3.090  1.00  0.00     0.188 C 
BRANCH   2   3
ATOM      3  O   UNL     1       7.408  -7.722  -2.005  1.00  0.00    -0.376 OA
BRANCH   3   4
ATOM      4  C   UNL     1       8.053  -6.470  -1.890  1.00  0.00     0.202 C 
BRANCH   4   5
ATOM      5  C   UNL     1       7.288  -5.166  -2.132  1.00  0.00     0.261 C 
BRANCH   5   6
ATOM      6  O   UNL     1       6.126  -5.309  -2.945  1.00  0.00    -0.460 OA
BRANCH   6   7
ATOM      7  C   UNL     1       6.190  -4.913  -4.231  1.00  0.00     0.338 C 
ATOM      8  O   UNL     1       7.180  -4.500  -4.810  1.00  0.00    -0.246 OA
BRANCH   7   9
ATOM      9  C   UNL     1       4.901  -5.226  -4.901  1.00  0.00     0.071 A 
ATOM     10  C   UNL     1       3.628  -4.959  -4.351  1.00  0.00     0.032 A 
ATOM     11  C   UNL     1       2.497  -5.334  -5.101  1.00  0.00     0.013 A 
ATOM     12  C   UNL     1       2.622  -6.000  -6.324  1.00  0.00     0.001 A 
ATOM     13  C   UNL     1       5.018  -5.910  -6.125  1.00  0.00     0.016 A 
ATOM     14  C   UNL     1       3.882  -6.310  -6.825  1.00  0.00     0.001 A 
BRANCH  10  15
ATOM     15  C   UNL     1       3.434  -4.376  -3.023  1.00  0.00     0.135 A 
ATOM     16  C   UNL     1       2.390  -4.270  -1.063  1.00  0.00     0.128 A 
ATOM     17  C   UNL     1       3.541  -3.496  -0.976  1.00  0.00     0.051 A 
ATOM     18  O   UNL     1       2.365  -4.848  -2.309  1.00  0.00    -0.457 OA
ATOM     19  C   UNL     1       4.133  -3.473  -2.253  1.00  0.00     0.051 A 
BRANCH  16  20
ATOM     20  C   UNL     1       1.370  -4.422  -0.087  1.00  0.00     0.071 C 
ATOM     21  C   UNL     1       0.770   0.354   0.102  1.00  0.00     0.301 C 
ATOM     22  N   UNL     1       0.389  -0.972   0.585  1.00  0.00    -0.189 N 
ATOM     23  C   UNL     1       0.785  -2.009  -0.228  1.00  0.00     0.349 C 
ATOM     24  C   UNL     1      -0.416  -1.238   1.659  1.00  0.00     0.318 C 
ATOM     25  O   UNL     1       1.158  -1.815  -1.383  1.00  0.00    -0.240 OA
ATOM     26  C   UNL     1       0.674  -3.360   0.367  1.00  0.00     0.157 C 
ATOM     27  N   UNL     1      -0.717  -2.408   2.099  1.00  0.00    -0.200 N 
ATOM     28  C   UNL     1      -0.201  -3.542   1.543  1.00  0.00     0.347 C 
ATOM     29  H   UNL     1      -1.337  -2.488   2.860  1.00  0.00     0.316 HD
ATOM     30  O   UNL     1      -0.419  -4.658   2.009  1.00  0.00    -0.241 OA
BRANCH  24  31
ATOM     31  S   UNL     1      -1.141   0.101   2.514  1.00  0.00    -0.055 SA
ATOM     32  H   UNL     1      -0.741   1.271   1.948  1.00  0.00     0.116 HD
ENDBRANCH  24  31
ENDBRANCH  16  20
ENDBRANCH  10  15
ENDBRANCH   7   9
ENDBRANCH   6   7
ENDBRANCH   5   6
ENDBRANCH   4   5
ENDBRANCH   3   4
ENDBRANCH   2   3
ENDBRANCH   1   2
BRANCH   1  33
ATOM     33  O   UNL     1       4.551  -7.592  -1.476  1.00  0.00    -0.377 OA
BRANCH  33  34
ATOM     34  C   UNL     1       5.301  -7.798  -0.287  1.00  0.00     0.188 C 
BRANCH  34  35
ATOM     35  C   UNL     1       6.087  -9.112  -0.078  1.00  0.00     0.188 C 
BRANCH  35  36
ATOM     36  O   UNL     1       6.001 -10.021  -1.160  1.00  0.00    -0.376 OA
BRANCH  36  37
ATOM     37  C   UNL     1       5.171 -11.158  -1.012  1.00  0.00     0.202 C 
BRANCH  37  38
ATOM     38  C   UNL     1       3.683 -10.941  -0.693  1.00  0.00     0.261 C 
BRANCH  38  39
ATOM     39  O   UNL     1       3.379 -10.074   0.409  1.00  0.00    -0.460 OA
BRANCH  39  40
ATOM     40  C   UNL     1       3.722 -10.493   1.646  1.00  0.00     0.338 C 
ATOM     41  O   UNL     1       4.278 -11.531   1.950  1.00  0.00    -0.246 OA
BRANCH  40  42
ATOM     42  C   UNL     1       3.467  -9.369   2.571  1.00  0.00     0.060 A 
ATOM     43  C   UNL     1       4.542  -8.790   3.259  1.00  0.00     0.016 A 
ATOM     44  C   UNL     1       2.170  -8.882   2.744  1.00  0.00     0.016 A 
ATOM     45  C   UNL     1       4.315  -7.739   4.147  1.00  0.00     0.010 A 
ATOM     46  C   UNL     1       1.941  -7.844   3.649  1.00  0.00     0.010 A 
ATOM     47  C   UNL     1       3.008  -7.291   4.378  1.00  0.00    -0.014 A 
BRANCH  47  48
ATOM     48  C   UNL     1       2.731  -6.378   5.512  1.00  0.00     0.031 A 
ATOM     49  C   UNL     1       2.249  -6.973   6.807  1.00  0.00     0.074 A 
ATOM     50  C   UNL     1       2.921  -5.052   5.404  1.00  0.00     0.049 A 
ATOM     51  N   UNL     1       1.902  -6.377   7.918  1.00  0.00    -0.248 NA
ATOM     52  C   UNL     1       2.147  -8.442   6.854  1.00  0.00     0.031 C 
ATOM     53  C   UNL     1       3.437  -4.360   4.224  1.00  0.00     0.029 A 
ATOM     54  N   UNL     1       2.696  -4.049   6.314  1.00  0.00    -0.354 N 
ATOM     55  C   UNL     1       1.528  -7.393   8.789  1.00  0.00     0.074 A 
ATOM     56  C   UNL     1       1.669  -8.642   8.073  1.00  0.00     0.031 C 
ATOM     57  C   UNL     1       3.482  -3.040   4.481  1.00  0.00     0.029 A 
ATOM     58  C   UNL     1       2.960  -2.794   5.824  1.00  0.00     0.049 A 
ATOM     59  H   UNL     1       2.375  -4.213   7.230  1.00  0.00     0.167 HD
ATOM     60  C   UNL     1       1.104  -7.297  10.071  1.00  0.00     0.031 A 
ATOM     61  C   UNL     1       2.774  -1.585   6.390  1.00  0.00     0.031 A 
ATOM     62  C   UNL     1       0.941  -6.053  10.775  1.00  0.00     0.049 A 
ATOM     63  C   UNL     1       2.208  -1.499   7.785  1.00  0.00     0.074 A 
ATOM     64  C   UNL     1       0.529  -5.850  12.080  1.00  0.00     0.029 A 
ATOM     65  N   UNL     1       1.169  -4.801  10.226  1.00  0.00    -0.354 N 
ATOM     66  N   UNL     1       1.884  -2.466   8.609  1.00  0.00    -0.248 NA
ATOM     67  C   UNL     1       1.988  -0.150   8.327  1.00  0.00     0.031 C 
ATOM     68  C   UNL     1       0.444  -4.472  12.300  1.00  0.00     0.029 A 
ATOM     69  C   UNL     1       0.876  -3.819  11.156  1.00  0.00     0.049 A 
ATOM     70  H   UNL     1       1.492  -4.635   9.311  1.00  0.00     0.167 HD
ATOM     71  C   UNL     1       1.455  -1.844   9.776  1.00  0.00     0.074 A 
ATOM     72  C   UNL     1       1.577  -0.418   9.559  1.00  0.00     0.031 C 
ATOM     73  C   UNL     1       1.004  -2.403  10.927  1.00  0.00     0.031 A 
BRANCH  60  74
ATOM     74  C   UNL     1       0.743  -8.572  10.782  1.00  0.00    -0.014 A 
ATOM     75  C   UNL     1       1.722  -9.503  11.162  1.00  0.00     0.009 A 
ATOM     76  C   UNL     1      -0.598  -8.825  11.112  1.00  0.00     0.009 A 
ATOM     77  C   UNL     1       1.362 -10.676  11.829  1.00  0.00     0.001 A 
ATOM     78  C   UNL     1      -0.952  -9.983  11.807  1.00  0.00     0.001 A 
ATOM     79  C   UNL     1       0.027 -10.911  12.157  1.00  0.00     0.000 A 
ENDBRANCH  60  74
BRANCH  61  80
ATOM     80  C   UNL     1       3.088  -0.346   5.629  1.00  0.00    -0.014 A 
ATOM     81  C   UNL     1       4.124   0.509   6.035  1.00  0.00     0.009 A 
ATOM     82  C   UNL     1       2.319   0.009   4.510  1.00  0.00     0.009 A 
ATOM     83  C   UNL     1       4.361   1.707   5.356  1.00  0.00     0.001 A 
ATOM     84  C   UNL     1       2.579   1.191   3.813  1.00  0.00     0.001 A 
ATOM     85  C   UNL     1       3.592   2.045   4.244  1.00  0.00     0.000 A 
ENDBRANCH  61  80
BRANCH  73  86
ATOM     86  C   UNL     1       0.657  -1.474  12.059  1.00  0.00    -0.014 A 
ATOM     87  C   UNL     1      -0.472  -0.643  12.010  1.00  0.00     0.009 A 
ATOM     88  C   UNL     1       1.453  -1.468  13.217  1.00  0.00     0.009 A 
ATOM     89  C   UNL     1      -0.774   0.203  13.080  1.00  0.00     0.001 A 
ATOM     90  C   UNL     1       1.129  -0.648  14.298  1.00  0.00     0.001 A 
ATOM     91  C   UNL     1       0.023   0.195  14.224  1.00  0.00     0.000 A 
ENDBRANCH  73  86
ENDBRANCH  47  48
ENDBRANCH  40  42
ENDBRANCH  39  40
ENDBRANCH  38  39
ENDBRANCH  37  38
ENDBRANCH  36  37
ENDBRANCH  35  36
ENDBRANCH  34  35
ENDBRANCH  33  34
ENDBRANCH   1  33
TORSDOF 23
