REMARK SMILES COc1ccc2[nH]cc([C@H](C(=O)OCCOCCOCCOCCOC(=O)c3ccc(-c4c5nc(c(-c6ccccc6)c6ccc([nH]6)c(-c6ccccc6)c6nc(c(-c7ccccc7)c7ccc4[nH]7)C=C6)C=C5)cc3)[NH+]3CC[NH+](Cc4cccc5ccccc45)CC3)c2c1
REMARK SMILES IDX 18 1 17 2 16 3 15 4 14 5 13 6 11 7 12 8 10 9 9 10 3 11 4 12
REMARK SMILES IDX 94 13 5 14 93 15 6 16 7 17 8 18 2 20 1 21 76 22 77 23 92 24
REMARK SMILES IDX 78 26 91 27 79 28 80 30 81 31 82 32 90 33 83 34 85 35 89 36
REMARK SMILES IDX 84 37 86 38 88 39 87 40 19 41 20 42 21 43 22 44 23 45 24 46
REMARK SMILES IDX 25 47 26 48 27 49 28 50 29 51 75 52 30 53 74 54 31 55 32 56
REMARK SMILES IDX 33 57 68 58 34 59 73 60 67 61 69 62 35 63 72 64 66 65 65 66
REMARK SMILES IDX 36 68 58 69 43 70 57 71 44 72 47 73 56 74 70 75 45 76 46 77
REMARK SMILES IDX 55 79 71 80 48 81 37 82 38 83 42 84 39 85 41 86 40 87 59 88
REMARK SMILES IDX 60 89 64 90 61 91 63 92 62 93 49 94 50 95 54 96 51 97 53 98
REMARK SMILES IDX 52 99
REMARK H PARENT 7 19 76 25 79 29 69 67 47 78
REMARK Flexibility Score: inf
ROOT
ATOM      1  C   UNL     1       1.173   1.128   5.326  1.00  0.00     0.188 C 
ENDROOT
BRANCH   1   2
ATOM      2  C   UNL     1       1.658  -0.119   6.106  1.00  0.00     0.188 C 
BRANCH   2   3
ATOM      3  O   UNL     1       2.644  -0.861   5.424  1.00  0.00    -0.376 OA
BRANCH   3   4
ATOM      4  C   UNL     1       2.243  -2.030   4.745  1.00  0.00     0.202 C 
BRANCH   4   5
ATOM      5  C   UNL     1       1.041  -1.923   3.798  1.00  0.00     0.261 C 
BRANCH   5   6
ATOM      6  O   UNL     1      -0.266  -1.576   4.316  1.00  0.00    -0.459 OA
BRANCH   6   7
ATOM      7  C   UNL     1      -0.694  -2.096   5.502  1.00  0.00     0.370 C 
ATOM      8  O   UNL     1       0.026  -2.727   6.269  1.00  0.00    -0.245 OA
BRANCH   7   9
ATOM      9  C   UNL     1      -2.186  -1.833   5.719  1.00  0.00     0.328 C 
BRANCH   9  10
ATOM     10  C   UNL     1      -2.972  -3.142   5.705  1.00  0.00     0.046 A 
ATOM     11  C   UNL     1      -0.940  -6.353   6.073  1.00  0.00     0.119 A 
ATOM     12  C   UNL     1      -1.943  -7.072   6.702  1.00  0.00     0.048 A 
ATOM     13  C   UNL     1      -1.204  -5.104   5.513  1.00  0.00     0.057 A 
ATOM     14  C   UNL     1      -3.253  -6.581   6.744  1.00  0.00     0.030 A 
ATOM     15  C   UNL     1      -2.467  -4.498   5.718  1.00  0.00     0.013 A 
ATOM     16  C   UNL     1      -3.483  -5.287   6.259  1.00  0.00     0.046 A 
ATOM     17  N   UNL     1      -4.628  -4.526   6.263  1.00  0.00    -0.361 N 
ATOM     18  C   UNL     1      -4.340  -3.235   5.918  1.00  0.00     0.094 A 
ATOM     19  H   UNL     1      -5.527  -4.863   6.482  1.00  0.00     0.166 HD
BRANCH  11  20
ATOM     20  O   UNL     1       0.357  -6.771   6.216  1.00  0.00    -0.497 OA
ATOM     21  C   UNL     1       0.893  -7.301   5.011  1.00  0.00     0.278 C 
ENDBRANCH  11  20
ENDBRANCH   9  10
BRANCH   9  22
ATOM     22  N   UNL     1      -2.495  -1.160   7.007  1.00  0.00    -0.310 N 
ATOM     23  C   UNL     1      -2.099  -1.812   8.255  1.00  0.00     0.325 C 
ATOM     24  C   UNL     1      -2.439   0.291   7.098  1.00  0.00     0.325 C 
ATOM     25  H   UNL     1      -3.493  -1.350   6.912  1.00  0.00     0.349 HD
ATOM     26  C   UNL     1      -0.833  -1.271   8.963  1.00  0.00     0.324 C 
ATOM     27  C   UNL     1      -1.206   0.872   7.825  1.00  0.00     0.324 C 
ATOM     28  N   UNL     1      -0.646   0.178   8.981  1.00  0.00    -0.322 N 
ATOM     29  H   UNL     1       0.357   0.285   8.828  1.00  0.00     0.348 HD
BRANCH  28  30
ATOM     30  C   UNL     1      -0.693   0.852  10.284  1.00  0.00     0.300 C 
BRANCH  30  31
ATOM     31  C   UNL     1      -2.035   1.503  10.565  1.00  0.00     0.014 A 
ATOM     32  C   UNL     1      -2.180   2.860  10.218  1.00  0.00     0.010 A 
ATOM     33  C   UNL     1      -3.175   0.711  10.832  1.00  0.00    -0.010 A 
ATOM     34  C   UNL     1      -3.433   3.367   9.909  1.00  0.00     0.001 A 
ATOM     35  C   UNL     1      -4.430   1.202  10.415  1.00  0.00    -0.018 A 
ATOM     36  C   UNL     1      -3.114  -0.565  11.434  1.00  0.00     0.009 A 
ATOM     37  C   UNL     1      -4.539   2.521   9.940  1.00  0.00     0.009 A 
ATOM     38  C   UNL     1      -5.540   0.345  10.445  1.00  0.00     0.009 A 
ATOM     39  C   UNL     1      -4.242  -1.378  11.522  1.00  0.00     0.001 A 
ATOM     40  C   UNL     1      -5.444  -0.939  10.984  1.00  0.00     0.001 A 
ENDBRANCH  30  31
ENDBRANCH  28  30
ENDBRANCH   9  22
ENDBRANCH   7   9
ENDBRANCH   6   7
ENDBRANCH   5   6
ENDBRANCH   4   5
ENDBRANCH   3   4
ENDBRANCH   2   3
ENDBRANCH   1   2
BRANCH   1  41
ATOM     41  O   UNL     1       2.065   1.803   4.447  1.00  0.00    -0.377 OA
BRANCH  41  42
ATOM     42  C   UNL     1       3.448   1.690   4.742  1.00  0.00     0.188 C 
BRANCH  42  43
ATOM     43  C   UNL     1       3.937   2.129   6.142  1.00  0.00     0.188 C 
BRANCH  43  44
ATOM     44  O   UNL     1       2.982   1.935   7.170  1.00  0.00    -0.376 OA
BRANCH  44  45
ATOM     45  C   UNL     1       2.721   2.970   8.096  1.00  0.00     0.202 C 
BRANCH  45  46
ATOM     46  C   UNL     1       1.763   4.069   7.613  1.00  0.00     0.261 C 
BRANCH  46  47
ATOM     47  O   UNL     1       1.971   4.515   6.272  1.00  0.00    -0.460 OA
BRANCH  47  48
ATOM     48  C   UNL     1       3.074   5.270   6.046  1.00  0.00     0.338 C 
ATOM     49  O   UNL     1       3.886   5.653   6.849  1.00  0.00    -0.246 OA
BRANCH  48  50
ATOM     50  C   UNL     1       3.222   5.314   4.575  1.00  0.00     0.060 A 
ATOM     51  C   UNL     1       4.381   4.775   4.007  1.00  0.00     0.016 A 
ATOM     52  C   UNL     1       2.176   5.775   3.772  1.00  0.00     0.016 A 
ATOM     53  C   UNL     1       4.459   4.605   2.631  1.00  0.00     0.010 A 
ATOM     54  C   UNL     1       2.290   5.683   2.388  1.00  0.00     0.010 A 
ATOM     55  C   UNL     1       3.430   5.094   1.819  1.00  0.00    -0.014 A 
BRANCH  55  56
ATOM     56  C   UNL     1       3.701   5.265   0.382  1.00  0.00     0.031 A 
ATOM     57  C   UNL     1       4.477   6.488  -0.006  1.00  0.00     0.074 A 
ATOM     58  C   UNL     1       3.297   4.366  -0.528  1.00  0.00     0.049 A 
ATOM     59  N   UNL     1       4.843   6.900  -1.188  1.00  0.00    -0.248 NA
ATOM     60  C   UNL     1       4.909   7.362   1.102  1.00  0.00     0.031 C 
ATOM     61  C   UNL     1       2.604   3.111  -0.240  1.00  0.00     0.029 A 
ATOM     62  N   UNL     1       3.419   4.382  -1.893  1.00  0.00    -0.354 N 
ATOM     63  C   UNL     1       5.555   8.070  -0.964  1.00  0.00     0.074 A 
ATOM     64  C   UNL     1       5.551   8.320   0.458  1.00  0.00     0.031 C 
ATOM     65  C   UNL     1       2.349   2.481  -1.403  1.00  0.00     0.029 A 
ATOM     66  C   UNL     1       2.831   3.306  -2.509  1.00  0.00     0.049 A 
ATOM     67  H   UNL     1       3.884   5.097  -2.384  1.00  0.00     0.167 HD
ATOM     68  C   UNL     1       6.157   8.873  -1.868  1.00  0.00     0.031 A 
ATOM     69  C   UNL     1       2.684   3.046  -3.822  1.00  0.00     0.031 A 
ATOM     70  C   UNL     1       6.088   8.653  -3.283  1.00  0.00     0.049 A 
ATOM     71  C   UNL     1       3.236   4.035  -4.819  1.00  0.00     0.074 A 
ATOM     72  C   UNL     1       6.625   9.415  -4.302  1.00  0.00     0.029 A 
ATOM     73  N   UNL     1       5.413   7.596  -3.876  1.00  0.00    -0.354 N 
ATOM     74  N   UNL     1       3.926   5.131  -4.605  1.00  0.00    -0.248 NA
ATOM     75  C   UNL     1       2.986   3.752  -6.239  1.00  0.00     0.031 C 
ATOM     76  C   UNL     1       6.217   8.854  -5.516  1.00  0.00     0.029 A 
ATOM     77  C   UNL     1       5.487   7.703  -5.251  1.00  0.00     0.049 A 
ATOM     78  H   UNL     1       4.950   6.876  -3.389  1.00  0.00     0.167 HD
ATOM     79  C   UNL     1       4.215   5.653  -5.860  1.00  0.00     0.074 A 
ATOM     80  C   UNL     1       3.638   4.744  -6.830  1.00  0.00     0.031 C 
ATOM     81  C   UNL     1       4.896   6.780  -6.187  1.00  0.00     0.031 A 
BRANCH  68  82
ATOM     82  C   UNL     1       6.864  10.084  -1.333  1.00  0.00    -0.014 A 
ATOM     83  C   UNL     1       8.043   9.967  -0.577  1.00  0.00     0.009 A 
ATOM     84  C   UNL     1       6.322  11.359  -1.556  1.00  0.00     0.009 A 
ATOM     85  C   UNL     1       8.640  11.100  -0.021  1.00  0.00     0.001 A 
ATOM     86  C   UNL     1       6.941  12.492  -1.026  1.00  0.00     0.001 A 
ATOM     87  C   UNL     1       8.091  12.361  -0.249  1.00  0.00     0.000 A 
ENDBRANCH  68  82
BRANCH  69  88
ATOM     88  C   UNL     1       1.965   1.825  -4.277  1.00  0.00    -0.014 A 
ATOM     89  C   UNL     1       2.646   0.805  -4.959  1.00  0.00     0.009 A 
ATOM     90  C   UNL     1       0.586   1.683  -4.054  1.00  0.00     0.009 A 
ATOM     91  C   UNL     1       1.958  -0.317  -5.428  1.00  0.00     0.001 A 
ATOM     92  C   UNL     1      -0.094   0.546  -4.498  1.00  0.00     0.001 A 
ATOM     93  C   UNL     1       0.590  -0.449  -5.194  1.00  0.00     0.000 A 
ENDBRANCH  69  88
BRANCH  81  94
ATOM     94  C   UNL     1       5.078   7.076  -7.649  1.00  0.00    -0.014 A 
ATOM     95  C   UNL     1       4.006   7.508  -8.444  1.00  0.00     0.009 A 
ATOM     96  C   UNL     1       6.359   6.989  -8.218  1.00  0.00     0.009 A 
ATOM     97  C   UNL     1       4.210   7.820  -9.790  1.00  0.00     0.001 A 
ATOM     98  C   UNL     1       6.565   7.333  -9.553  1.00  0.00     0.001 A 
ATOM     99  C   UNL     1       5.489   7.740 -10.340  1.00  0.00     0.000 A 
ENDBRANCH  81  94
ENDBRANCH  55  56
ENDBRANCH  48  50
ENDBRANCH  47  48
ENDBRANCH  46  47
ENDBRANCH  45  46
ENDBRANCH  44  45
ENDBRANCH  43  44
ENDBRANCH  42  43
ENDBRANCH  41  42
ENDBRANCH   1  41
TORSDOF 25
