REMARK SMILES O=C(OCCOCCOCCOCCOC(=O)c1ccc(-c2c3nc(c(-c4ccccc4)c4ccc([nH]4)c(-c4ccccc4)c4nc(c(-c5ccccc5)c5ccc2[nH]5)C=C4)C=C3)cc1)C1=Cc2cc(Cl)ccc2O[C@@H]1C(F)(F)F
REMARK SMILES IDX 10 1 9 2 8 3 7 4 6 5 5 6 4 7 3 8 2 9 1 10 66 11 67 12 76 13
REMARK SMILES IDX 68 14 75 15 69 16 74 17 70 18 73 19 71 20 72 21 77 22 78 23
REMARK SMILES IDX 79 24 80 25 11 26 12 27 13 28 14 29 15 30 16 31 17 32 18 33
REMARK SMILES IDX 19 34 65 35 20 36 64 37 21 38 22 39 23 40 58 41 24 42 63 43
REMARK SMILES IDX 57 44 59 45 25 46 62 47 56 48 55 49 26 51 48 52 33 53 47 54
REMARK SMILES IDX 34 55 37 56 46 57 60 58 35 59 36 60 45 62 61 63 38 64 27 65
REMARK SMILES IDX 28 66 32 67 29 68 31 69 30 70 49 71 50 72 54 73 51 74 53 75
REMARK SMILES IDX 52 76 39 77 40 78 44 79 41 80 43 81 42 82
REMARK H PARENT 59 50 37 61
REMARK Flexibility Score: inf
ROOT
ATOM      1  C   UNL     1       3.081   0.124  -4.268  1.00  0.00     0.188 C 
ENDROOT
BRANCH   1   2
ATOM      2  O   UNL     1       1.774   0.646  -4.073  1.00  0.00    -0.377 OA
BRANCH   2   3
ATOM      3  C   UNL     1       1.053   0.094  -2.979  1.00  0.00     0.188 C 
BRANCH   3   4
ATOM      4  C   UNL     1       1.493   0.679  -1.646  1.00  0.00     0.188 C 
BRANCH   4   5
ATOM      5  O   UNL     1       2.861   0.439  -1.346  1.00  0.00    -0.376 OA
BRANCH   5   6
ATOM      6  C   UNL     1       3.271  -0.878  -1.013  1.00  0.00     0.202 C 
BRANCH   6   7
ATOM      7  C   UNL     1       2.744  -1.409   0.320  1.00  0.00     0.261 C 
BRANCH   7   8
ATOM      8  O   UNL     1       2.171  -0.357   1.114  1.00  0.00    -0.460 OA
BRANCH   8   9
ATOM      9  C   UNL     1       2.673  -0.218   2.359  1.00  0.00     0.338 C 
ATOM     10  O   UNL     1       2.202  -0.786   3.332  1.00  0.00    -0.246 OA
BRANCH   9  11
ATOM     11  C   UNL     1       3.794   0.757   2.432  1.00  0.00     0.087 C 
ATOM     12  C   UNL     1       4.829   0.246   3.122  1.00  0.00     0.027 C 
ATOM     13  C   UNL     1       4.026   1.660   1.241  1.00  0.00     0.316 C 
ATOM     14  C   UNL     1       5.941  -0.157   2.251  1.00  0.00     0.019 A 
ATOM     15  O   UNL     1       5.251   1.390   0.507  1.00  0.00    -0.475 OA
ATOM     16  C   UNL     1       6.817  -1.161   2.674  1.00  0.00     0.032 A 
ATOM     17  C   UNL     1       6.060   0.388   0.969  1.00  0.00     0.128 A 
ATOM     18  C   UNL     1       7.774  -1.653   1.790  1.00  0.00     0.041 A 
ATOM     19  C   UNL     1       7.021  -0.110   0.089  1.00  0.00     0.048 A 
ATOM     20  Cl  UNL     1       8.830  -2.915   2.293  1.00  0.00    -0.084 Cl
ATOM     21  C   UNL     1       7.866  -1.147   0.493  1.00  0.00     0.024 A 
BRANCH  13  22
ATOM     22  C   UNL     1       3.902   3.140   1.613  1.00  0.00     0.430 C 
ATOM     23  F   UNL     1       3.684   3.905   0.517  1.00  0.00    -0.167 F 
ATOM     24  F   UNL     1       2.849   3.346   2.443  1.00  0.00    -0.167 F 
ATOM     25  F   UNL     1       5.004   3.610   2.236  1.00  0.00    -0.167 F 
ENDBRANCH  13  22
ENDBRANCH   9  11
ENDBRANCH   8   9
ENDBRANCH   7   8
ENDBRANCH   6   7
ENDBRANCH   5   6
ENDBRANCH   4   5
ENDBRANCH   3   4
ENDBRANCH   2   3
ENDBRANCH   1   2
BRANCH   1  26
ATOM     26  C   UNL     1       4.265   1.034  -3.861  1.00  0.00     0.188 C 
BRANCH  26  27
ATOM     27  O   UNL     1       4.279   2.443  -4.057  1.00  0.00    -0.376 OA
BRANCH  27  28
ATOM     28  C   UNL     1       3.193   3.076  -4.705  1.00  0.00     0.202 C 
BRANCH  28  29
ATOM     29  C   UNL     1       3.196   2.966  -6.237  1.00  0.00     0.261 C 
BRANCH  29  30
ATOM     30  O   UNL     1       3.548   1.662  -6.733  1.00  0.00    -0.460 OA
BRANCH  30  31
ATOM     31  C   UNL     1       4.859   1.480  -7.048  1.00  0.00     0.338 C 
ATOM     32  O   UNL     1       5.720   2.329  -7.122  1.00  0.00    -0.246 OA
BRANCH  31  33
ATOM     33  C   UNL     1       5.152   0.018  -7.110  1.00  0.00     0.060 A 
ATOM     34  C   UNL     1       6.325  -0.438  -6.490  1.00  0.00     0.016 A 
ATOM     35  C   UNL     1       4.280  -0.902  -7.700  1.00  0.00     0.016 A 
ATOM     36  C   UNL     1       6.636  -1.801  -6.468  1.00  0.00     0.010 A 
ATOM     37  C   UNL     1       4.602  -2.267  -7.697  1.00  0.00     0.010 A 
ATOM     38  C   UNL     1       5.795  -2.722  -7.104  1.00  0.00    -0.014 A 
BRANCH  38  39
ATOM     39  C   UNL     1       6.272  -4.107  -7.360  1.00  0.00     0.031 A 
ATOM     40  C   UNL     1       6.947  -4.380  -8.680  1.00  0.00     0.074 A 
ATOM     41  C   UNL     1       6.135  -5.102  -6.464  1.00  0.00     0.049 A 
ATOM     42  N   UNL     1       7.381  -5.511  -9.174  1.00  0.00    -0.248 NA
ATOM     43  C   UNL     1       7.157  -3.217  -9.558  1.00  0.00     0.031 C 
ATOM     44  C   UNL     1       5.562  -4.974  -5.125  1.00  0.00     0.029 A 
ATOM     45  N   UNL     1       6.467  -6.434  -6.560  1.00  0.00    -0.354 N 
ATOM     46  C   UNL     1       7.903  -5.196 -10.423  1.00  0.00     0.074 A 
ATOM     47  C   UNL     1       7.718  -3.776 -10.619  1.00  0.00     0.031 C 
ATOM     48  C   UNL     1       5.564  -6.183  -4.533  1.00  0.00     0.029 A 
ATOM     49  C   UNL     1       6.104  -7.177  -5.461  1.00  0.00     0.049 A 
ATOM     50  H   UNL     1       6.922  -6.819  -7.343  1.00  0.00     0.167 HD
ATOM     51  C   UNL     1       8.485  -6.014 -11.330  1.00  0.00     0.031 A 
ATOM     52  C   UNL     1       6.170  -8.507  -5.245  1.00  0.00     0.031 A 
ATOM     53  C   UNL     1       8.665  -7.428 -11.153  1.00  0.00     0.049 A 
ATOM     54  C   UNL     1       6.732  -9.411  -6.317  1.00  0.00     0.074 A 
ATOM     55  C   UNL     1       9.261  -8.332 -12.014  1.00  0.00     0.029 A 
ATOM     56  N   UNL     1       8.241  -8.144 -10.047  1.00  0.00    -0.354 N 
ATOM     57  N   UNL     1       7.249  -9.097  -7.480  1.00  0.00    -0.248 NA
ATOM     58  C   UNL     1       6.714 -10.858  -6.043  1.00  0.00     0.031 C 
ATOM     59  C   UNL     1       9.140  -9.608 -11.457  1.00  0.00     0.029 A 
ATOM     60  C   UNL     1       8.525  -9.487 -10.222  1.00  0.00     0.049 A 
ATOM     61  H   UNL     1       7.802  -7.756  -9.256  1.00  0.00     0.167 HD
ATOM     62  C   UNL     1       7.638 -10.300  -8.061  1.00  0.00     0.074 A 
ATOM     63  C   UNL     1       7.319 -11.348  -7.116  1.00  0.00     0.031 C 
ATOM     64  C   UNL     1       8.205 -10.520  -9.273  1.00  0.00     0.031 A 
BRANCH  51  65
ATOM     65  C   UNL     1       8.933  -5.403 -12.626  1.00  0.00    -0.014 A 
ATOM     66  C   UNL     1      10.072  -4.586 -12.694  1.00  0.00     0.009 A 
ATOM     67  C   UNL     1       8.231  -5.695 -13.806  1.00  0.00     0.009 A 
ATOM     68  C   UNL     1      10.487  -4.057 -13.917  1.00  0.00     0.001 A 
ATOM     69  C   UNL     1       8.663  -5.186 -15.031  1.00  0.00     0.001 A 
ATOM     70  C   UNL     1       9.787  -4.363 -15.085  1.00  0.00     0.000 A 
ENDBRANCH  51  65
BRANCH  52  71
ATOM     71  C   UNL     1       5.638  -9.101  -3.986  1.00  0.00    -0.014 A 
ATOM     72  C   UNL     1       6.490  -9.740  -3.072  1.00  0.00     0.009 A 
ATOM     73  C   UNL     1       4.257  -9.100  -3.732  1.00  0.00     0.009 A 
ATOM     74  C   UNL     1       5.968 -10.395  -1.952  1.00  0.00     0.001 A 
ATOM     75  C   UNL     1       3.741  -9.727  -2.595  1.00  0.00     0.001 A 
ATOM     76  C   UNL     1       4.595 -10.386  -1.714  1.00  0.00     0.000 A 
ENDBRANCH  52  71
BRANCH  64  77
ATOM     77  C   UNL     1       8.545 -11.938  -9.638  1.00  0.00    -0.014 A 
ATOM     78  C   UNL     1       7.545 -12.869  -9.957  1.00  0.00     0.009 A 
ATOM     79  C   UNL     1       9.891 -12.333  -9.719  1.00  0.00     0.009 A 
ATOM     80  C   UNL     1       7.883 -14.175 -10.319  1.00  0.00     0.001 A 
ATOM     81  C   UNL     1      10.227 -13.630 -10.111  1.00  0.00     0.001 A 
ATOM     82  C   UNL     1       9.223 -14.552 -10.402  1.00  0.00     0.000 A 
ENDBRANCH  64  77
ENDBRANCH  38  39
ENDBRANCH  31  33
ENDBRANCH  30  31
ENDBRANCH  29  30
ENDBRANCH  28  29
ENDBRANCH  27  28
ENDBRANCH  26  27
ENDBRANCH   1  26
TORSDOF 21
