REMARK SMILES CS(=O)(=O)c1ccc(-c2cc(Cl)cc3c2O[C@@H](C(F)(F)F)C(C(=O)OCCOCCOCCOCCOC(=O)c2ccc(-c4c5nc(c(-c6ccccc6)c6ccc([nH]6)c(-c6ccccc6)c6nc(c(-c7ccccc7)c7ccc4[nH]7)C=C6)C=C5)cc2)=C3)cc1
REMARK SMILES IDX 31 1 30 2 29 3 28 4 27 5 26 6 25 7 23 8 24 9 22 10 9 11
REMARK SMILES IDX 10 12 15 13 11 14 14 15 16 16 12 17 13 18 88 19 17 20 8 21
REMARK SMILES IDX 5 22 6 23 90 24 7 25 89 26 2 27 1 28 3 29 4 30 18 31 19 32
REMARK SMILES IDX 20 33 21 34 32 35 33 36 34 37 35 38 36 39 37 40 38 41 39 42
REMARK SMILES IDX 40 43 41 44 87 45 42 46 86 47 43 48 44 49 45 50 80 51 46 52
REMARK SMILES IDX 85 53 79 54 81 55 47 56 84 57 78 58 77 59 48 61 70 62 55 63
REMARK SMILES IDX 69 64 56 65 59 66 68 67 82 68 57 69 58 70 67 72 83 73 60 74
REMARK SMILES IDX 49 75 50 76 54 77 51 78 53 79 52 80 71 81 72 82 76 83 73 84
REMARK SMILES IDX 75 85 74 86 61 87 62 88 66 89 63 90 65 91 64 92
REMARK H PARENT 81 60 59 71
REMARK Flexibility Score: inf
ROOT
ATOM      1  O   UNL     1       5.264  -7.387 -10.636  1.00  0.00    -0.377 OA
ENDROOT
BRANCH   1   2
ATOM      2  C   UNL     1       4.922  -6.911  -9.348  1.00  0.00     0.188 C 
BRANCH   2   3
ATOM      3  C   UNL     1       3.540  -6.245  -9.303  1.00  0.00     0.188 C 
BRANCH   3   4
ATOM      4  O   UNL     1       2.766  -6.437 -10.484  1.00  0.00    -0.376 OA
BRANCH   4   5
ATOM      5  C   UNL     1       2.796  -5.410 -11.473  1.00  0.00     0.202 C 
BRANCH   5   6
ATOM      6  C   UNL     1       4.172  -4.906 -11.923  1.00  0.00     0.261 C 
BRANCH   6   7
ATOM      7  O   UNL     1       4.814  -4.178 -10.852  1.00  0.00    -0.460 OA
BRANCH   7   8
ATOM      8  C   UNL     1       4.536  -2.866 -10.788  1.00  0.00     0.338 C 
ATOM      9  O   UNL     1       3.928  -2.239 -11.646  1.00  0.00    -0.246 OA
BRANCH   8  10
ATOM     10  C   UNL     1       4.882  -2.274  -9.473  1.00  0.00     0.087 C 
ATOM     11  C   UNL     1       2.952  -3.872  -6.164  1.00  0.00     0.026 A 
ATOM     12  C   UNL     1       1.740  -4.426  -6.638  1.00  0.00     0.033 A 
ATOM     13  C   UNL     1       3.717  -3.182  -7.124  1.00  0.00     0.135 A 
ATOM     14  C   UNL     1       1.173  -3.985  -7.832  1.00  0.00     0.042 A 
ATOM     15  C   UNL     1       3.056  -2.559  -8.193  1.00  0.00     0.019 A 
ATOM     16  O   UNL     1       5.095  -3.375  -7.202  1.00  0.00    -0.475 OA
ATOM     17  Cl  UNL     1      -0.323  -4.643  -8.359  1.00  0.00    -0.084 Cl
ATOM     18  C   UNL     1       1.777  -2.966  -8.556  1.00  0.00     0.032 A 
ATOM     19  C   UNL     1       3.816  -1.593  -9.013  1.00  0.00     0.027 C 
ATOM     20  C   UNL     1       5.803  -2.817  -8.394  1.00  0.00     0.316 C 
BRANCH  11  21
ATOM     21  C   UNL     1       2.888  -3.468  -4.712  1.00  0.00    -0.015 A 
ATOM     22  C   UNL     1       1.761  -2.510  -2.282  1.00  0.00     0.067 A 
ATOM     23  C   UNL     1       1.844  -3.883  -2.527  1.00  0.00     0.021 A 
ATOM     24  C   UNL     1       2.335  -1.612  -3.178  1.00  0.00     0.021 A 
ATOM     25  C   UNL     1       2.414  -4.355  -3.723  1.00  0.00     0.010 A 
ATOM     26  C   UNL     1       2.900  -2.094  -4.374  1.00  0.00     0.010 A 
BRANCH  22  27
ATOM     27  S   UNL     1       0.814  -1.972  -0.869  1.00  0.00     0.175 S 
ATOM     28  C   UNL     1       1.301  -0.316  -0.482  1.00  0.00     0.163 C 
ATOM     29  O   UNL     1       1.224  -2.806   0.245  1.00  0.00    -0.224 OA
ATOM     30  O   UNL     1      -0.571  -1.929  -1.301  1.00  0.00    -0.224 OA
ENDBRANCH  22  27
ENDBRANCH  11  21
BRANCH  20  31
ATOM     31  C   UNL     1       7.069  -3.594  -8.838  1.00  0.00     0.430 C 
ATOM     32  F   UNL     1       7.957  -2.727  -9.397  1.00  0.00    -0.167 F 
ATOM     33  F   UNL     1       7.699  -4.156  -7.779  1.00  0.00    -0.167 F 
ATOM     34  F   UNL     1       6.880  -4.566  -9.741  1.00  0.00    -0.167 F 
ENDBRANCH  20  31
ENDBRANCH   8  10
ENDBRANCH   7   8
ENDBRANCH   6   7
ENDBRANCH   5   6
ENDBRANCH   4   5
ENDBRANCH   3   4
ENDBRANCH   2   3
ENDBRANCH   1   2
BRANCH   1  35
ATOM     35  C   UNL     1       4.741  -8.652 -11.030  1.00  0.00     0.188 C 
BRANCH  35  36
ATOM     36  C   UNL     1       3.478  -9.254 -10.373  1.00  0.00     0.188 C 
BRANCH  36  37
ATOM     37  O   UNL     1       3.454  -9.165  -8.950  1.00  0.00    -0.376 OA
BRANCH  37  38
ATOM     38  C   UNL     1       3.658 -10.369  -8.225  1.00  0.00     0.202 C 
BRANCH  38  39
ATOM     39  C   UNL     1       5.132 -10.775  -8.104  1.00  0.00     0.261 C 
BRANCH  39  40
ATOM     40  O   UNL     1       5.778 -11.074  -9.351  1.00  0.00    -0.460 OA
BRANCH  40  41
ATOM     41  C   UNL     1       5.263 -12.079 -10.090  1.00  0.00     0.338 C 
ATOM     42  O   UNL     1       4.343 -12.823  -9.794  1.00  0.00    -0.246 OA
BRANCH  41  43
ATOM     43  C   UNL     1       5.880 -12.007 -11.428  1.00  0.00     0.060 A 
ATOM     44  C   UNL     1       5.051 -11.905 -12.553  1.00  0.00     0.016 A 
ATOM     45  C   UNL     1       7.271 -11.999 -11.565  1.00  0.00     0.016 A 
ATOM     46  C   UNL     1       5.615 -11.823 -13.826  1.00  0.00     0.010 A 
ATOM     47  C   UNL     1       7.832 -11.939 -12.840  1.00  0.00     0.010 A 
ATOM     48  C   UNL     1       7.007 -11.880 -13.976  1.00  0.00    -0.014 A 
BRANCH  48  49
ATOM     49  C   UNL     1       7.604 -12.086 -15.314  1.00  0.00     0.031 A 
ATOM     50  C   UNL     1       7.892 -13.495 -15.749  1.00  0.00     0.074 A 
ATOM     51  C   UNL     1       7.907 -11.052 -16.116  1.00  0.00     0.049 A 
ATOM     52  N   UNL     1       8.476 -13.925 -16.836  1.00  0.00    -0.248 NA
ATOM     53  C   UNL     1       7.465 -14.562 -14.827  1.00  0.00     0.031 C 
ATOM     54  C   UNL     1       7.646  -9.644 -15.825  1.00  0.00     0.029 A 
ATOM     55  N   UNL     1       8.520 -11.037 -17.344  1.00  0.00    -0.354 N 
ATOM     56  C   UNL     1       8.489 -15.310 -16.729  1.00  0.00     0.074 A 
ATOM     57  C   UNL     1       7.882 -15.647 -15.460  1.00  0.00     0.031 C 
ATOM     58  C   UNL     1       8.113  -8.897 -16.842  1.00  0.00     0.029 A 
ATOM     59  C   UNL     1       8.734  -9.772 -17.835  1.00  0.00     0.049 A 
ATOM     60  H   UNL     1       8.782 -11.854 -17.826  1.00  0.00     0.167 HD
ATOM     61  C   UNL     1       8.963 -16.223 -17.609  1.00  0.00     0.031 A 
ATOM     62  C   UNL     1       9.381  -9.371 -18.946  1.00  0.00     0.031 A 
ATOM     63  C   UNL     1       9.598 -15.890 -18.853  1.00  0.00     0.049 A 
ATOM     64  C   UNL     1       9.984 -10.402 -19.866  1.00  0.00     0.074 A 
ATOM     65  C   UNL     1      10.108 -16.742 -19.816  1.00  0.00     0.029 A 
ATOM     66  N   UNL     1       9.824 -14.597 -19.299  1.00  0.00    -0.354 N 
ATOM     67  N   UNL     1       9.962 -11.709 -19.773  1.00  0.00    -0.248 NA
ATOM     68  C   UNL     1      10.701  -9.897 -21.047  1.00  0.00     0.031 C 
ATOM     69  C   UNL     1      10.692 -15.964 -20.820  1.00  0.00     0.029 A 
ATOM     70  C   UNL     1      10.493 -14.628 -20.510  1.00  0.00     0.049 A 
ATOM     71  H   UNL     1       9.549 -13.779 -18.825  1.00  0.00     0.167 HD
ATOM     72  C   UNL     1      10.636 -12.183 -20.893  1.00  0.00     0.074 A 
ATOM     73  C   UNL     1      11.044 -11.023 -21.658  1.00  0.00     0.031 C 
ATOM     74  C   UNL     1      10.892 -13.463 -21.257  1.00  0.00     0.031 A 
BRANCH  61  75
ATOM     75  C   UNL     1       8.841 -17.669 -17.224  1.00  0.00    -0.014 A 
ATOM     76  C   UNL     1       7.596 -18.317 -17.216  1.00  0.00     0.009 A 
ATOM     77  C   UNL     1       9.990 -18.394 -16.872  1.00  0.00     0.009 A 
ATOM     78  C   UNL     1       7.500 -19.655 -16.829  1.00  0.00     0.001 A 
ATOM     79  C   UNL     1       9.893 -19.739 -16.512  1.00  0.00     0.001 A 
ATOM     80  C   UNL     1       8.648 -20.365 -16.481  1.00  0.00     0.000 A 
ENDBRANCH  61  75
BRANCH  62  81
ATOM     81  C   UNL     1       9.526  -7.922 -19.243  1.00  0.00    -0.014 A 
ATOM     82  C   UNL     1       8.847  -7.340 -20.325  1.00  0.00     0.009 A 
ATOM     83  C   UNL     1      10.368  -7.117 -18.460  1.00  0.00     0.009 A 
ATOM     84  C   UNL     1       9.028  -5.988 -20.630  1.00  0.00     0.001 A 
ATOM     85  C   UNL     1      10.526  -5.760 -18.750  1.00  0.00     0.001 A 
ATOM     86  C   UNL     1       9.863  -5.199 -19.840  1.00  0.00     0.000 A 
ENDBRANCH  62  81
BRANCH  74  87
ATOM     87  C   UNL     1      11.619 -13.683 -22.555  1.00  0.00    -0.014 A 
ATOM     88  C   UNL     1      12.990 -13.414 -22.677  1.00  0.00     0.009 A 
ATOM     89  C   UNL     1      10.930 -14.223 -23.652  1.00  0.00     0.009 A 
ATOM     90  C   UNL     1      13.651 -13.658 -23.884  1.00  0.00     0.001 A 
ATOM     91  C   UNL     1      11.599 -14.491 -24.847  1.00  0.00     0.001 A 
ATOM     92  C   UNL     1      12.957 -14.201 -24.964  1.00  0.00     0.000 A 
ENDBRANCH  74  87
ENDBRANCH  48  49
ENDBRANCH  41  43
ENDBRANCH  40  41
ENDBRANCH  39  40
ENDBRANCH  38  39
ENDBRANCH  37  38
ENDBRANCH  36  37
ENDBRANCH  35  36
ENDBRANCH   1  35
TORSDOF 23
