REMARK SMILES C[C@H](CCC(=O)OCCOCCOCCOCCOC(=O)c1ccc(-c2c3nc(c(-c4ccccc4)c4ccc([nH]4)c(-c4ccccc4)c4nc(c(-c5ccccc5)c5ccc2[nH]5)C=C4)C=C3)cc1)NC(=O)OC(C)(C)C
REMARK SMILES IDX 11 1 10 2 9 3 8 4 7 5 5 6 6 7 4 8 3 9 2 10 1 11 70 12 71 13
REMARK SMILES IDX 72 15 73 16 74 17 75 18 76 19 77 20 12 21 13 22 14 23 15 24
REMARK SMILES IDX 16 25 17 26 18 27 19 28 20 29 21 30 22 31 23 32 69 33 24 34
REMARK SMILES IDX 68 35 25 36 26 37 27 38 62 39 28 40 67 41 61 42 63 43 29 44
REMARK SMILES IDX 66 45 60 46 59 47 30 49 52 50 37 51 51 52 38 53 41 54 50 55
REMARK SMILES IDX 64 56 39 57 40 58 49 60 65 61 42 62 31 63 32 64 36 65 33 66
REMARK SMILES IDX 35 67 34 68 53 69 54 70 58 71 55 72 57 73 56 74 43 75 44 76
REMARK SMILES IDX 48 77 45 78 47 79 46 80
REMARK H PARENT 70 14 63 48 41 59
REMARK Flexibility Score: inf
ROOT
ATOM      1  C   UNL     1       4.472  -2.032  -1.621  1.00  0.00     0.188 C 
ENDROOT
BRANCH   1   2
ATOM      2  O   UNL     1       4.092  -3.388  -1.794  1.00  0.00    -0.376 OA
BRANCH   2   3
ATOM      3  C   UNL     1       4.149  -4.232  -0.658  1.00  0.00     0.202 C 
BRANCH   3   4
ATOM      4  C   UNL     1       3.035  -4.072   0.390  1.00  0.00     0.261 C 
BRANCH   4   5
ATOM      5  O   UNL     1       2.465  -2.756   0.509  1.00  0.00    -0.463 OA
BRANCH   5   6
ATOM      6  C   UNL     1       2.909  -1.987   1.525  1.00  0.00     0.305 C 
ATOM      7  O   UNL     1       3.874  -2.268   2.225  1.00  0.00    -0.252 OA
BRANCH   6   8
ATOM      8  C   UNL     1       2.108  -0.711   1.725  1.00  0.00     0.125 C 
BRANCH   8   9
ATOM      9  C   UNL     1       0.795  -0.430   0.978  1.00  0.00     0.036 C 
BRANCH   9  10
ATOM     10  C   UNL     1      -0.237  -1.552   0.780  1.00  0.00     0.083 C 
ATOM     11  C   UNL     1      -0.400  -2.482   1.979  1.00  0.00     0.031 C 
BRANCH  10  12
ATOM     12  N   UNL     1      -1.547  -0.953   0.510  1.00  0.00    -0.319 N 
ATOM     13  C   UNL     1      -2.374  -1.148  -0.553  1.00  0.00     0.407 C 
ATOM     14  H   UNL     1      -1.873  -0.322   1.192  1.00  0.00     0.167 HD
ATOM     15  O   UNL     1      -3.530  -0.759  -0.516  1.00  0.00    -0.225 OA
BRANCH  13  16
ATOM     16  O   UNL     1      -1.787  -1.803  -1.576  1.00  0.00    -0.444 OA
BRANCH  16  17
ATOM     17  C   UNL     1      -2.592  -2.228  -2.697  1.00  0.00     0.106 C 
ATOM     18  C   UNL     1      -3.515  -3.367  -2.267  1.00  0.00     0.056 C 
ATOM     19  C   UNL     1      -3.350  -1.102  -3.411  1.00  0.00     0.056 C 
ATOM     20  C   UNL     1      -1.595  -2.770  -3.708  1.00  0.00     0.056 C 
ENDBRANCH  16  17
ENDBRANCH  13  16
ENDBRANCH  10  12
ENDBRANCH   9  10
ENDBRANCH   8   9
ENDBRANCH   6   8
ENDBRANCH   5   6
ENDBRANCH   4   5
ENDBRANCH   3   4
ENDBRANCH   2   3
ENDBRANCH   1   2
BRANCH   1  21
ATOM     21  C   UNL     1       3.332  -1.011  -1.798  1.00  0.00     0.188 C 
BRANCH  21  22
ATOM     22  O   UNL     1       2.224  -1.268  -2.642  1.00  0.00    -0.377 OA
BRANCH  22  23
ATOM     23  C   UNL     1       1.764  -2.595  -2.740  1.00  0.00     0.188 C 
BRANCH  23  24
ATOM     24  C   UNL     1       2.237  -3.352  -3.985  1.00  0.00     0.188 C 
BRANCH  24  25
ATOM     25  O   UNL     1       3.147  -2.745  -4.892  1.00  0.00    -0.376 OA
BRANCH  25  26
ATOM     26  C   UNL     1       2.877  -1.448  -5.400  1.00  0.00     0.202 C 
BRANCH  26  27
ATOM     27  C   UNL     1       1.587  -1.180  -6.188  1.00  0.00     0.261 C 
BRANCH  27  28
ATOM     28  O   UNL     1       0.600  -2.212  -6.178  1.00  0.00    -0.460 OA
BRANCH  28  29
ATOM     29  C   UNL     1       0.798  -3.266  -7.011  1.00  0.00     0.338 C 
ATOM     30  O   UNL     1       1.704  -3.448  -7.793  1.00  0.00    -0.246 OA
BRANCH  29  31
ATOM     31  C   UNL     1      -0.286  -4.226  -6.696  1.00  0.00     0.060 A 
ATOM     32  C   UNL     1       0.010  -5.429  -6.041  1.00  0.00     0.016 A 
ATOM     33  C   UNL     1      -1.611  -3.849  -6.904  1.00  0.00     0.016 A 
ATOM     34  C   UNL     1      -1.026  -6.234  -5.537  1.00  0.00     0.010 A 
ATOM     35  C   UNL     1      -2.637  -4.641  -6.378  1.00  0.00     0.010 A 
ATOM     36  C   UNL     1      -2.362  -5.842  -5.685  1.00  0.00    -0.014 A 
BRANCH  36  37
ATOM     37  C   UNL     1      -3.515  -6.707  -5.284  1.00  0.00     0.031 A 
ATOM     38  C   UNL     1      -4.430  -7.183  -6.385  1.00  0.00     0.074 A 
ATOM     39  C   UNL     1      -3.828  -7.013  -4.006  1.00  0.00     0.049 A 
ATOM     40  N   UNL     1      -5.599  -7.763  -6.306  1.00  0.00    -0.248 NA
ATOM     41  C   UNL     1      -3.966  -6.944  -7.764  1.00  0.00     0.031 C 
ATOM     42  C   UNL     1      -3.046  -6.682  -2.817  1.00  0.00     0.029 A 
ATOM     43  N   UNL     1      -4.945  -7.643  -3.493  1.00  0.00    -0.354 N 
ATOM     44  C   UNL     1      -6.015  -7.930  -7.620  1.00  0.00     0.074 A 
ATOM     45  C   UNL     1      -5.018  -7.321  -8.469  1.00  0.00     0.031 C 
ATOM     46  C   UNL     1      -3.734  -7.046  -1.717  1.00  0.00     0.029 A 
ATOM     47  C   UNL     1      -5.012  -7.632  -2.116  1.00  0.00     0.049 A 
ATOM     48  H   UNL     1      -5.632  -8.062  -4.060  1.00  0.00     0.167 HD
ATOM     49  C   UNL     1      -7.104  -8.575  -8.095  1.00  0.00     0.031 A 
ATOM     50  C   UNL     1      -5.995  -8.022  -1.276  1.00  0.00     0.031 A 
ATOM     51  C   UNL     1      -8.078  -9.236  -7.279  1.00  0.00     0.049 A 
ATOM     52  C   UNL     1      -7.254  -8.652  -1.828  1.00  0.00     0.074 A 
ATOM     53  C   UNL     1      -9.156 -10.002  -7.686  1.00  0.00     0.029 A 
ATOM     54  N   UNL     1      -8.098  -9.209  -5.897  1.00  0.00    -0.354 N 
ATOM     55  N   UNL     1      -7.577  -8.905  -3.073  1.00  0.00    -0.248 NA
ATOM     56  C   UNL     1      -8.274  -9.081  -0.853  1.00  0.00     0.031 C 
ATOM     57  C   UNL     1      -9.869 -10.385  -6.548  1.00  0.00     0.029 A 
ATOM     58  C   UNL     1      -9.199  -9.907  -5.434  1.00  0.00     0.049 A 
ATOM     59  H   UNL     1      -7.430  -8.761  -5.329  1.00  0.00     0.167 HD
ATOM     60  C   UNL     1      -8.798  -9.570  -3.023  1.00  0.00     0.074 A 
ATOM     61  C   UNL     1      -9.163  -9.684  -1.629  1.00  0.00     0.031 C 
ATOM     62  C   UNL     1      -9.546 -10.050  -4.046  1.00  0.00     0.031 A 
BRANCH  49  63
ATOM     63  C   UNL     1      -7.286  -8.605  -9.582  1.00  0.00    -0.014 A 
ATOM     64  C   UNL     1      -6.443  -9.373 -10.401  1.00  0.00     0.009 A 
ATOM     65  C   UNL     1      -8.332  -7.877 -10.166  1.00  0.00     0.009 A 
ATOM     66  C   UNL     1      -6.622  -9.381 -11.783  1.00  0.00     0.001 A 
ATOM     67  C   UNL     1      -8.529  -7.914 -11.546  1.00  0.00     0.001 A 
ATOM     68  C   UNL     1      -7.669  -8.657 -12.354  1.00  0.00     0.000 A 
ENDBRANCH  49  63
BRANCH  50  69
ATOM     69  C   UNL     1      -5.878  -7.827   0.199  1.00  0.00    -0.014 A 
ATOM     70  C   UNL     1      -5.774  -8.930   1.063  1.00  0.00     0.009 A 
ATOM     71  C   UNL     1      -5.997  -6.545   0.758  1.00  0.00     0.009 A 
ATOM     72  C   UNL     1      -5.849  -8.759   2.449  1.00  0.00     0.001 A 
ATOM     73  C   UNL     1      -6.042  -6.374   2.146  1.00  0.00     0.001 A 
ATOM     74  C   UNL     1      -5.986  -7.482   2.989  1.00  0.00     0.000 A 
ENDBRANCH  50  69
BRANCH  62  75
ATOM     75  C   UNL     1     -10.806 -10.801  -3.718  1.00  0.00    -0.014 A 
ATOM     76  C   UNL     1     -11.949 -10.142  -3.244  1.00  0.00     0.009 A 
ATOM     77  C   UNL     1     -10.876 -12.180  -3.979  1.00  0.00     0.009 A 
ATOM     78  C   UNL     1     -13.132 -10.852  -3.022  1.00  0.00     0.001 A 
ATOM     79  C   UNL     1     -12.067 -12.880  -3.787  1.00  0.00     0.001 A 
ATOM     80  C   UNL     1     -13.193 -12.217  -3.304  1.00  0.00     0.000 A 
ENDBRANCH  62  75
ENDBRANCH  36  37
ENDBRANCH  29  31
ENDBRANCH  28  29
ENDBRANCH  27  28
ENDBRANCH  26  27
ENDBRANCH  25  26
ENDBRANCH  24  25
ENDBRANCH  23  24
ENDBRANCH  22  23
ENDBRANCH  21  22
ENDBRANCH   1  21
TORSDOF 25
