REMARK SMILES CNC(=O)C[N@@H+](C)CCn1cc(C(=O)OCCOCCOCCOCCOC(=O)c2ccc(-c3c4nc(c(-c5ccccc5)c5ccc([nH]5)c(-c5ccccc5)c5nc(c(-c6ccccc6)c6ccc3[nH]6)C=C5)C=C4)cc2)nn1
REMARK SMILES IDX 19 1 18 2 17 3 16 4 15 5 13 6 14 7 12 8 10 9 11 10 79 11
REMARK SMILES IDX 78 12 9 13 8 14 6 15 7 16 5 18 3 19 1 20 2 21 4 23 20 24
REMARK SMILES IDX 21 25 22 26 23 27 24 28 25 29 26 30 27 31 28 32 29 33 30 34
REMARK SMILES IDX 31 35 77 36 32 37 76 38 33 39 34 40 35 41 70 42 36 43 75 44
REMARK SMILES IDX 69 45 71 46 37 47 74 48 68 49 67 50 38 52 60 53 45 54 59 55
REMARK SMILES IDX 46 56 49 57 58 58 72 59 47 60 48 61 57 63 73 64 50 65 39 66
REMARK SMILES IDX 40 67 44 68 41 69 43 70 42 71 61 72 62 73 66 74 63 75 65 76
REMARK SMILES IDX 64 77 51 78 52 79 56 80 53 81 55 82 54 83
REMARK H PARENT 6 17 2 22 71 51 49 62
REMARK Flexibility Score: inf
ROOT
ATOM      1  C   UNL     1      -5.222  -5.803   1.264  1.00  0.00     0.188 C 
ENDROOT
BRANCH   1   2
ATOM      2  O   UNL     1      -5.827  -6.907   0.630  1.00  0.00    -0.376 OA
BRANCH   2   3
ATOM      3  C   UNL     1      -5.222  -7.615  -0.422  1.00  0.00     0.202 C 
BRANCH   3   4
ATOM      4  C   UNL     1      -3.721  -7.938  -0.471  1.00  0.00     0.261 C 
BRANCH   4   5
ATOM      5  O   UNL     1      -2.871  -7.200   0.402  1.00  0.00    -0.458 OA
BRANCH   5   6
ATOM      6  C   UNL     1      -2.372  -6.030  -0.092  1.00  0.00     0.360 C 
ATOM      7  O   UNL     1      -2.522  -5.647  -1.248  1.00  0.00    -0.244 OA
BRANCH   6   8
ATOM      8  C   UNL     1      -1.839  -5.220   0.982  1.00  0.00     0.190 A 
ATOM      9  N   UNL     1      -0.768  -4.391   2.647  1.00  0.00    -0.246 N 
ATOM     10  C   UNL     1      -0.749  -5.455   1.797  1.00  0.00     0.147 A 
ATOM     11  N   UNL     1      -1.931  -3.730   2.578  1.00  0.00    -0.066 NA
ATOM     12  N   UNL     1      -2.521  -4.121   1.460  1.00  0.00    -0.123 NA
BRANCH   9  13
ATOM     13  C   UNL     1       0.283  -3.892   3.495  1.00  0.00     0.207 C 
BRANCH  13  14
ATOM     14  C   UNL     1       1.113  -2.770   2.833  1.00  0.00     0.286 C 
BRANCH  14  15
ATOM     15  N   UNL     1       0.607  -1.382   2.729  1.00  0.00    -0.328 N 
ATOM     16  C   UNL     1       0.176  -0.852   4.021  1.00  0.00     0.333 C 
ATOM     17  H   UNL     1       1.423  -0.868   2.398  1.00  0.00     0.348 HD
BRANCH  15  18
ATOM     18  C   UNL     1      -0.449  -1.153   1.714  1.00  0.00     0.363 C 
BRANCH  18  19
ATOM     19  C   UNL     1      -0.046  -1.648   0.320  1.00  0.00     0.274 C 
ATOM     20  C   UNL     1       1.273   0.437  -0.207  1.00  0.00     0.143 C 
ATOM     21  N   UNL     1       0.679  -0.840  -0.502  1.00  0.00    -0.354 N 
ATOM     22  H   UNL     1       0.815  -1.173  -1.419  1.00  0.00     0.163 HD
ATOM     23  O   UNL     1      -0.317  -2.775  -0.096  1.00  0.00    -0.269 OA
ENDBRANCH  18  19
ENDBRANCH  15  18
ENDBRANCH  14  15
ENDBRANCH  13  14
ENDBRANCH   9  13
ENDBRANCH   6   8
ENDBRANCH   5   6
ENDBRANCH   4   5
ENDBRANCH   3   4
ENDBRANCH   2   3
ENDBRANCH   1   2
BRANCH   1  24
ATOM     24  C   UNL     1      -4.704  -6.093   2.697  1.00  0.00     0.188 C 
BRANCH  24  25
ATOM     25  O   UNL     1      -4.582  -7.415   3.203  1.00  0.00    -0.377 OA
BRANCH  25  26
ATOM     26  C   UNL     1      -5.573  -8.386   2.913  1.00  0.00     0.188 C 
BRANCH  26  27
ATOM     27  C   UNL     1      -7.075  -8.018   2.782  1.00  0.00     0.188 C 
BRANCH  27  28
ATOM     28  O   UNL     1      -7.379  -6.640   2.671  1.00  0.00    -0.376 OA
BRANCH  28  29
ATOM     29  C   UNL     1      -7.915  -5.842   3.705  1.00  0.00     0.202 C 
BRANCH  29  30
ATOM     30  C   UNL     1      -7.309  -5.847   5.103  1.00  0.00     0.261 C 
BRANCH  30  31
ATOM     31  O   UNL     1      -6.703  -7.069   5.452  1.00  0.00    -0.460 OA
BRANCH  31  32
ATOM     32  C   UNL     1      -7.572  -8.055   5.712  1.00  0.00     0.338 C 
ATOM     33  O   UNL     1      -8.789  -8.037   5.565  1.00  0.00    -0.246 OA
BRANCH  32  34
ATOM     34  C   UNL     1      -6.829  -9.152   6.327  1.00  0.00     0.060 A 
ATOM     35  C   UNL     1      -7.581 -10.291   6.607  1.00  0.00     0.016 A 
ATOM     36  C   UNL     1      -5.685  -8.792   7.052  1.00  0.00     0.016 A 
ATOM     37  C   UNL     1      -7.410 -10.858   7.841  1.00  0.00     0.010 A 
ATOM     38  C   UNL     1      -5.554  -9.319   8.303  1.00  0.00     0.010 A 
ATOM     39  C   UNL     1      -6.489 -10.266   8.710  1.00  0.00    -0.014 A 
BRANCH  39  40
ATOM     40  C   UNL     1      -6.422 -10.744  10.066  1.00  0.00     0.031 A 
ATOM     41  C   UNL     1      -5.645 -11.992  10.133  1.00  0.00     0.074 A 
ATOM     42  C   UNL     1      -6.922 -10.041  11.097  1.00  0.00     0.049 A 
ATOM     43  N   UNL     1      -6.112 -13.187  10.268  1.00  0.00    -0.248 NA
ATOM     44  C   UNL     1      -4.226 -11.935   9.731  1.00  0.00     0.031 C 
ATOM     45  C   UNL     1      -7.468  -8.679  11.092  1.00  0.00     0.029 A 
ATOM     46  N   UNL     1      -6.941 -10.369  12.414  1.00  0.00    -0.354 N 
ATOM     47  C   UNL     1      -4.994 -14.008  10.217  1.00  0.00     0.074 A 
ATOM     48  C   UNL     1      -3.947 -13.232   9.611  1.00  0.00     0.031 C 
ATOM     49  C   UNL     1      -7.536  -8.221  12.365  1.00  0.00     0.029 A 
ATOM     50  C   UNL     1      -7.165  -9.297  13.269  1.00  0.00     0.049 A 
ATOM     51  H   UNL     1      -6.808 -11.290  12.736  1.00  0.00     0.167 HD
ATOM     52  C   UNL     1      -4.906 -15.092  11.032  1.00  0.00     0.031 A 
ATOM     53  C   UNL     1      -6.989  -9.304  14.614  1.00  0.00     0.031 A 
ATOM     54  C   UNL     1      -6.196 -15.430  11.582  1.00  0.00     0.049 A 
ATOM     55  C   UNL     1      -6.960 -10.720  15.045  1.00  0.00     0.074 A 
ATOM     56  C   UNL     1      -7.398 -15.882  11.082  1.00  0.00     0.029 A 
ATOM     57  N   UNL     1      -6.452 -14.883  12.816  1.00  0.00    -0.354 N 
ATOM     58  N   UNL     1      -8.004 -11.495  15.011  1.00  0.00    -0.248 NA
ATOM     59  C   UNL     1      -5.678 -11.406  15.123  1.00  0.00     0.031 C 
ATOM     60  C   UNL     1      -8.401 -15.302  11.915  1.00  0.00     0.029 A 
ATOM     61  C   UNL     1      -7.778 -14.568  12.927  1.00  0.00     0.049 A 
ATOM     62  H   UNL     1      -5.778 -14.739  13.519  1.00  0.00     0.167 HD
ATOM     63  C   UNL     1      -7.511 -12.723  14.600  1.00  0.00     0.074 A 
ATOM     64  C   UNL     1      -6.073 -12.653  14.845  1.00  0.00     0.031 C 
ATOM     65  C   UNL     1      -8.277 -13.544  13.821  1.00  0.00     0.031 A 
BRANCH  52  66
ATOM     66  C   UNL     1      -3.624 -15.460  11.751  1.00  0.00    -0.014 A 
ATOM     67  C   UNL     1      -3.649 -16.568  12.614  1.00  0.00     0.009 A 
ATOM     68  C   UNL     1      -2.502 -14.612  11.852  1.00  0.00     0.009 A 
ATOM     69  C   UNL     1      -2.649 -16.765  13.574  1.00  0.00     0.001 A 
ATOM     70  C   UNL     1      -1.483 -14.826  12.782  1.00  0.00     0.001 A 
ATOM     71  C   UNL     1      -1.572 -15.889  13.664  1.00  0.00     0.000 A 
ENDBRANCH  52  66
BRANCH  53  72
ATOM     72  C   UNL     1      -6.593  -8.217  15.534  1.00  0.00    -0.014 A 
ATOM     73  C   UNL     1      -6.815  -8.334  16.917  1.00  0.00     0.009 A 
ATOM     74  C   UNL     1      -5.726  -7.202  15.094  1.00  0.00     0.009 A 
ATOM     75  C   UNL     1      -6.154  -7.498  17.828  1.00  0.00     0.001 A 
ATOM     76  C   UNL     1      -5.066  -6.368  16.004  1.00  0.00     0.001 A 
ATOM     77  C   UNL     1      -5.267  -6.527  17.372  1.00  0.00     0.000 A 
ENDBRANCH  53  72
BRANCH  65  78
ATOM     78  C   UNL     1      -9.749 -13.229  13.739  1.00  0.00    -0.014 A 
ATOM     79  C   UNL     1     -10.266 -12.059  13.152  1.00  0.00     0.009 A 
ATOM     80  C   UNL     1     -10.650 -14.206  14.185  1.00  0.00     0.009 A 
ATOM     81  C   UNL     1     -11.647 -11.865  13.046  1.00  0.00     0.001 A 
ATOM     82  C   UNL     1     -12.027 -14.021  14.058  1.00  0.00     0.001 A 
ATOM     83  C   UNL     1     -12.526 -12.849  13.496  1.00  0.00     0.000 A 
ENDBRANCH  65  78
ENDBRANCH  39  40
ENDBRANCH  32  34
ENDBRANCH  31  32
ENDBRANCH  30  31
ENDBRANCH  29  30
ENDBRANCH  28  29
ENDBRANCH  27  28
ENDBRANCH  26  27
ENDBRANCH  25  26
ENDBRANCH  24  25
ENDBRANCH   1  24
TORSDOF 25
