REMARK SMILES Cc1ccc(S(=O)(=O)n2cc(C(=O)C(=O)N[C@@H](Cc3c[nH]c4ccccc34)C(=O)NCC(=O)OCCOCCOCCOCCOC(=O)c3ccc(-c4c5nc(c(-c6ccccc6)c6ccc([nH]6)c(-c6ccccc6)c6nc(c(-c7ccccc7)c7ccc4[nH]7)C=C6)C=C5)cc3)c3ccccc32)cc1
REMARK SMILES IDX 38 1 37 2 36 3 35 4 34 5 32 6 33 7 31 8 30 9 28 10 29 11
REMARK SMILES IDX 17 13 16 14 14 15 15 16 12 18 13 19 11 20 9 21 10 22 102 23
REMARK SMILES IDX 97 24 101 25 98 26 100 27 99 28 6 29 7 30 8 31 5 32 1 33
REMARK SMILES IDX 2 34 3 35 104 36 4 37 103 38 18 39 19 40 20 41 27 42 21 43
REMARK SMILES IDX 22 44 26 45 23 47 25 48 24 49 39 50 40 51 41 52 42 53 43 54
REMARK SMILES IDX 44 55 45 56 46 57 47 58 48 59 49 60 50 61 96 62 51 63 95 64
REMARK SMILES IDX 52 65 53 66 54 67 89 68 55 69 94 70 88 71 90 72 56 73 93 74
REMARK SMILES IDX 87 75 86 76 57 78 79 79 64 80 78 81 65 82 68 83 77 84 91 85
REMARK SMILES IDX 66 86 67 87 76 89 92 90 69 91 58 92 59 93 63 94 60 95 62 96
REMARK SMILES IDX 61 97 80 98 81 99 85 100 82 101 84 102 83 103 70 104 71 105
REMARK SMILES IDX 75 106 72 107 74 108 73 109
REMARK H PARENT 30 12 16 17 21 46 90 77 68 88
REMARK Flexibility Score: inf
ROOT
ATOM      1  C   UNL     1     -15.420   4.833  -2.509  1.00  0.00     0.188 C 
ENDROOT
BRANCH   1   2
ATOM      2  O   UNL     1     -15.364   6.190  -2.917  1.00  0.00    -0.376 OA
BRANCH   2   3
ATOM      3  C   UNL     1     -14.299   7.027  -2.453  1.00  0.00     0.202 C 
BRANCH   3   4
ATOM      4  C   UNL     1     -13.844   6.934  -0.984  1.00  0.00     0.261 C 
BRANCH   4   5
ATOM      5  O   UNL     1     -13.115   5.712  -0.773  1.00  0.00    -0.462 OA
BRANCH   5   6
ATOM      6  C   UNL     1     -13.660   4.835   0.081  1.00  0.00     0.325 C 
ATOM      7  O   UNL     1     -14.647   5.061   0.780  1.00  0.00    -0.250 OA
BRANCH   6   8
ATOM      8  C   UNL     1     -12.934   3.505   0.092  1.00  0.00     0.238 C 
BRANCH   8   9
ATOM      9  N   UNL     1     -12.166   2.855  -0.935  1.00  0.00    -0.343 N 
ATOM     10  C   UNL     1     -11.574   1.632  -0.690  1.00  0.00     0.243 C 
ATOM     11  O   UNL     1     -11.693   0.744  -1.539  1.00  0.00    -0.273 OA
ATOM     12  H   UNL     1     -12.062   3.283  -1.815  1.00  0.00     0.164 HD
BRANCH  10  13
ATOM     13  C   UNL     1     -10.833   1.348   0.665  1.00  0.00     0.176 C 
BRANCH  13  14
ATOM     14  N   UNL     1      -9.805   2.387   0.929  1.00  0.00    -0.337 N 
ATOM     15  C   UNL     1      -8.463   2.476   0.572  1.00  0.00     0.293 C 
ATOM     16  O   UNL     1      -7.764   3.396   0.993  1.00  0.00    -0.265 OA
ATOM     17  H   UNL     1     -10.134   3.153   1.452  1.00  0.00     0.164 HD
BRANCH  15  18
ATOM     18  C   UNL     1      -7.819   1.470  -0.389  1.00  0.00     0.252 C 
ATOM     19  O   UNL     1      -8.422   1.259  -1.439  1.00  0.00    -0.283 OA
BRANCH  18  20
ATOM     20  C   UNL     1      -6.618   0.694  -0.023  1.00  0.00     0.054 A 
ATOM     21  N   UNL     1      -4.616  -0.097   0.699  1.00  0.00    -0.240 N 
ATOM     22  C   UNL     1      -5.298   1.060   0.300  1.00  0.00     0.117 A 
ATOM     23  C   UNL     1      -5.574  -1.130   0.760  1.00  0.00     0.065 A 
ATOM     24  C   UNL     1      -6.603  -0.726  -0.081  1.00  0.00     0.012 A 
ATOM     25  C   UNL     1      -5.458  -2.466   1.186  1.00  0.00     0.028 A 
ATOM     26  C   UNL     1      -7.393  -1.710  -0.707  1.00  0.00     0.011 A 
ATOM     27  C   UNL     1      -6.181  -3.429   0.486  1.00  0.00     0.002 A 
ATOM     28  C   UNL     1      -7.101  -3.059  -0.486  1.00  0.00     0.001 A 
BRANCH  21  29
ATOM     29  S   UNL     1      -3.088  -0.733   0.128  1.00  0.00     0.268 S 
ATOM     30  O   UNL     1      -3.397  -1.132  -1.235  1.00  0.00    -0.201 OA
ATOM     31  O   UNL     1      -2.816  -1.728   1.161  1.00  0.00    -0.201 OA
BRANCH  29  32
ATOM     32  C   UNL     1      -1.495  -0.004   0.011  1.00  0.00     0.088 A 
ATOM     33  C   UNL     1       2.781   0.676  -0.045  1.00  0.00     0.044 C 
ATOM     34  C   UNL     1       1.290   0.491  -0.085  1.00  0.00    -0.051 A 
ATOM     35  C   UNL     1       0.823  -0.796  -0.286  1.00  0.00     0.005 A 
ATOM     36  C   UNL     1       0.353   1.532   0.122  1.00  0.00     0.005 A 
ATOM     37  C   UNL     1      -0.539  -1.026  -0.255  1.00  0.00     0.022 A 
ATOM     38  C   UNL     1      -1.050   1.293   0.178  1.00  0.00     0.022 A 
ENDBRANCH  29  32
ENDBRANCH  21  29
ENDBRANCH  18  20
ENDBRANCH  15  18
ENDBRANCH  13  14
BRANCH  13  39
ATOM     39  C   UNL     1     -11.747   0.925   1.903  1.00  0.00     0.072 C 
BRANCH  39  40
ATOM     40  C   UNL     1     -12.568   1.960   2.666  1.00  0.00    -0.020 A 
ATOM     41  C   UNL     1     -13.953   2.087   2.706  1.00  0.00     0.087 A 
ATOM     42  C   UNL     1     -12.050   3.120   3.333  1.00  0.00     0.003 A 
ATOM     43  N   UNL     1     -14.255   3.371   3.121  1.00  0.00    -0.361 N 
ATOM     44  C   UNL     1     -13.075   4.066   3.273  1.00  0.00     0.046 A 
ATOM     45  C   UNL     1     -10.737   3.543   3.594  1.00  0.00     0.010 A 
ATOM     46  H   UNL     1     -15.158   3.728   3.280  1.00  0.00     0.166 HD
ATOM     47  C   UNL     1     -12.820   5.426   3.137  1.00  0.00     0.026 A 
ATOM     48  C   UNL     1     -10.445   4.864   3.286  1.00  0.00     0.001 A 
ATOM     49  C   UNL     1     -11.475   5.731   2.958  1.00  0.00     0.002 A 
ENDBRANCH  39  40
ENDBRANCH  13  39
ENDBRANCH  10  13
ENDBRANCH   8   9
ENDBRANCH   6   8
ENDBRANCH   5   6
ENDBRANCH   4   5
ENDBRANCH   3   4
ENDBRANCH   2   3
ENDBRANCH   1   2
BRANCH   1  50
ATOM     50  C   UNL     1     -14.777   3.743  -3.368  1.00  0.00     0.188 C 
BRANCH  50  51
ATOM     51  O   UNL     1     -13.353   3.790  -3.401  1.00  0.00    -0.377 OA
BRANCH  51  52
ATOM     52  C   UNL     1     -12.831   3.591  -4.722  1.00  0.00     0.188 C 
BRANCH  52  53
ATOM     53  C   UNL     1     -12.900   4.885  -5.518  1.00  0.00     0.188 C 
BRANCH  53  54
ATOM     54  O   UNL     1     -14.198   5.375  -5.841  1.00  0.00    -0.376 OA
BRANCH  54  55
ATOM     55  C   UNL     1     -14.986   4.692  -6.813  1.00  0.00     0.202 C 
BRANCH  55  56
ATOM     56  C   UNL     1     -14.304   4.398  -8.152  1.00  0.00     0.261 C 
BRANCH  56  57
ATOM     57  O   UNL     1     -13.908   5.637  -8.765  1.00  0.00    -0.460 OA
BRANCH  57  58
ATOM     58  C   UNL     1     -12.581   5.776  -8.976  1.00  0.00     0.338 C 
ATOM     59  O   UNL     1     -11.848   4.915  -9.483  1.00  0.00    -0.246 OA
BRANCH  58  60
ATOM     60  C   UNL     1     -12.065   6.935  -8.201  1.00  0.00     0.060 A 
ATOM     61  C   UNL     1     -10.687   7.008  -7.933  1.00  0.00     0.016 A 
ATOM     62  C   UNL     1     -12.962   7.663  -7.422  1.00  0.00     0.016 A 
ATOM     63  C   UNL     1     -10.232   7.629  -6.764  1.00  0.00     0.010 A 
ATOM     64  C   UNL     1     -12.520   8.169  -6.216  1.00  0.00     0.010 A 
ATOM     65  C   UNL     1     -11.166   8.099  -5.839  1.00  0.00    -0.014 A 
BRANCH  65  66
ATOM     66  C   UNL     1     -10.915   8.200  -4.384  1.00  0.00     0.031 A 
ATOM     67  C   UNL     1     -11.589   9.270  -3.557  1.00  0.00     0.074 A 
ATOM     68  C   UNL     1     -10.423   7.092  -3.775  1.00  0.00     0.049 A 
ATOM     69  N   UNL     1     -11.586   9.343  -2.264  1.00  0.00    -0.248 NA
ATOM     70  C   UNL     1     -12.308  10.399  -4.155  1.00  0.00     0.031 C 
ATOM     71  C   UNL     1     -10.880   6.593  -2.493  1.00  0.00     0.029 A 
ATOM     72  N   UNL     1      -9.556   6.090  -4.166  1.00  0.00    -0.354 N 
ATOM     73  C   UNL     1     -12.438  10.360  -1.867  1.00  0.00     0.074 A 
ATOM     74  C   UNL     1     -12.848  11.000  -3.089  1.00  0.00     0.031 C 
ATOM     75  C   UNL     1     -10.240   5.481  -2.130  1.00  0.00     0.029 A 
ATOM     76  C   UNL     1      -9.163   5.327  -3.051  1.00  0.00     0.049 A 
ATOM     77  H   UNL     1      -9.256   5.934  -5.090  1.00  0.00     0.167 HD
ATOM     78  C   UNL     1     -12.754  10.539  -0.552  1.00  0.00     0.031 A 
ATOM     79  C   UNL     1      -7.874   5.335  -2.618  1.00  0.00     0.031 A 
ATOM     80  C   UNL     1     -11.861   9.807   0.361  1.00  0.00     0.049 A 
ATOM     81  C   UNL     1      -7.624   6.187  -1.369  1.00  0.00     0.074 A 
ATOM     82  C   UNL     1     -12.036   9.184   1.581  1.00  0.00     0.029 A 
ATOM     83  N   UNL     1     -10.511   9.607   0.024  1.00  0.00    -0.354 N 
ATOM     84  N   UNL     1      -8.454   7.081  -0.858  1.00  0.00    -0.248 NA
ATOM     85  C   UNL     1      -6.409   6.051  -0.571  1.00  0.00     0.031 C 
ATOM     86  C   UNL     1     -10.763   8.783   2.032  1.00  0.00     0.029 A 
ATOM     87  C   UNL     1      -9.847   8.912   1.001  1.00  0.00     0.049 A 
ATOM     88  H   UNL     1     -10.095   9.927  -0.809  1.00  0.00     0.167 HD
ATOM     89  C   UNL     1      -7.877   7.670   0.250  1.00  0.00     0.074 A 
ATOM     90  C   UNL     1      -6.626   6.943   0.409  1.00  0.00     0.031 C 
ATOM     91  C   UNL     1      -8.403   8.700   0.994  1.00  0.00     0.031 A 
BRANCH  78  92
ATOM     92  C   UNL     1     -13.978  11.321  -0.033  1.00  0.00    -0.014 A 
ATOM     93  C   UNL     1     -14.188  11.483   1.356  1.00  0.00     0.009 A 
ATOM     94  C   UNL     1     -15.032  11.795  -0.837  1.00  0.00     0.009 A 
ATOM     95  C   UNL     1     -15.384  11.976   1.906  1.00  0.00     0.001 A 
ATOM     96  C   UNL     1     -16.207  12.359  -0.298  1.00  0.00     0.001 A 
ATOM     97  C   UNL     1     -16.399  12.419   1.075  1.00  0.00     0.000 A 
ENDBRANCH  78  92
BRANCH  79  98
ATOM     98  C   UNL     1      -6.990   4.816  -3.715  1.00  0.00    -0.014 A 
ATOM     99  C   UNL     1      -7.219   3.446  -4.000  1.00  0.00     0.009 A 
ATOM    100  C   UNL     1      -6.720   5.667  -4.803  1.00  0.00     0.009 A 
ATOM    101  C   UNL     1      -7.516   3.028  -5.303  1.00  0.00     0.001 A 
ATOM    102  C   UNL     1      -7.003   5.235  -6.112  1.00  0.00     0.001 A 
ATOM    103  C   UNL     1      -7.466   3.940  -6.351  1.00  0.00     0.000 A 
ENDBRANCH  79  98
BRANCH  91 104
ATOM    104  C   UNL     1      -7.612   9.588   1.957  1.00  0.00    -0.014 A 
ATOM    105  C   UNL     1      -6.218   9.632   2.038  1.00  0.00     0.009 A 
ATOM    106  C   UNL     1      -8.296  10.549   2.748  1.00  0.00     0.009 A 
ATOM    107  C   UNL     1      -5.559  10.491   2.930  1.00  0.00     0.001 A 
ATOM    108  C   UNL     1      -7.650  11.419   3.626  1.00  0.00     0.001 A 
ATOM    109  C   UNL     1      -6.274  11.375   3.732  1.00  0.00     0.000 A 
ENDBRANCH  91 104
ENDBRANCH  65  66
ENDBRANCH  58  60
ENDBRANCH  57  58
ENDBRANCH  56  57
ENDBRANCH  55  56
ENDBRANCH  54  55
ENDBRANCH  53  54
ENDBRANCH  52  53
ENDBRANCH  51  52
ENDBRANCH  50  51
ENDBRANCH   1  50
TORSDOF 29
