REMARK SMILES CC1=NN(c2ccc(Cl)c(C(=O)OCCOCCOCCOCCOC(=O)c3ccc(-c4c5nc(c(-c6ccccc6)c6ccc([nH]6)c(-c6ccccc6)c6nc(c(-c7ccccc7)c7ccc4[nH]7)C=C6)C=C5)cc3)c2)C(=O)/C1=C\c1ccc(N(C)C)c(Br)c1
REMARK SMILES IDX 18 1 17 2 16 3 15 4 14 5 13 6 11 7 12 8 10 9 5 10 6 11 76 12
REMARK SMILES IDX 7 13 8 14 9 15 4 16 1 17 2 18 3 19 79 20 77 21 80 22 78 23
REMARK SMILES IDX 81 24 82 25 90 26 83 27 88 28 84 29 89 30 85 31 86 32 87 33
REMARK SMILES IDX 19 34 20 35 21 36 22 37 23 38 24 39 25 40 26 41 27 42 28 43
REMARK SMILES IDX 29 44 75 45 30 46 74 47 31 48 32 49 33 50 68 51 34 52 73 53
REMARK SMILES IDX 67 54 69 55 35 56 72 57 66 58 65 59 36 61 58 62 43 63 57 64
REMARK SMILES IDX 44 65 47 66 56 67 70 68 45 69 46 70 55 72 71 73 48 74 37 75
REMARK SMILES IDX 38 76 42 77 39 78 41 79 40 80 59 81 60 82 64 83 61 84 63 85
REMARK SMILES IDX 62 86 49 87 50 88 54 89 51 90 53 91 52 92
REMARK H PARENT 69 60 47 71
REMARK Flexibility Score: inf
ROOT
ATOM      1  C   UNL     1      -0.108   6.623   1.201  1.00  0.00     0.188 C 
ENDROOT
BRANCH   1   2
ATOM      2  C   UNL     1      -0.228   6.212   2.687  1.00  0.00     0.188 C 
BRANCH   2   3
ATOM      3  O   UNL     1       0.038   7.264   3.599  1.00  0.00    -0.376 OA
BRANCH   3   4
ATOM      4  C   UNL     1       1.208   7.206   4.392  1.00  0.00     0.202 C 
BRANCH   4   5
ATOM      5  C   UNL     1       2.573   7.129   3.696  1.00  0.00     0.261 C 
BRANCH   5   6
ATOM      6  O   UNL     1       2.606   6.337   2.506  1.00  0.00    -0.460 OA
BRANCH   6   7
ATOM      7  C   UNL     1       2.804   5.010   2.643  1.00  0.00     0.339 C 
ATOM      8  O   UNL     1       2.920   4.396   3.689  1.00  0.00    -0.246 OA
BRANCH   7   9
ATOM      9  C   UNL     1       2.619   4.375   1.321  1.00  0.00     0.080 A 
ATOM     10  C   UNL     1       1.514   2.638   0.041  1.00  0.00     0.070 A 
ATOM     11  C   UNL     1       2.211   3.047  -1.099  1.00  0.00     0.030 A 
ATOM     12  C   UNL     1       1.702   3.310   1.249  1.00  0.00     0.045 A 
ATOM     13  C   UNL     1       3.076   4.140  -1.043  1.00  0.00     0.023 A 
ATOM     14  C   UNL     1       3.297   4.799   0.170  1.00  0.00     0.055 A 
ATOM     15  Cl  UNL     1       4.458   6.079   0.168  1.00  0.00    -0.083 Cl
BRANCH  10  16
ATOM     16  N   UNL     1       0.776   1.451   0.007  1.00  0.00    -0.196 N 
ATOM     17  C   UNL     1      -2.378  -0.276   0.124  1.00  0.00     0.069 C 
ATOM     18  C   UNL     1      -0.964   0.200   0.075  1.00  0.00     0.071 C 
ATOM     19  N   UNL     1      -0.592   1.450   0.227  1.00  0.00    -0.169 NA
ATOM     20  C   UNL     1       0.187  -0.701  -0.135  1.00  0.00     0.065 C 
ATOM     21  C   UNL     1       1.344   0.213  -0.308  1.00  0.00     0.280 C 
ATOM     22  C   UNL     1       0.215  -2.036  -0.028  1.00  0.00     0.024 C 
ATOM     23  O   UNL     1       2.474  -0.062  -0.624  1.00  0.00    -0.267 OA
BRANCH  22  24
ATOM     24  C   UNL     1       1.487  -2.760   0.075  1.00  0.00    -0.024 A 
ATOM     25  C   UNL     1       1.955  -3.575  -0.936  1.00  0.00     0.010 A 
ATOM     26  C   UNL     1       2.295  -2.573   1.196  1.00  0.00     0.026 A 
ATOM     27  C   UNL     1       3.241  -4.140  -0.841  1.00  0.00     0.028 A 
ATOM     28  C   UNL     1       3.586  -3.140   1.291  1.00  0.00     0.041 A 
ATOM     29  C   UNL     1       4.127  -3.946   0.254  1.00  0.00     0.051 A 
ATOM     30  Br  UNL     1       4.424  -2.682   2.950  1.00  0.00    -0.049 Br
BRANCH  29  31
ATOM     31  N   UNL     1       5.392  -4.538   0.231  1.00  0.00    -0.377 N 
ATOM     32  C   UNL     1       5.856  -5.412  -0.849  1.00  0.00     0.143 C 
ATOM     33  C   UNL     1       6.462  -4.166   1.154  1.00  0.00     0.143 C 
ENDBRANCH  29  31
ENDBRANCH  22  24
ENDBRANCH  10  16
ENDBRANCH   7   9
ENDBRANCH   6   7
ENDBRANCH   5   6
ENDBRANCH   4   5
ENDBRANCH   3   4
ENDBRANCH   2   3
ENDBRANCH   1   2
BRANCH   1  34
ATOM     34  O   UNL     1       0.466   7.877   0.858  1.00  0.00    -0.377 OA
BRANCH  34  35
ATOM     35  C   UNL     1       0.096   9.048   1.579  1.00  0.00     0.188 C 
BRANCH  35  36
ATOM     36  C   UNL     1      -1.312   9.192   2.203  1.00  0.00     0.188 C 
BRANCH  36  37
ATOM     37  O   UNL     1      -2.203   8.129   1.910  1.00  0.00    -0.376 OA
BRANCH  37  38
ATOM     38  C   UNL     1      -3.249   8.384   0.991  1.00  0.00     0.202 C 
BRANCH  38  39
ATOM     39  C   UNL     1      -2.844   8.741  -0.446  1.00  0.00     0.261 C 
BRANCH  39  40
ATOM     40  O   UNL     1      -1.930   9.838  -0.592  1.00  0.00    -0.460 OA
BRANCH  40  41
ATOM     41  C   UNL     1      -2.364  11.062  -0.224  1.00  0.00     0.338 C 
ATOM     42  O   UNL     1      -3.458  11.358   0.220  1.00  0.00    -0.246 OA
BRANCH  41  43
ATOM     43  C   UNL     1      -1.205  11.975  -0.286  1.00  0.00     0.060 A 
ATOM     44  C   UNL     1      -0.768  12.611   0.884  1.00  0.00     0.016 A 
ATOM     45  C   UNL     1      -0.549  12.191  -1.499  1.00  0.00     0.016 A 
ATOM     46  C   UNL     1       0.311  13.495   0.835  1.00  0.00     0.010 A 
ATOM     47  C   UNL     1       0.515  13.093  -1.552  1.00  0.00     0.010 A 
ATOM     48  C   UNL     1       0.926  13.775  -0.393  1.00  0.00    -0.014 A 
BRANCH  48  49
ATOM     49  C   UNL     1       1.847  14.930  -0.512  1.00  0.00     0.031 A 
ATOM     50  C   UNL     1       1.288  16.228  -1.027  1.00  0.00     0.074 A 
ATOM     51  C   UNL     1       3.143  14.840  -0.167  1.00  0.00     0.049 A 
ATOM     52  N   UNL     1       1.901  17.355  -1.282  1.00  0.00    -0.248 NA
ATOM     53  C   UNL     1      -0.161  16.256  -1.291  1.00  0.00     0.031 C 
ATOM     54  C   UNL     1       3.793  13.658   0.395  1.00  0.00     0.029 A 
ATOM     55  N   UNL     1       4.147  15.773  -0.249  1.00  0.00    -0.354 N 
ATOM     56  C   UNL     1       0.916  18.219  -1.745  1.00  0.00     0.074 A 
ATOM     57  C   UNL     1      -0.327  17.480  -1.766  1.00  0.00     0.031 C 
ATOM     58  C   UNL     1       5.094  13.935   0.600  1.00  0.00     0.029 A 
ATOM     59  C   UNL     1       5.373  15.297   0.148  1.00  0.00     0.049 A 
ATOM     60  H   UNL     1       4.002  16.695  -0.563  1.00  0.00     0.167 HD
ATOM     61  C   UNL     1       1.032  19.516  -2.115  1.00  0.00     0.031 A 
ATOM     62  C   UNL     1       6.583  15.889   0.122  1.00  0.00     0.031 A 
ATOM     63  C   UNL     1       2.271  20.246  -2.115  1.00  0.00     0.049 A 
ATOM     64  C   UNL     1       6.705  17.302  -0.391  1.00  0.00     0.074 A 
ATOM     65  C   UNL     1       2.495  21.564  -2.471  1.00  0.00     0.029 A 
ATOM     66  N   UNL     1       3.498  19.714  -1.750  1.00  0.00    -0.354 N 
ATOM     67  N   UNL     1       5.766  18.117  -0.808  1.00  0.00    -0.248 NA
ATOM     68  C   UNL     1       8.058  17.878  -0.428  1.00  0.00     0.031 C 
ATOM     69  C   UNL     1       3.868  21.812  -2.380  1.00  0.00     0.029 A 
ATOM     70  C   UNL     1       4.487  20.670  -1.897  1.00  0.00     0.049 A 
ATOM     71  H   UNL     1       3.643  18.794  -1.432  1.00  0.00     0.167 HD
ATOM     72  C   UNL     1       6.408  19.310  -1.120  1.00  0.00     0.074 A 
ATOM     73  C   UNL     1       7.814  19.117  -0.833  1.00  0.00     0.031 C 
ATOM     74  C   UNL     1       5.881  20.465  -1.599  1.00  0.00     0.031 A 
BRANCH  61  75
ATOM     75  C   UNL     1      -0.212  20.214  -2.589  1.00  0.00    -0.014 A 
ATOM     76  C   UNL     1      -1.254  20.534  -1.704  1.00  0.00     0.009 A 
ATOM     77  C   UNL     1      -0.333  20.578  -3.939  1.00  0.00     0.009 A 
ATOM     78  C   UNL     1      -2.406  21.173  -2.169  1.00  0.00     0.001 A 
ATOM     79  C   UNL     1      -1.471  21.245  -4.395  1.00  0.00     0.001 A 
ATOM     80  C   UNL     1      -2.510  21.533  -3.511  1.00  0.00     0.000 A 
ENDBRANCH  61  75
BRANCH  62  81
ATOM     81  C   UNL     1       7.793  15.148   0.573  1.00  0.00    -0.014 A 
ATOM     82  C   UNL     1       8.494  15.550   1.720  1.00  0.00     0.009 A 
ATOM     83  C   UNL     1       8.277  14.057  -0.167  1.00  0.00     0.009 A 
ATOM     84  C   UNL     1       9.670  14.898   2.098  1.00  0.00     0.001 A 
ATOM     85  C   UNL     1       9.435  13.386   0.232  1.00  0.00     0.001 A 
ATOM     86  C   UNL     1      10.137  13.814   1.357  1.00  0.00     0.000 A 
ENDBRANCH  62  81
BRANCH  74  87
ATOM     87  C   UNL     1       6.816  21.629  -1.788  1.00  0.00    -0.014 A 
ATOM     88  C   UNL     1       7.776  21.644  -2.811  1.00  0.00     0.009 A 
ATOM     89  C   UNL     1       6.695  22.754  -0.955  1.00  0.00     0.009 A 
ATOM     90  C   UNL     1       8.620  22.746  -2.972  1.00  0.00     0.001 A 
ATOM     91  C   UNL     1       7.515  23.867  -1.140  1.00  0.00     0.001 A 
ATOM     92  C   UNL     1       8.484  23.858  -2.141  1.00  0.00     0.000 A 
ENDBRANCH  74  87
ENDBRANCH  48  49
ENDBRANCH  41  43
ENDBRANCH  40  41
ENDBRANCH  39  40
ENDBRANCH  38  39
ENDBRANCH  37  38
ENDBRANCH  36  37
ENDBRANCH  35  36
ENDBRANCH  34  35
ENDBRANCH   1  34
TORSDOF 23
