REMARK SMILES CC[C@@]1(C)C[C@@H]([NH2+]C[C@H]2CC[C@@H](C(=O)OCCOCCOCCOCCOC(=O)c3ccc(-c4c5nc(c(-c6ccccc6)c6ccc([nH]6)c(-c6ccccc6)c6nc(c(-c7ccccc7)c7ccc4[nH]7)C=C6)C=C5)cc3)CC2)CCO1
REMARK SMILES IDX 20 1 19 2 18 3 17 4 16 5 15 6 13 7 14 8 12 9 9 10 10 11
REMARK SMILES IDX 79 12 11 13 78 14 8 15 7 16 6 19 3 20 4 21 5 22 82 23 81 24
REMARK SMILES IDX 80 25 2 26 1 27 21 28 22 29 23 30 24 31 25 32 26 33 27 34
REMARK SMILES IDX 28 35 29 36 30 37 31 38 77 39 32 40 76 41 33 42 34 43 35 44
REMARK SMILES IDX 70 45 36 46 75 47 69 48 71 49 37 50 74 51 68 52 67 53 38 55
REMARK SMILES IDX 60 56 45 57 59 58 46 59 49 60 58 61 72 62 47 63 48 64 57 66
REMARK SMILES IDX 73 67 50 68 39 69 40 70 44 71 41 72 43 73 42 74 61 75 62 76
REMARK SMILES IDX 66 77 63 78 65 79 64 80 51 81 52 82 56 83 53 84 55 85 54 86
REMARK H PARENT 7 17 7 18 71 54 49 65
REMARK Flexibility Score: inf
ROOT
ATOM      1  C   UNL     1       0.720   5.345   2.074  1.00  0.00     0.188 C 
ENDROOT
BRANCH   1   2
ATOM      2  C   UNL     1      -0.133   6.131   1.073  1.00  0.00     0.188 C 
BRANCH   2   3
ATOM      3  O   UNL     1      -1.514   6.287   1.326  1.00  0.00    -0.376 OA
BRANCH   3   4
ATOM      4  C   UNL     1      -2.404   5.181   1.265  1.00  0.00     0.202 C 
BRANCH   4   5
ATOM      5  C   UNL     1      -2.114   3.854   0.533  1.00  0.00     0.261 C 
BRANCH   5   6
ATOM      6  O   UNL     1      -0.807   3.279   0.712  1.00  0.00    -0.463 OA
BRANCH   6   7
ATOM      7  C   UNL     1      -0.012   3.246  -0.387  1.00  0.00     0.309 C 
ATOM      8  O   UNL     1      -0.373   3.639  -1.494  1.00  0.00    -0.252 OA
BRANCH   7   9
ATOM      9  C   UNL     1       1.435   2.793  -0.122  1.00  0.00     0.099 C 
ATOM     10  C   UNL     1       3.301   0.410   0.109  1.00  0.00     0.044 C 
ATOM     11  C   UNL     1       3.202   1.253  -1.173  1.00  0.00     0.010 C 
ATOM     12  C   UNL     1       3.110   1.430   1.248  1.00  0.00     0.010 C 
ATOM     13  C   UNL     1       1.891   1.990  -1.342  1.00  0.00     0.016 C 
ATOM     14  C   UNL     1       1.715   2.063   1.205  1.00  0.00     0.016 C 
BRANCH  10  15
ATOM     15  C   UNL     1       2.524  -0.929   0.460  1.00  0.00     0.264 C 
BRANCH  15  16
ATOM     16  N   UNL     1       1.365  -1.573  -0.180  1.00  0.00    -0.343 N 
ATOM     17  H   UNL     1       0.941  -2.192   0.510  1.00  0.00     0.346 HD
ATOM     18  H   UNL     1       0.781  -0.797  -0.493  1.00  0.00     0.346 HD
BRANCH  16  19
ATOM     19  C   UNL     1       1.604  -2.364  -1.388  1.00  0.00     0.187 C 
ATOM     20  C   UNL     1       0.287  -0.936  -3.104  1.00  0.00     0.071 C 
ATOM     21  C   UNL     1       0.671  -0.098  -4.351  1.00  0.00     0.042 C 
ATOM     22  C   UNL     1       1.643  -1.451  -2.584  1.00  0.00     0.100 C 
ATOM     23  O   UNL     1      -0.390  -2.126  -3.559  1.00  0.00    -0.375 OA
ATOM     24  C   UNL     1      -0.683  -3.025  -2.486  1.00  0.00     0.167 C 
ATOM     25  C   UNL     1       0.552  -3.462  -1.688  1.00  0.00     0.093 C 
BRANCH  20  26
ATOM     26  C   UNL     1      -0.763  -0.063  -2.321  1.00  0.00     0.032 C 
ATOM     27  C   UNL     1      -0.984  -0.123  -0.812  1.00  0.00     0.007 C 
ENDBRANCH  20  26
ENDBRANCH  16  19
ENDBRANCH  15  16
ENDBRANCH  10  15
ENDBRANCH   7   9
ENDBRANCH   6   7
ENDBRANCH   5   6
ENDBRANCH   4   5
ENDBRANCH   3   4
ENDBRANCH   2   3
ENDBRANCH   1   2
BRANCH   1  28
ATOM     28  O   UNL     1       0.055   4.402   2.886  1.00  0.00    -0.377 OA
BRANCH  28  29
ATOM     29  C   UNL     1      -0.656   4.837   4.034  1.00  0.00     0.188 C 
BRANCH  29  30
ATOM     30  C   UNL     1      -0.767   6.335   4.365  1.00  0.00     0.188 C 
BRANCH  30  31
ATOM     31  O   UNL     1       0.343   7.133   3.994  1.00  0.00    -0.376 OA
BRANCH  31  32
ATOM     32  C   UNL     1       1.427   7.303   4.896  1.00  0.00     0.202 C 
BRANCH  32  33
ATOM     33  C   UNL     1       2.169   6.064   5.430  1.00  0.00     0.261 C 
BRANCH  33  34
ATOM     34  O   UNL     1       1.385   5.112   6.164  1.00  0.00    -0.460 OA
BRANCH  34  35
ATOM     35  C   UNL     1       0.679   5.563   7.216  1.00  0.00     0.338 C 
ATOM     36  O   UNL     1       0.693   6.690   7.693  1.00  0.00    -0.246 OA
BRANCH  35  37
ATOM     37  C   UNL     1      -0.289   4.522   7.600  1.00  0.00     0.060 A 
ATOM     38  C   UNL     1      -1.653   4.838   7.577  1.00  0.00     0.016 A 
ATOM     39  C   UNL     1       0.144   3.259   8.012  1.00  0.00     0.016 A 
ATOM     40  C   UNL     1      -2.587   3.920   8.041  1.00  0.00     0.010 A 
ATOM     41  C   UNL     1      -0.791   2.348   8.506  1.00  0.00     0.010 A 
ATOM     42  C   UNL     1      -2.150   2.704   8.579  1.00  0.00    -0.014 A 
BRANCH  42  43
ATOM     43  C   UNL     1      -3.071   1.969   9.474  1.00  0.00     0.031 A 
ATOM     44  C   UNL     1      -2.954   2.216  10.954  1.00  0.00     0.074 A 
ATOM     45  C   UNL     1      -4.034   1.169   8.991  1.00  0.00     0.049 A 
ATOM     46  N   UNL     1      -3.654   1.718  11.940  1.00  0.00    -0.248 NA
ATOM     47  C   UNL     1      -1.900   3.154  11.378  1.00  0.00     0.031 C 
ATOM     48  C   UNL     1      -4.284   0.901   7.577  1.00  0.00     0.029 A 
ATOM     49  N   UNL     1      -4.986   0.437   9.653  1.00  0.00    -0.354 N 
ATOM     50  C   UNL     1      -3.114   2.268  13.097  1.00  0.00     0.074 A 
ATOM     51  C   UNL     1      -2.008   3.107  12.695  1.00  0.00     0.031 C 
ATOM     52  C   UNL     1      -5.323   0.054   7.477  1.00  0.00     0.029 A 
ATOM     53  C   UNL     1      -5.786  -0.300   8.818  1.00  0.00     0.049 A 
ATOM     54  H   UNL     1      -5.085   0.440  10.632  1.00  0.00     0.167 HD
ATOM     55  C   UNL     1      -3.504   2.094  14.381  1.00  0.00     0.031 A 
ATOM     56  C   UNL     1      -6.769  -1.174   9.108  1.00  0.00     0.031 A 
ATOM     57  C   UNL     1      -4.594   1.244  14.778  1.00  0.00     0.049 A 
ATOM     58  C   UNL     1      -7.144  -1.409  10.547  1.00  0.00     0.074 A 
ATOM     59  C   UNL     1      -5.085   1.007  16.049  1.00  0.00     0.029 A 
ATOM     60  N   UNL     1      -5.353   0.479  13.904  1.00  0.00    -0.354 N 
ATOM     61  N   UNL     1      -6.645  -0.868  11.633  1.00  0.00    -0.248 NA
ATOM     62  C   UNL     1      -8.233  -2.363  10.797  1.00  0.00     0.031 C 
ATOM     63  C   UNL     1      -6.093   0.043  15.952  1.00  0.00     0.029 A 
ATOM     64  C   UNL     1      -6.287  -0.258  14.612  1.00  0.00     0.049 A 
ATOM     65  H   UNL     1      -5.244   0.463  12.926  1.00  0.00     0.167 HD
ATOM     66  C   UNL     1      -7.379  -1.391  12.692  1.00  0.00     0.074 A 
ATOM     67  C   UNL     1      -8.365  -2.281  12.114  1.00  0.00     0.031 C 
ATOM     68  C   UNL     1      -7.255  -1.149  14.022  1.00  0.00     0.031 A 
BRANCH  55  69
ATOM     69  C   UNL     1      -2.696   2.790  15.443  1.00  0.00    -0.014 A 
ATOM     70  C   UNL     1      -2.686   4.189  15.570  1.00  0.00     0.009 A 
ATOM     71  C   UNL     1      -1.914   2.027  16.323  1.00  0.00     0.009 A 
ATOM     72  C   UNL     1      -1.868   4.809  16.518  1.00  0.00     0.001 A 
ATOM     73  C   UNL     1      -1.126   2.646  17.294  1.00  0.00     0.001 A 
ATOM     74  C   UNL     1      -1.092   4.036  17.381  1.00  0.00     0.000 A 
ENDBRANCH  55  69
BRANCH  56  75
ATOM     75  C   UNL     1      -7.453  -1.901   8.008  1.00  0.00    -0.014 A 
ATOM     76  C   UNL     1      -8.791  -1.629   7.684  1.00  0.00     0.009 A 
ATOM     77  C   UNL     1      -6.759  -2.868   7.263  1.00  0.00     0.009 A 
ATOM     78  C   UNL     1      -9.423  -2.323   6.649  1.00  0.00     0.001 A 
ATOM     79  C   UNL     1      -7.384  -3.538   6.210  1.00  0.00     0.001 A 
ATOM     80  C   UNL     1      -8.717  -3.271   5.909  1.00  0.00     0.000 A 
ENDBRANCH  56  75
BRANCH  68  81
ATOM     81  C   UNL     1      -8.240  -1.822  14.941  1.00  0.00    -0.014 A 
ATOM     82  C   UNL     1      -8.218  -3.208  15.162  1.00  0.00     0.009 A 
ATOM     83  C   UNL     1      -9.186  -1.042  15.626  1.00  0.00     0.009 A 
ATOM     84  C   UNL     1      -9.153  -3.802  16.013  1.00  0.00     0.001 A 
ATOM     85  C   UNL     1     -10.095  -1.633  16.504  1.00  0.00     0.001 A 
ATOM     86  C   UNL     1     -10.087  -3.014  16.686  1.00  0.00     0.000 A 
ENDBRANCH  68  81
ENDBRANCH  42  43
ENDBRANCH  35  37
ENDBRANCH  34  35
ENDBRANCH  33  34
ENDBRANCH  32  33
ENDBRANCH  31  32
ENDBRANCH  30  31
ENDBRANCH  29  30
ENDBRANCH  28  29
ENDBRANCH   1  28
TORSDOF 24
