REMARK SMILES CCC(CC)NC(=O)NC[C@H]1CC[C@H](C(=O)OCCOCCOCCOCCOC(=O)c2ccc(-c3c4nc(c(-c5ccccc5)c5ccc([nH]5)c(-c5ccccc5)c5nc(c(-c6ccccc6)c6ccc3[nH]6)C=C5)C=C4)cc2)O1
REMARK SMILES IDX 22 1 21 2 20 3 19 4 18 5 17 6 15 7 16 8 14 9 11 10 12 11
REMARK SMILES IDX 80 12 13 13 10 14 9 15 6 16 7 17 8 19 3 21 2 22 1 23 4 24
REMARK SMILES IDX 5 25 23 26 24 27 25 28 26 29 27 30 28 31 29 32 30 33 31 34
REMARK SMILES IDX 32 35 33 36 79 37 34 38 78 39 35 40 36 41 37 42 72 43 38 44
REMARK SMILES IDX 77 45 71 46 73 47 39 48 76 49 70 50 69 51 40 53 62 54 47 55
REMARK SMILES IDX 61 56 48 57 51 58 60 59 74 60 49 61 50 62 59 64 75 65 52 66
REMARK SMILES IDX 41 67 42 68 46 69 43 70 45 71 44 72 63 73 64 74 68 75 65 76
REMARK SMILES IDX 67 77 66 78 53 79 54 80 58 81 55 82 57 83 56 84
REMARK H PARENT 6 18 9 20 73 52 51 63
REMARK Flexibility Score: inf
ROOT
ATOM      1  C   UNL     1       7.984   1.098   2.135  1.00  0.00     0.188 C 
ENDROOT
BRANCH   1   2
ATOM      2  C   UNL     1       9.110   0.106   1.814  1.00  0.00     0.188 C 
BRANCH   2   3
ATOM      3  O   UNL     1       9.512  -0.120   0.474  1.00  0.00    -0.376 OA
BRANCH   3   4
ATOM      4  C   UNL     1       8.596  -0.530  -0.532  1.00  0.00     0.202 C 
BRANCH   4   5
ATOM      5  C   UNL     1       7.442  -1.518  -0.300  1.00  0.00     0.261 C 
BRANCH   5   6
ATOM      6  O   UNL     1       6.609  -1.280   0.841  1.00  0.00    -0.461 OA
BRANCH   6   7
ATOM      7  C   UNL     1       6.751  -2.163   1.859  1.00  0.00     0.335 C 
ATOM      8  O   UNL     1       7.542  -3.102   1.848  1.00  0.00    -0.249 OA
BRANCH   7   9
ATOM      9  C   UNL     1       5.824  -1.891   3.044  1.00  0.00     0.228 C 
ATOM     10  C   UNL     1       3.528  -2.288   3.282  1.00  0.00     0.138 C 
ATOM     11  C   UNL     1       3.680  -0.839   2.880  1.00  0.00     0.037 C 
ATOM     12  O   UNL     1       4.803  -2.905   3.049  1.00  0.00    -0.361 OA
ATOM     13  C   UNL     1       5.124  -0.545   3.159  1.00  0.00     0.047 C 
BRANCH  10  14
ATOM     14  C   UNL     1       3.069  -2.513   4.740  1.00  0.00     0.149 C 
BRANCH  14  15
ATOM     15  N   UNL     1       4.122  -3.018   5.610  1.00  0.00    -0.336 N 
ATOM     16  N   UNL     1       4.651  -1.416   7.262  1.00  0.00    -0.335 N 
ATOM     17  C   UNL     1       4.739  -2.635   6.726  1.00  0.00     0.315 C 
ATOM     18  H   UNL     1       5.070  -1.356   8.150  1.00  0.00     0.165 HD
ATOM     19  O   UNL     1       5.457  -3.458   7.299  1.00  0.00    -0.249 OA
ATOM     20  H   UNL     1       4.473  -3.878   5.284  1.00  0.00     0.165 HD
BRANCH  16  21
ATOM     21  C   UNL     1       4.073  -0.156   6.822  1.00  0.00     0.083 C 
BRANCH  21  22
ATOM     22  C   UNL     1       2.813   0.148   7.642  1.00  0.00     0.021 C 
ATOM     23  C   UNL     1       1.985   1.274   7.043  1.00  0.00     0.006 C 
ENDBRANCH  21  22
BRANCH  21  24
ATOM     24  C   UNL     1       5.145   0.954   6.828  1.00  0.00     0.021 C 
ATOM     25  C   UNL     1       5.598   1.434   8.200  1.00  0.00     0.006 C 
ENDBRANCH  21  24
ENDBRANCH  16  21
ENDBRANCH  14  15
ENDBRANCH  10  14
ENDBRANCH   7   9
ENDBRANCH   6   7
ENDBRANCH   5   6
ENDBRANCH   4   5
ENDBRANCH   3   4
ENDBRANCH   2   3
ENDBRANCH   1   2
BRANCH   1  26
ATOM     26  O   UNL     1       7.063   1.291   1.080  1.00  0.00    -0.377 OA
BRANCH  26  27
ATOM     27  C   UNL     1       7.246   2.400   0.210  1.00  0.00     0.188 C 
BRANCH  27  28
ATOM     28  C   UNL     1       8.663   2.968  -0.003  1.00  0.00     0.188 C 
BRANCH  28  29
ATOM     29  O   UNL     1       9.375   3.211   1.200  1.00  0.00    -0.376 OA
BRANCH  29  30
ATOM     30  C   UNL     1       9.349   4.518   1.755  1.00  0.00     0.202 C 
BRANCH  30  31
ATOM     31  C   UNL     1       7.991   5.078   2.210  1.00  0.00     0.261 C 
BRANCH  31  32
ATOM     32  O   UNL     1       6.974   5.218   1.203  1.00  0.00    -0.460 OA
BRANCH  32  33
ATOM     33  C   UNL     1       7.259   5.947   0.101  1.00  0.00     0.338 C 
ATOM     34  O   UNL     1       8.267   6.579  -0.124  1.00  0.00    -0.246 OA
BRANCH  33  35
ATOM     35  C   UNL     1       6.191   5.689  -0.892  1.00  0.00     0.060 A 
ATOM     36  C   UNL     1       6.536   5.130  -2.130  1.00  0.00     0.016 A 
ATOM     37  C   UNL     1       4.862   6.011  -0.608  1.00  0.00     0.016 A 
ATOM     38  C   UNL     1       5.557   4.931  -3.105  1.00  0.00     0.010 A 
ATOM     39  C   UNL     1       3.887   5.831  -1.593  1.00  0.00     0.010 A 
ATOM     40  C   UNL     1       4.236   5.325  -2.859  1.00  0.00    -0.014 A 
BRANCH  40  41
ATOM     41  C   UNL     1       3.263   5.397  -3.978  1.00  0.00     0.031 A 
ATOM     42  C   UNL     1       3.009   6.735  -4.620  1.00  0.00     0.074 A 
ATOM     43  C   UNL     1       2.629   4.302  -4.432  1.00  0.00     0.049 A 
ATOM     44  N   UNL     1       2.165   7.057  -5.566  1.00  0.00    -0.248 NA
ATOM     45  C   UNL     1       3.817   7.861  -4.123  1.00  0.00     0.031 C 
ATOM     46  C   UNL     1       2.828   2.940  -3.941  1.00  0.00     0.029 A 
ATOM     47  N   UNL     1       1.678   4.173  -5.414  1.00  0.00    -0.354 N 
ATOM     48  C   UNL     1       2.333   8.421  -5.770  1.00  0.00     0.074 A 
ATOM     49  C   UNL     1       3.334   8.872  -4.828  1.00  0.00     0.031 C 
ATOM     50  C   UNL     1       2.016   2.111  -4.622  1.00  0.00     0.029 A 
ATOM     51  C   UNL     1       1.214   2.889  -5.565  1.00  0.00     0.049 A 
ATOM     52  H   UNL     1       1.359   4.928  -5.959  1.00  0.00     0.167 HD
ATOM     53  C   UNL     1       1.714   9.228  -6.664  1.00  0.00     0.031 A 
ATOM     54  C   UNL     1       0.236   2.403  -6.355  1.00  0.00     0.031 A 
ATOM     55  C   UNL     1       0.704   8.786  -7.588  1.00  0.00     0.049 A 
ATOM     56  C   UNL     1      -0.512   3.340  -7.270  1.00  0.00     0.074 A 
ATOM     57  C   UNL     1       0.020   9.526  -8.536  1.00  0.00     0.029 A 
ATOM     58  N   UNL     1       0.225   7.487  -7.671  1.00  0.00    -0.354 N 
ATOM     59  N   UNL     1      -0.336   4.625  -7.465  1.00  0.00    -0.248 NA
ATOM     60  C   UNL     1      -1.592   2.753  -8.078  1.00  0.00     0.031 C 
ATOM     61  C   UNL     1      -0.920   8.690  -9.147  1.00  0.00     0.029 A 
ATOM     62  C   UNL     1      -0.768   7.412  -8.633  1.00  0.00     0.049 A 
ATOM     63  H   UNL     1       0.544   6.731  -7.127  1.00  0.00     0.167 HD
ATOM     64  C   UNL     1      -1.256   4.991  -8.441  1.00  0.00     0.074 A 
ATOM     65  C   UNL     1      -1.979   3.791  -8.807  1.00  0.00     0.031 C 
ATOM     66  C   UNL     1      -1.480   6.211  -8.989  1.00  0.00     0.031 A 
BRANCH  53  67
ATOM     67  C   UNL     1       2.087  10.685  -6.654  1.00  0.00    -0.014 A 
ATOM     68  C   UNL     1       3.348  11.123  -7.089  1.00  0.00     0.009 A 
ATOM     69  C   UNL     1       1.149  11.639  -6.229  1.00  0.00     0.009 A 
ATOM     70  C   UNL     1       3.674  12.480  -7.061  1.00  0.00     0.001 A 
ATOM     71  C   UNL     1       1.465  12.998  -6.234  1.00  0.00     0.001 A 
ATOM     72  C   UNL     1       2.731  13.417  -6.640  1.00  0.00     0.000 A 
ENDBRANCH  53  67
BRANCH  54  73
ATOM     73  C   UNL     1      -0.117   0.958  -6.307  1.00  0.00    -0.014 A 
ATOM     74  C   UNL     1       0.121   0.126  -7.412  1.00  0.00     0.009 A 
ATOM     75  C   UNL     1      -0.722   0.410  -5.165  1.00  0.00     0.009 A 
ATOM     76  C   UNL     1      -0.265  -1.217  -7.383  1.00  0.00     0.001 A 
ATOM     77  C   UNL     1      -1.076  -0.941  -5.127  1.00  0.00     0.001 A 
ATOM     78  C   UNL     1      -0.857  -1.750  -6.239  1.00  0.00     0.000 A 
ENDBRANCH  54  73
BRANCH  66  79
ATOM     79  C   UNL     1      -2.516   6.307 -10.077  1.00  0.00    -0.014 A 
ATOM     80  C   UNL     1      -3.886   6.171  -9.803  1.00  0.00     0.009 A 
ATOM     81  C   UNL     1      -2.113   6.587 -11.393  1.00  0.00     0.009 A 
ATOM     82  C   UNL     1      -4.826   6.278 -10.831  1.00  0.00     0.001 A 
ATOM     83  C   UNL     1      -3.057   6.728 -12.411  1.00  0.00     0.001 A 
ATOM     84  C   UNL     1      -4.412   6.562 -12.131  1.00  0.00     0.000 A 
ENDBRANCH  66  79
ENDBRANCH  40  41
ENDBRANCH  33  35
ENDBRANCH  32  33
ENDBRANCH  31  32
ENDBRANCH  30  31
ENDBRANCH  29  30
ENDBRANCH  28  29
ENDBRANCH  27  28
ENDBRANCH  26  27
ENDBRANCH   1  26
TORSDOF 25
