REMARK SMILES CN(C(=O)C[C@](C)(C(=O)OCCOCCOCCOCCOC(=O)c1ccc(-c2c3nc(c(-c4ccccc4)c4ccc([nH]4)c(-c4ccccc4)c4nc(c(-c5ccccc5)c5ccc2[nH]5)C=C4)C=C3)cc1)c1ccccc1)[C@@H]1CCSC1
REMARK SMILES IDX 15 1 14 2 13 3 12 4 11 5 10 6 8 7 9 8 6 9 7 10 5 11 3 12
REMARK SMILES IDX 4 13 2 14 1 15 79 16 80 17 83 18 81 19 82 20 73 21 74 22
REMARK SMILES IDX 78 23 75 24 77 25 76 26 16 27 17 28 18 29 19 30 20 31 21 32
REMARK SMILES IDX 22 33 23 34 24 35 25 36 26 37 72 38 27 39 71 40 28 41 29 42
REMARK SMILES IDX 30 43 65 44 31 45 70 46 64 47 66 48 32 49 69 50 63 51 62 52
REMARK SMILES IDX 33 54 55 55 40 56 54 57 41 58 44 59 53 60 67 61 42 62 43 63
REMARK SMILES IDX 52 65 68 66 45 67 34 68 35 69 39 70 36 71 38 72 37 73 56 74
REMARK SMILES IDX 57 75 61 76 58 77 60 78 59 79 46 80 47 81 51 82 48 83 50 84
REMARK SMILES IDX 49 85
REMARK H PARENT 66 53 44 64
REMARK Flexibility Score: inf
ROOT
ATOM      1  C   UNL     1      -1.805   5.176  -0.598  1.00  0.00     0.188 C 
ENDROOT
BRANCH   1   2
ATOM      2  C   UNL     1      -1.069   6.237  -1.429  1.00  0.00     0.188 C 
BRANCH   2   3
ATOM      3  O   UNL     1      -1.367   6.173  -2.817  1.00  0.00    -0.376 OA
BRANCH   3   4
ATOM      4  C   UNL     1      -0.460   5.454  -3.634  1.00  0.00     0.202 C 
BRANCH   4   5
ATOM      5  C   UNL     1      -0.451   3.914  -3.536  1.00  0.00     0.261 C 
BRANCH   5   6
ATOM      6  O   UNL     1      -0.166   3.250  -2.283  1.00  0.00    -0.463 OA
BRANCH   6   7
ATOM      7  C   UNL     1       0.870   3.675  -1.521  1.00  0.00     0.316 C 
ATOM      8  O   UNL     1       1.573   4.621  -1.853  1.00  0.00    -0.251 OA
BRANCH   7   9
ATOM      9  C   UNL     1       1.121   2.791  -0.271  1.00  0.00     0.099 C 
ATOM     10  C   UNL     1      -0.155   1.997   0.146  1.00  0.00     0.029 C 
BRANCH   9  11
ATOM     11  C   UNL     1       2.160   1.733  -0.741  1.00  0.00     0.123 C 
BRANCH  11  12
ATOM     12  C   UNL     1       3.531   2.318  -1.034  1.00  0.00     0.224 C 
ATOM     13  O   UNL     1       4.381   2.281  -0.140  1.00  0.00    -0.275 OA
BRANCH  12  14
ATOM     14  N   UNL     1       3.792   2.898  -2.275  1.00  0.00    -0.342 N 
ATOM     15  C   UNL     1       3.016   2.643  -3.490  1.00  0.00     0.147 C 
BRANCH  14  16
ATOM     16  C   UNL     1       4.965   3.805  -2.357  1.00  0.00     0.095 C 
ATOM     17  C   UNL     1       4.623   5.302  -2.426  1.00  0.00     0.037 C 
ATOM     18  C   UNL     1       5.925   3.518  -3.509  1.00  0.00     0.094 C 
ATOM     19  C   UNL     1       4.393   5.707  -3.871  1.00  0.00     0.072 C 
ATOM     20  S   UNL     1       5.475   4.643  -4.868  1.00  0.00    -0.160 SA
ENDBRANCH  14  16
ENDBRANCH  12  14
ENDBRANCH  11  12
ENDBRANCH   9  11
BRANCH   9  21
ATOM     21  C   UNL     1       1.594   3.603   0.975  1.00  0.00    -0.030 A 
ATOM     22  C   UNL     1       2.105   2.945   2.109  1.00  0.00     0.005 A 
ATOM     23  C   UNL     1       1.516   5.006   1.060  1.00  0.00     0.005 A 
ATOM     24  C   UNL     1       2.521   3.651   3.247  1.00  0.00     0.000 A 
ATOM     25  C   UNL     1       1.919   5.716   2.196  1.00  0.00     0.000 A 
ATOM     26  C   UNL     1       2.425   5.037   3.292  1.00  0.00     0.000 A 
ENDBRANCH   9  21
ENDBRANCH   7   9
ENDBRANCH   6   7
ENDBRANCH   5   6
ENDBRANCH   4   5
ENDBRANCH   3   4
ENDBRANCH   2   3
ENDBRANCH   1   2
BRANCH   1  27
ATOM     27  O   UNL     1      -2.605   4.269  -1.339  1.00  0.00    -0.377 OA
BRANCH  27  28
ATOM     28  C   UNL     1      -3.694   4.787  -2.101  1.00  0.00     0.188 C 
BRANCH  28  29
ATOM     29  C   UNL     1      -4.085   6.284  -2.035  1.00  0.00     0.188 C 
BRANCH  29  30
ATOM     30  O   UNL     1      -3.744   6.940  -0.829  1.00  0.00    -0.376 OA
BRANCH  30  31
ATOM     31  C   UNL     1      -4.691   7.056   0.214  1.00  0.00     0.202 C 
BRANCH  31  32
ATOM     32  C   UNL     1      -5.377   5.796   0.758  1.00  0.00     0.261 C 
BRANCH  32  33
ATOM     33  O   UNL     1      -5.992   4.919  -0.193  1.00  0.00    -0.460 OA
BRANCH  33  34
ATOM     34  C   UNL     1      -6.945   5.416  -1.015  1.00  0.00     0.338 C 
ATOM     35  O   UNL     1      -7.401   6.533  -1.029  1.00  0.00    -0.246 OA
BRANCH  34  36
ATOM     36  C   UNL     1      -7.175   4.380  -2.052  1.00  0.00     0.060 A 
ATOM     37  C   UNL     1      -6.938   4.680  -3.403  1.00  0.00     0.016 A 
ATOM     38  C   UNL     1      -7.573   3.099  -1.670  1.00  0.00     0.016 A 
ATOM     39  C   UNL     1      -7.136   3.705  -4.382  1.00  0.00     0.010 A 
ATOM     40  C   UNL     1      -7.810   2.138  -2.650  1.00  0.00     0.010 A 
ATOM     41  C   UNL     1      -7.633   2.452  -4.009  1.00  0.00    -0.014 A 
BRANCH  41  42
ATOM     42  C   UNL     1      -8.267   1.573  -5.016  1.00  0.00     0.031 A 
ATOM     43  C   UNL     1      -9.755   1.702  -5.190  1.00  0.00     0.074 A 
ATOM     44  C   UNL     1      -7.571   0.663  -5.716  1.00  0.00     0.049 A 
ATOM     45  N   UNL     1     -10.586   0.940  -5.849  1.00  0.00    -0.248 NA
ATOM     46  C   UNL     1     -10.392   2.843  -4.507  1.00  0.00     0.031 C 
ATOM     47  C   UNL     1      -6.121   0.493  -5.689  1.00  0.00     0.029 A 
ATOM     48  N   UNL     1      -8.014  -0.312  -6.574  1.00  0.00    -0.354 N 
ATOM     49  C   UNL     1     -11.843   1.494  -5.638  1.00  0.00     0.074 A 
ATOM     50  C   UNL     1     -11.671   2.640  -4.777  1.00  0.00     0.031 C 
ATOM     51  C   UNL     1      -5.793  -0.547  -6.478  1.00  0.00     0.029 A 
ATOM     52  C   UNL     1      -7.015  -1.143  -7.019  1.00  0.00     0.049 A 
ATOM     53  H   UNL     1      -8.956  -0.407  -6.844  1.00  0.00     0.167 HD
ATOM     54  C   UNL     1     -13.038   1.078  -6.115  1.00  0.00     0.031 A 
ATOM     55  C   UNL     1      -7.091  -2.276  -7.744  1.00  0.00     0.031 A 
ATOM     56  C   UNL     1     -13.204  -0.078  -6.950  1.00  0.00     0.049 A 
ATOM     57  C   UNL     1      -8.445  -2.781  -8.181  1.00  0.00     0.074 A 
ATOM     58  C   UNL     1     -14.369  -0.591  -7.488  1.00  0.00     0.029 A 
ATOM     59  N   UNL     1     -12.169  -0.905  -7.358  1.00  0.00    -0.354 N 
ATOM     60  N   UNL     1      -9.630  -2.256  -7.981  1.00  0.00    -0.248 NA
ATOM     61  C   UNL     1      -8.469  -4.037  -8.946  1.00  0.00     0.031 C 
ATOM     62  C   UNL     1     -14.047  -1.766  -8.173  1.00  0.00     0.029 A 
ATOM     63  C   UNL     1     -12.672  -1.940  -8.125  1.00  0.00     0.049 A 
ATOM     64  H   UNL     1     -11.219  -0.775  -7.136  1.00  0.00     0.167 HD
ATOM     65  C   UNL     1     -10.533  -3.089  -8.632  1.00  0.00     0.074 A 
ATOM     66  C   UNL     1      -9.758  -4.155  -9.233  1.00  0.00     0.031 C 
ATOM     67  C   UNL     1     -11.880  -2.978  -8.732  1.00  0.00     0.031 A 
BRANCH  54  68
ATOM     68  C   UNL     1     -14.255   1.851  -5.694  1.00  0.00    -0.014 A 
ATOM     69  C   UNL     1     -14.489   3.158  -6.150  1.00  0.00     0.009 A 
ATOM     70  C   UNL     1     -15.191   1.254  -4.834  1.00  0.00     0.009 A 
ATOM     71  C   UNL     1     -15.616   3.864  -5.723  1.00  0.00     0.001 A 
ATOM     72  C   UNL     1     -16.333   1.950  -4.436  1.00  0.00     0.001 A 
ATOM     73  C   UNL     1     -16.539   3.257  -4.872  1.00  0.00     0.000 A 
ENDBRANCH  54  68
BRANCH  55  74
ATOM     74  C   UNL     1      -5.858  -3.036  -8.080  1.00  0.00    -0.014 A 
ATOM     75  C   UNL     1      -5.419  -3.133  -9.410  1.00  0.00     0.009 A 
ATOM     76  C   UNL     1      -5.126  -3.695  -7.079  1.00  0.00     0.009 A 
ATOM     77  C   UNL     1      -4.293  -3.894  -9.733  1.00  0.00     0.001 A 
ATOM     78  C   UNL     1      -3.982  -4.429  -7.400  1.00  0.00     0.001 A 
ATOM     79  C   UNL     1      -3.573  -4.537  -8.727  1.00  0.00     0.000 A 
ENDBRANCH  55  74
BRANCH  67  80
ATOM     80  C   UNL     1     -12.607  -3.985  -9.581  1.00  0.00    -0.014 A 
ATOM     81  C   UNL     1     -12.792  -5.310  -9.162  1.00  0.00     0.009 A 
ATOM     82  C   UNL     1     -13.192  -3.564 -10.788  1.00  0.00     0.009 A 
ATOM     83  C   UNL     1     -13.532  -6.199  -9.946  1.00  0.00     0.001 A 
ATOM     84  C   UNL     1     -13.956  -4.445 -11.552  1.00  0.00     0.001 A 
ATOM     85  C   UNL     1     -14.120  -5.764 -11.134  1.00  0.00     0.000 A 
ENDBRANCH  67  80
ENDBRANCH  41  42
ENDBRANCH  34  36
ENDBRANCH  33  34
ENDBRANCH  32  33
ENDBRANCH  31  32
ENDBRANCH  30  31
ENDBRANCH  29  30
ENDBRANCH  28  29
ENDBRANCH  27  28
ENDBRANCH   1  27
TORSDOF 25
