REMARK SMILES O=C(Cc1ccccc1)Nc1cccc(C(=O)Nc2ccccc2C(=O)OCCOCCOCCOCCOC(=O)c2ccc(-c3c4nc(c(-c5ccccc5)c5ccc([nH]5)c(-c5ccccc5)c5nc(c(-c6ccccc6)c6ccc3[nH]6)C=C5)C=C4)cc2)c1
REMARK SMILES IDX 31 1 30 2 29 3 28 4 27 5 25 6 26 7 24 8 19 9 20 10 21 11
REMARK SMILES IDX 23 12 22 13 18 14 16 15 17 16 15 18 11 19 12 20 90 21 13 22
REMARK SMILES IDX 14 23 10 24 1 25 2 26 3 28 4 29 5 30 9 31 6 32 8 33 7 34
REMARK SMILES IDX 32 35 33 36 34 37 35 38 36 39 37 40 38 41 39 42 40 43 41 44
REMARK SMILES IDX 42 45 43 46 89 47 44 48 88 49 45 50 46 51 47 52 82 53 48 54
REMARK SMILES IDX 87 55 81 56 83 57 49 58 86 59 80 60 79 61 50 63 72 64 57 65
REMARK SMILES IDX 71 66 58 67 61 68 70 69 84 70 59 71 60 72 69 74 85 75 62 76
REMARK SMILES IDX 51 77 52 78 56 79 53 80 55 81 54 82 73 83 74 84 78 85 75 86
REMARK SMILES IDX 77 87 76 88 63 89 64 90 68 91 65 92 67 93 66 94
REMARK H PARENT 18 17 10 27 83 62 61 73
REMARK Flexibility Score: inf
ROOT
ATOM      1  C   UNL     1       3.795   5.025  -1.602  1.00  0.00     0.188 C 
ENDROOT
BRANCH   1   2
ATOM      2  O   UNL     1       4.372   4.921  -2.885  1.00  0.00    -0.376 OA
BRANCH   2   3
ATOM      3  C   UNL     1       3.834   4.154  -3.940  1.00  0.00     0.202 C 
BRANCH   3   4
ATOM      4  C   UNL     1       2.668   3.173  -3.843  1.00  0.00     0.261 C 
BRANCH   4   5
ATOM      5  O   UNL     1       1.739   3.316  -2.775  1.00  0.00    -0.460 OA
BRANCH   5   6
ATOM      6  C   UNL     1       2.003   2.532  -1.708  1.00  0.00     0.340 C 
ATOM      7  O   UNL     1       3.019   1.865  -1.553  1.00  0.00    -0.246 OA
BRANCH   6   8
ATOM      8  C   UNL     1       0.997   2.700  -0.632  1.00  0.00     0.083 A 
ATOM      9  C   UNL     1      -0.389   2.903  -0.774  1.00  0.00     0.056 A 
ATOM     10  C   UNL     1      -1.131   3.141   0.402  1.00  0.00     0.027 A 
ATOM     11  C   UNL     1      -0.547   3.104   1.673  1.00  0.00     0.002 A 
ATOM     12  C   UNL     1       1.578   2.700   0.659  1.00  0.00     0.018 A 
ATOM     13  C   UNL     1       0.813   2.880   1.804  1.00  0.00     0.001 A 
BRANCH   9  14
ATOM     14  N   UNL     1      -1.186   2.889  -1.948  1.00  0.00    -0.321 N 
ATOM     15  C   UNL     1      -1.126   2.238  -3.163  1.00  0.00     0.255 C 
ATOM     16  O   UNL     1      -1.883   2.596  -4.067  1.00  0.00    -0.269 OA
ATOM     17  H   UNL     1      -1.966   3.484  -1.878  1.00  0.00     0.170 HD
BRANCH  15  18
ATOM     18  C   UNL     1      -0.230   1.085  -3.408  1.00  0.00     0.042 A 
ATOM     19  C   UNL     1       1.336  -0.487  -2.486  1.00  0.00     0.041 A 
ATOM     20  C   UNL     1       1.955  -0.585  -3.740  1.00  0.00     0.026 A 
ATOM     21  C   UNL     1       0.157   0.243  -2.367  1.00  0.00     0.040 A 
ATOM     22  C   UNL     1       1.423   0.081  -4.849  1.00  0.00     0.003 A 
ATOM     23  C   UNL     1       0.343   0.944  -4.677  1.00  0.00     0.014 A 
BRANCH  19  24
ATOM     24  N   UNL     1       2.074  -0.897  -1.353  1.00  0.00    -0.326 N 
ATOM     25  O   UNL     1       0.553  -0.602   0.389  1.00  0.00    -0.274 OA
ATOM     26  C   UNL     1       1.702  -0.747  -0.024  1.00  0.00     0.228 C 
ATOM     27  H   UNL     1       2.939  -1.333  -1.523  1.00  0.00     0.169 HD
BRANCH  26  28
ATOM     28  C   UNL     1       2.879  -0.664   0.943  1.00  0.00     0.135 C 
BRANCH  28  29
ATOM     29  C   UNL     1       3.855  -1.799   0.801  1.00  0.00    -0.039 A 
ATOM     30  C   UNL     1       3.411  -3.119   0.945  1.00  0.00     0.004 A 
ATOM     31  C   UNL     1       5.200  -1.551   0.498  1.00  0.00     0.004 A 
ATOM     32  C   UNL     1       4.290  -4.178   0.746  1.00  0.00     0.000 A 
ATOM     33  C   UNL     1       6.080  -2.615   0.307  1.00  0.00     0.000 A 
ATOM     34  C   UNL     1       5.622  -3.927   0.422  1.00  0.00     0.000 A 
ENDBRANCH  28  29
ENDBRANCH  26  28
ENDBRANCH  19  24
ENDBRANCH  15  18
ENDBRANCH   9  14
ENDBRANCH   6   8
ENDBRANCH   5   6
ENDBRANCH   4   5
ENDBRANCH   3   4
ENDBRANCH   2   3
ENDBRANCH   1   2
BRANCH   1  35
ATOM     35  C   UNL     1       2.470   5.788  -1.388  1.00  0.00     0.188 C 
BRANCH  35  36
ATOM     36  O   UNL     1       1.617   6.018  -2.490  1.00  0.00    -0.377 OA
BRANCH  36  37
ATOM     37  C   UNL     1       2.040   6.830  -3.575  1.00  0.00     0.188 C 
BRANCH  37  38
ATOM     38  C   UNL     1       3.400   7.563  -3.576  1.00  0.00     0.188 C 
BRANCH  38  39
ATOM     39  O   UNL     1       3.994   7.727  -2.305  1.00  0.00    -0.376 OA
BRANCH  39  40
ATOM     40  C   UNL     1       3.897   8.974  -1.645  1.00  0.00     0.202 C 
BRANCH  40  41
ATOM     41  C   UNL     1       2.500   9.537  -1.351  1.00  0.00     0.261 C 
BRANCH  41  42
ATOM     42  O   UNL     1       1.596   9.612  -2.461  1.00  0.00    -0.460 OA
BRANCH  42  43
ATOM     43  C   UNL     1       1.928  10.426  -3.484  1.00  0.00     0.338 C 
ATOM     44  O   UNL     1       2.919  11.130  -3.581  1.00  0.00    -0.246 OA
BRANCH  43  45
ATOM     45  C   UNL     1       0.961  10.174  -4.570  1.00  0.00     0.060 A 
ATOM     46  C   UNL     1       1.419   9.675  -5.798  1.00  0.00     0.016 A 
ATOM     47  C   UNL     1      -0.399  10.409  -4.360  1.00  0.00     0.016 A 
ATOM     48  C   UNL     1       0.517   9.443  -6.835  1.00  0.00     0.010 A 
ATOM     49  C   UNL     1      -1.297  10.205  -5.407  1.00  0.00     0.010 A 
ATOM     50  C   UNL     1      -0.837   9.758  -6.658  1.00  0.00    -0.014 A 
BRANCH  50  51
ATOM     51  C   UNL     1      -1.727   9.854  -7.836  1.00  0.00     0.031 A 
ATOM     52  C   UNL     1      -1.925  11.210  -8.454  1.00  0.00     0.074 A 
ATOM     53  C   UNL     1      -2.336   8.773  -8.352  1.00  0.00     0.049 A 
ATOM     54  N   UNL     1      -2.710  11.571  -9.436  1.00  0.00    -0.248 NA
ATOM     55  C   UNL     1      -1.129  12.310  -7.881  1.00  0.00     0.031 C 
ATOM     56  C   UNL     1      -2.174   7.400  -7.881  1.00  0.00     0.029 A 
ATOM     57  N   UNL     1      -3.226   8.674  -9.392  1.00  0.00    -0.354 N 
ATOM     58  C   UNL     1      -2.510  12.937  -9.589  1.00  0.00     0.074 A 
ATOM     59  C   UNL     1      -1.555  13.347  -8.584  1.00  0.00     0.031 C 
ATOM     60  C   UNL     1      -2.951   6.593  -8.626  1.00  0.00     0.029 A 
ATOM     61  C   UNL     1      -3.692   7.399  -9.594  1.00  0.00     0.049 A 
ATOM     62  H   UNL     1      -3.504   9.444  -9.939  1.00  0.00     0.167 HD
ATOM     63  C   UNL     1      -3.070  13.777 -10.491  1.00  0.00     0.031 A 
ATOM     64  C   UNL     1      -4.632   6.946 -10.446  1.00  0.00     0.031 A 
ATOM     65  C   UNL     1      -4.038  13.371 -11.472  1.00  0.00     0.049 A 
ATOM     66  C   UNL     1      -5.322   7.919 -11.368  1.00  0.00     0.074 A 
ATOM     67  C   UNL     1      -4.669  14.143 -12.431  1.00  0.00     0.029 A 
ATOM     68  N   UNL     1      -4.522  12.080 -11.612  1.00  0.00    -0.354 N 
ATOM     69  N   UNL     1      -5.119   9.207 -11.517  1.00  0.00    -0.248 NA
ATOM     70  C   UNL     1      -6.369   7.372 -12.244  1.00  0.00     0.031 C 
ATOM     71  C   UNL     1      -5.582  13.331 -13.110  1.00  0.00     0.029 A 
ATOM     72  C   UNL     1      -5.466  12.038 -12.623  1.00  0.00     0.049 A 
ATOM     73  H   UNL     1      -4.236  11.307 -11.073  1.00  0.00     0.167 HD
ATOM     74  C   UNL     1      -5.987   9.616 -12.524  1.00  0.00     0.074 A 
ATOM     75  C   UNL     1      -6.707   8.437 -12.959  1.00  0.00     0.031 C 
ATOM     76  C   UNL     1      -6.170  10.854 -13.045  1.00  0.00     0.031 A 
BRANCH  63  77
ATOM     77  C   UNL     1      -2.677  15.226 -10.420  1.00  0.00    -0.014 A 
ATOM     78  C   UNL     1      -1.390  15.655 -10.781  1.00  0.00     0.009 A 
ATOM     79  C   UNL     1      -3.618  16.181 -10.004  1.00  0.00     0.009 A 
ATOM     80  C   UNL     1      -1.043  17.005 -10.693  1.00  0.00     0.001 A 
ATOM     81  C   UNL     1      -3.279  17.534  -9.948  1.00  0.00     0.001 A 
ATOM     82  C   UNL     1      -1.990  17.943 -10.283  1.00  0.00     0.000 A 
ENDBRANCH  63  77
BRANCH  64  83
ATOM     83  C   UNL     1      -5.002   5.505 -10.459  1.00  0.00    -0.014 A 
ATOM     84  C   UNL     1      -4.717   4.702 -11.575  1.00  0.00     0.009 A 
ATOM     85  C   UNL     1      -5.667   4.929  -9.364  1.00  0.00     0.009 A 
ATOM     86  C   UNL     1      -5.115   3.363 -11.605  1.00  0.00     0.001 A 
ATOM     87  C   UNL     1      -6.034   3.582  -9.385  1.00  0.00     0.001 A 
ATOM     88  C   UNL     1      -5.768   2.803 -10.509  1.00  0.00     0.000 A 
ENDBRANCH  64  83
BRANCH  76  89
ATOM     89  C   UNL     1      -7.151  10.993 -14.178  1.00  0.00    -0.014 A 
ATOM     90  C   UNL     1      -8.534  10.876 -13.971  1.00  0.00     0.009 A 
ATOM     91  C   UNL     1      -6.680  11.298 -15.465  1.00  0.00     0.009 A 
ATOM     92  C   UNL     1      -9.422  11.028 -15.038  1.00  0.00     0.001 A 
ATOM     93  C   UNL     1      -7.572  11.484 -16.522  1.00  0.00     0.001 A 
ATOM     94  C   UNL     1      -8.941  11.338 -16.310  1.00  0.00     0.000 A 
ENDBRANCH  76  89
ENDBRANCH  50  51
ENDBRANCH  43  45
ENDBRANCH  42  43
ENDBRANCH  41  42
ENDBRANCH  40  41
ENDBRANCH  39  40
ENDBRANCH  38  39
ENDBRANCH  37  38
ENDBRANCH  36  37
ENDBRANCH  35  36
ENDBRANCH   1  35
TORSDOF 25
