REMARK SMILES N#C/C(=C/c1ccc(-c2cccc(C(=O)OCCOCCOCCOCCOC(=O)c3ccc(-c4c5nc(c(-c6ccccc6)c6ccc([nH]6)c(-c6ccccc6)c6nc(c(-c7ccccc7)c7ccc4[nH]7)C=C6)C=C5)cc3)c2)o1)c1ccc(F)cc1
REMARK SMILES IDX 21 1 20 2 19 3 18 4 17 5 16 6 14 7 15 8 13 9 9 10 10 11
REMARK SMILES IDX 79 12 11 13 12 14 8 15 5 16 6 17 80 18 7 19 4 20 3 21 2 22
REMARK SMILES IDX 1 23 81 24 82 25 87 26 83 27 86 28 84 29 85 30 22 31 23 32
REMARK SMILES IDX 24 33 25 34 26 35 27 36 28 37 29 38 30 39 31 40 32 41 78 42
REMARK SMILES IDX 33 43 77 44 34 45 35 46 36 47 71 48 37 49 76 50 70 51 72 52
REMARK SMILES IDX 38 53 75 54 69 55 68 56 39 58 61 59 46 60 60 61 47 62 50 63
REMARK SMILES IDX 59 64 73 65 48 66 49 67 58 69 74 70 51 71 40 72 41 73 45 74
REMARK SMILES IDX 42 75 44 76 43 77 62 78 63 79 67 80 64 81 66 82 65 83 52 84
REMARK SMILES IDX 53 85 57 86 54 87 56 88 55 89
REMARK H PARENT 72 57 50 68
REMARK Flexibility Score: inf
ROOT
ATOM      1  C   UNL     1      11.004  -4.356   4.369  1.00  0.00     0.188 C 
ENDROOT
BRANCH   1   2
ATOM      2  C   UNL     1      12.508  -4.649   4.191  1.00  0.00     0.188 C 
BRANCH   2   3
ATOM      3  O   UNL     1      13.297  -4.164   5.263  1.00  0.00    -0.376 OA
BRANCH   3   4
ATOM      4  C   UNL     1      14.032  -2.964   5.124  1.00  0.00     0.202 C 
BRANCH   4   5
ATOM      5  C   UNL     1      13.411  -1.683   4.543  1.00  0.00     0.261 C 
BRANCH   5   6
ATOM      6  O   UNL     1      12.429  -1.839   3.516  1.00  0.00    -0.460 OA
BRANCH   6   7
ATOM      7  C   UNL     1      12.846  -2.105   2.261  1.00  0.00     0.338 C 
ATOM      8  O   UNL     1      14.000  -2.219   1.879  1.00  0.00    -0.246 OA
BRANCH   7   9
ATOM      9  C   UNL     1      11.639  -2.451   1.470  1.00  0.00     0.060 A 
ATOM     10  C   UNL     1       9.279  -2.085   0.960  1.00  0.00     0.018 A 
ATOM     11  C   UNL     1       9.287  -3.247   0.180  1.00  0.00     0.012 A 
ATOM     12  C   UNL     1      10.461  -1.712   1.620  1.00  0.00     0.027 A 
ATOM     13  C   UNL     1      10.465  -3.994   0.030  1.00  0.00     0.002 A 
ATOM     14  C   UNL     1      11.646  -3.588   0.658  1.00  0.00     0.016 A 
BRANCH  10  15
ATOM     15  C   UNL     1       8.126  -1.198   1.058  1.00  0.00     0.134 A 
ATOM     16  C   UNL     1       5.960  -0.676   1.063  1.00  0.00     0.128 A 
ATOM     17  C   UNL     1       6.691   0.490   1.278  1.00  0.00     0.051 A 
ATOM     18  O   UNL     1       6.865  -1.720   0.960  1.00  0.00    -0.457 OA
ATOM     19  C   UNL     1       8.055   0.165   1.236  1.00  0.00     0.051 A 
BRANCH  16  20
ATOM     20  C   UNL     1       4.540  -0.804   0.928  1.00  0.00     0.067 C 
ATOM     21  C   UNL     1       3.834  -0.023   0.081  1.00  0.00     0.063 C 
BRANCH  21  22
ATOM     22  C   UNL     1       2.314  -0.023   0.081  1.00  0.00     0.100 C 
ATOM     23  N   UNL     1       1.054  -0.023   0.081  1.00  0.00    -0.192 NA
ENDBRANCH  21  22
BRANCH  21  24
ATOM     24  C   UNL     1       4.460   0.909  -0.903  1.00  0.00    -0.007 A 
ATOM     25  C   UNL     1       5.443   0.456  -1.805  1.00  0.00     0.012 A 
ATOM     26  C   UNL     1       4.088   2.264  -0.940  1.00  0.00     0.012 A 
ATOM     27  C   UNL     1       6.085   1.346  -2.669  1.00  0.00     0.040 A 
ATOM     28  C   UNL     1       4.719   3.149  -1.820  1.00  0.00     0.040 A 
ATOM     29  C   UNL     1       5.720   2.685  -2.665  1.00  0.00     0.123 A 
ATOM     30  F   UNL     1       6.344   3.542  -3.482  1.00  0.00    -0.207 F 
ENDBRANCH  21  24
ENDBRANCH  16  20
ENDBRANCH  10  15
ENDBRANCH   7   9
ENDBRANCH   6   7
ENDBRANCH   5   6
ENDBRANCH   4   5
ENDBRANCH   3   4
ENDBRANCH   2   3
ENDBRANCH   1   2
BRANCH   1  31
ATOM     31  O   UNL     1      10.666  -3.380   5.343  1.00  0.00    -0.377 OA
BRANCH  31  32
ATOM     32  C   UNL     1      10.955  -3.630   6.719  1.00  0.00     0.188 C 
BRANCH  32  33
ATOM     33  C   UNL     1      11.555  -4.963   7.234  1.00  0.00     0.188 C 
BRANCH  33  34
ATOM     34  O   UNL     1      11.394  -6.074   6.369  1.00  0.00    -0.376 OA
BRANCH  34  35
ATOM     35  C   UNL     1      10.463  -7.078   6.727  1.00  0.00     0.202 C 
BRANCH  35  36
ATOM     36  C   UNL     1       8.985  -6.662   6.731  1.00  0.00     0.261 C 
BRANCH  36  37
ATOM     37  O   UNL     1       8.665  -5.530   7.554  1.00  0.00    -0.460 OA
BRANCH  37  38
ATOM     38  C   UNL     1       8.818  -5.694   8.884  1.00  0.00     0.338 C 
ATOM     39  O   UNL     1       9.174  -6.704   9.467  1.00  0.00    -0.246 OA
BRANCH  38  40
ATOM     40  C   UNL     1       8.666  -4.377   9.531  1.00  0.00     0.060 A 
ATOM     41  C   UNL     1       9.731  -3.879  10.290  1.00  0.00     0.016 A 
ATOM     42  C   UNL     1       7.481  -3.648   9.405  1.00  0.00     0.016 A 
ATOM     43  C   UNL     1       9.592  -2.676  10.975  1.00  0.00     0.010 A 
ATOM     44  C   UNL     1       7.337  -2.446  10.105  1.00  0.00     0.010 A 
ATOM     45  C   UNL     1       8.376  -1.981  10.930  1.00  0.00    -0.014 A 
BRANCH  45  46
ATOM     46  C   UNL     1       8.154  -0.879  11.896  1.00  0.00     0.031 A 
ATOM     47  C   UNL     1       7.372  -1.161  13.150  1.00  0.00     0.074 A 
ATOM     48  C   UNL     1       8.703   0.333  11.704  1.00  0.00     0.049 A 
ATOM     49  N   UNL     1       7.136  -0.382  14.175  1.00  0.00    -0.248 NA
ATOM     50  C   UNL     1       6.777  -2.502  13.263  1.00  0.00     0.031 C 
ATOM     51  C   UNL     1       9.502   0.723  10.544  1.00  0.00     0.029 A 
ATOM     52  N   UNL     1       8.677   1.454  12.493  1.00  0.00    -0.354 N 
ATOM     53  C   UNL     1       6.360  -1.135  15.048  1.00  0.00     0.074 A 
ATOM     54  C   UNL     1       6.135  -2.417  14.417  1.00  0.00     0.031 C 
ATOM     55  C   UNL     1       9.898   1.998  10.701  1.00  0.00     0.029 A 
ATOM     56  C   UNL     1       9.360   2.518  11.957  1.00  0.00     0.049 A 
ATOM     57  H   UNL     1       8.214   1.493  13.361  1.00  0.00     0.167 HD
ATOM     58  C   UNL     1       5.883  -0.794  16.269  1.00  0.00     0.031 A 
ATOM     59  C   UNL     1       9.525   3.771  12.422  1.00  0.00     0.031 A 
ATOM     60  C   UNL     1       6.091   0.489  16.887  1.00  0.00     0.049 A 
ATOM     61  C   UNL     1       8.948   4.145  13.761  1.00  0.00     0.074 A 
ATOM     62  C   UNL     1       5.677   0.922  18.134  1.00  0.00     0.029 A 
ATOM     63  N   UNL     1       6.755   1.553  16.294  1.00  0.00    -0.354 N 
ATOM     64  N   UNL     1       8.262   3.409  14.602  1.00  0.00    -0.248 NA
ATOM     65  C   UNL     1       9.188   5.520  14.222  1.00  0.00     0.031 C 
ATOM     66  C   UNL     1       6.024   2.271  18.265  1.00  0.00     0.029 A 
ATOM     67  C   UNL     1       6.729   2.654  17.135  1.00  0.00     0.049 A 
ATOM     68  H   UNL     1       7.182   1.529  15.408  1.00  0.00     0.167 HD
ATOM     69  C   UNL     1       8.014   4.219  15.704  1.00  0.00     0.074 A 
ATOM     70  C   UNL     1       8.639   5.497  15.429  1.00  0.00     0.031 C 
ATOM     71  C   UNL     1       7.339   3.928  16.844  1.00  0.00     0.031 A 
BRANCH  58  72
ATOM     72  C   UNL     1       5.038  -1.813  16.987  1.00  0.00    -0.014 A 
ATOM     73  C   UNL     1       5.579  -3.015  17.473  1.00  0.00     0.009 A 
ATOM     74  C   UNL     1       3.671  -1.559  17.183  1.00  0.00     0.009 A 
ATOM     75  C   UNL     1       4.758  -3.960  18.095  1.00  0.00     0.001 A 
ATOM     76  C   UNL     1       2.861  -2.489  17.837  1.00  0.00     0.001 A 
ATOM     77  C   UNL     1       3.402  -3.695  18.279  1.00  0.00     0.000 A 
ENDBRANCH  58  72
BRANCH  59  78
ATOM     78  C   UNL     1      10.268   4.764  11.603  1.00  0.00    -0.014 A 
ATOM     79  C   UNL     1      11.529   5.235  11.999  1.00  0.00     0.009 A 
ATOM     80  C   UNL     1       9.715   5.237  10.401  1.00  0.00     0.009 A 
ATOM     81  C   UNL     1      12.212   6.170  11.217  1.00  0.00     0.001 A 
ATOM     82  C   UNL     1      10.414   6.147   9.606  1.00  0.00     0.001 A 
ATOM     83  C   UNL     1      11.658   6.619  10.018  1.00  0.00     0.000 A 
ENDBRANCH  59  78
BRANCH  71  84
ATOM     84  C   UNL     1       7.273   5.000  17.900  1.00  0.00    -0.014 A 
ATOM     85  C   UNL     1       6.531   6.178  17.713  1.00  0.00     0.009 A 
ATOM     86  C   UNL     1       7.949   4.814  19.117  1.00  0.00     0.009 A 
ATOM     87  C   UNL     1       6.510   7.165  18.702  1.00  0.00     0.001 A 
ATOM     88  C   UNL     1       7.895   5.784  20.118  1.00  0.00     0.001 A 
ATOM     89  C   UNL     1       7.188   6.966  19.904  1.00  0.00     0.000 A 
ENDBRANCH  71  84
ENDBRANCH  45  46
ENDBRANCH  38  40
ENDBRANCH  37  38
ENDBRANCH  36  37
ENDBRANCH  35  36
ENDBRANCH  34  35
ENDBRANCH  33  34
ENDBRANCH  32  33
ENDBRANCH  31  32
ENDBRANCH   1  31
TORSDOF 24
