REMARK SMILES C[C@H](CNC(=O)N1C[C@H]2CCCC[N@@H+]2C[C@@H]1C)C(=O)OCCOCCOCCOCCOC(=O)c1ccc(-c2c3nc(c(-c4ccccc4)c4ccc([nH]4)c(-c4ccccc4)c4nc(c(-c5ccccc5)c5ccc2[nH]5)C=C4)C=C3)cc1
REMARK SMILES IDX 25 1 24 2 23 3 22 4 21 5 20 6 18 7 19 8 2 9 1 10 3 11 4 12
REMARK SMILES IDX 5 13 6 15 7 16 8 17 16 18 9 19 15 20 17 21 10 22 14 23 11 24
REMARK SMILES IDX 13 25 12 27 26 28 27 29 28 30 29 31 30 32 31 33 32 34 33 35
REMARK SMILES IDX 34 36 35 37 36 38 82 39 37 40 81 41 38 42 39 43 40 44 75 45
REMARK SMILES IDX 41 46 80 47 74 48 76 49 42 50 79 51 73 52 72 53 43 55 65 56
REMARK SMILES IDX 50 57 64 58 51 59 54 60 63 61 77 62 52 63 53 64 62 66 78 67
REMARK SMILES IDX 55 68 44 69 45 70 49 71 46 72 48 73 47 74 66 75 67 76 71 77
REMARK SMILES IDX 68 78 70 79 69 80 56 81 57 82 61 83 58 84 60 85 59 86
REMARK H PARENT 4 14 14 26 76 54 54 65
REMARK Flexibility Score: inf
ROOT
ATOM      1  C   UNL     1      -1.351  -1.750  -0.395  1.00  0.00     0.188 C 
ENDROOT
BRANCH   1   2
ATOM      2  C   UNL     1      -2.186  -1.994   0.866  1.00  0.00     0.188 C 
BRANCH   2   3
ATOM      3  O   UNL     1      -3.477  -1.421   0.774  1.00  0.00    -0.376 OA
BRANCH   3   4
ATOM      4  C   UNL     1      -3.788  -0.350   1.651  1.00  0.00     0.202 C 
BRANCH   4   5
ATOM      5  C   UNL     1      -2.962   0.947   1.583  1.00  0.00     0.261 C 
BRANCH   5   6
ATOM      6  O   UNL     1      -1.552   0.802   1.357  1.00  0.00    -0.463 OA
BRANCH   6   7
ATOM      7  C   UNL     1      -0.790   0.564   2.443  1.00  0.00     0.310 C 
ATOM      8  O   UNL     1      -1.243   0.385   3.570  1.00  0.00    -0.252 OA
BRANCH   7   9
ATOM      9  C   UNL     1       0.698   0.541   2.157  1.00  0.00     0.115 C 
ATOM     10  C   UNL     1       1.353   1.711   2.887  1.00  0.00     0.022 C 
BRANCH   9  11
ATOM     11  C   UNL     1       1.215   0.422   0.720  1.00  0.00     0.132 C 
BRANCH  11  12
ATOM     12  N   UNL     1       0.661   1.262  -0.318  1.00  0.00    -0.337 N 
ATOM     13  C   UNL     1       1.292   2.197  -1.091  1.00  0.00     0.318 C 
ATOM     14  H   UNL     1      -0.301   1.145  -0.492  1.00  0.00     0.165 HD
ATOM     15  O   UNL     1       0.645   2.918  -1.844  1.00  0.00    -0.249 OA
BRANCH  13  16
ATOM     16  N   UNL     1       2.642   2.332  -0.884  1.00  0.00    -0.311 N 
ATOM     17  C   UNL     1       3.559   1.271  -1.302  1.00  0.00     0.186 C 
ATOM     18  C   UNL     1       3.283   3.640  -0.717  1.00  0.00     0.139 C 
ATOM     19  C   UNL     1       4.644   1.090  -0.229  1.00  0.00     0.203 C 
ATOM     20  C   UNL     1       4.550   3.499   0.195  1.00  0.00     0.287 C 
ATOM     21  C   UNL     1       2.355   4.675  -0.062  1.00  0.00     0.037 C 
ATOM     22  C   UNL     1       5.557  -0.101  -0.533  1.00  0.00     0.067 C 
ATOM     23  N   UNL     1       5.437   2.322  -0.019  1.00  0.00    -0.329 N 
ATOM     24  C   UNL     1       6.472  -0.348   0.664  1.00  0.00     0.012 C 
ATOM     25  C   UNL     1       6.297   2.140   1.170  1.00  0.00     0.262 C 
ATOM     26  H   UNL     1       6.004   2.493  -0.850  1.00  0.00     0.348 HD
ATOM     27  C   UNL     1       7.223   0.926   1.042  1.00  0.00     0.062 C 
ENDBRANCH  13  16
ENDBRANCH  11  12
ENDBRANCH   9  11
ENDBRANCH   7   9
ENDBRANCH   6   7
ENDBRANCH   5   6
ENDBRANCH   4   5
ENDBRANCH   3   4
ENDBRANCH   2   3
ENDBRANCH   1   2
BRANCH   1  28
ATOM     28  O   UNL     1      -1.633  -0.579  -1.147  1.00  0.00    -0.377 OA
BRANCH  28  29
ATOM     29  C   UNL     1      -2.919  -0.450  -1.760  1.00  0.00     0.188 C 
BRANCH  29  30
ATOM     30  C   UNL     1      -3.838  -1.675  -1.997  1.00  0.00     0.188 C 
BRANCH  30  31
ATOM     31  O   UNL     1      -3.201  -2.941  -1.973  1.00  0.00    -0.376 OA
BRANCH  31  32
ATOM     32  C   UNL     1      -2.845  -3.514  -3.224  1.00  0.00     0.202 C 
BRANCH  32  33
ATOM     33  C   UNL     1      -1.818  -2.735  -4.057  1.00  0.00     0.261 C 
BRANCH  33  34
ATOM     34  O   UNL     1      -2.257  -1.451  -4.532  1.00  0.00    -0.460 OA
BRANCH  34  35
ATOM     35  C   UNL     1      -3.372  -1.407  -5.292  1.00  0.00     0.338 C 
ATOM     36  O   UNL     1      -4.042  -2.343  -5.690  1.00  0.00    -0.246 OA
BRANCH  35  37
ATOM     37  C   UNL     1      -3.765   0.009  -5.410  1.00  0.00     0.060 A 
ATOM     38  C   UNL     1      -4.973   0.432  -4.841  1.00  0.00     0.016 A 
ATOM     39  C   UNL     1      -2.929   0.915  -6.064  1.00  0.00     0.016 A 
ATOM     40  C   UNL     1      -5.353   1.770  -4.934  1.00  0.00     0.010 A 
ATOM     41  C   UNL     1      -3.324   2.248  -6.179  1.00  0.00     0.010 A 
ATOM     42  C   UNL     1      -4.545   2.678  -5.631  1.00  0.00    -0.014 A 
BRANCH  42  43
ATOM     43  C   UNL     1      -5.041   4.044  -5.915  1.00  0.00     0.031 A 
ATOM     44  C   UNL     1      -5.693   4.311  -7.242  1.00  0.00     0.074 A 
ATOM     45  C   UNL     1      -4.911   5.031  -5.011  1.00  0.00     0.049 A 
ATOM     46  N   UNL     1      -6.141   5.438  -7.733  1.00  0.00    -0.248 NA
ATOM     47  C   UNL     1      -5.863   3.153  -8.136  1.00  0.00     0.031 C 
ATOM     48  C   UNL     1      -4.333   4.888  -3.676  1.00  0.00     0.029 A 
ATOM     49  N   UNL     1      -5.250   6.359  -5.093  1.00  0.00    -0.354 N 
ATOM     50  C   UNL     1      -6.636   5.128  -8.993  1.00  0.00     0.074 A 
ATOM     51  C   UNL     1      -6.420   3.713  -9.200  1.00  0.00     0.031 C 
ATOM     52  C   UNL     1      -4.343   6.088  -3.068  1.00  0.00     0.029 A 
ATOM     53  C   UNL     1      -4.889   7.086  -3.985  1.00  0.00     0.049 A 
ATOM     54  H   UNL     1      -5.707   6.752  -5.870  1.00  0.00     0.167 HD
ATOM     55  C   UNL     1      -7.218   5.950  -9.896  1.00  0.00     0.031 A 
ATOM     56  C   UNL     1      -4.960   8.412  -3.755  1.00  0.00     0.031 A 
ATOM     57  C   UNL     1      -7.417   7.360  -9.698  1.00  0.00     0.049 A 
ATOM     58  C   UNL     1      -5.526   9.317  -4.819  1.00  0.00     0.074 A 
ATOM     59  C   UNL     1      -8.020   8.271 -10.548  1.00  0.00     0.029 A 
ATOM     60  N   UNL     1      -7.004   8.066  -8.580  1.00  0.00    -0.354 N 
ATOM     61  N   UNL     1      -6.035   9.007  -5.988  1.00  0.00    -0.248 NA
ATOM     62  C   UNL     1      -5.527  10.760  -4.531  1.00  0.00     0.031 C 
ATOM     63  C   UNL     1      -7.912   9.540  -9.973  1.00  0.00     0.029 A 
ATOM     64  C   UNL     1      -7.302   9.409  -8.736  1.00  0.00     0.049 A 
ATOM     65  H   UNL     1      -6.564   7.671  -7.792  1.00  0.00     0.167 HD
ATOM     66  C   UNL     1      -6.437  10.210  -6.559  1.00  0.00     0.074 A 
ATOM     67  C   UNL     1      -6.137  11.251  -5.600  1.00  0.00     0.031 C 
ATOM     68  C   UNL     1      -6.999  10.433  -7.772  1.00  0.00     0.031 A 
BRANCH  55  69
ATOM     69  C   UNL     1      -7.649   5.355 -11.206  1.00  0.00    -0.014 A 
ATOM     70  C   UNL     1      -8.773   4.519 -11.295  1.00  0.00     0.009 A 
ATOM     71  C   UNL     1      -6.955   5.691 -12.380  1.00  0.00     0.009 A 
ATOM     72  C   UNL     1      -9.183   4.018 -12.532  1.00  0.00     0.001 A 
ATOM     73  C   UNL     1      -7.383   5.209 -13.618  1.00  0.00     0.001 A 
ATOM     74  C   UNL     1      -8.493   4.370 -13.692  1.00  0.00     0.000 A 
ENDBRANCH  55  69
BRANCH  56  75
ATOM     75  C   UNL     1      -4.434   8.989  -2.487  1.00  0.00    -0.014 A 
ATOM     76  C   UNL     1      -5.294   9.612  -1.569  1.00  0.00     0.009 A 
ATOM     77  C   UNL     1      -3.056   8.972  -2.218  1.00  0.00     0.009 A 
ATOM     78  C   UNL     1      -4.781  10.239  -0.430  1.00  0.00     0.001 A 
ATOM     79  C   UNL     1      -2.550   9.569  -1.062  1.00  0.00     0.001 A 
ATOM     80  C   UNL     1      -3.410  10.215  -0.177  1.00  0.00     0.000 A 
ENDBRANCH  56  75
BRANCH  68  81
ATOM     81  C   UNL     1      -7.357  11.853  -8.118  1.00  0.00    -0.014 A 
ATOM     82  C   UNL     1      -6.367  12.806  -8.401  1.00  0.00     0.009 A 
ATOM     83  C   UNL     1      -8.707  12.229  -8.207  1.00  0.00     0.009 A 
ATOM     84  C   UNL     1      -6.721  14.116  -8.732  1.00  0.00     0.001 A 
ATOM     85  C   UNL     1      -9.059  13.529  -8.570  1.00  0.00     0.001 A 
ATOM     86  C   UNL     1      -8.066  14.474  -8.822  1.00  0.00     0.000 A 
ENDBRANCH  68  81
ENDBRANCH  42  43
ENDBRANCH  35  37
ENDBRANCH  34  35
ENDBRANCH  33  34
ENDBRANCH  32  33
ENDBRANCH  31  32
ENDBRANCH  30  31
ENDBRANCH  29  30
ENDBRANCH  28  29
ENDBRANCH   1  28
TORSDOF 23
