REMARK SMILES O=C(COc1ccc([N+](=O)[O-])cc1)Nc1ccc(C(=O)OCCOCCOCCOCCOC(=O)c2ccc(-c3c4nc(c(-c5ccccc5)c5ccc([nH]5)c(-c5ccccc5)c5nc(c(-c6ccccc6)c6ccc3[nH]6)C=C5)C=C4)cc2)c(O)c1
REMARK SMILES IDX 25 1 24 2 23 3 22 4 21 5 19 6 20 7 18 8 15 9 16 10 86 11
REMARK SMILES IDX 17 12 84 13 14 14 1 15 2 16 3 18 4 19 5 20 6 21 13 22 7 23
REMARK SMILES IDX 12 24 8 25 9 26 10 27 11 28 85 29 26 31 27 32 28 33 29 34
REMARK SMILES IDX 30 35 31 36 32 37 33 38 34 39 35 40 36 41 37 42 83 43 38 44
REMARK SMILES IDX 82 45 39 46 40 47 41 48 76 49 42 50 81 51 75 52 77 53 43 54
REMARK SMILES IDX 80 55 74 56 73 57 44 59 66 60 51 61 65 62 52 63 55 64 64 65
REMARK SMILES IDX 78 66 53 67 54 68 63 70 79 71 56 72 45 73 46 74 50 75 47 76
REMARK SMILES IDX 49 77 48 78 67 79 68 80 72 81 69 82 71 83 70 84 57 85 58 86
REMARK SMILES IDX 62 87 59 88 61 89 60 90
REMARK H PARENT 14 17 85 30 77 58 55 69
REMARK Flexibility Score: inf
ROOT
ATOM      1  C   UNL     1       1.259   0.113   7.821  1.00  0.00     0.188 C 
ENDROOT
BRANCH   1   2
ATOM      2  O   UNL     1       0.186   0.049   8.742  1.00  0.00    -0.376 OA
BRANCH   2   3
ATOM      3  C   UNL     1      -1.005   0.762   8.482  1.00  0.00     0.202 C 
BRANCH   3   4
ATOM      4  C   UNL     1      -1.796   0.413   7.217  1.00  0.00     0.261 C 
BRANCH   4   5
ATOM      5  O   UNL     1      -0.998   0.128   6.068  1.00  0.00    -0.460 OA
BRANCH   5   6
ATOM      6  C   UNL     1      -0.547   1.185   5.362  1.00  0.00     0.341 C 
ATOM      7  O   UNL     1      -0.709   2.363   5.640  1.00  0.00    -0.246 OA
BRANCH   6   8
ATOM      8  C   UNL     1       0.377   0.712   4.307  1.00  0.00     0.101 A 
ATOM      9  C   UNL     1       2.131   0.035   2.232  1.00  0.00     0.045 A 
ATOM     10  C   UNL     1       2.483   1.037   3.143  1.00  0.00     0.027 A 
ATOM     11  C   UNL     1       0.977  -0.720   2.452  1.00  0.00     0.073 A 
ATOM     12  C   UNL     1       1.593   1.395   4.158  1.00  0.00     0.022 A 
ATOM     13  C   UNL     1       0.104  -0.386   3.488  1.00  0.00     0.132 A 
BRANCH   9  14
ATOM     14  N   UNL     1       2.890  -0.048   1.047  1.00  0.00    -0.323 N 
ATOM     15  O   UNL     1       1.365  -1.131  -0.356  1.00  0.00    -0.271 OA
ATOM     16  C   UNL     1       2.389  -0.476  -0.177  1.00  0.00     0.262 C 
ATOM     17  H   UNL     1       3.838   0.215   1.089  1.00  0.00     0.170 HD
BRANCH  16  18
ATOM     18  C   UNL     1       3.218   0.018  -1.366  1.00  0.00     0.329 C 
BRANCH  18  19
ATOM     19  O   UNL     1       3.978   1.204  -1.140  1.00  0.00    -0.484 OA
BRANCH  19  20
ATOM     20  C   UNL     1       3.291   2.373  -1.344  1.00  0.00     0.120 A 
ATOM     21  C   UNL     1       3.807   3.260  -2.292  1.00  0.00     0.053 A 
ATOM     22  C   UNL     1       2.223   2.767  -0.536  1.00  0.00     0.053 A 
ATOM     23  C   UNL     1       3.264   4.543  -2.428  1.00  0.00     0.089 A 
ATOM     24  C   UNL     1       1.683   4.051  -0.650  1.00  0.00     0.089 A 
ATOM     25  C   UNL     1       2.213   4.941  -1.589  1.00  0.00     0.269 A 
BRANCH  25  26
ATOM     26  N   UNL     1       1.691   6.312  -1.663  1.00  0.00     0.062 N 
ATOM     27  O   UNL     1       2.184   7.071  -2.509  1.00  0.00    -0.258 OA
ATOM     28  O   UNL     1       0.797   6.631  -0.867  1.00  0.00    -0.258 OA
ENDBRANCH  25  26
ENDBRANCH  19  20
ENDBRANCH  18  19
ENDBRANCH  16  18
ENDBRANCH   9  14
BRANCH  13  29
ATOM     29  O   UNL     1      -1.036  -1.120   3.652  1.00  0.00    -0.507 OA
ATOM     30  H   UNL     1      -1.634  -0.910   4.342  1.00  0.00     0.293 HD
ENDBRANCH  13  29
ENDBRANCH   6   8
ENDBRANCH   5   6
ENDBRANCH   4   5
ENDBRANCH   3   4
ENDBRANCH   2   3
ENDBRANCH   1   2
BRANCH   1  31
ATOM     31  C   UNL     1       1.562  -1.211   7.071  1.00  0.00     0.188 C 
BRANCH  31  32
ATOM     32  O   UNL     1       0.818  -2.408   7.286  1.00  0.00    -0.377 OA
BRANCH  32  33
ATOM     33  C   UNL     1       0.122  -2.600   8.509  1.00  0.00     0.188 C 
BRANCH  33  34
ATOM     34  C   UNL     1       0.875  -2.344   9.833  1.00  0.00     0.188 C 
BRANCH  34  35
ATOM     35  O   UNL     1       2.181  -1.822   9.651  1.00  0.00    -0.376 OA
BRANCH  35  36
ATOM     36  C   UNL     1       3.276  -2.703   9.825  1.00  0.00     0.202 C 
BRANCH  36  37
ATOM     37  C   UNL     1       3.341  -3.981   8.975  1.00  0.00     0.261 C 
BRANCH  37  38
ATOM     38  O   UNL     1       2.161  -4.796   8.933  1.00  0.00    -0.460 OA
BRANCH  38  39
ATOM     39  C   UNL     1       1.790  -5.425  10.072  1.00  0.00     0.338 C 
ATOM     40  O   UNL     1       2.341  -5.387  11.150  1.00  0.00    -0.246 OA
BRANCH  39  41
ATOM     41  C   UNL     1       0.465  -6.032   9.814  1.00  0.00     0.060 A 
ATOM     42  C   UNL     1      -0.643  -5.606  10.559  1.00  0.00     0.016 A 
ATOM     43  C   UNL     1       0.321  -7.005   8.823  1.00  0.00     0.016 A 
ATOM     44  C   UNL     1      -1.897  -6.176  10.332  1.00  0.00     0.010 A 
ATOM     45  C   UNL     1      -0.928  -7.591   8.613  1.00  0.00     0.010 A 
ATOM     46  C   UNL     1      -2.035  -7.202   9.389  1.00  0.00    -0.014 A 
BRANCH  46  47
ATOM     47  C   UNL     1      -3.274  -8.014   9.356  1.00  0.00     0.031 A 
ATOM     48  C   UNL     1      -3.282  -9.327  10.088  1.00  0.00     0.074 A 
ATOM     49  C   UNL     1      -4.374  -7.595   8.709  1.00  0.00     0.049 A 
ATOM     50  N   UNL     1      -4.226 -10.229  10.173  1.00  0.00    -0.248 NA
ATOM     51  C   UNL     1      -2.051  -9.669  10.820  1.00  0.00     0.031 C 
ATOM     52  C   UNL     1      -4.516  -6.318   8.014  1.00  0.00     0.029 A 
ATOM     53  N   UNL     1      -5.587  -8.213   8.534  1.00  0.00    -0.354 N 
ATOM     54  C   UNL     1      -3.702 -11.245  10.961  1.00  0.00     0.074 A 
ATOM     55  C   UNL     1      -2.345 -10.870  11.292  1.00  0.00     0.031 C 
ATOM     56  C   UNL     1      -5.752  -6.244   7.491  1.00  0.00     0.029 A 
ATOM     57  C   UNL     1      -6.471  -7.484   7.780  1.00  0.00     0.049 A 
ATOM     58  H   UNL     1      -5.801  -9.095   8.915  1.00  0.00     0.167 HD
ATOM     59  C   UNL     1      -4.296 -12.388  11.380  1.00  0.00     0.031 A 
ATOM     60  C   UNL     1      -7.713  -7.793   7.358  1.00  0.00     0.031 A 
ATOM     61  C   UNL     1      -5.633 -12.778  11.020  1.00  0.00     0.049 A 
ATOM     62  C   UNL     1      -8.312  -9.124   7.735  1.00  0.00     0.074 A 
ATOM     63  C   UNL     1      -6.330 -13.916  11.387  1.00  0.00     0.029 A 
ATOM     64  N   UNL     1      -6.471 -12.045  10.193  1.00  0.00    -0.354 N 
ATOM     65  N   UNL     1      -7.817 -10.072   8.494  1.00  0.00    -0.248 NA
ATOM     66  C   UNL     1      -9.647  -9.422   7.195  1.00  0.00     0.031 C 
ATOM     67  C   UNL     1      -7.563 -13.904  10.727  1.00  0.00     0.029 A 
ATOM     68  C   UNL     1      -7.665 -12.722  10.010  1.00  0.00     0.049 A 
ATOM     69  H   UNL     1      -6.250 -11.172   9.795  1.00  0.00     0.167 HD
ATOM     70  C   UNL     1      -8.793 -11.061   8.554  1.00  0.00     0.074 A 
ATOM     71  C   UNL     1      -9.911 -10.591   7.761  1.00  0.00     0.031 C 
ATOM     72  C   UNL     1      -8.768 -12.247   9.212  1.00  0.00     0.031 A 
BRANCH  59  73
ATOM     73  C   UNL     1      -3.468 -13.314  12.230  1.00  0.00    -0.014 A 
ATOM     74  C   UNL     1      -3.069 -12.958  13.529  1.00  0.00     0.009 A 
ATOM     75  C   UNL     1      -3.065 -14.556  11.716  1.00  0.00     0.009 A 
ATOM     76  C   UNL     1      -2.236 -13.799  14.271  1.00  0.00     0.001 A 
ATOM     77  C   UNL     1      -2.264 -15.412  12.473  1.00  0.00     0.001 A 
ATOM     78  C   UNL     1      -1.837 -15.026  13.743  1.00  0.00     0.000 A 
ENDBRANCH  59  73
BRANCH  60  79
ATOM     79  C   UNL     1      -8.482  -6.825   6.533  1.00  0.00    -0.014 A 
ATOM     80  C   UNL     1      -9.619  -6.191   7.056  1.00  0.00     0.009 A 
ATOM     81  C   UNL     1      -8.090  -6.534   5.216  1.00  0.00     0.009 A 
ATOM     82  C   UNL     1     -10.358  -5.301   6.274  1.00  0.00     0.001 A 
ATOM     83  C   UNL     1      -8.814  -5.621   4.446  1.00  0.00     0.001 A 
ATOM     84  C   UNL     1      -9.952  -5.011   4.972  1.00  0.00     0.000 A 
ENDBRANCH  60  79
BRANCH  72  85
ATOM     85  C   UNL     1     -10.004 -13.104   9.139  1.00  0.00    -0.014 A 
ATOM     86  C   UNL     1     -10.381 -13.755   7.954  1.00  0.00     0.009 A 
ATOM     87  C   UNL     1     -10.780 -13.297  10.294  1.00  0.00     0.009 A 
ATOM     88  C   UNL     1     -11.530 -14.549   7.918  1.00  0.00     0.001 A 
ATOM     89  C   UNL     1     -11.908 -14.119  10.264  1.00  0.00     0.001 A 
ATOM     90  C   UNL     1     -12.289 -14.735   9.073  1.00  0.00     0.000 A 
ENDBRANCH  72  85
ENDBRANCH  46  47
ENDBRANCH  39  41
ENDBRANCH  38  39
ENDBRANCH  37  38
ENDBRANCH  36  37
ENDBRANCH  35  36
ENDBRANCH  34  35
ENDBRANCH  33  34
ENDBRANCH  32  33
ENDBRANCH  31  32
ENDBRANCH   1  31
TORSDOF 26
