REMARK SMILES Cn1c(=O)[nH]c(=O)c2c1nc(NC1CCCC1)n2CC(=O)OCCOCCOCCOCCOC(=O)c1ccc(-c2c3nc(c(-c4ccccc4)c4ccc([nH]4)c(-c4ccccc4)c4nc(c(-c5ccccc5)c5ccc2[nH]5)C=C4)C=C3)cc1
REMARK SMILES IDX 27 1 26 2 25 3 24 4 23 5 22 6 20 7 21 8 19 9 18 10 1 11 2 12
REMARK SMILES IDX 3 13 9 14 4 15 5 16 8 17 10 18 6 19 11 21 7 22 12 23 13 25
REMARK SMILES IDX 14 26 17 27 15 28 16 29 28 30 29 31 30 32 31 33 32 34 33 35
REMARK SMILES IDX 34 36 35 37 36 38 37 39 38 40 84 41 39 42 83 43 40 44 41 45
REMARK SMILES IDX 42 46 77 47 43 48 82 49 76 50 78 51 44 52 81 53 75 54 74 55
REMARK SMILES IDX 45 57 67 58 52 59 66 60 53 61 56 62 65 63 79 64 54 65 55 66
REMARK SMILES IDX 64 68 80 69 57 70 46 71 47 72 51 73 48 74 50 75 49 76 68 77
REMARK SMILES IDX 69 78 73 79 70 80 72 81 71 82 58 83 59 84 63 85 60 86 62 87
REMARK SMILES IDX 61 88
REMARK H PARENT 5 20 12 24 78 56 56 67
REMARK Flexibility Score: inf
ROOT
ATOM      1  C   UNL     1       4.406   5.174   1.832  1.00  0.00     0.188 C 
ENDROOT
BRANCH   1   2
ATOM      2  C   UNL     1       4.708   6.532   1.153  1.00  0.00     0.188 C 
BRANCH   2   3
ATOM      3  O   UNL     1       4.474   7.776   1.807  1.00  0.00    -0.376 OA
BRANCH   3   4
ATOM      4  C   UNL     1       3.557   7.833   2.886  1.00  0.00     0.202 C 
BRANCH   4   5
ATOM      5  C   UNL     1       2.086   7.538   2.556  1.00  0.00     0.261 C 
BRANCH   5   6
ATOM      6  O   UNL     1       1.892   6.537   1.531  1.00  0.00    -0.462 OA
BRANCH   6   7
ATOM      7  C   UNL     1       1.424   6.978   0.336  1.00  0.00     0.326 C 
ATOM      8  O   UNL     1       1.055   8.132   0.130  1.00  0.00    -0.250 OA
BRANCH   7   9
ATOM      9  C   UNL     1       1.542   5.991  -0.806  1.00  0.00     0.248 C 
BRANCH   9  10
ATOM     10  N   UNL     1       1.589   4.560  -0.525  1.00  0.00    -0.293 N 
ATOM     11  C   UNL     1       0.576   0.081  -0.020  1.00  0.00     0.157 C 
ATOM     12  N   UNL     1       0.113   1.448   0.126  1.00  0.00    -0.279 N 
ATOM     13  C   UNL     1      -1.196   1.710   0.507  1.00  0.00     0.329 A 
ATOM     14  C   UNL     1       0.928   2.511  -0.186  1.00  0.00     0.170 A 
ATOM     15  O   UNL     1      -2.023   0.833   0.754  1.00  0.00    -0.248 OA
ATOM     16  N   UNL     1      -1.569   3.041   0.594  1.00  0.00    -0.272 N 
ATOM     17  C   UNL     1       0.520   3.806  -0.096  1.00  0.00     0.154 A 
ATOM     18  N   UNL     1       2.186   2.417  -0.654  1.00  0.00    -0.194 NA
ATOM     19  C   UNL     1      -0.794   4.150   0.319  1.00  0.00     0.279 A 
ATOM     20  H   UNL     1      -2.493   3.216   0.884  1.00  0.00     0.175 HD
ATOM     21  C   UNL     1       2.585   3.647  -0.885  1.00  0.00     0.206 A 
ATOM     22  O   UNL     1      -1.218   5.293   0.412  1.00  0.00    -0.267 OA
BRANCH  21  23
ATOM     23  N   UNL     1       3.789   3.995  -1.390  1.00  0.00    -0.353 N 
ATOM     24  H   UNL     1       3.932   4.935  -1.644  1.00  0.00     0.163 HD
BRANCH  23  25
ATOM     25  C   UNL     1       4.891   3.051  -1.581  1.00  0.00     0.082 C 
ATOM     26  C   UNL     1       4.969   1.839  -0.659  1.00  0.00     0.025 C 
ATOM     27  C   UNL     1       4.951   2.402  -2.958  1.00  0.00     0.025 C 
ATOM     28  C   UNL     1       6.088   1.012  -1.276  1.00  0.00     0.002 C 
ATOM     29  C   UNL     1       5.938   1.235  -2.784  1.00  0.00     0.002 C 
ENDBRANCH  23  25
ENDBRANCH  21  23
ENDBRANCH   9  10
ENDBRANCH   7   9
ENDBRANCH   6   7
ENDBRANCH   5   6
ENDBRANCH   4   5
ENDBRANCH   3   4
ENDBRANCH   2   3
ENDBRANCH   1   2
BRANCH   1  30
ATOM     30  O   UNL     1       4.308   5.202   3.248  1.00  0.00    -0.377 OA
BRANCH  30  31
ATOM     31  C   UNL     1       5.393   4.602   3.938  1.00  0.00     0.188 C 
BRANCH  31  32
ATOM     32  C   UNL     1       6.729   5.344   3.797  1.00  0.00     0.188 C 
BRANCH  32  33
ATOM     33  O   UNL     1       7.089   5.609   2.443  1.00  0.00    -0.376 OA
BRANCH  33  34
ATOM     34  C   UNL     1       8.206   4.907   1.918  1.00  0.00     0.202 C 
BRANCH  34  35
ATOM     35  C   UNL     1       7.807   3.610   1.218  1.00  0.00     0.261 C 
BRANCH  35  36
ATOM     36  O   UNL     1       7.066   2.693   2.021  1.00  0.00    -0.460 OA
BRANCH  36  37
ATOM     37  C   UNL     1       7.699   2.222   3.113  1.00  0.00     0.338 C 
ATOM     38  O   UNL     1       8.762   2.603   3.565  1.00  0.00    -0.246 OA
BRANCH  37  39
ATOM     39  C   UNL     1       6.938   1.093   3.669  1.00  0.00     0.060 A 
ATOM     40  C   UNL     1       7.314   0.644   4.935  1.00  0.00     0.016 A 
ATOM     41  C   UNL     1       6.029   0.374   2.880  1.00  0.00     0.016 A 
ATOM     42  C   UNL     1       6.926  -0.619   5.330  1.00  0.00     0.010 A 
ATOM     43  C   UNL     1       5.638  -0.889   3.274  1.00  0.00     0.010 A 
ATOM     44  C   UNL     1       6.166  -1.404   4.454  1.00  0.00    -0.014 A 
BRANCH  44  45
ATOM     45  C   UNL     1       6.029  -2.808   4.782  1.00  0.00     0.031 A 
ATOM     46  C   UNL     1       5.137  -3.141   5.910  1.00  0.00     0.074 A 
ATOM     47  C   UNL     1       6.667  -3.766   4.085  1.00  0.00     0.049 A 
ATOM     48  N   UNL     1       5.456  -3.717   7.021  1.00  0.00    -0.248 NA
ATOM     49  C   UNL     1       3.733  -2.728   5.813  1.00  0.00     0.031 C 
ATOM     50  C   UNL     1       7.361  -3.647   2.800  1.00  0.00     0.029 A 
ATOM     51  N   UNL     1       6.729  -5.098   4.356  1.00  0.00    -0.354 N 
ATOM     52  C   UNL     1       4.269  -3.861   7.728  1.00  0.00     0.074 A 
ATOM     53  C   UNL     1       3.255  -3.158   6.981  1.00  0.00     0.031 C 
ATOM     54  C   UNL     1       7.571  -4.885   2.300  1.00  0.00     0.029 A 
ATOM     55  C   UNL     1       7.142  -5.868   3.283  1.00  0.00     0.049 A 
ATOM     56  H   UNL     1       6.502  -5.479   5.234  1.00  0.00     0.167 HD
ATOM     57  C   UNL     1       4.157  -4.683   8.805  1.00  0.00     0.031 A 
ATOM     58  C   UNL     1       7.057  -7.215   3.184  1.00  0.00     0.031 A 
ATOM     59  C   UNL     1       5.430  -5.073   9.342  1.00  0.00     0.049 A 
ATOM     60  C   UNL     1       6.918  -7.768   4.551  1.00  0.00     0.074 A 
ATOM     61  C   UNL     1       6.488  -4.398   9.916  1.00  0.00     0.029 A 
ATOM     62  N   UNL     1       5.902  -6.326   9.036  1.00  0.00    -0.354 N 
ATOM     63  N   UNL     1       7.880  -7.778   5.428  1.00  0.00    -0.248 NA
ATOM     64  C   UNL     1       5.582  -7.965   5.096  1.00  0.00     0.031 C 
ATOM     65  C   UNL     1       7.651  -5.112   9.507  1.00  0.00     0.029 A 
ATOM     66  C   UNL     1       7.229  -6.186   8.721  1.00  0.00     0.049 A 
ATOM     67  H   UNL     1       5.386  -7.165   9.041  1.00  0.00     0.167 HD
ATOM     68  C   UNL     1       7.255  -7.558   6.648  1.00  0.00     0.074 A 
ATOM     69  C   UNL     1       5.840  -7.808   6.397  1.00  0.00     0.031 C 
ATOM     70  C   UNL     1       7.900  -6.921   7.670  1.00  0.00     0.031 A 
BRANCH  57  71
ATOM     71  C   UNL     1       2.881  -5.371   9.187  1.00  0.00    -0.014 A 
ATOM     72  C   UNL     1       2.791  -6.013  10.433  1.00  0.00     0.009 A 
ATOM     73  C   UNL     1       1.854  -5.625   8.258  1.00  0.00     0.009 A 
ATOM     74  C   UNL     1       1.738  -6.889  10.721  1.00  0.00     0.001 A 
ATOM     75  C   UNL     1       0.781  -6.466   8.557  1.00  0.00     0.001 A 
ATOM     76  C   UNL     1       0.735  -7.115   9.783  1.00  0.00     0.000 A 
ENDBRANCH  57  71
BRANCH  58  77
ATOM     77  C   UNL     1       6.862  -8.022   1.963  1.00  0.00    -0.014 A 
ATOM     78  C   UNL     1       7.087  -9.406   1.971  1.00  0.00     0.009 A 
ATOM     79  C   UNL     1       6.226  -7.470   0.835  1.00  0.00     0.009 A 
ATOM     80  C   UNL     1       6.669 -10.207   0.900  1.00  0.00     0.001 A 
ATOM     81  C   UNL     1       5.819  -8.265  -0.239  1.00  0.00     0.001 A 
ATOM     82  C   UNL     1       6.029  -9.638  -0.199  1.00  0.00     0.000 A 
ENDBRANCH  58  77
BRANCH  70  83
ATOM     83  C   UNL     1       9.382  -6.672   7.526  1.00  0.00    -0.014 A 
ATOM     84  C   UNL     1       9.913  -5.894   6.481  1.00  0.00     0.009 A 
ATOM     85  C   UNL     1      10.244  -7.076   8.556  1.00  0.00     0.009 A 
ATOM     86  C   UNL     1      11.269  -5.558   6.451  1.00  0.00     0.001 A 
ATOM     87  C   UNL     1      11.596  -6.721   8.539  1.00  0.00     0.001 A 
ATOM     88  C   UNL     1      12.109  -5.967   7.484  1.00  0.00     0.000 A 
ENDBRANCH  70  83
ENDBRANCH  44  45
ENDBRANCH  37  39
ENDBRANCH  36  37
ENDBRANCH  35  36
ENDBRANCH  34  35
ENDBRANCH  33  34
ENDBRANCH  32  33
ENDBRANCH  31  32
ENDBRANCH  30  31
ENDBRANCH   1  30
TORSDOF 23
