REMARK SMILES CCC[C@H](Cn1c(C)cc(=O)cc1C)C(=O)OCCOCCOCCOCCOC(=O)c1ccc(-c2c3nc(c(-c4ccccc4)c4ccc([nH]4)c(-c4ccccc4)c4nc(c(-c5ccccc5)c5ccc2[nH]5)C=C4)C=C3)cc1
REMARK SMILES IDX 23 1 22 2 21 3 20 4 19 5 18 6 17 7 15 8 16 9 4 10 3 11 2 12
REMARK SMILES IDX 1 13 5 14 6 15 7 16 13 17 8 18 9 19 12 20 14 21 10 22 11 23
REMARK SMILES IDX 24 24 25 25 26 26 27 27 28 28 29 29 30 30 31 31 32 32 33 33
REMARK SMILES IDX 79 34 34 35 78 36 35 37 36 38 37 39 72 40 38 41 77 42 71 43
REMARK SMILES IDX 73 44 39 45 76 46 70 47 69 48 40 50 62 51 47 52 61 53 48 54
REMARK SMILES IDX 51 55 60 56 74 57 49 58 50 59 59 61 75 62 52 63 41 64 42 65
REMARK SMILES IDX 46 66 43 67 45 68 44 69 63 70 64 71 68 72 65 73 67 74 66 75
REMARK SMILES IDX 53 76 54 77 58 78 55 79 57 80 56 81
REMARK H PARENT 73 49 51 60
REMARK Flexibility Score: inf
ROOT
ATOM      1  O   UNL     1       3.752   3.887  -2.512  1.00  0.00    -0.377 OA
ENDROOT
BRANCH   1   2
ATOM      2  C   UNL     1       2.818   2.943  -2.985  1.00  0.00     0.188 C 
BRANCH   2   3
ATOM      3  C   UNL     1       3.099   2.233  -4.309  1.00  0.00     0.188 C 
BRANCH   3   4
ATOM      4  O   UNL     1       2.832   2.944  -5.509  1.00  0.00    -0.376 OA
BRANCH   4   5
ATOM      5  C   UNL     1       1.617   3.658  -5.685  1.00  0.00     0.202 C 
BRANCH   5   6
ATOM      6  C   UNL     1       0.251   3.057  -5.309  1.00  0.00     0.261 C 
BRANCH   6   7
ATOM      7  O   UNL     1       0.041   2.767  -3.907  1.00  0.00    -0.463 OA
BRANCH   7   8
ATOM      8  C   UNL     1      -0.134   1.456  -3.568  1.00  0.00     0.310 C 
ATOM      9  O   UNL     1       0.011   0.527  -4.353  1.00  0.00    -0.252 OA
BRANCH   8  10
ATOM     10  C   UNL     1      -0.655   1.264  -2.140  1.00  0.00     0.119 C 
BRANCH  10  11
ATOM     11  C   UNL     1      -2.124   1.790  -2.173  1.00  0.00     0.017 C 
BRANCH  11  12
ATOM     12  C   UNL     1      -2.707   2.437  -0.917  1.00  0.00    -0.002 C 
ATOM     13  C   UNL     1      -2.331   3.908  -0.775  1.00  0.00     0.004 C 
ENDBRANCH  11  12
ENDBRANCH  10  11
BRANCH  10  14
ATOM     14  C   UNL     1       0.264   1.840  -1.055  1.00  0.00     0.137 C 
BRANCH  14  15
ATOM     15  N   UNL     1       1.256   0.982  -0.304  1.00  0.00    -0.348 N 
ATOM     16  C   UNL     1       1.741   1.507   0.939  1.00  0.00     0.018 A 
ATOM     17  C   UNL     1       1.690  -0.326  -0.649  1.00  0.00     0.018 A 
ATOM     18  C   UNL     1       1.612   2.981   1.263  1.00  0.00     0.064 C 
ATOM     19  C   UNL     1       2.345   0.748   1.870  1.00  0.00     0.073 A 
ATOM     20  C   UNL     1       2.283  -1.144   0.244  1.00  0.00     0.073 A 
ATOM     21  C   UNL     1       1.647  -0.851  -2.057  1.00  0.00     0.064 C 
ATOM     22  C   UNL     1       2.546  -0.683   1.614  1.00  0.00     0.182 A 
ATOM     23  O   UNL     1       2.970  -1.438   2.479  1.00  0.00    -0.290 OA
ENDBRANCH  14  15
ENDBRANCH  10  14
ENDBRANCH   8  10
ENDBRANCH   7   8
ENDBRANCH   6   7
ENDBRANCH   5   6
ENDBRANCH   4   5
ENDBRANCH   3   4
ENDBRANCH   2   3
ENDBRANCH   1   2
BRANCH   1  24
ATOM     24  C   UNL     1       3.968   5.007  -3.346  1.00  0.00     0.188 C 
BRANCH  24  25
ATOM     25  C   UNL     1       5.231   4.865  -4.200  1.00  0.00     0.188 C 
BRANCH  25  26
ATOM     26  O   UNL     1       6.470   4.481  -3.600  1.00  0.00    -0.376 OA
BRANCH  26  27
ATOM     27  C   UNL     1       6.462   3.661  -2.439  1.00  0.00     0.202 C 
BRANCH  27  28
ATOM     28  C   UNL     1       6.543   4.467  -1.130  1.00  0.00     0.261 C 
BRANCH  28  29
ATOM     29  O   UNL     1       5.790   5.693  -1.121  1.00  0.00    -0.460 OA
BRANCH  29  30
ATOM     30  C   UNL     1       6.404   6.763  -1.682  1.00  0.00     0.338 C 
ATOM     31  O   UNL     1       7.545   6.833  -2.110  1.00  0.00    -0.246 OA
BRANCH  30  32
ATOM     32  C   UNL     1       5.428   7.867  -1.818  1.00  0.00     0.060 A 
ATOM     33  C   UNL     1       5.250   8.454  -3.078  1.00  0.00     0.016 A 
ATOM     34  C   UNL     1       4.709   8.335  -0.714  1.00  0.00     0.016 A 
ATOM     35  C   UNL     1       4.377   9.531  -3.231  1.00  0.00     0.010 A 
ATOM     36  C   UNL     1       3.860   9.437  -0.860  1.00  0.00     0.010 A 
ATOM     37  C   UNL     1       3.717  10.060  -2.112  1.00  0.00    -0.014 A 
BRANCH  37  38
ATOM     38  C   UNL     1       3.085  11.397  -2.213  1.00  0.00     0.031 A 
ATOM     39  C   UNL     1       3.943  12.602  -1.937  1.00  0.00     0.074 A 
ATOM     40  C   UNL     1       1.804  11.552  -2.588  1.00  0.00     0.049 A 
ATOM     41  N   UNL     1       3.631  13.871  -1.980  1.00  0.00    -0.248 NA
ATOM     42  C   UNL     1       5.347  12.338  -1.575  1.00  0.00     0.031 C 
ATOM     43  C   UNL     1       0.887  10.473  -2.947  1.00  0.00     0.029 A 
ATOM     44  N   UNL     1       1.056  12.694  -2.739  1.00  0.00    -0.354 N 
ATOM     45  C   UNL     1       4.800  14.554  -1.668  1.00  0.00     0.074 A 
ATOM     46  C   UNL     1       5.819  13.563  -1.404  1.00  0.00     0.031 C 
ATOM     47  C   UNL     1      -0.302  11.006  -3.282  1.00  0.00     0.029 A 
ATOM     48  C   UNL     1      -0.238  12.460  -3.133  1.00  0.00     0.049 A 
ATOM     49  H   UNL     1       1.415  13.597  -2.579  1.00  0.00     0.167 HD
ATOM     50  C   UNL     1       5.013  15.889  -1.615  1.00  0.00     0.031 A 
ATOM     51  C   UNL     1      -1.254  13.321  -3.341  1.00  0.00     0.031 A 
ATOM     52  C   UNL     1       3.997  16.878  -1.838  1.00  0.00     0.049 A 
ATOM     53  C   UNL     1      -1.025  14.798  -3.150  1.00  0.00     0.074 A 
ATOM     54  C   UNL     1       4.110  18.256  -1.783  1.00  0.00     0.029 A 
ATOM     55  N   UNL     1       2.677  16.594  -2.149  1.00  0.00    -0.354 N 
ATOM     56  N   UNL     1       0.086  15.432  -2.860  1.00  0.00    -0.248 NA
ATOM     57  C   UNL     1      -2.192  15.679  -3.317  1.00  0.00     0.031 C 
ATOM     58  C   UNL     1       2.845  18.805  -2.009  1.00  0.00     0.029 A 
ATOM     59  C   UNL     1       1.958  17.770  -2.262  1.00  0.00     0.049 A 
ATOM     60  H   UNL     1       2.307  15.690  -2.272  1.00  0.00     0.167 HD
ATOM     61  C   UNL     1      -0.242  16.783  -2.833  1.00  0.00     0.074 A 
ATOM     62  C   UNL     1      -1.653  16.879  -3.147  1.00  0.00     0.031 C 
ATOM     63  C   UNL     1       0.554  17.848  -2.573  1.00  0.00     0.031 A 
BRANCH  50  64
ATOM     64  C   UNL     1       6.398  16.352  -1.272  1.00  0.00    -0.014 A 
ATOM     65  C   UNL     1       7.443  16.254  -2.205  1.00  0.00     0.009 A 
ATOM     66  C   UNL     1       6.655  16.923  -0.017  1.00  0.00     0.009 A 
ATOM     67  C   UNL     1       8.725  16.700  -1.877  1.00  0.00     0.001 A 
ATOM     68  C   UNL     1       7.931  17.391   0.299  1.00  0.00     0.001 A 
ATOM     69  C   UNL     1       8.966  17.273  -0.629  1.00  0.00     0.000 A 
ENDBRANCH  50  64
BRANCH  51  70
ATOM     70  C   UNL     1      -2.592  12.813  -3.744  1.00  0.00    -0.014 A 
ATOM     71  C   UNL     1      -3.090  13.058  -5.032  1.00  0.00     0.009 A 
ATOM     72  C   UNL     1      -3.386  12.096  -2.835  1.00  0.00     0.009 A 
ATOM     73  C   UNL     1      -4.362  12.608  -5.397  1.00  0.00     0.001 A 
ATOM     74  C   UNL     1      -4.647  11.626  -3.211  1.00  0.00     0.001 A 
ATOM     75  C   UNL     1      -5.136  11.888  -4.489  1.00  0.00     0.000 A 
ENDBRANCH  51  70
BRANCH  63  76
ATOM     76  C   UNL     1      -0.063  19.216  -2.634  1.00  0.00    -0.014 A 
ATOM     77  C   UNL     1      -0.912  19.675  -1.616  1.00  0.00     0.009 A 
ATOM     78  C   UNL     1       0.281  20.089  -3.679  1.00  0.00     0.009 A 
ATOM     79  C   UNL     1      -1.419  20.976  -1.653  1.00  0.00     0.001 A 
ATOM     80  C   UNL     1      -0.205  21.397  -3.699  1.00  0.00     0.001 A 
ATOM     81  C   UNL     1      -1.059  21.837  -2.689  1.00  0.00     0.000 A 
ENDBRANCH  63  76
ENDBRANCH  37  38
ENDBRANCH  30  32
ENDBRANCH  29  30
ENDBRANCH  28  29
ENDBRANCH  27  28
ENDBRANCH  26  27
ENDBRANCH  25  26
ENDBRANCH  24  25
ENDBRANCH   1  24
TORSDOF 24
