REMARK SMILES C[NH+]1CCC(C(=O)N2C[C@@H](C(=O)OCCOCCOCCOCCOC(=O)c3ccc(-c4c5nc(c(-c6ccccc6)c6ccc([nH]6)c(-c6ccccc6)c6nc(c(-c7ccccc7)c7ccc4[nH]7)C=C6)C=C5)cc3)[C@H](c3ccc4c(c3)OCO4)C2)CC1
REMARK SMILES IDX 19 1 18 2 17 3 16 4 15 5 14 6 13 7 11 8 12 9 10 10 8 11 9 12
REMARK SMILES IDX 86 13 76 14 6 15 7 16 5 17 1 18 2 19 3 20 88 21 4 23 87 24
REMARK SMILES IDX 77 25 78 26 82 27 79 28 81 29 80 30 83 31 85 32 84 33 20 34
REMARK SMILES IDX 21 35 22 36 23 37 24 38 25 39 26 40 27 41 28 42 29 43 75 44
REMARK SMILES IDX 30 45 74 46 31 47 32 48 33 49 68 50 34 51 73 52 67 53 69 54
REMARK SMILES IDX 35 55 72 56 66 57 65 58 36 60 58 61 43 62 57 63 44 64 47 65
REMARK SMILES IDX 56 66 70 67 45 68 46 69 55 71 71 72 48 73 37 74 38 75 42 76
REMARK SMILES IDX 39 77 41 78 40 79 59 80 60 81 64 82 61 83 63 84 62 85 49 86
REMARK SMILES IDX 50 87 54 88 51 89 53 90 52 91
REMARK H PARENT 2 22 69 59 47 70
REMARK Flexibility Score: inf
ROOT
ATOM      1  O   UNL     1       0.671  -1.261   6.218  1.00  0.00    -0.377 OA
ENDROOT
BRANCH   1   2
ATOM      2  C   UNL     1       0.855  -1.776   4.912  1.00  0.00     0.188 C 
BRANCH   2   3
ATOM      3  C   UNL     1       1.854  -2.953   4.852  1.00  0.00     0.188 C 
BRANCH   3   4
ATOM      4  O   UNL     1       2.232  -3.630   6.038  1.00  0.00    -0.376 OA
BRANCH   4   5
ATOM      5  C   UNL     1       2.808  -2.984   7.164  1.00  0.00     0.202 C 
BRANCH   5   6
ATOM      6  C   UNL     1       3.525  -1.627   7.150  1.00  0.00     0.261 C 
BRANCH   6   7
ATOM      7  O   UNL     1       3.317  -0.810   6.008  1.00  0.00    -0.463 OA
BRANCH   7   8
ATOM      8  C   UNL     1       4.222  -0.891   5.004  1.00  0.00     0.311 C 
ATOM      9  O   UNL     1       5.214  -1.602   4.990  1.00  0.00    -0.252 OA
BRANCH   8  10
ATOM     10  C   UNL     1       3.791   0.034   3.901  1.00  0.00     0.128 C 
ATOM     11  N   UNL     1       3.688   0.349   1.625  1.00  0.00    -0.341 N 
ATOM     12  C   UNL     1       3.606  -0.707   2.599  1.00  0.00     0.135 C 
ATOM     13  C   UNL     1       4.669   1.336   2.079  1.00  0.00     0.128 C 
ATOM     14  C   UNL     1       4.831   1.135   3.609  1.00  0.00     0.055 C 
BRANCH  11  15
ATOM     15  C   UNL     1       3.398   0.182   0.289  1.00  0.00     0.226 C 
ATOM     16  O   UNL     1       4.254   0.387  -0.575  1.00  0.00    -0.275 OA
BRANCH  15  17
ATOM     17  C   UNL     1       1.927   0.002  -0.126  1.00  0.00     0.090 C 
ATOM     18  C   UNL     1      -2.375  -0.031  -0.152  1.00  0.00     0.332 C 
ATOM     19  N   UNL     1      -0.971  -0.035   0.263  1.00  0.00    -0.337 N 
ATOM     20  C   UNL     1      -0.305   1.191  -0.196  1.00  0.00     0.262 C 
ATOM     21  C   UNL     1      -0.273  -1.228  -0.243  1.00  0.00     0.262 C 
ATOM     22  H   UNL     1      -0.936  -0.065   1.282  1.00  0.00     0.347 HD
ATOM     23  C   UNL     1       1.136   1.244   0.306  1.00  0.00     0.075 C 
ATOM     24  C   UNL     1       1.173  -1.265   0.281  1.00  0.00     0.075 C 
ENDBRANCH  15  17
ENDBRANCH  11  15
BRANCH  14  25
ATOM     25  C   UNL     1       4.562   2.281   4.589  1.00  0.00    -0.038 A 
ATOM     26  C   UNL     1       4.001   3.519   4.211  1.00  0.00     0.008 A 
ATOM     27  C   UNL     1       4.703   2.005   5.969  1.00  0.00     0.054 A 
ATOM     28  C   UNL     1       3.474   4.398   5.170  1.00  0.00     0.051 A 
ATOM     29  C   UNL     1       4.085   2.834   6.877  1.00  0.00     0.166 A 
ATOM     30  C   UNL     1       3.472   3.995   6.486  1.00  0.00     0.165 A 
ATOM     31  O   UNL     1       3.914   2.574   8.202  1.00  0.00    -0.454 OA
ATOM     32  O   UNL     1       2.846   4.615   7.524  1.00  0.00    -0.454 OA
ATOM     33  C   UNL     1       2.923   3.573   8.521  1.00  0.00     0.468 C 
ENDBRANCH  14  25
ENDBRANCH   8  10
ENDBRANCH   7   8
ENDBRANCH   6   7
ENDBRANCH   5   6
ENDBRANCH   4   5
ENDBRANCH   3   4
ENDBRANCH   2   3
ENDBRANCH   1   2
BRANCH   1  34
ATOM     34  C   UNL     1      -0.390  -1.826   6.979  1.00  0.00     0.188 C 
BRANCH  34  35
ATOM     35  C   UNL     1      -0.713  -3.329   6.826  1.00  0.00     0.188 C 
BRANCH  35  36
ATOM     36  O   UNL     1      -0.776  -3.774   5.478  1.00  0.00    -0.376 OA
BRANCH  36  37
ATOM     37  C   UNL     1      -2.039  -4.013   4.883  1.00  0.00     0.202 C 
BRANCH  37  38
ATOM     38  C   UNL     1      -2.942  -2.795   4.646  1.00  0.00     0.261 C 
BRANCH  38  39
ATOM     39  O   UNL     1      -3.209  -1.977   5.794  1.00  0.00    -0.460 OA
BRANCH  39  40
ATOM     40  C   UNL     1      -3.887  -2.540   6.815  1.00  0.00     0.338 C 
ATOM     41  O   UNL     1      -4.335  -3.674   6.869  1.00  0.00    -0.246 OA
BRANCH  40  42
ATOM     42  C   UNL     1      -3.831  -1.603   7.955  1.00  0.00     0.060 A 
ATOM     43  C   UNL     1      -3.214  -2.011   9.145  1.00  0.00     0.016 A 
ATOM     44  C   UNL     1      -4.375  -0.322   7.842  1.00  0.00     0.016 A 
ATOM     45  C   UNL     1      -3.165  -1.146  10.238  1.00  0.00     0.010 A 
ATOM     46  C   UNL     1      -4.348   0.534   8.945  1.00  0.00     0.010 A 
ATOM     47  C   UNL     1      -3.771   0.114  10.158  1.00  0.00    -0.014 A 
BRANCH  47  48
ATOM     48  C   UNL     1      -3.978   0.915  11.387  1.00  0.00     0.031 A 
ATOM     49  C   UNL     1      -5.322   0.851  12.061  1.00  0.00     0.074 A 
ATOM     50  C   UNL     1      -2.999   1.681  11.899  1.00  0.00     0.049 A 
ATOM     51  N   UNL     1      -5.764   1.516  13.096  1.00  0.00    -0.248 NA
ATOM     52  C   UNL     1      -6.299  -0.089  11.485  1.00  0.00     0.031 C 
ATOM     53  C   UNL     1      -1.641   1.792  11.369  1.00  0.00     0.029 A 
ATOM     54  N   UNL     1      -3.010   2.528  12.981  1.00  0.00    -0.354 N 
ATOM     55  C   UNL     1      -7.075   1.093  13.281  1.00  0.00     0.074 A 
ATOM     56  C   UNL     1      -7.363   0.127  12.244  1.00  0.00     0.031 C 
ATOM     57  C   UNL     1      -0.954   2.675  12.117  1.00  0.00     0.029 A 
ATOM     58  C   UNL     1      -1.835   3.219  13.149  1.00  0.00     0.049 A 
ATOM     59  H   UNL     1      -3.786   2.629  13.578  1.00  0.00     0.167 HD
ATOM     60  C   UNL     1      -7.960   1.477  14.229  1.00  0.00     0.031 A 
ATOM     61  C   UNL     1      -1.521   4.203  14.014  1.00  0.00     0.031 A 
ATOM     62  C   UNL     1      -7.676   2.443  15.255  1.00  0.00     0.049 A 
ATOM     63  C   UNL     1      -2.552   4.665  15.014  1.00  0.00     0.074 A 
ATOM     64  C   UNL     1      -8.498   2.874  16.282  1.00  0.00     0.029 A 
ATOM     65  N   UNL     1      -6.483   3.137  15.378  1.00  0.00    -0.354 N 
ATOM     66  N   UNL     1      -3.773   4.229  15.207  1.00  0.00    -0.248 NA
ATOM     67  C   UNL     1      -2.155   5.753  15.922  1.00  0.00     0.031 C 
ATOM     68  C   UNL     1      -7.829   3.883  16.980  1.00  0.00     0.029 A 
ATOM     69  C   UNL     1      -6.561   4.023  16.438  1.00  0.00     0.049 A 
ATOM     70  H   UNL     1      -5.697   3.018  14.797  1.00  0.00     0.167 HD
ATOM     71  C   UNL     1      -4.277   4.965  16.275  1.00  0.00     0.074 A 
ATOM     72  C   UNL     1      -3.223   5.861  16.700  1.00  0.00     0.031 C 
ATOM     73  C   UNL     1      -5.502   4.906  16.852  1.00  0.00     0.031 A 
BRANCH  60  74
ATOM     74  C   UNL     1      -9.343   0.890  14.175  1.00  0.00    -0.014 A 
ATOM     75  C   UNL     1      -9.587  -0.452  14.507  1.00  0.00     0.009 A 
ATOM     76  C   UNL     1     -10.428   1.715  13.841  1.00  0.00     0.009 A 
ATOM     77  C   UNL     1     -10.888  -0.959  14.482  1.00  0.00     0.001 A 
ATOM     78  C   UNL     1     -11.730   1.214  13.846  1.00  0.00     0.001 A 
ATOM     79  C   UNL     1     -11.959  -0.124  14.161  1.00  0.00     0.000 A 
ENDBRANCH  60  74
BRANCH  61  80
ATOM     80  C   UNL     1      -0.188   4.864  13.951  1.00  0.00    -0.014 A 
ATOM     81  C   UNL     1       0.726   4.750  15.010  1.00  0.00     0.009 A 
ATOM     82  C   UNL     1       0.156   5.657  12.844  1.00  0.00     0.009 A 
ATOM     83  C   UNL     1       1.937   5.448  14.979  1.00  0.00     0.001 A 
ATOM     84  C   UNL     1       1.382   6.324  12.799  1.00  0.00     0.001 A 
ATOM     85  C   UNL     1       2.265   6.230  13.872  1.00  0.00     0.000 A 
ENDBRANCH  61  80
BRANCH  73  86
ATOM     86  C   UNL     1      -5.758   5.800  18.035  1.00  0.00    -0.014 A 
ATOM     87  C   UNL     1      -5.879   7.191  17.893  1.00  0.00     0.009 A 
ATOM     88  C   UNL     1      -5.928   5.231  19.308  1.00  0.00     0.009 A 
ATOM     89  C   UNL     1      -6.127   7.996  19.008  1.00  0.00     0.001 A 
ATOM     90  C   UNL     1      -6.212   6.034  20.413  1.00  0.00     0.001 A 
ATOM     91  C   UNL     1      -6.299   7.417  20.264  1.00  0.00     0.000 A 
ENDBRANCH  73  86
ENDBRANCH  47  48
ENDBRANCH  40  42
ENDBRANCH  39  40
ENDBRANCH  38  39
ENDBRANCH  37  38
ENDBRANCH  36  37
ENDBRANCH  35  36
ENDBRANCH  34  35
ENDBRANCH   1  34
TORSDOF 23
