REMARK SMILES CCCC[C@H](C(=O)OCCOCCOCCOCCOC(=O)c1ccc(-c2c3nc(c(-c4ccccc4)c4ccc([nH]4)c(-c4ccccc4)c4nc(c(-c5ccccc5)c5ccc2[nH]5)C=C4)C=C3)cc1)c1ccnn1C
REMARK SMILES IDX 13 1 12 2 11 3 10 4 9 5 8 6 6 7 7 8 5 9 4 10 3 11 2 12 1 13
REMARK SMILES IDX 71 14 72 15 75 16 73 17 74 18 76 19 14 20 15 21 16 22 17 23
REMARK SMILES IDX 18 24 19 25 20 26 21 27 22 28 23 29 24 30 70 31 25 32 69 33
REMARK SMILES IDX 26 34 27 35 28 36 63 37 29 38 68 39 62 40 64 41 30 42 67 43
REMARK SMILES IDX 61 44 60 45 31 47 53 48 38 49 52 50 39 51 42 52 51 53 65 54
REMARK SMILES IDX 40 55 41 56 50 58 66 59 43 60 32 61 33 62 37 63 34 64 36 65
REMARK SMILES IDX 35 66 54 67 55 68 59 69 56 70 58 71 57 72 44 73 45 74 49 75
REMARK SMILES IDX 46 76 48 77 47 78
REMARK H PARENT 64 46 42 57
REMARK Flexibility Score: inf
ROOT
ATOM      1  C   UNL     1       0.917  -0.367  -3.237  1.00  0.00     0.188 C 
ENDROOT
BRANCH   1   2
ATOM      2  C   UNL     1       1.768   0.691  -3.974  1.00  0.00     0.188 C 
BRANCH   2   3
ATOM      3  O   UNL     1       3.042   0.878  -3.386  1.00  0.00    -0.376 OA
BRANCH   3   4
ATOM      4  C   UNL     1       3.300   1.942  -2.498  1.00  0.00     0.202 C 
BRANCH   4   5
ATOM      5  C   UNL     1       2.388   2.232  -1.302  1.00  0.00     0.261 C 
BRANCH   5   6
ATOM      6  O   UNL     1       0.996   1.939  -1.427  1.00  0.00    -0.463 OA
BRANCH   6   7
ATOM      7  C   UNL     1       0.217   2.741  -2.200  1.00  0.00     0.315 C 
ATOM      8  O   UNL     1       0.640   3.656  -2.892  1.00  0.00    -0.251 OA
BRANCH   7   9
ATOM      9  C   UNL     1      -1.254   2.343  -2.034  1.00  0.00     0.148 C 
BRANCH   9  10
ATOM     10  C   UNL     1      -2.052   3.546  -1.527  1.00  0.00     0.022 C 
BRANCH  10  11
ATOM     11  C   UNL     1      -2.043   3.712   0.005  1.00  0.00     0.001 C 
BRANCH  11  12
ATOM     12  C   UNL     1      -0.697   3.654   0.737  1.00  0.00    -0.003 C 
ATOM     13  C   UNL     1       0.278   4.768   0.384  1.00  0.00     0.004 C 
ENDBRANCH  11  12
ENDBRANCH  10  11
ENDBRANCH   9  10
BRANCH   9  14
ATOM     14  C   UNL     1      -1.795   1.695  -3.294  1.00  0.00     0.052 A 
ATOM     15  C   UNL     1      -2.233   0.387  -3.464  1.00  0.00     0.046 A 
ATOM     16  N   UNL     1      -1.938   2.267  -4.538  1.00  0.00    -0.272 N 
ATOM     17  C   UNL     1      -2.430   0.230  -4.845  1.00  0.00     0.135 A 
ATOM     18  N   UNL     1      -2.233   1.369  -5.502  1.00  0.00    -0.182 NA
ATOM     19  C   UNL     1      -1.924   3.657  -4.924  1.00  0.00     0.174 C 
ENDBRANCH   9  14
ENDBRANCH   7   9
ENDBRANCH   6   7
ENDBRANCH   5   6
ENDBRANCH   4   5
ENDBRANCH   3   4
ENDBRANCH   2   3
ENDBRANCH   1   2
BRANCH   1  20
ATOM     20  O   UNL     1       1.464  -1.641  -2.936  1.00  0.00    -0.377 OA
BRANCH  20  21
ATOM     21  C   UNL     1       2.830  -1.663  -2.592  1.00  0.00     0.188 C 
BRANCH  21  22
ATOM     22  C   UNL     1       3.753  -1.863  -3.808  1.00  0.00     0.188 C 
BRANCH  22  23
ATOM     23  O   UNL     1       3.270  -1.765  -5.136  1.00  0.00    -0.376 OA
BRANCH  23  24
ATOM     24  C   UNL     1       2.071  -2.365  -5.597  1.00  0.00     0.202 C 
BRANCH  24  25
ATOM     25  C   UNL     1       1.455  -3.682  -5.087  1.00  0.00     0.261 C 
BRANCH  25  26
ATOM     26  O   UNL     1       1.852  -4.164  -3.809  1.00  0.00    -0.460 OA
BRANCH  26  27
ATOM     27  C   UNL     1       2.947  -4.943  -3.802  1.00  0.00     0.338 C 
ATOM     28  O   UNL     1       3.623  -5.292  -4.759  1.00  0.00    -0.246 OA
BRANCH  27  29
ATOM     29  C   UNL     1       3.327  -5.172  -2.399  1.00  0.00     0.060 A 
ATOM     30  C   UNL     1       4.611  -4.785  -1.996  1.00  0.00     0.016 A 
ATOM     31  C   UNL     1       2.440  -5.765  -1.497  1.00  0.00     0.016 A 
ATOM     32  C   UNL     1       5.032  -5.027  -0.698  1.00  0.00     0.010 A 
ATOM     33  C   UNL     1       2.881  -6.055  -0.205  1.00  0.00     0.010 A 
ATOM     34  C   UNL     1       4.195  -5.731   0.173  1.00  0.00    -0.014 A 
BRANCH  34  35
ATOM     35  C   UNL     1       4.827  -6.372   1.343  1.00  0.00     0.031 A 
ATOM     36  C   UNL     1       5.307  -7.789   1.183  1.00  0.00     0.074 A 
ATOM     37  C   UNL     1       5.068  -5.683   2.470  1.00  0.00     0.049 A 
ATOM     38  N   UNL     1       5.944  -8.550   2.032  1.00  0.00    -0.248 NA
ATOM     39  C   UNL     1       5.039  -8.430  -0.118  1.00  0.00     0.031 C 
ATOM     40  C   UNL     1       4.710  -4.285   2.704  1.00  0.00     0.029 A 
ATOM     41  N   UNL     1       5.691  -6.074   3.625  1.00  0.00    -0.354 N 
ATOM     42  C   UNL     1       6.144  -9.757   1.373  1.00  0.00     0.074 A 
ATOM     43  C   UNL     1       5.537  -9.642   0.068  1.00  0.00     0.031 C 
ATOM     44  C   UNL     1       5.118  -3.936   3.937  1.00  0.00     0.029 A 
ATOM     45  C   UNL     1       5.738  -5.092   4.581  1.00  0.00     0.049 A 
ATOM     46  H   UNL     1       6.068  -6.974   3.757  1.00  0.00     0.167 HD
ATOM     47  C   UNL     1       6.784 -10.864   1.815  1.00  0.00     0.031 A 
ATOM     48  C   UNL     1       6.218  -5.135   5.838  1.00  0.00     0.031 A 
ATOM     49  C   UNL     1       7.375 -10.977   3.120  1.00  0.00     0.049 A 
ATOM     50  C   UNL     1       6.856  -6.407   6.333  1.00  0.00     0.074 A 
ATOM     51  C   UNL     1       8.048 -12.052   3.671  1.00  0.00     0.029 A 
ATOM     52  N   UNL     1       7.356  -9.978   4.081  1.00  0.00    -0.354 N 
ATOM     53  N   UNL     1       7.054  -7.538   5.699  1.00  0.00    -0.248 NA
ATOM     54  C   UNL     1       7.357  -6.397   7.714  1.00  0.00     0.031 C 
ATOM     55  C   UNL     1       8.379 -11.727   4.990  1.00  0.00     0.029 A 
ATOM     56  C   UNL     1       7.983 -10.421   5.232  1.00  0.00     0.049 A 
ATOM     57  H   UNL     1       6.956  -9.086   3.963  1.00  0.00     0.167 HD
ATOM     58  C   UNL     1       7.737  -8.359   6.590  1.00  0.00     0.074 A 
ATOM     59  C   UNL     1       7.934  -7.586   7.799  1.00  0.00     0.031 C 
ATOM     60  C   UNL     1       8.169  -9.634   6.425  1.00  0.00     0.031 A 
BRANCH  47  61
ATOM     61  C   UNL     1       6.829 -12.052   0.897  1.00  0.00    -0.014 A 
ATOM     62  C   UNL     1       7.609 -12.053  -0.271  1.00  0.00     0.009 A 
ATOM     63  C   UNL     1       6.096 -13.204   1.223  1.00  0.00     0.009 A 
ATOM     64  C   UNL     1       7.629 -13.172  -1.107  1.00  0.00     0.001 A 
ATOM     65  C   UNL     1       6.143 -14.332   0.404  1.00  0.00     0.001 A 
ATOM     66  C   UNL     1       6.903 -14.312  -0.764  1.00  0.00     0.000 A 
ENDBRANCH  47  61
BRANCH  48  67
ATOM     67  C   UNL     1       6.093  -3.951   6.730  1.00  0.00    -0.014 A 
ATOM     68  C   UNL     1       7.229  -3.261   7.181  1.00  0.00     0.009 A 
ATOM     69  C   UNL     1       4.829  -3.532   7.173  1.00  0.00     0.009 A 
ATOM     70  C   UNL     1       7.104  -2.206   8.087  1.00  0.00     0.001 A 
ATOM     71  C   UNL     1       4.703  -2.454   8.051  1.00  0.00     0.001 A 
ATOM     72  C   UNL     1       5.841  -1.801   8.519  1.00  0.00     0.000 A 
ENDBRANCH  48  67
BRANCH  60  73
ATOM     73  C   UNL     1       8.950 -10.247   7.556  1.00  0.00    -0.014 A 
ATOM     74  C   UNL     1       8.350 -10.559   8.786  1.00  0.00     0.009 A 
ATOM     75  C   UNL     1      10.314 -10.529   7.376  1.00  0.00     0.009 A 
ATOM     76  C   UNL     1       9.114 -11.086   9.830  1.00  0.00     0.001 A 
ATOM     77  C   UNL     1      11.065 -11.094   8.406  1.00  0.00     0.001 A 
ATOM     78  C   UNL     1      10.469 -11.356   9.638  1.00  0.00     0.000 A 
ENDBRANCH  60  73
ENDBRANCH  34  35
ENDBRANCH  27  29
ENDBRANCH  26  27
ENDBRANCH  25  26
ENDBRANCH  24  25
ENDBRANCH  23  24
ENDBRANCH  22  23
ENDBRANCH  21  22
ENDBRANCH  20  21
ENDBRANCH   1  20
TORSDOF 24
