REMARK SMILES COc1ccc2c(c1)c(CC(=O)OCCOCCOCCOCCOC(=O)c1ccc(-c3c4nc(c(-c5ccccc5)c5ccc([nH]5)c(-c5ccccc5)c5nc(c(-c6ccccc6)c6ccc3[nH]6)C=C5)C=C4)cc1)c(C)n2Cc1ccn(C(F)F)c(=O)c1
REMARK SMILES IDX 18 1 17 2 16 3 15 4 14 5 13 6 11 7 12 8 10 9 9 10 3 11 4 12
REMARK SMILES IDX 8 13 5 14 7 15 6 16 78 17 76 18 77 19 2 20 1 21 79 22 80 23
REMARK SMILES IDX 81 24 89 25 82 26 87 27 83 28 88 29 84 30 85 31 86 32 19 33
REMARK SMILES IDX 20 34 21 35 22 36 23 37 24 38 25 39 26 40 27 41 28 42 29 43
REMARK SMILES IDX 75 44 30 45 74 46 31 47 32 48 33 49 68 50 34 51 73 52 67 53
REMARK SMILES IDX 69 54 35 55 72 56 66 57 65 58 36 60 58 61 43 62 57 63 44 64
REMARK SMILES IDX 47 65 56 66 70 67 45 68 46 69 55 71 71 72 48 73 37 74 38 75
REMARK SMILES IDX 42 76 39 77 41 78 40 79 59 80 60 81 64 82 61 83 63 84 62 85
REMARK SMILES IDX 49 86 50 87 54 88 51 89 53 90 52 91
REMARK H PARENT 69 59 47 70
REMARK Flexibility Score: inf
ROOT
ATOM      1  C   UNL     1      -1.125   1.176  -4.057  1.00  0.00     0.188 C 
ENDROOT
BRANCH   1   2
ATOM      2  C   UNL     1      -2.517   0.657  -4.395  1.00  0.00     0.188 C 
BRANCH   2   3
ATOM      3  O   UNL     1      -2.693   0.315  -5.760  1.00  0.00    -0.376 OA
BRANCH   3   4
ATOM      4  C   UNL     1      -3.329   1.276  -6.591  1.00  0.00     0.202 C 
BRANCH   4   5
ATOM      5  C   UNL     1      -2.519   2.529  -6.981  1.00  0.00     0.261 C 
BRANCH   5   6
ATOM      6  O   UNL     1      -1.955   3.303  -5.899  1.00  0.00    -0.463 OA
BRANCH   6   7
ATOM      7  C   UNL     1      -2.768   4.103  -5.171  1.00  0.00     0.310 C 
ATOM      8  O   UNL     1      -3.966   4.229  -5.415  1.00  0.00    -0.252 OA
BRANCH   7   9
ATOM      9  C   UNL     1      -2.121   4.758  -3.944  1.00  0.00     0.160 C 
BRANCH   9  10
ATOM     10  C   UNL     1      -0.609   4.760  -3.801  1.00  0.00    -0.008 A 
ATOM     11  C   UNL     1       0.806   2.399  -1.113  1.00  0.00     0.119 A 
ATOM     12  C   UNL     1       2.139   2.550  -1.469  1.00  0.00     0.048 A 
ATOM     13  C   UNL     1      -0.170   3.164  -1.765  1.00  0.00     0.057 A 
ATOM     14  C   UNL     1       2.516   3.452  -2.478  1.00  0.00     0.031 A 
ATOM     15  C   UNL     1       0.165   4.014  -2.845  1.00  0.00     0.007 A 
ATOM     16  C   UNL     1       1.516   4.187  -3.151  1.00  0.00     0.049 A 
ATOM     17  N   UNL     1       1.586   5.173  -4.129  1.00  0.00    -0.340 N 
ATOM     18  C   UNL     1       0.297   5.604  -4.433  1.00  0.00     0.020 A 
ATOM     19  C   UNL     1      -0.021   6.796  -5.261  1.00  0.00     0.065 C 
BRANCH  11  20
ATOM     20  O   UNL     1       0.303   1.526  -0.188  1.00  0.00    -0.497 OA
ATOM     21  C   UNL     1       1.177   0.549   0.363  1.00  0.00     0.278 C 
ENDBRANCH  11  20
BRANCH  17  22
ATOM     22  C   UNL     1       2.849   5.805  -4.555  1.00  0.00     0.158 C 
BRANCH  22  23
ATOM     23  C   UNL     1       3.255   5.562  -5.993  1.00  0.00    -0.021 A 
ATOM     24  C   UNL     1       2.707   6.420  -7.024  1.00  0.00     0.024 A 
ATOM     25  C   UNL     1       4.190   4.663  -6.353  1.00  0.00     0.077 A 
ATOM     26  C   UNL     1       2.973   6.207  -8.316  1.00  0.00     0.095 A 
ATOM     27  C   UNL     1       4.573   4.472  -7.788  1.00  0.00     0.255 A 
ATOM     28  N   UNL     1       3.853   5.219  -8.706  1.00  0.00    -0.258 N 
ATOM     29  O   UNL     1       5.473   3.682  -8.054  1.00  0.00    -0.269 OA
BRANCH  28  30
ATOM     30  C   UNL     1       4.136   5.022 -10.106  1.00  0.00     0.451 C 
ATOM     31  F   UNL     1       5.352   5.526 -10.425  1.00  0.00    -0.185 F 
ATOM     32  F   UNL     1       4.122   3.710 -10.440  1.00  0.00    -0.185 F 
ENDBRANCH  28  30
ENDBRANCH  22  23
ENDBRANCH  17  22
ENDBRANCH   9  10
ENDBRANCH   7   9
ENDBRANCH   6   7
ENDBRANCH   5   6
ENDBRANCH   4   5
ENDBRANCH   3   4
ENDBRANCH   2   3
ENDBRANCH   1   2
BRANCH   1  33
ATOM     33  O   UNL     1       0.054   0.634  -4.595  1.00  0.00    -0.377 OA
BRANCH  33  34
ATOM     34  C   UNL     1      -0.040  -0.355  -5.580  1.00  0.00     0.188 C 
BRANCH  34  35
ATOM     35  C   UNL     1      -0.406  -1.749  -5.062  1.00  0.00     0.188 C 
BRANCH  35  36
ATOM     36  O   UNL     1       0.025  -2.228  -3.787  1.00  0.00    -0.376 OA
BRANCH  36  37
ATOM     37  C   UNL     1       0.982  -1.510  -3.023  1.00  0.00     0.202 C 
BRANCH  37  38
ATOM     38  C   UNL     1       2.448  -1.546  -3.492  1.00  0.00     0.261 C 
BRANCH  38  39
ATOM     39  O   UNL     1       2.604  -1.355  -4.901  1.00  0.00    -0.460 OA
BRANCH  39  40
ATOM     40  C   UNL     1       3.172  -2.354  -5.619  1.00  0.00     0.338 C 
ATOM     41  O   UNL     1       3.828  -3.294  -5.205  1.00  0.00    -0.246 OA
BRANCH  40  42
ATOM     42  C   UNL     1       2.560  -2.277  -6.964  1.00  0.00     0.060 A 
ATOM     43  C   UNL     1       2.538  -1.074  -7.674  1.00  0.00     0.016 A 
ATOM     44  C   UNL     1       1.722  -3.341  -7.329  1.00  0.00     0.016 A 
ATOM     45  C   UNL     1       1.555  -0.890  -8.644  1.00  0.00     0.010 A 
ATOM     46  C   UNL     1       0.737  -3.150  -8.299  1.00  0.00     0.010 A 
ATOM     47  C   UNL     1       0.616  -1.906  -8.922  1.00  0.00    -0.014 A 
BRANCH  47  48
ATOM     48  C   UNL     1      -0.285  -1.687 -10.061  1.00  0.00     0.031 A 
ATOM     49  C   UNL     1       0.463  -1.496 -11.333  1.00  0.00     0.074 A 
ATOM     50  C   UNL     1      -1.627  -1.814 -10.137  1.00  0.00     0.049 A 
ATOM     51  N   UNL     1       0.426  -0.496 -12.152  1.00  0.00    -0.248 NA
ATOM     52  C   UNL     1       1.463  -2.527 -11.660  1.00  0.00     0.031 C 
ATOM     53  C   UNL     1      -2.556  -2.343  -9.140  1.00  0.00     0.029 A 
ATOM     54  N   UNL     1      -2.432  -1.587 -11.226  1.00  0.00    -0.354 N 
ATOM     55  C   UNL     1       1.321  -0.820 -13.165  1.00  0.00     0.074 A 
ATOM     56  C   UNL     1       2.019  -2.010 -12.750  1.00  0.00     0.031 C 
ATOM     57  C   UNL     1      -3.740  -2.615  -9.743  1.00  0.00     0.029 A 
ATOM     58  C   UNL     1      -3.690  -2.164 -11.128  1.00  0.00     0.049 A 
ATOM     59  H   UNL     1      -2.143  -1.062 -12.007  1.00  0.00     0.167 HD
ATOM     60  C   UNL     1       1.332  -0.201 -14.373  1.00  0.00     0.031 A 
ATOM     61  C   UNL     1      -4.585  -2.330 -12.133  1.00  0.00     0.031 A 
ATOM     62  C   UNL     1       0.642   1.056 -14.366  1.00  0.00     0.049 A 
ATOM     63  C   UNL     1      -4.231  -1.418 -13.244  1.00  0.00     0.074 A 
ATOM     64  C   UNL     1       0.809   2.255 -13.704  1.00  0.00     0.029 A 
ATOM     65  N   UNL     1      -0.615   1.094 -14.914  1.00  0.00    -0.354 N 
ATOM     66  N   UNL     1      -4.375  -0.127 -13.213  1.00  0.00    -0.248 NA
ATOM     67  C   UNL     1      -3.443  -1.931 -14.354  1.00  0.00     0.031 C 
ATOM     68  C   UNL     1      -0.506   2.774 -13.525  1.00  0.00     0.029 A 
ATOM     69  C   UNL     1      -1.400   1.863 -14.092  1.00  0.00     0.049 A 
ATOM     70  H   UNL     1      -0.901   0.650 -15.744  1.00  0.00     0.167 HD
ATOM     71  C   UNL     1      -3.367   0.359 -14.029  1.00  0.00     0.074 A 
ATOM     72  C   UNL     1      -2.938  -0.787 -14.819  1.00  0.00     0.031 C 
ATOM     73  C   UNL     1      -2.784   1.569 -13.782  1.00  0.00     0.031 A 
BRANCH  60  74
ATOM     74  C   UNL     1       1.721  -0.919 -15.634  1.00  0.00    -0.014 A 
ATOM     75  C   UNL     1       1.664  -2.324 -15.754  1.00  0.00     0.009 A 
ATOM     76  C   UNL     1       1.931  -0.191 -16.814  1.00  0.00     0.009 A 
ATOM     77  C   UNL     1       1.849  -2.975 -16.973  1.00  0.00     0.001 A 
ATOM     78  C   UNL     1       2.067  -0.838 -18.048  1.00  0.00     0.001 A 
ATOM     79  C   UNL     1       2.033  -2.229 -18.126  1.00  0.00     0.000 A 
ENDBRANCH  60  74
BRANCH  61  80
ATOM     80  C   UNL     1      -5.592  -3.397 -12.335  1.00  0.00    -0.014 A 
ATOM     81  C   UNL     1      -5.376  -4.684 -11.814  1.00  0.00     0.009 A 
ATOM     82  C   UNL     1      -6.619  -3.241 -13.284  1.00  0.00     0.009 A 
ATOM     83  C   UNL     1      -6.123  -5.781 -12.256  1.00  0.00     0.001 A 
ATOM     84  C   UNL     1      -7.361  -4.341 -13.734  1.00  0.00     0.001 A 
ATOM     85  C   UNL     1      -7.101  -5.613 -13.231  1.00  0.00     0.000 A 
ENDBRANCH  61  80
BRANCH  73  86
ATOM     86  C   UNL     1      -3.495   2.529 -12.855  1.00  0.00    -0.014 A 
ATOM     87  C   UNL     1      -3.666   3.859 -13.273  1.00  0.00     0.009 A 
ATOM     88  C   UNL     1      -3.885   2.193 -11.547  1.00  0.00     0.009 A 
ATOM     89  C   UNL     1      -4.213   4.818 -12.417  1.00  0.00     0.001 A 
ATOM     90  C   UNL     1      -4.466   3.144 -10.701  1.00  0.00     0.001 A 
ATOM     91  C   UNL     1      -4.621   4.459 -11.134  1.00  0.00     0.000 A 
ENDBRANCH  73  86
ENDBRANCH  47  48
ENDBRANCH  40  42
ENDBRANCH  39  40
ENDBRANCH  38  39
ENDBRANCH  37  38
ENDBRANCH  36  37
ENDBRANCH  35  36
ENDBRANCH  34  35
ENDBRANCH  33  34
ENDBRANCH   1  33
TORSDOF 25
