REMARK SMILES CC[NH2+][C@@]1(C(=O)OCCOCCOCCOCCOC(=O)c2ccc(-c3c4nc(c(-c5ccccc5)c5ccc([nH]5)c(-c5ccccc5)c5nc(c(-c6ccccc6)c6ccc3[nH]6)C=C5)C=C4)cc2)CC[C@@H](SCC2CCCC2)C1
REMARK SMILES IDX 12 1 11 2 10 3 9 4 8 5 7 6 5 7 6 8 4 9 70 10 80 11 71 12
REMARK SMILES IDX 72 13 3 14 2 17 1 18 73 19 74 20 75 21 76 22 79 23 77 24
REMARK SMILES IDX 78 25 13 26 14 27 15 28 16 29 17 30 18 31 19 32 20 33 21 34
REMARK SMILES IDX 22 35 23 36 69 37 24 38 68 39 25 40 26 41 27 42 62 43 28 44
REMARK SMILES IDX 67 45 61 46 63 47 29 48 66 49 60 50 59 51 30 53 52 54 37 55
REMARK SMILES IDX 51 56 38 57 41 58 50 59 64 60 39 61 40 62 49 64 65 65 42 66
REMARK SMILES IDX 31 67 32 68 36 69 33 70 35 71 34 72 53 73 54 74 58 75 55 76
REMARK SMILES IDX 57 77 56 78 43 79 44 80 48 81 45 82 47 83 46 84
REMARK H PARENT 3 15 3 16 63 52 41 63
REMARK Flexibility Score: inf
ROOT
ATOM      1  C   UNL     1       3.353  -0.750   4.341  1.00  0.00     0.188 C 
ENDROOT
BRANCH   1   2
ATOM      2  C   UNL     1       4.207   0.501   4.094  1.00  0.00     0.188 C 
BRANCH   2   3
ATOM      3  O   UNL     1       4.788   1.248   5.147  1.00  0.00    -0.376 OA
BRANCH   3   4
ATOM      4  C   UNL     1       4.138   1.634   6.345  1.00  0.00     0.202 C 
BRANCH   4   5
ATOM      5  C   UNL     1       2.664   2.046   6.487  1.00  0.00     0.261 C 
BRANCH   5   6
ATOM      6  O   UNL     1       1.683   1.236   5.838  1.00  0.00    -0.459 OA
BRANCH   6   7
ATOM      7  C   UNL     1       1.415   1.635   4.578  1.00  0.00     0.368 C 
ATOM      8  O   UNL     1       1.975   2.589   4.032  1.00  0.00    -0.245 OA
BRANCH   7   9
ATOM      9  C   UNL     1       0.224   0.909   3.892  1.00  0.00     0.195 C 
ATOM     10  C   UNL     1      -0.922   1.754   4.462  1.00  0.00     0.082 C 
ATOM     11  C   UNL     1      -0.184  -0.547   4.248  1.00  0.00     0.095 C 
ATOM     12  C   UNL     1      -1.443   0.974   5.673  1.00  0.00     0.022 C 
ATOM     13  C   UNL     1      -1.186  -0.498   5.392  1.00  0.00     0.053 C 
BRANCH   9  14
ATOM     14  N   UNL     1       0.404   1.155   2.419  1.00  0.00    -0.332 N 
ATOM     15  H   UNL     1      -0.368   1.748   2.115  1.00  0.00     0.347 HD
ATOM     16  H   UNL     1       1.336   1.562   2.344  1.00  0.00     0.347 HD
BRANCH  14  17
ATOM     17  C   UNL     1       0.440   0.001   1.525  1.00  0.00     0.257 C 
ATOM     18  C   UNL     1       1.068   0.347   0.181  1.00  0.00     0.071 C 
ENDBRANCH  14  17
ENDBRANCH   9  14
BRANCH  13  19
ATOM     19  S   UNL     1      -2.695  -1.576   5.286  1.00  0.00    -0.158 SA
BRANCH  19  20
ATOM     20  C   UNL     1      -3.398  -1.404   3.587  1.00  0.00     0.073 C 
BRANCH  20  21
ATOM     21  C   UNL     1      -4.431  -0.280   3.428  1.00  0.00    -0.001 C 
ATOM     22  C   UNL     1      -3.783   1.073   3.258  1.00  0.00     0.004 C 
ATOM     23  C   UNL     1      -5.254  -0.352   2.138  1.00  0.00     0.004 C 
ATOM     24  C   UNL     1      -4.804   1.996   2.641  1.00  0.00     0.000 C 
ATOM     25  C   UNL     1      -5.764   1.076   1.910  1.00  0.00     0.000 C 
ENDBRANCH  20  21
ENDBRANCH  19  20
ENDBRANCH  13  19
ENDBRANCH   7   9
ENDBRANCH   6   7
ENDBRANCH   5   6
ENDBRANCH   4   5
ENDBRANCH   3   4
ENDBRANCH   2   3
ENDBRANCH   1   2
BRANCH   1  26
ATOM     26  O   UNL     1       2.929  -0.959   5.671  1.00  0.00    -0.377 OA
BRANCH  26  27
ATOM     27  C   UNL     1       3.808  -1.623   6.568  1.00  0.00     0.188 C 
BRANCH  27  28
ATOM     28  C   UNL     1       5.311  -1.692   6.235  1.00  0.00     0.188 C 
BRANCH  28  29
ATOM     29  O   UNL     1       5.600  -1.998   4.882  1.00  0.00    -0.376 OA
BRANCH  29  30
ATOM     30  C   UNL     1       5.797  -3.347   4.493  1.00  0.00     0.202 C 
BRANCH  30  31
ATOM     31  C   UNL     1       4.671  -4.364   4.748  1.00  0.00     0.261 C 
BRANCH  31  32
ATOM     32  O   UNL     1       4.254  -4.542   6.112  1.00  0.00    -0.460 OA
BRANCH  32  33
ATOM     33  C   UNL     1       5.189  -4.844   7.032  1.00  0.00     0.338 C 
ATOM     34  O   UNL     1       6.373  -5.074   6.836  1.00  0.00    -0.246 OA
BRANCH  33  35
ATOM     35  C   UNL     1       4.592  -4.647   8.367  1.00  0.00     0.060 A 
ATOM     36  C   UNL     1       5.184  -3.729   9.246  1.00  0.00     0.016 A 
ATOM     37  C   UNL     1       3.466  -5.375   8.758  1.00  0.00     0.016 A 
ATOM     38  C   UNL     1       4.685  -3.576  10.537  1.00  0.00     0.010 A 
ATOM     39  C   UNL     1       2.983  -5.241  10.063  1.00  0.00     0.010 A 
ATOM     40  C   UNL     1       3.620  -4.376  10.970  1.00  0.00    -0.014 A 
BRANCH  40  41
ATOM     41  C   UNL     1       3.337  -4.473  12.421  1.00  0.00     0.031 A 
ATOM     42  C   UNL     1       3.922  -5.633  13.182  1.00  0.00     0.074 A 
ATOM     43  C   UNL     1       2.624  -3.533  13.064  1.00  0.00     0.049 A 
ATOM     44  N   UNL     1       3.807  -5.940  14.448  1.00  0.00    -0.248 NA
ATOM     45  C   UNL     1       4.749  -6.574  12.407  1.00  0.00     0.031 C 
ATOM     46  C   UNL     1       2.054  -2.334  12.452  1.00  0.00     0.029 A 
ATOM     47  N   UNL     1       2.260  -3.446  14.384  1.00  0.00    -0.354 N 
ATOM     48  C   UNL     1       4.535  -7.112  14.617  1.00  0.00     0.074 A 
ATOM     49  C   UNL     1       5.060  -7.478  13.322  1.00  0.00     0.031 C 
ATOM     50  C   UNL     1       1.405  -1.632  13.398  1.00  0.00     0.029 A 
ATOM     51  C   UNL     1       1.485  -2.350  14.669  1.00  0.00     0.049 A 
ATOM     52  H   UNL     1       2.530  -4.108  15.062  1.00  0.00     0.167 HD
ATOM     53  C   UNL     1       4.752  -7.818  15.751  1.00  0.00     0.031 A 
ATOM     54  C   UNL     1       0.891  -1.982  15.821  1.00  0.00     0.031 A 
ATOM     55  C   UNL     1       4.215  -7.463  17.037  1.00  0.00     0.049 A 
ATOM     56  C   UNL     1       1.075  -2.833  17.052  1.00  0.00     0.074 A 
ATOM     57  C   UNL     1       4.386  -8.107  18.250  1.00  0.00     0.029 A 
ATOM     58  N   UNL     1       3.395  -6.372  17.275  1.00  0.00    -0.354 N 
ATOM     59  N   UNL     1       1.784  -3.926  17.207  1.00  0.00    -0.248 NA
ATOM     60  C   UNL     1       0.384  -2.389  18.271  1.00  0.00     0.031 C 
ATOM     61  C   UNL     1       3.612  -7.445  19.208  1.00  0.00     0.029 A 
ATOM     62  C   UNL     1       3.024  -6.342  18.609  1.00  0.00     0.049 A 
ATOM     63  H   UNL     1       3.117  -5.715  16.596  1.00  0.00     0.167 HD
ATOM     64  C   UNL     1       1.652  -4.279  18.545  1.00  0.00     0.074 A 
ATOM     65  C   UNL     1       0.809  -3.275  19.160  1.00  0.00     0.031 C 
ATOM     66  C   UNL     1       2.182  -5.338  19.207  1.00  0.00     0.031 A 
BRANCH  53  67
ATOM     67  C   UNL     1       5.569  -9.076  15.637  1.00  0.00    -0.014 A 
ATOM     68  C   UNL     1       6.946  -9.037  15.366  1.00  0.00     0.009 A 
ATOM     69  C   UNL     1       4.952 -10.322  15.829  1.00  0.00     0.009 A 
ATOM     70  C   UNL     1       7.679 -10.220  15.254  1.00  0.00     0.001 A 
ATOM     71  C   UNL     1       5.693 -11.502  15.749  1.00  0.00     0.001 A 
ATOM     72  C   UNL     1       7.053 -11.451  15.452  1.00  0.00     0.000 A 
ENDBRANCH  53  67
BRANCH  54  73
ATOM     73  C   UNL     1       0.042  -0.761  15.868  1.00  0.00    -0.014 A 
ATOM     74  C   UNL     1       0.429   0.356  16.623  1.00  0.00     0.009 A 
ATOM     75  C   UNL     1      -1.180  -0.721  15.178  1.00  0.00     0.009 A 
ATOM     76  C   UNL     1      -0.403   1.475  16.711  1.00  0.00     0.001 A 
ATOM     77  C   UNL     1      -1.994   0.412  15.240  1.00  0.00     0.001 A 
ATOM     78  C   UNL     1      -1.611   1.505  16.015  1.00  0.00     0.000 A 
ENDBRANCH  54  73
BRANCH  66  79
ATOM     79  C   UNL     1       1.908  -5.439  20.684  1.00  0.00    -0.014 A 
ATOM     80  C   UNL     1       0.629  -5.739  21.177  1.00  0.00     0.009 A 
ATOM     81  C   UNL     1       2.962  -5.263  21.596  1.00  0.00     0.009 A 
ATOM     82  C   UNL     1       0.403  -5.817  22.554  1.00  0.00     0.001 A 
ATOM     83  C   UNL     1       2.741  -5.378  22.969  1.00  0.00     0.001 A 
ATOM     84  C   UNL     1       1.459  -5.642  23.447  1.00  0.00     0.000 A 
ENDBRANCH  66  79
ENDBRANCH  40  41
ENDBRANCH  33  35
ENDBRANCH  32  33
ENDBRANCH  31  32
ENDBRANCH  30  31
ENDBRANCH  29  30
ENDBRANCH  28  29
ENDBRANCH  27  28
ENDBRANCH  26  27
ENDBRANCH   1  26
TORSDOF 25
