REMARK SMILES O=C(OCCOCCOCCOCCOC(=O)c1ccc([C@@H]2CC(O)=Nc3c2ncn3-c2cccc(Cl)c2)cc1)c1ccc(-c2c3nc(c(-c4ccccc4)c4ccc([nH]4)c(-c4ccccc4)c4nc(c(-c5ccccc5)c5ccc2[nH]5)C=C4)C=C3)cc1
REMARK SMILES IDX 9 1 8 2 7 3 6 4 5 5 4 6 3 7 2 8 1 9 41 10 42 11 88 12 43 13
REMARK SMILES IDX 87 14 44 15 45 16 46 17 81 18 47 19 86 20 80 21 82 22 48 23
REMARK SMILES IDX 85 24 79 25 78 26 49 28 71 29 56 30 70 31 57 32 60 33 69 34
REMARK SMILES IDX 83 35 58 36 59 37 68 39 84 40 61 41 50 42 51 43 55 44 52 45
REMARK SMILES IDX 54 46 53 47 72 48 73 49 77 50 74 51 76 52 75 53 62 54 63 55
REMARK SMILES IDX 67 56 64 57 66 58 65 59 10 60 11 61 12 62 13 63 14 64 15 65
REMARK SMILES IDX 16 66 17 67 18 68 19 69 40 70 20 71 39 72 21 73 22 74 23 75
REMARK SMILES IDX 28 76 24 77 27 78 29 79 26 80 31 81 30 82 25 83 32 85 33 86
REMARK SMILES IDX 38 87 34 88 36 89 35 90 37 91
REMARK H PARENT 82 27 60 38 25 84
REMARK Flexibility Score: inf
ROOT
ATOM      1  O   UNL     1       2.817  -0.292   3.370  1.00  0.00    -0.377 OA
ENDROOT
BRANCH   1   2
ATOM      2  C   UNL     1       2.271  -0.373   2.066  1.00  0.00     0.188 C 
BRANCH   2   3
ATOM      3  C   UNL     1       2.961  -1.263   1.010  1.00  0.00     0.188 C 
BRANCH   3   4
ATOM      4  O   UNL     1       4.284  -1.147   0.506  1.00  0.00    -0.376 OA
BRANCH   4   5
ATOM      5  C   UNL     1       5.072  -0.003   0.266  1.00  0.00     0.202 C 
BRANCH   5   6
ATOM      6  C   UNL     1       4.558   1.264  -0.405  1.00  0.00     0.261 C 
BRANCH   6   7
ATOM      7  O   UNL     1       3.180   1.536  -0.214  1.00  0.00    -0.460 OA
BRANCH   7   8
ATOM      8  C   UNL     1       2.143   1.114  -0.959  1.00  0.00     0.338 C 
ATOM      9  O   UNL     1       1.032   1.587  -0.721  1.00  0.00    -0.246 OA
BRANCH   8  10
ATOM     10  C   UNL     1       2.221   0.037  -1.989  1.00  0.00     0.060 A 
ATOM     11  C   UNL     1       3.354  -0.383  -2.688  1.00  0.00     0.016 A 
ATOM     12  C   UNL     1       0.981  -0.562  -2.293  1.00  0.00     0.016 A 
ATOM     13  C   UNL     1       3.218  -1.203  -3.794  1.00  0.00     0.010 A 
ATOM     14  C   UNL     1       0.843  -1.409  -3.376  1.00  0.00     0.010 A 
ATOM     15  C   UNL     1       1.949  -1.630  -4.179  1.00  0.00    -0.014 A 
BRANCH  15  16
ATOM     16  C   UNL     1       1.831  -2.269  -5.474  1.00  0.00     0.031 A 
ATOM     17  C   UNL     1       2.590  -3.533  -5.624  1.00  0.00     0.074 A 
ATOM     18  C   UNL     1       1.104  -1.720  -6.465  1.00  0.00     0.049 A 
ATOM     19  N   UNL     1       3.615  -3.750  -6.379  1.00  0.00    -0.248 NA
ATOM     20  C   UNL     1       2.246  -4.647  -4.730  1.00  0.00     0.031 C 
ATOM     21  C   UNL     1       0.143  -0.614  -6.399  1.00  0.00     0.029 A 
ATOM     22  N   UNL     1       1.020  -2.115  -7.761  1.00  0.00    -0.354 N 
ATOM     23  C   UNL     1       3.956  -5.084  -6.184  1.00  0.00     0.074 A 
ATOM     24  C   UNL     1       3.164  -5.552  -5.074  1.00  0.00     0.031 C 
ATOM     25  C   UNL     1      -0.597  -0.598  -7.532  1.00  0.00     0.029 A 
ATOM     26  C   UNL     1      -0.052  -1.578  -8.456  1.00  0.00     0.049 A 
ATOM     27  H   UNL     1       1.668  -2.732  -8.174  1.00  0.00     0.167 HD
ATOM     28  C   UNL     1       4.717  -5.766  -7.083  1.00  0.00     0.031 A 
ATOM     29  C   UNL     1      -0.486  -1.962  -9.681  1.00  0.00     0.031 A 
ATOM     30  C   UNL     1       5.452  -4.885  -7.949  1.00  0.00     0.049 A 
ATOM     31  C   UNL     1       0.634  -2.664 -10.349  1.00  0.00     0.074 A 
ATOM     32  C   UNL     1       6.439  -3.940  -7.751  1.00  0.00     0.029 A 
ATOM     33  N   UNL     1       4.925  -4.625  -9.191  1.00  0.00    -0.354 N 
ATOM     34  N   UNL     1       1.726  -2.062 -10.726  1.00  0.00    -0.248 NA
ATOM     35  C   UNL     1       0.744  -4.104 -10.171  1.00  0.00     0.031 C 
ATOM     36  C   UNL     1       6.110  -2.878  -8.643  1.00  0.00     0.029 A 
ATOM     37  C   UNL     1       4.992  -3.268  -9.383  1.00  0.00     0.049 A 
ATOM     38  H   UNL     1       4.567  -5.288  -9.824  1.00  0.00     0.167 HD
ATOM     39  C   UNL     1       2.746  -2.947 -10.409  1.00  0.00     0.074 A 
ATOM     40  C   UNL     1       2.075  -4.222 -10.154  1.00  0.00     0.031 C 
ATOM     41  C   UNL     1       4.002  -2.503 -10.108  1.00  0.00     0.031 A 
BRANCH  28  42
ATOM     42  C   UNL     1       4.484  -7.216  -7.412  1.00  0.00    -0.014 A 
ATOM     43  C   UNL     1       5.356  -7.867  -8.300  1.00  0.00     0.009 A 
ATOM     44  C   UNL     1       3.280  -7.879  -7.102  1.00  0.00     0.009 A 
ATOM     45  C   UNL     1       5.009  -9.088  -8.893  1.00  0.00     0.001 A 
ATOM     46  C   UNL     1       2.948  -9.114  -7.662  1.00  0.00     0.001 A 
ATOM     47  C   UNL     1       3.802  -9.706  -8.579  1.00  0.00     0.000 A 
ENDBRANCH  28  42
BRANCH  29  48
ATOM     48  C   UNL     1      -1.883  -2.067 -10.153  1.00  0.00    -0.014 A 
ATOM     49  C   UNL     1      -2.176  -2.171 -11.521  1.00  0.00     0.009 A 
ATOM     50  C   UNL     1      -2.914  -2.351  -9.238  1.00  0.00     0.009 A 
ATOM     51  C   UNL     1      -3.445  -2.580 -11.955  1.00  0.00     0.001 A 
ATOM     52  C   UNL     1      -4.180  -2.759  -9.670  1.00  0.00     0.001 A 
ATOM     53  C   UNL     1      -4.441  -2.888 -11.030  1.00  0.00     0.000 A 
ENDBRANCH  29  48
BRANCH  41  54
ATOM     54  C   UNL     1       4.301  -1.037 -10.312  1.00  0.00    -0.014 A 
ATOM     55  C   UNL     1       3.629  -0.011  -9.622  1.00  0.00     0.009 A 
ATOM     56  C   UNL     1       5.403  -0.688 -11.107  1.00  0.00     0.009 A 
ATOM     57  C   UNL     1       4.032   1.324  -9.748  1.00  0.00     0.001 A 
ATOM     58  C   UNL     1       5.818   0.641 -11.217  1.00  0.00     0.001 A 
ATOM     59  C   UNL     1       5.130   1.647 -10.542  1.00  0.00     0.000 A 
ENDBRANCH  41  54
ENDBRANCH  15  16
ENDBRANCH   8  10
ENDBRANCH   7   8
ENDBRANCH   6   7
ENDBRANCH   5   6
ENDBRANCH   4   5
ENDBRANCH   3   4
ENDBRANCH   2   3
ENDBRANCH   1   2
BRANCH   1  60
ATOM     60  C   UNL     1       4.157   0.147   3.410  1.00  0.00     0.188 C 
BRANCH  60  61
ATOM     61  C   UNL     1       5.142  -1.024   3.554  1.00  0.00     0.188 C 
BRANCH  61  62
ATOM     62  O   UNL     1       4.662  -2.338   3.361  1.00  0.00    -0.376 OA
BRANCH  62  63
ATOM     63  C   UNL     1       3.626  -2.877   4.169  1.00  0.00     0.202 C 
BRANCH  63  64
ATOM     64  C   UNL     1       3.149  -2.342   5.540  1.00  0.00     0.261 C 
BRANCH  64  65
ATOM     65  O   UNL     1       3.585  -1.054   5.976  1.00  0.00    -0.460 OA
BRANCH  65  66
ATOM     66  C   UNL     1       4.703  -1.024   6.728  1.00  0.00     0.338 C 
ATOM     67  O   UNL     1       5.394  -1.972   7.071  1.00  0.00    -0.246 OA
BRANCH  66  68
ATOM     68  C   UNL     1       5.094   0.386   6.905  1.00  0.00     0.060 A 
ATOM     69  C   UNL     1       6.290   0.825   6.326  1.00  0.00     0.016 A 
ATOM     70  C   UNL     1       4.290   1.268   7.625  1.00  0.00     0.016 A 
ATOM     71  C   UNL     1       6.689   2.148   6.470  1.00  0.00     0.005 A 
ATOM     72  C   UNL     1       4.727   2.580   7.824  1.00  0.00     0.005 A 
ATOM     73  C   UNL     1       5.939   3.030   7.262  1.00  0.00    -0.038 A 
BRANCH  73  74
ATOM     74  C   UNL     1       6.574   4.361   7.621  1.00  0.00     0.081 C 
ATOM     75  C   UNL     1       7.124   4.301   9.062  1.00  0.00     0.111 C 
ATOM     76  C   UNL     1       5.565   5.428   7.453  1.00  0.00     0.093 A 
ATOM     77  C   UNL     1       6.484   5.271  10.038  1.00  0.00     0.188 C 
ATOM     78  C   UNL     1       5.232   6.267   8.492  1.00  0.00     0.164 A 
ATOM     79  N   UNL     1       4.855   5.709   6.320  1.00  0.00    -0.238 NA
ATOM     80  N   UNL     1       5.640   6.218   9.783  1.00  0.00    -0.198 NA
ATOM     81  N   UNL     1       4.266   7.109   7.978  1.00  0.00    -0.283 N 
ATOM     82  C   UNL     1       4.052   6.690   6.679  1.00  0.00     0.206 A 
BRANCH  77  83
ATOM     83  O   UNL     1       6.889   5.101  11.313  1.00  0.00    -0.496 OA
ATOM     84  H   UNL     1       7.500   4.422  11.524  1.00  0.00     0.294 HD
ENDBRANCH  77  83
BRANCH  81  85
ATOM     85  C   UNL     1       3.627   8.189   8.629  1.00  0.00     0.050 A 
ATOM     86  C   UNL     1       2.272   8.448   8.390  1.00  0.00     0.027 A 
ATOM     87  C   UNL     1       4.363   9.003   9.499  1.00  0.00     0.047 A 
ATOM     88  C   UNL     1       1.648   9.509   9.049  1.00  0.00     0.004 A 
ATOM     89  C   UNL     1       3.740  10.089  10.109  1.00  0.00     0.043 A 
ATOM     90  C   UNL     1       2.385  10.337   9.898  1.00  0.00     0.020 A 
ATOM     91  Cl  UNL     1       4.657  11.147  11.110  1.00  0.00    -0.084 Cl
ENDBRANCH  81  85
ENDBRANCH  73  74
ENDBRANCH  66  68
ENDBRANCH  65  66
ENDBRANCH  64  65
ENDBRANCH  63  64
ENDBRANCH  62  63
ENDBRANCH  61  62
ENDBRANCH  60  61
ENDBRANCH   1  60
TORSDOF 23
