REMARK SMILES Cc1cccc(-n2c(C)cc(/C=N\c3ccc(O)c(C(=O)OCCOCCOCCOCCOC(=O)c4ccc(-c5c6nc(c(-c7ccccc7)c7ccc([nH]7)c(-c7ccccc7)c7nc(c(-c8ccccc8)c8ccc5[nH]8)C=C7)C=C6)cc4)c3)c2C)c1
REMARK SMILES IDX 27 1 26 2 25 3 24 4 23 5 22 6 20 7 21 8 19 9 14 10 15 11
REMARK SMILES IDX 85 12 16 13 17 14 13 15 12 16 11 17 7 18 8 19 86 20 9 21
REMARK SMILES IDX 10 22 87 23 6 24 1 25 2 26 3 27 88 28 4 29 5 30 18 31 28 33
REMARK SMILES IDX 29 34 30 35 31 36 32 37 33 38 34 39 35 40 36 41 37 42 38 43
REMARK SMILES IDX 84 44 39 45 83 46 40 47 41 48 42 49 77 50 43 51 82 52 76 53
REMARK SMILES IDX 78 54 44 55 81 56 75 57 74 58 45 60 67 61 52 62 66 63 53 64
REMARK SMILES IDX 56 65 65 66 79 67 54 68 55 69 64 71 80 72 57 73 46 74 47 75
REMARK SMILES IDX 51 76 48 77 50 78 49 79 68 80 69 81 73 82 70 83 72 84 71 85
REMARK SMILES IDX 58 86 59 87 63 88 60 89 62 90 61 91
REMARK H PARENT 18 32 78 59 56 70
REMARK Flexibility Score: inf
ROOT
ATOM      1  C   UNL     1      -5.412   2.596   6.735  1.00  0.00     0.188 C 
ENDROOT
BRANCH   1   2
ATOM      2  C   UNL     1      -6.743   2.809   5.981  1.00  0.00     0.188 C 
BRANCH   2   3
ATOM      3  O   UNL     1      -7.799   1.870   6.057  1.00  0.00    -0.376 OA
BRANCH   3   4
ATOM      4  C   UNL     1      -7.600   0.622   5.420  1.00  0.00     0.202 C 
BRANCH   4   5
ATOM      5  C   UNL     1      -7.641   0.532   3.910  1.00  0.00     0.261 C 
BRANCH   5   6
ATOM      6  O   UNL     1      -6.277   0.484   3.508  1.00  0.00    -0.460 OA
BRANCH   6   7
ATOM      7  C   UNL     1      -6.008   1.470   2.650  1.00  0.00     0.342 C 
ATOM      8  O   UNL     1      -6.675   1.801   1.702  1.00  0.00    -0.246 OA
BRANCH   7   9
ATOM      9  C   UNL     1      -4.900   2.240   3.247  1.00  0.00     0.103 A 
ATOM     10  C   UNL     1      -3.734   4.296   2.965  1.00  0.00     0.064 A 
ATOM     11  C   UNL     1      -2.729   3.885   3.840  1.00  0.00     0.032 A 
ATOM     12  C   UNL     1      -4.883   3.548   2.804  1.00  0.00     0.048 A 
ATOM     13  C   UNL     1      -2.792   2.605   4.396  1.00  0.00     0.049 A 
ATOM     14  C   UNL     1      -3.844   1.756   4.036  1.00  0.00     0.130 A 
BRANCH  10  15
ATOM     15  N   UNL     1      -3.639   5.402   2.151  1.00  0.00    -0.256 NA
ATOM     16  C   UNL     1      -3.283   5.279   0.902  1.00  0.00     0.121 C 
BRANCH  16  17
ATOM     17  C   UNL     1      -2.676   4.209   0.084  1.00  0.00     0.014 A 
ATOM     18  N   UNL     1      -1.577   2.446  -0.864  1.00  0.00    -0.318 N 
ATOM     19  C   UNL     1      -1.374   3.534  -1.676  1.00  0.00     0.021 A 
ATOM     20  C   UNL     1      -2.408   2.835   0.185  1.00  0.00     0.029 A 
ATOM     21  C   UNL     1      -0.509   3.509  -2.876  1.00  0.00     0.065 C 
ATOM     22  C   UNL     1      -2.113   4.579  -1.175  1.00  0.00     0.033 A 
ATOM     23  C   UNL     1      -2.738   1.813   1.194  1.00  0.00     0.065 C 
BRANCH  18  24
ATOM     24  C   UNL     1      -0.873   1.206  -0.909  1.00  0.00     0.046 A 
ATOM     25  C   UNL     1       2.620   0.000  -0.010  1.00  0.00     0.044 C 
ATOM     26  C   UNL     1       1.157   0.012  -0.337  1.00  0.00    -0.049 A 
ATOM     27  C   UNL     1       0.436  -1.191  -0.349  1.00  0.00     0.003 A 
ATOM     28  C   UNL     1       0.495   1.215  -0.614  1.00  0.00     0.030 A 
ATOM     29  C   UNL     1      -0.923  -1.201  -0.666  1.00  0.00     0.002 A 
ATOM     30  C   UNL     1      -1.577  -0.006  -0.969  1.00  0.00     0.026 A 
ENDBRANCH  18  24
ENDBRANCH  16  17
ENDBRANCH  10  15
BRANCH  14  31
ATOM     31  O   UNL     1      -3.709   0.451   4.405  1.00  0.00    -0.507 OA
ATOM     32  H   UNL     1      -2.982   0.187   4.934  1.00  0.00     0.293 HD
ENDBRANCH  14  31
ENDBRANCH   7   9
ENDBRANCH   6   7
ENDBRANCH   5   6
ENDBRANCH   4   5
ENDBRANCH   3   4
ENDBRANCH   2   3
ENDBRANCH   1   2
BRANCH   1  33
ATOM     33  O   UNL     1      -4.864   1.294   6.863  1.00  0.00    -0.377 OA
BRANCH  33  34
ATOM     34  C   UNL     1      -5.230   0.546   8.017  1.00  0.00     0.188 C 
BRANCH  34  35
ATOM     35  C   UNL     1      -5.476   1.290   9.295  1.00  0.00     0.188 C 
BRANCH  35  36
ATOM     36  O   UNL     1      -6.752   1.903   9.142  1.00  0.00    -0.376 OA
BRANCH  36  37
ATOM     37  C   UNL     1      -7.032   2.926  10.080  1.00  0.00     0.202 C 
BRANCH  37  38
ATOM     38  C   UNL     1      -6.987   2.403  11.516  1.00  0.00     0.261 C 
BRANCH  38  39
ATOM     39  O   UNL     1      -7.994   1.375  11.654  1.00  0.00    -0.460 OA
BRANCH  39  40
ATOM     40  C   UNL     1      -7.527   0.105  11.807  1.00  0.00     0.338 C 
ATOM     41  O   UNL     1      -6.661  -0.233  12.598  1.00  0.00    -0.246 OA
BRANCH  40  42
ATOM     42  C   UNL     1      -8.002  -0.765  10.686  1.00  0.00     0.060 A 
ATOM     43  C   UNL     1      -7.460  -2.049  10.511  1.00  0.00     0.016 A 
ATOM     44  C   UNL     1      -8.730  -0.198   9.650  1.00  0.00     0.016 A 
ATOM     45  C   UNL     1      -7.487  -2.675   9.249  1.00  0.00     0.010 A 
ATOM     46  C   UNL     1      -8.693  -0.790   8.399  1.00  0.00     0.010 A 
ATOM     47  C   UNL     1      -8.025  -2.004   8.154  1.00  0.00    -0.014 A 
BRANCH  47  48
ATOM     48  C   UNL     1      -7.851  -2.402   6.732  1.00  0.00     0.031 A 
ATOM     49  C   UNL     1      -9.061  -2.461   5.846  1.00  0.00     0.074 A 
ATOM     50  C   UNL     1      -6.618  -2.335   6.148  1.00  0.00     0.049 A 
ATOM     51  N   UNL     1      -9.023  -2.702   4.582  1.00  0.00    -0.248 NA
ATOM     52  C   UNL     1     -10.417  -2.131   6.279  1.00  0.00     0.031 C 
ATOM     53  C   UNL     1      -6.279  -2.240   4.725  1.00  0.00     0.029 A 
ATOM     54  N   UNL     1      -5.349  -2.266   6.723  1.00  0.00    -0.354 N 
ATOM     55  C   UNL     1     -10.174  -2.221   3.995  1.00  0.00     0.074 A 
ATOM     56  C   UNL     1     -11.046  -1.946   5.110  1.00  0.00     0.031 C 
ATOM     57  C   UNL     1      -4.959  -2.353   4.518  1.00  0.00     0.029 A 
ATOM     58  C   UNL     1      -4.405  -2.732   5.786  1.00  0.00     0.049 A 
ATOM     59  H   UNL     1      -5.147  -1.945   7.631  1.00  0.00     0.167 HD
ATOM     60  C   UNL     1     -10.177  -2.002   2.642  1.00  0.00     0.031 A 
ATOM     61  C   UNL     1      -3.744  -3.893   6.024  1.00  0.00     0.031 A 
ATOM     62  C   UNL     1      -8.917  -2.478   2.018  1.00  0.00     0.049 A 
ATOM     63  C   UNL     1      -4.294  -4.906   5.019  1.00  0.00     0.074 A 
ATOM     64  C   UNL     1      -7.916  -1.899   1.253  1.00  0.00     0.029 A 
ATOM     65  N   UNL     1      -8.421  -3.736   2.385  1.00  0.00    -0.354 N 
ATOM     66  N   UNL     1      -5.529  -4.875   4.548  1.00  0.00    -0.248 NA
ATOM     67  C   UNL     1      -3.419  -5.741   4.197  1.00  0.00     0.031 C 
ATOM     68  C   UNL     1      -6.774  -2.764   1.295  1.00  0.00     0.029 A 
ATOM     69  C   UNL     1      -7.086  -3.888   2.056  1.00  0.00     0.049 A 
ATOM     70  H   UNL     1      -8.961  -4.431   2.825  1.00  0.00     0.167 HD
ATOM     71  C   UNL     1      -5.544  -5.424   3.285  1.00  0.00     0.074 A 
ATOM     72  C   UNL     1      -4.222  -6.032   3.155  1.00  0.00     0.031 C 
ATOM     73  C   UNL     1      -6.427  -5.180   2.257  1.00  0.00     0.031 A 
BRANCH  60  74
ATOM     74  C   UNL     1     -11.239  -1.213   1.873  1.00  0.00    -0.014 A 
ATOM     75  C   UNL     1     -11.079  -0.974   0.491  1.00  0.00     0.009 A 
ATOM     76  C   UNL     1     -12.402  -0.651   2.435  1.00  0.00     0.009 A 
ATOM     77  C   UNL     1     -12.007  -0.237  -0.269  1.00  0.00     0.001 A 
ATOM     78  C   UNL     1     -13.345   0.073   1.680  1.00  0.00     0.001 A 
ATOM     79  C   UNL     1     -13.148   0.281   0.325  1.00  0.00     0.000 A 
ENDBRANCH  60  74
BRANCH  61  80
ATOM     80  C   UNL     1      -3.273  -3.877   7.456  1.00  0.00    -0.014 A 
ATOM     81  C   UNL     1      -2.280  -2.890   7.731  1.00  0.00     0.009 A 
ATOM     82  C   UNL     1      -4.115  -4.230   8.523  1.00  0.00     0.009 A 
ATOM     83  C   UNL     1      -2.278  -2.145   8.923  1.00  0.00     0.001 A 
ATOM     84  C   UNL     1      -4.089  -3.493   9.731  1.00  0.00     0.001 A 
ATOM     85  C   UNL     1      -3.216  -2.419   9.908  1.00  0.00     0.000 A 
ENDBRANCH  61  80
BRANCH  73  86
ATOM     86  C   UNL     1      -6.849  -6.282   1.307  1.00  0.00    -0.014 A 
ATOM     87  C   UNL     1      -6.451  -7.614   1.450  1.00  0.00     0.009 A 
ATOM     88  C   UNL     1      -7.870  -6.021   0.359  1.00  0.00     0.009 A 
ATOM     89  C   UNL     1      -7.039  -8.627   0.688  1.00  0.00     0.001 A 
ATOM     90  C   UNL     1      -8.502  -7.035  -0.356  1.00  0.00     0.001 A 
ATOM     91  C   UNL     1      -8.078  -8.342  -0.195  1.00  0.00     0.000 A 
ENDBRANCH  73  86
ENDBRANCH  47  48
ENDBRANCH  40  42
ENDBRANCH  39  40
ENDBRANCH  38  39
ENDBRANCH  37  38
ENDBRANCH  36  37
ENDBRANCH  35  36
ENDBRANCH  34  35
ENDBRANCH  33  34
ENDBRANCH   1  33
TORSDOF 24
