REMARK SMILES NC(=O)c1ccccc1NC(=O)[C@@H]1CC=CC[C@@H]1C(=O)OCCOCCOCCOCCOC(=O)c1ccc(-c2c3nc(c(-c4ccccc4)c4ccc([nH]4)c(-c4ccccc4)c4nc(c(-c5ccccc5)c5ccc2[nH]5)C=C4)C=C3)cc1
REMARK SMILES IDX 26 1 25 2 24 3 23 4 22 5 21 6 19 7 20 8 18 9 13 10 14 11
REMARK SMILES IDX 15 12 17 13 16 14 11 15 10 16 12 18 9 19 4 20 5 21 6 22 8 23
REMARK SMILES IDX 7 24 2 25 1 26 3 29 27 30 28 31 29 32 30 33 31 34 32 35
REMARK SMILES IDX 33 36 34 37 35 38 36 39 37 40 83 41 38 42 82 43 39 44 40 45
REMARK SMILES IDX 41 46 76 47 42 48 81 49 75 50 77 51 43 52 80 53 74 54 73 55
REMARK SMILES IDX 44 57 66 58 51 59 65 60 52 61 55 62 64 63 78 64 53 65 54 66
REMARK SMILES IDX 63 68 79 69 56 70 45 71 46 72 50 73 47 74 49 75 48 76 67 77
REMARK SMILES IDX 68 78 72 79 69 80 71 81 70 82 57 83 58 84 62 85 59 86 61 87
REMARK SMILES IDX 60 88
REMARK H PARENT 10 17 1 27 1 28 77 56 55 67
REMARK Flexibility Score: inf
ROOT
ATOM      1  C   UNL     1       8.398   3.896   0.468  1.00  0.00     0.188 C 
ENDROOT
BRANCH   1   2
ATOM      2  C   UNL     1       8.387   5.216   1.250  1.00  0.00     0.188 C 
BRANCH   2   3
ATOM      3  O   UNL     1       9.062   5.199   2.504  1.00  0.00    -0.376 OA
BRANCH   3   4
ATOM      4  C   UNL     1       8.283   4.919   3.656  1.00  0.00     0.202 C 
BRANCH   4   5
ATOM      5  C   UNL     1       7.809   3.467   3.807  1.00  0.00     0.261 C 
BRANCH   5   6
ATOM      6  O   UNL     1       6.926   3.019   2.764  1.00  0.00    -0.463 OA
BRANCH   6   7
ATOM      7  C   UNL     1       5.728   3.657   2.713  1.00  0.00     0.310 C 
ATOM      8  O   UNL     1       5.388   4.492   3.521  1.00  0.00    -0.252 OA
BRANCH   7   9
ATOM      9  C   UNL     1       4.834   3.078   1.643  1.00  0.00     0.116 C 
ATOM     10  C   UNL     1       3.896   4.077   0.917  1.00  0.00     0.097 C 
ATOM     11  C   UNL     1       2.550   4.392   1.577  1.00  0.00     0.041 C 
ATOM     12  C   UNL     1       2.288   3.656   2.857  1.00  0.00    -0.030 C 
ATOM     13  C   UNL     1       4.049   1.971   2.365  1.00  0.00     0.043 C 
ATOM     14  C   UNL     1       2.946   2.543   3.208  1.00  0.00    -0.030 C 
BRANCH  10  15
ATOM     15  C   UNL     1       4.531   5.250   0.160  1.00  0.00     0.228 C 
ATOM     16  N   UNL     1       4.999   6.443   0.599  1.00  0.00    -0.325 N 
ATOM     17  H   UNL     1       5.299   6.993  -0.162  1.00  0.00     0.169 HD
ATOM     18  O   UNL     1       4.713   5.086  -1.062  1.00  0.00    -0.274 OA
BRANCH  16  19
ATOM     19  C   UNL     1       5.190   7.143   1.814  1.00  0.00     0.053 A 
ATOM     20  C   UNL     1       6.256   8.075   1.891  1.00  0.00     0.063 A 
ATOM     21  C   UNL     1       6.741   8.513   3.136  1.00  0.00     0.016 A 
ATOM     22  C   UNL     1       6.108   8.122   4.308  1.00  0.00     0.001 A 
ATOM     23  C   UNL     1       4.486   6.893   2.986  1.00  0.00     0.027 A 
ATOM     24  C   UNL     1       4.952   7.358   4.226  1.00  0.00     0.002 A 
BRANCH  20  25
ATOM     25  C   UNL     1       7.026   8.538   0.707  1.00  0.00     0.250 C 
ATOM     26  N   UNL     1       6.306   8.864  -0.408  1.00  0.00    -0.366 N 
ATOM     27  H   UNL     1       6.768   9.176  -1.219  1.00  0.00     0.159 HD
ATOM     28  H   UNL     1       5.324   8.787  -0.400  1.00  0.00     0.159 HD
ATOM     29  O   UNL     1       8.242   8.662   0.731  1.00  0.00    -0.269 OA
ENDBRANCH  20  25
ENDBRANCH  16  19
ENDBRANCH  10  15
ENDBRANCH   7   9
ENDBRANCH   6   7
ENDBRANCH   5   6
ENDBRANCH   4   5
ENDBRANCH   3   4
ENDBRANCH   2   3
ENDBRANCH   1   2
BRANCH   1  30
ATOM     30  O   UNL     1       9.249   2.861   0.935  1.00  0.00    -0.377 OA
BRANCH  30  31
ATOM     31  C   UNL     1      10.541   3.229   1.406  1.00  0.00     0.188 C 
BRANCH  31  32
ATOM     32  C   UNL     1      11.289   4.366   0.682  1.00  0.00     0.188 C 
BRANCH  32  33
ATOM     33  O   UNL     1      10.789   4.633  -0.619  1.00  0.00    -0.376 OA
BRANCH  33  34
ATOM     34  C   UNL     1      11.479   4.058  -1.715  1.00  0.00     0.202 C 
BRANCH  34  35
ATOM     35  C   UNL     1      11.481   2.526  -1.817  1.00  0.00     0.261 C 
BRANCH  35  36
ATOM     36  O   UNL     1      12.036   1.798  -0.709  1.00  0.00    -0.460 OA
BRANCH  36  37
ATOM     37  C   UNL     1      13.296   2.062  -0.299  1.00  0.00     0.338 C 
ATOM     38  O   UNL     1      14.102   2.810  -0.817  1.00  0.00    -0.246 OA
BRANCH  37  39
ATOM     39  C   UNL     1      13.446   1.444   1.044  1.00  0.00     0.060 A 
ATOM     40  C   UNL     1      13.829   2.247   2.131  1.00  0.00     0.016 A 
ATOM     41  C   UNL     1      13.110   0.103   1.247  1.00  0.00     0.016 A 
ATOM     42  C   UNL     1      13.915   1.699   3.414  1.00  0.00     0.010 A 
ATOM     43  C   UNL     1      13.230  -0.454   2.521  1.00  0.00     0.010 A 
ATOM     44  C   UNL     1      13.676   0.331   3.600  1.00  0.00    -0.014 A 
BRANCH  44  45
ATOM     45  C   UNL     1      14.216  -0.358   4.797  1.00  0.00     0.031 A 
ATOM     46  C   UNL     1      15.622  -0.888   4.690  1.00  0.00     0.074 A 
ATOM     47  C   UNL     1      13.503  -0.549   5.920  1.00  0.00     0.049 A 
ATOM     48  N   UNL     1      16.298  -1.639   5.520  1.00  0.00    -0.248 NA
ATOM     49  C   UNL     1      16.361  -0.527   3.466  1.00  0.00     0.031 C 
ATOM     50  C   UNL     1      12.158  -0.041   6.177  1.00  0.00     0.029 A 
ATOM     51  N   UNL     1      13.823  -1.251   7.057  1.00  0.00    -0.354 N 
ATOM     52  C   UNL     1      17.528  -1.850   4.910  1.00  0.00     0.074 A 
ATOM     53  C   UNL     1      17.503  -1.170   3.637  1.00  0.00     0.031 C 
ATOM     54  C   UNL     1      11.759  -0.464   7.392  1.00  0.00     0.029 A 
ATOM     55  C   UNL     1      12.804  -1.306   7.976  1.00  0.00     0.049 A 
ATOM     56  H   UNL     1      14.701  -1.674   7.200  1.00  0.00     0.167 HD
ATOM     57  C   UNL     1      18.589  -2.555   5.363  1.00  0.00     0.031 A 
ATOM     58  C   UNL     1      12.719  -1.986   9.138  1.00  0.00     0.031 A 
ATOM     59  C   UNL     1      18.609  -3.257   6.614  1.00  0.00     0.049 A 
ATOM     60  C   UNL     1      13.880  -2.842   9.583  1.00  0.00     0.074 A 
ATOM     61  C   UNL     1      19.634  -4.001   7.167  1.00  0.00     0.029 A 
ATOM     62  N   UNL     1      17.545  -3.308   7.500  1.00  0.00    -0.354 N 
ATOM     63  N   UNL     1      15.045  -3.025   9.008  1.00  0.00    -0.248 NA
ATOM     64  C   UNL     1      13.712  -3.588  10.841  1.00  0.00     0.031 C 
ATOM     65  C   UNL     1      19.170  -4.550   8.366  1.00  0.00     0.029 A 
ATOM     66  C   UNL     1      17.881  -4.092   8.588  1.00  0.00     0.049 A 
ATOM     67  H   UNL     1      16.681  -2.854   7.374  1.00  0.00     0.167 HD
ATOM     68  C   UNL     1      15.759  -3.870   9.851  1.00  0.00     0.074 A 
ATOM     69  C   UNL     1      14.899  -4.163  10.978  1.00  0.00     0.031 C 
ATOM     70  C   UNL     1      17.016  -4.357   9.708  1.00  0.00     0.031 A 
BRANCH  57  71
ATOM     71  C   UNL     1      19.791  -2.637   4.467  1.00  0.00    -0.014 A 
ATOM     72  C   UNL     1      20.613  -1.521   4.242  1.00  0.00     0.009 A 
ATOM     73  C   UNL     1      20.104  -3.852   3.839  1.00  0.00     0.009 A 
ATOM     74  C   UNL     1      21.706  -1.613   3.378  1.00  0.00     0.001 A 
ATOM     75  C   UNL     1      21.214  -3.949   3.000  1.00  0.00     0.001 A 
ATOM     76  C   UNL     1      22.008  -2.828   2.763  1.00  0.00     0.000 A 
ENDBRANCH  57  71
BRANCH  58  77
ATOM     77  C   UNL     1      11.480  -1.921   9.961  1.00  0.00    -0.014 A 
ATOM     78  C   UNL     1      11.487  -1.294  11.217  1.00  0.00     0.009 A 
ATOM     79  C   UNL     1      10.293  -2.525   9.514  1.00  0.00     0.009 A 
ATOM     80  C   UNL     1      10.341  -1.297  12.018  1.00  0.00     0.001 A 
ATOM     81  C   UNL     1       9.142  -2.500  10.304  1.00  0.00     0.001 A 
ATOM     82  C   UNL     1       9.169  -1.896  11.560  1.00  0.00     0.000 A 
ENDBRANCH  58  77
BRANCH  70  83
ATOM     83  C   UNL     1      17.570  -5.205  10.819  1.00  0.00    -0.014 A 
ATOM     84  C   UNL     1      17.136  -6.523  11.024  1.00  0.00     0.009 A 
ATOM     85  C   UNL     1      18.603  -4.695  11.622  1.00  0.00     0.009 A 
ATOM     86  C   UNL     1      17.711  -7.304  12.029  1.00  0.00     0.001 A 
ATOM     87  C   UNL     1      19.195  -5.488  12.605  1.00  0.00     0.001 A 
ATOM     88  C   UNL     1      18.744  -6.789  12.813  1.00  0.00     0.000 A 
ENDBRANCH  70  83
ENDBRANCH  44  45
ENDBRANCH  37  39
ENDBRANCH  36  37
ENDBRANCH  35  36
ENDBRANCH  34  35
ENDBRANCH  33  34
ENDBRANCH  32  33
ENDBRANCH  31  32
ENDBRANCH  30  31
ENDBRANCH   1  30
TORSDOF 23
