REMARK SMILES O=C(OCCOCCOCCOCCOC(=O)c1cc(S(=O)(=O)NNC(=O)[C@H]2C=C(c3ccccc3)N=N2)ccc1F)c1ccc(-c2c3nc(c(-c4ccccc4)c4ccc([nH]4)c(-c4ccccc4)c4nc(c(-c5ccccc5)c5ccc2[nH]5)C=C4)C=C3)cc1
REMARK SMILES IDX 10 1 9 2 8 3 7 4 6 5 5 6 4 7 3 8 2 9 1 10 43 11 44 12 90 13
REMARK SMILES IDX 45 14 89 15 46 16 47 17 48 18 83 19 49 20 88 21 82 22 84 23
REMARK SMILES IDX 50 24 87 25 81 26 80 27 51 29 73 30 58 31 72 32 59 33 62 34
REMARK SMILES IDX 71 35 85 36 60 37 61 38 70 40 86 41 63 42 52 43 53 44 57 45
REMARK SMILES IDX 54 46 56 47 55 48 74 49 75 50 79 51 76 52 78 53 77 54 64 55
REMARK SMILES IDX 65 56 69 57 66 58 68 59 67 60 11 61 12 62 13 63 14 64 15 65
REMARK SMILES IDX 16 66 17 67 18 68 19 69 41 70 20 71 40 72 42 73 39 74 21 75
REMARK SMILES IDX 22 76 23 77 24 78 25 80 26 81 27 83 28 84 29 85 38 86 30 87
REMARK SMILES IDX 37 88 31 89 32 90 36 91 33 92 35 93 34 94
REMARK H PARENT 84 28 62 39 24 79 25 82
REMARK Flexibility Score: inf
ROOT
ATOM      1  C   UNL     1       8.322  -2.203  11.026  1.00  0.00     0.188 C 
ENDROOT
BRANCH   1   2
ATOM      2  O   UNL     1       8.636  -1.772  12.328  1.00  0.00    -0.377 OA
BRANCH   2   3
ATOM      3  C   UNL     1       9.263  -0.504  12.376  1.00  0.00     0.188 C 
BRANCH   3   4
ATOM      4  C   UNL     1       8.482   0.711  11.835  1.00  0.00     0.188 C 
BRANCH   4   5
ATOM      5  O   UNL     1       8.114   0.987  10.490  1.00  0.00    -0.376 OA
BRANCH   5   6
ATOM      6  C   UNL     1       8.653   0.528   9.270  1.00  0.00     0.202 C 
BRANCH   6   7
ATOM      7  C   UNL     1      10.142   0.551   8.930  1.00  0.00     0.261 C 
BRANCH   7   8
ATOM      8  O   UNL     1      11.019   0.341  10.024  1.00  0.00    -0.460 OA
BRANCH   8   9
ATOM      9  C   UNL     1      11.493   1.250  10.896  1.00  0.00     0.338 C 
ATOM     10  O   UNL     1      12.316   0.874  11.730  1.00  0.00    -0.246 OA
BRANCH   9  11
ATOM     11  C   UNL     1      11.041   2.667  10.969  1.00  0.00     0.060 A 
ATOM     12  C   UNL     1      10.315   3.368  10.002  1.00  0.00     0.016 A 
ATOM     13  C   UNL     1      11.456   3.348  12.129  1.00  0.00     0.016 A 
ATOM     14  C   UNL     1      10.226   4.742  10.066  1.00  0.00     0.010 A 
ATOM     15  C   UNL     1      11.340   4.718  12.221  1.00  0.00     0.010 A 
ATOM     16  C   UNL     1      10.825   5.402  11.131  1.00  0.00    -0.014 A 
BRANCH  16  17
ATOM     17  C   UNL     1      10.933   6.837  11.035  1.00  0.00     0.031 A 
ATOM     18  C   UNL     1       9.653   7.566  11.149  1.00  0.00     0.074 A 
ATOM     19  C   UNL     1      12.139   7.413  10.877  1.00  0.00     0.049 A 
ATOM     20  N   UNL     1       9.064   8.272  10.244  1.00  0.00    -0.248 NA
ATOM     21  C   UNL     1       8.865   7.370  12.375  1.00  0.00     0.031 C 
ATOM     22  C   UNL     1      13.462   6.789  10.994  1.00  0.00     0.029 A 
ATOM     23  N   UNL     1      12.434   8.724  10.700  1.00  0.00    -0.354 N 
ATOM     24  C   UNL     1       7.915   8.772  10.846  1.00  0.00     0.074 A 
ATOM     25  C   UNL     1       7.762   8.062  12.091  1.00  0.00     0.031 C 
ATOM     26  C   UNL     1      14.392   7.757  11.155  1.00  0.00     0.029 A 
ATOM     27  C   UNL     1      13.747   9.050  11.008  1.00  0.00     0.049 A 
ATOM     28  H   UNL     1      11.777   9.384  10.382  1.00  0.00     0.167 HD
ATOM     29  C   UNL     1       7.316   9.908  10.399  1.00  0.00     0.031 A 
ATOM     30  C   UNL     1      14.231  10.298  11.217  1.00  0.00     0.031 A 
ATOM     31  C   UNL     1       7.741  10.253   9.069  1.00  0.00     0.049 A 
ATOM     32  C   UNL     1      13.269  11.257  10.622  1.00  0.00     0.074 A 
ATOM     33  C   UNL     1       7.653   9.647   7.832  1.00  0.00     0.029 A 
ATOM     34  N   UNL     1       8.709  11.222   8.951  1.00  0.00    -0.354 N 
ATOM     35  N   UNL     1      13.069  11.364   9.340  1.00  0.00    -0.248 NA
ATOM     36  C   UNL     1      12.192  11.759  11.463  1.00  0.00     0.031 C 
ATOM     37  C   UNL     1       8.885   9.953   7.185  1.00  0.00     0.029 A 
ATOM     38  C   UNL     1       9.626  10.780   8.033  1.00  0.00     0.049 A 
ATOM     39  H   UNL     1       8.739  12.077   9.438  1.00  0.00     0.167 HD
ATOM     40  C   UNL     1      11.696  11.521   9.208  1.00  0.00     0.074 A 
ATOM     41  C   UNL     1      11.222  11.862  10.549  1.00  0.00     0.031 C 
ATOM     42  C   UNL     1      11.039  11.077   8.095  1.00  0.00     0.031 A 
BRANCH  29  43
ATOM     43  C   UNL     1       6.696  10.922  11.324  1.00  0.00    -0.014 A 
ATOM     44  C   UNL     1       6.057  12.044  10.769  1.00  0.00     0.009 A 
ATOM     45  C   UNL     1       6.975  10.969  12.704  1.00  0.00     0.009 A 
ATOM     46  C   UNL     1       5.785  13.180  11.540  1.00  0.00     0.001 A 
ATOM     47  C   UNL     1       6.668  12.084  13.485  1.00  0.00     0.001 A 
ATOM     48  C   UNL     1       6.099  13.202  12.896  1.00  0.00     0.000 A 
ENDBRANCH  29  43
BRANCH  30  49
ATOM     49  C   UNL     1      15.280  10.710  12.174  1.00  0.00    -0.014 A 
ATOM     50  C   UNL     1      15.889  11.969  12.073  1.00  0.00     0.009 A 
ATOM     51  C   UNL     1      15.502   9.967  13.350  1.00  0.00     0.009 A 
ATOM     52  C   UNL     1      16.661  12.480  13.126  1.00  0.00     0.001 A 
ATOM     53  C   UNL     1      16.276  10.475  14.398  1.00  0.00     0.001 A 
ATOM     54  C   UNL     1      16.843  11.739  14.292  1.00  0.00     0.000 A 
ENDBRANCH  30  49
BRANCH  42  55
ATOM     55  C   UNL     1      11.871  10.612   6.924  1.00  0.00    -0.014 A 
ATOM     56  C   UNL     1      12.757   9.522   6.996  1.00  0.00     0.009 A 
ATOM     57  C   UNL     1      11.632  11.193   5.670  1.00  0.00     0.009 A 
ATOM     58  C   UNL     1      13.407   9.050   5.851  1.00  0.00     0.001 A 
ATOM     59  C   UNL     1      12.264  10.708   4.524  1.00  0.00     0.001 A 
ATOM     60  C   UNL     1      13.156   9.642   4.614  1.00  0.00     0.000 A 
ENDBRANCH  42  55
ENDBRANCH  16  17
ENDBRANCH   9  11
ENDBRANCH   8   9
ENDBRANCH   7   8
ENDBRANCH   6   7
ENDBRANCH   5   6
ENDBRANCH   4   5
ENDBRANCH   3   4
ENDBRANCH   2   3
ENDBRANCH   1   2
BRANCH   1  61
ATOM     61  C   UNL     1       6.826  -2.060  10.682  1.00  0.00     0.188 C 
BRANCH  61  62
ATOM     62  O   UNL     1       5.937  -1.427  11.588  1.00  0.00    -0.376 OA
BRANCH  62  63
ATOM     63  C   UNL     1       5.992  -1.738  12.972  1.00  0.00     0.202 C 
BRANCH  63  64
ATOM     64  C   UNL     1       6.082  -3.190  13.479  1.00  0.00     0.261 C 
BRANCH  64  65
ATOM     65  O   UNL     1       6.915  -4.098  12.742  1.00  0.00    -0.460 OA
BRANCH  65  66
ATOM     66  C   UNL     1       6.286  -4.995  11.944  1.00  0.00     0.341 C 
ATOM     67  O   UNL     1       5.092  -5.083  11.714  1.00  0.00    -0.246 OA
BRANCH  66  68
ATOM     68  C   UNL     1       7.316  -5.739  11.202  1.00  0.00     0.097 A 
ATOM     69  C   UNL     1       7.538  -5.458   9.848  1.00  0.00     0.040 A 
ATOM     70  C   UNL     1       8.127  -6.651  11.863  1.00  0.00     0.137 A 
ATOM     71  C   UNL     1       8.648  -6.017   9.203  1.00  0.00     0.085 A 
ATOM     72  C   UNL     1       9.179  -7.275  11.188  1.00  0.00     0.041 A 
ATOM     73  F   UNL     1       7.917  -6.943  13.153  1.00  0.00    -0.206 F 
ATOM     74  C   UNL     1       9.460  -6.944   9.858  1.00  0.00     0.025 A 
BRANCH  71  75
ATOM     75  S   UNL     1       9.025  -5.444   7.571  1.00  0.00     0.257 S 
ATOM     76  O   UNL     1       7.772  -5.242   6.876  1.00  0.00    -0.205 OA
ATOM     77  O   UNL     1       9.986  -4.374   7.717  1.00  0.00    -0.205 OA
BRANCH  75  78
ATOM     78  N   UNL     1       9.809  -6.735   6.802  1.00  0.00    -0.123 NA
ATOM     79  H   UNL     1      10.567  -7.035   7.415  1.00  0.00     0.167 HD
BRANCH  78  80
ATOM     80  N   UNL     1       9.045  -7.906   6.471  1.00  0.00    -0.275 N 
ATOM     81  C   UNL     1       9.111  -8.632   5.311  1.00  0.00     0.265 C 
ATOM     82  H   UNL     1       8.406  -8.221   7.150  1.00  0.00     0.186 HD
ATOM     83  O   UNL     1       8.526  -9.722   5.290  1.00  0.00    -0.271 OA
BRANCH  81  84
ATOM     84  C   UNL     1       9.817  -8.104   4.056  1.00  0.00     0.244 C 
ATOM     85  C   UNL     1       9.745  -6.648   3.775  1.00  0.00     0.042 C 
ATOM     86  N   UNL     1      11.278  -8.344   4.176  1.00  0.00    -0.171 NA
ATOM     87  C   UNL     1      11.017  -6.253   3.677  1.00  0.00     0.091 C 
ATOM     88  N   UNL     1      11.902  -7.281   3.897  1.00  0.00    -0.155 NA
BRANCH  87  89
ATOM     89  C   UNL     1      11.481  -4.877   3.499  1.00  0.00     0.002 A 
ATOM     90  C   UNL     1      12.370  -4.545   2.470  1.00  0.00     0.010 A 
ATOM     91  C   UNL     1      11.113  -3.887   4.419  1.00  0.00     0.010 A 
ATOM     92  C   UNL     1      12.891  -3.251   2.378  1.00  0.00     0.001 A 
ATOM     93  C   UNL     1      11.653  -2.604   4.344  1.00  0.00     0.001 A 
ATOM     94  C   UNL     1      12.544  -2.286   3.324  1.00  0.00     0.000 A 
ENDBRANCH  87  89
ENDBRANCH  81  84
ENDBRANCH  78  80
ENDBRANCH  75  78
ENDBRANCH  71  75
ENDBRANCH  66  68
ENDBRANCH  65  66
ENDBRANCH  64  65
ENDBRANCH  63  64
ENDBRANCH  62  63
ENDBRANCH  61  62
ENDBRANCH   1  61
TORSDOF 25
