REMARK SMILES O=C(OCCOCCOCCOCCOC(=O)c1cc2c(Cl)c(C(F)(F)F)cnc2n1S(=O)(=O)c1ccccc1)c1ccc(-c2c3nc(c(-c4ccccc4)c4ccc([nH]4)c(-c4ccccc4)c4nc(c(-c5ccccc5)c5ccc2[nH]5)C=C4)C=C3)cc1
REMARK SMILES IDX 9 1 8 2 7 3 6 4 5 5 4 6 3 7 2 8 1 9 41 10 42 11 88 12 43 13
REMARK SMILES IDX 87 14 44 15 45 16 46 17 81 18 47 19 86 20 80 21 82 22 48 23
REMARK SMILES IDX 85 24 79 25 78 26 49 28 71 29 56 30 70 31 57 32 60 33 69 34
REMARK SMILES IDX 83 35 58 36 59 37 68 39 84 40 61 41 50 42 51 43 55 44 52 45
REMARK SMILES IDX 54 46 53 47 72 48 73 49 77 50 74 51 76 52 75 53 62 54 63 55
REMARK SMILES IDX 67 56 64 57 66 58 65 59 10 60 11 61 12 62 13 63 14 64 15 65
REMARK SMILES IDX 16 66 17 67 18 68 19 69 31 70 20 71 30 72 21 73 29 74 22 75
REMARK SMILES IDX 23 76 28 77 32 78 33 79 34 80 35 81 36 82 40 83 37 84 39 85
REMARK SMILES IDX 38 86 24 87 25 88 26 89 27 90
REMARK H PARENT 82 27 60 38
REMARK Flexibility Score: inf
ROOT
ATOM      1  O   UNL     1       2.650  -2.899  -1.442  1.00  0.00    -0.377 OA
ENDROOT
BRANCH   1   2
ATOM      2  C   UNL     1       2.279  -1.631  -0.932  1.00  0.00     0.188 C 
BRANCH   2   3
ATOM      3  C   UNL     1       3.101  -0.453  -1.473  1.00  0.00     0.188 C 
BRANCH   3   4
ATOM      4  O   UNL     1       4.091   0.211  -0.686  1.00  0.00    -0.376 OA
BRANCH   4   5
ATOM      5  C   UNL     1       4.953  -0.423   0.235  1.00  0.00     0.202 C 
BRANCH   5   6
ATOM      6  C   UNL     1       4.480  -0.458   1.693  1.00  0.00     0.261 C 
BRANCH   6   7
ATOM      7  O   UNL     1       3.068  -0.590   1.901  1.00  0.00    -0.460 OA
BRANCH   7   8
ATOM      8  C   UNL     1       2.060   0.258   1.594  1.00  0.00     0.338 C 
ATOM      9  O   UNL     1       0.903  -0.138   1.736  1.00  0.00    -0.246 OA
BRANCH   8  10
ATOM     10  C   UNL     1       2.249   1.634   1.065  1.00  0.00     0.060 A 
ATOM     11  C   UNL     1       3.452   2.340   1.087  1.00  0.00     0.016 A 
ATOM     12  C   UNL     1       1.092   2.273   0.571  1.00  0.00     0.016 A 
ATOM     13  C   UNL     1       3.487   3.670   0.747  1.00  0.00     0.010 A 
ATOM     14  C   UNL     1       1.110   3.621   0.255  1.00  0.00     0.010 A 
ATOM     15  C   UNL     1       2.299   4.313   0.424  1.00  0.00    -0.014 A 
BRANCH  15  16
ATOM     16  C   UNL     1       2.382   5.754   0.438  1.00  0.00     0.031 A 
ATOM     17  C   UNL     1       3.155   6.373  -0.658  1.00  0.00     0.074 A 
ATOM     18  C   UNL     1       1.915   6.429   1.502  1.00  0.00     0.049 A 
ATOM     19  N   UNL     1       4.282   7.003  -0.580  1.00  0.00    -0.248 NA
ATOM     20  C   UNL     1       2.653   6.176  -2.022  1.00  0.00     0.031 C 
ATOM     21  C   UNL     1       0.988   5.968   2.539  1.00  0.00     0.029 A 
ATOM     22  N   UNL     1       2.132   7.727   1.826  1.00  0.00    -0.354 N 
ATOM     23  C   UNL     1       4.562   7.426  -1.873  1.00  0.00     0.074 A 
ATOM     24  C   UNL     1       3.588   6.802  -2.735  1.00  0.00     0.031 C 
ATOM     25  C   UNL     1       0.542   7.039   3.232  1.00  0.00     0.029 A 
ATOM     26  C   UNL     1       1.258   8.218   2.777  1.00  0.00     0.049 A 
ATOM     27  H   UNL     1       2.846   8.270   1.421  1.00  0.00     0.167 HD
ATOM     28  C   UNL     1       5.445   8.425  -2.138  1.00  0.00     0.031 A 
ATOM     29  C   UNL     1       1.073   9.525   3.072  1.00  0.00     0.031 A 
ATOM     30  C   UNL     1       6.387   8.636  -1.077  1.00  0.00     0.049 A 
ATOM     31  C   UNL     1       2.292  10.251   2.637  1.00  0.00     0.074 A 
ATOM     32  C   UNL     1       7.378   7.872  -0.495  1.00  0.00     0.029 A 
ATOM     33  N   UNL     1       6.162   9.679  -0.213  1.00  0.00    -0.354 N 
ATOM     34  N   UNL     1       3.460  10.102   3.195  1.00  0.00    -0.248 NA
ATOM     35  C   UNL     1       2.310  10.840   1.306  1.00  0.00     0.031 C 
ATOM     36  C   UNL     1       7.358   8.226   0.885  1.00  0.00     0.029 A 
ATOM     37  C   UNL     1       6.373   9.202   1.055  1.00  0.00     0.049 A 
ATOM     38  H   UNL     1       5.899  10.596  -0.457  1.00  0.00     0.167 HD
ATOM     39  C   UNL     1       4.372  10.199   2.154  1.00  0.00     0.074 A 
ATOM     40  C   UNL     1       3.615  10.755   1.036  1.00  0.00     0.031 C 
ATOM     41  C   UNL     1       5.583   9.570   2.209  1.00  0.00     0.031 A 
BRANCH  28  42
ATOM     42  C   UNL     1       5.196   9.431  -3.225  1.00  0.00    -0.014 A 
ATOM     43  C   UNL     1       6.205  10.338  -3.584  1.00  0.00     0.009 A 
ATOM     44  C   UNL     1       3.902   9.684  -3.725  1.00  0.00     0.009 A 
ATOM     45  C   UNL     1       5.922  11.453  -4.383  1.00  0.00     0.001 A 
ATOM     46  C   UNL     1       3.625  10.770  -4.555  1.00  0.00     0.001 A 
ATOM     47  C   UNL     1       4.634  11.668  -4.867  1.00  0.00     0.000 A 
ENDBRANCH  28  42
BRANCH  29  48
ATOM     48  C   UNL     1      -0.228  10.191   3.301  1.00  0.00    -0.014 A 
ATOM     49  C   UNL     1      -0.273  11.530   3.716  1.00  0.00     0.009 A 
ATOM     50  C   UNL     1      -1.430   9.605   2.857  1.00  0.00     0.009 A 
ATOM     51  C   UNL     1      -1.463  12.266   3.639  1.00  0.00     0.001 A 
ATOM     52  C   UNL     1      -2.619  10.334   2.792  1.00  0.00     0.001 A 
ATOM     53  C   UNL     1      -2.631  11.672   3.165  1.00  0.00     0.000 A 
ENDBRANCH  29  48
BRANCH  41  54
ATOM     54  C   UNL     1       5.987   8.933   3.515  1.00  0.00    -0.014 A 
ATOM     55  C   UNL     1       5.319   7.810   4.035  1.00  0.00     0.009 A 
ATOM     56  C   UNL     1       7.178   9.347   4.128  1.00  0.00     0.009 A 
ATOM     57  C   UNL     1       5.827   7.127   5.144  1.00  0.00     0.001 A 
ATOM     58  C   UNL     1       7.692   8.655   5.227  1.00  0.00     0.001 A 
ATOM     59  C   UNL     1       7.019   7.545   5.734  1.00  0.00     0.000 A 
ENDBRANCH  41  54
ENDBRANCH  15  16
ENDBRANCH   8  10
ENDBRANCH   7   8
ENDBRANCH   6   7
ENDBRANCH   5   6
ENDBRANCH   4   5
ENDBRANCH   3   4
ENDBRANCH   2   3
ENDBRANCH   1   2
BRANCH   1  60
ATOM     60  C   UNL     1       3.944  -3.335  -1.094  1.00  0.00     0.188 C 
BRANCH  60  61
ATOM     61  C   UNL     1       5.030  -3.007  -2.146  1.00  0.00     0.188 C 
BRANCH  61  62
ATOM     62  O   UNL     1       4.753  -2.921  -3.540  1.00  0.00    -0.376 OA
BRANCH  62  63
ATOM     63  C   UNL     1       3.502  -3.329  -4.061  1.00  0.00     0.202 C 
BRANCH  63  64
ATOM     64  C   UNL     1       3.268  -4.840  -4.134  1.00  0.00     0.261 C 
BRANCH  64  65
ATOM     65  O   UNL     1       3.632  -5.557  -2.949  1.00  0.00    -0.459 OA
BRANCH  65  66
ATOM     66  C   UNL     1       4.889  -6.082  -2.915  1.00  0.00     0.356 C 
ATOM     67  O   UNL     1       5.726  -5.994  -3.786  1.00  0.00    -0.244 OA
BRANCH  66  68
ATOM     68  C   UNL     1       5.140  -6.599  -1.587  1.00  0.00     0.145 A 
ATOM     69  C   UNL     1       6.133  -6.201  -0.699  1.00  0.00     0.048 A 
ATOM     70  N   UNL     1       4.412  -7.573  -0.941  1.00  0.00    -0.209 N 
ATOM     71  C   UNL     1       5.967  -6.914   0.519  1.00  0.00     0.040 A 
ATOM     72  C   UNL     1       4.910  -7.798   0.321  1.00  0.00     0.156 A 
ATOM     73  C   UNL     1       6.583  -6.945   1.785  1.00  0.00     0.065 A 
ATOM     74  N   UNL     1       4.489  -8.713   1.214  1.00  0.00    -0.237 NA
ATOM     75  Cl  UNL     1       7.762  -5.735   2.052  1.00  0.00    -0.083 Cl
ATOM     76  C   UNL     1       6.218  -7.902   2.725  1.00  0.00     0.093 A 
ATOM     77  C   UNL     1       5.181  -8.749   2.373  1.00  0.00     0.128 A 
BRANCH  70  78
ATOM     78  S   UNL     1       2.943  -8.185  -1.526  1.00  0.00     0.270 S 
ATOM     79  O   UNL     1       1.935  -7.277  -1.014  1.00  0.00    -0.201 OA
ATOM     80  O   UNL     1       3.155  -8.372  -2.951  1.00  0.00    -0.201 OA
BRANCH  78  81
ATOM     81  C   UNL     1       2.705  -9.781  -0.816  1.00  0.00     0.088 A 
ATOM     82  C   UNL     1       3.320 -10.891  -1.401  1.00  0.00     0.022 A 
ATOM     83  C   UNL     1       1.901  -9.918   0.321  1.00  0.00     0.022 A 
ATOM     84  C   UNL     1       3.169 -12.142  -0.807  1.00  0.00     0.001 A 
ATOM     85  C   UNL     1       1.772 -11.169   0.917  1.00  0.00     0.001 A 
ATOM     86  C   UNL     1       2.409 -12.277   0.357  1.00  0.00     0.000 A 
ENDBRANCH  78  81
ENDBRANCH  70  78
BRANCH  76  87
ATOM     87  C   UNL     1       6.882  -8.038   4.054  1.00  0.00     0.419 C 
ATOM     88  F   UNL     1       8.240  -8.066   3.977  1.00  0.00    -0.166 F 
ATOM     89  F   UNL     1       6.565  -7.029   4.908  1.00  0.00    -0.166 F 
ATOM     90  F   UNL     1       6.538  -9.188   4.702  1.00  0.00    -0.166 F 
ENDBRANCH  76  87
ENDBRANCH  66  68
ENDBRANCH  65  66
ENDBRANCH  64  65
ENDBRANCH  63  64
ENDBRANCH  62  63
ENDBRANCH  61  62
ENDBRANCH  60  61
ENDBRANCH   1  60
TORSDOF 23
