REMARK SMILES Cc1ccc(F)c(O[C@H]2CC[C@]([NH2+]C(C)C)(C(=O)OCCOCCOCCOCCOC(=O)c3ccc(-c4c5nc(c(-c6ccccc6)c6ccc([nH]6)c(-c6ccccc6)c6nc(c(-c7ccccc7)c7ccc4[nH]7)C=C6)C=C5)cc3)C2)c1
REMARK SMILES IDX 25 1 24 2 23 3 22 4 21 5 20 6 19 7 17 8 18 9 12 10 9 11
REMARK SMILES IDX 10 12 82 13 11 14 8 15 7 16 1 17 2 18 3 19 83 20 4 21 5 22
REMARK SMILES IDX 6 23 13 24 14 27 15 28 16 29 26 30 27 31 28 32 29 33 30 34
REMARK SMILES IDX 31 35 32 36 33 37 34 38 35 39 81 40 36 41 80 42 37 43 38 44
REMARK SMILES IDX 39 45 74 46 40 47 79 48 73 49 75 50 41 51 78 52 72 53 71 54
REMARK SMILES IDX 42 56 64 57 49 58 63 59 50 60 53 61 62 62 76 63 51 64 52 65
REMARK SMILES IDX 61 67 77 68 54 69 43 70 44 71 48 72 45 73 47 74 46 75 65 76
REMARK SMILES IDX 66 77 70 78 67 79 69 80 68 81 55 82 56 83 60 84 57 85 59 86
REMARK SMILES IDX 58 87
REMARK H PARENT 13 25 13 26 75 55 53 66
REMARK Flexibility Score: inf
ROOT
ATOM      1  O   UNL     1       4.393  -5.464   0.824  1.00  0.00    -0.377 OA
ENDROOT
BRANCH   1   2
ATOM      2  C   UNL     1       3.663  -6.573   0.328  1.00  0.00     0.188 C 
BRANCH   2   3
ATOM      3  C   UNL     1       3.879  -6.903  -1.154  1.00  0.00     0.188 C 
BRANCH   3   4
ATOM      4  O   UNL     1       5.145  -6.552  -1.670  1.00  0.00    -0.376 OA
BRANCH   4   5
ATOM      5  C   UNL     1       5.401  -5.251  -2.175  1.00  0.00     0.202 C 
BRANCH   5   6
ATOM      6  C   UNL     1       4.529  -3.996  -1.965  1.00  0.00     0.261 C 
BRANCH   6   7
ATOM      7  O   UNL     1       3.324  -4.151  -1.218  1.00  0.00    -0.459 OA
BRANCH   7   8
ATOM      8  C   UNL     1       2.150  -4.097  -1.888  1.00  0.00     0.368 C 
ATOM      9  O   UNL     1       2.067  -3.893  -3.096  1.00  0.00    -0.245 OA
BRANCH   8  10
ATOM     10  C   UNL     1       0.924  -4.358  -0.969  1.00  0.00     0.198 C 
ATOM     11  C   UNL     1      -0.891  -3.145   0.129  1.00  0.00     0.180 C 
ATOM     12  C   UNL     1       0.194  -3.303   1.181  1.00  0.00     0.052 C 
ATOM     13  C   UNL     1      -0.075  -3.196  -1.160  1.00  0.00     0.126 C 
ATOM     14  C   UNL     1       1.208  -4.261   0.566  1.00  0.00     0.085 C 
BRANCH  11  15
ATOM     15  O   UNL     1      -1.792  -4.255   0.109  1.00  0.00    -0.487 OA
BRANCH  15  16
ATOM     16  C   UNL     1      -2.821  -4.285   1.006  1.00  0.00     0.155 A 
ATOM     17  C   UNL     1      -5.863  -6.564   1.352  1.00  0.00     0.044 C 
ATOM     18  C   UNL     1      -4.853  -5.488   1.620  1.00  0.00    -0.047 A 
ATOM     19  C   UNL     1      -5.016  -4.637   2.719  1.00  0.00     0.007 A 
ATOM     20  C   UNL     1      -3.744  -5.313   0.779  1.00  0.00     0.053 A 
ATOM     21  C   UNL     1      -4.100  -3.614   2.954  1.00  0.00     0.043 A 
ATOM     22  C   UNL     1      -3.020  -3.435   2.095  1.00  0.00     0.165 A 
ATOM     23  F   UNL     1      -2.182  -2.423   2.364  1.00  0.00    -0.203 F 
ENDBRANCH  15  16
ENDBRANCH  11  15
BRANCH  10  24
ATOM     24  N   UNL     1       0.346  -5.722  -1.175  1.00  0.00    -0.330 N 
ATOM     25  H   UNL     1      -0.592  -5.706  -0.776  1.00  0.00     0.347 HD
ATOM     26  H   UNL     1       1.034  -6.335  -0.738  1.00  0.00     0.347 HD
BRANCH  24  27
ATOM     27  C   UNL     1       0.219  -6.271  -2.529  1.00  0.00     0.176 C 
ATOM     28  C   UNL     1      -0.294  -7.712  -2.386  1.00  0.00     0.075 C 
ATOM     29  C   UNL     1      -0.728  -5.501  -3.445  1.00  0.00     0.075 C 
ENDBRANCH  24  27
ENDBRANCH  10  24
ENDBRANCH   8  10
ENDBRANCH   7   8
ENDBRANCH   6   7
ENDBRANCH   5   6
ENDBRANCH   4   5
ENDBRANCH   3   4
ENDBRANCH   2   3
ENDBRANCH   1   2
BRANCH   1  30
ATOM     30  C   UNL     1       5.764  -5.632   1.163  1.00  0.00     0.188 C 
BRANCH  30  31
ATOM     31  C   UNL     1       6.526  -6.943   0.866  1.00  0.00     0.188 C 
BRANCH  31  32
ATOM     32  O   UNL     1       5.755  -8.129   0.946  1.00  0.00    -0.376 OA
BRANCH  32  33
ATOM     33  C   UNL     1       5.780  -8.880   2.151  1.00  0.00     0.202 C 
BRANCH  33  34
ATOM     34  C   UNL     1       5.251  -8.203   3.426  1.00  0.00     0.261 C 
BRANCH  34  35
ATOM     35  O   UNL     1       5.933  -7.006   3.838  1.00  0.00    -0.460 OA
BRANCH  35  36
ATOM     36  C   UNL     1       7.252  -7.094   4.096  1.00  0.00     0.338 C 
ATOM     37  O   UNL     1       7.943  -8.101   4.086  1.00  0.00    -0.246 OA
BRANCH  36  38
ATOM     38  C   UNL     1       7.788  -5.723   4.205  1.00  0.00     0.060 A 
ATOM     39  C   UNL     1       8.775  -5.312   3.300  1.00  0.00     0.016 A 
ATOM     40  C   UNL     1       7.325  -4.847   5.190  1.00  0.00     0.016 A 
ATOM     41  C   UNL     1       9.329  -4.037   3.402  1.00  0.00     0.010 A 
ATOM     42  C   UNL     1       7.898  -3.576   5.305  1.00  0.00     0.010 A 
ATOM     43  C   UNL     1       8.927  -3.179   4.433  1.00  0.00    -0.014 A 
BRANCH  43  44
ATOM     44  C   UNL     1       9.709  -1.946   4.693  1.00  0.00     0.031 A 
ATOM     45  C   UNL     1      10.749  -1.964   5.781  1.00  0.00     0.074 A 
ATOM     46  C   UNL     1       9.544  -0.844   3.940  1.00  0.00     0.049 A 
ATOM     47  N   UNL     1      11.568  -1.018   6.164  1.00  0.00    -0.248 NA
ATOM     48  C   UNL     1      10.884  -3.221   6.536  1.00  0.00     0.031 C 
ATOM     49  C   UNL     1       8.605  -0.711   2.828  1.00  0.00     0.029 A 
ATOM     50  N   UNL     1      10.173   0.375   4.000  1.00  0.00    -0.354 N 
ATOM     51  C   UNL     1      12.312  -1.562   7.204  1.00  0.00     0.074 A 
ATOM     52  C   UNL     1      11.823  -2.907   7.416  1.00  0.00     0.031 C 
ATOM     53  C   UNL     1       8.723   0.523   2.306  1.00  0.00     0.029 A 
ATOM     54  C   UNL     1       9.718   1.275   3.067  1.00  0.00     0.049 A 
ATOM     55  H   UNL     1      10.883   0.584   4.649  1.00  0.00     0.167 HD
ATOM     56  C   UNL     1      13.316  -0.998   7.915  1.00  0.00     0.031 A 
ATOM     57  C   UNL     1      10.056   2.563   2.863  1.00  0.00     0.031 A 
ATOM     58  C   UNL     1      13.789   0.348   7.721  1.00  0.00     0.049 A 
ATOM     59  C   UNL     1      11.116   3.197   3.727  1.00  0.00     0.074 A 
ATOM     60  C   UNL     1      14.812   1.006   8.383  1.00  0.00     0.029 A 
ATOM     61  N   UNL     1      13.262   1.246   6.807  1.00  0.00    -0.354 N 
ATOM     62  N   UNL     1      11.836   2.662   4.683  1.00  0.00    -0.248 NA
ATOM     63  C   UNL     1      11.414   4.614   3.472  1.00  0.00     0.031 C 
ATOM     64  C   UNL     1      14.856   2.324   7.918  1.00  0.00     0.029 A 
ATOM     65  C   UNL     1      13.912   2.465   6.913  1.00  0.00     0.049 A 
ATOM     66  H   UNL     1      12.533   1.048   6.176  1.00  0.00     0.167 HD
ATOM     67  C   UNL     1      12.690   3.666   5.124  1.00  0.00     0.074 A 
ATOM     68  C   UNL     1      12.413   4.835   4.315  1.00  0.00     0.031 C 
ATOM     69  C   UNL     1      13.620   3.626   6.111  1.00  0.00     0.031 A 
BRANCH  56  70
ATOM     70  C   UNL     1      13.943  -1.826   9.004  1.00  0.00    -0.014 A 
ATOM     71  C   UNL     1      14.741  -2.943   8.711  1.00  0.00     0.009 A 
ATOM     72  C   UNL     1      13.753  -1.463  10.347  1.00  0.00     0.009 A 
ATOM     73  C   UNL     1      15.305  -3.700   9.741  1.00  0.00     0.001 A 
ATOM     74  C   UNL     1      14.344  -2.202  11.373  1.00  0.00     0.001 A 
ATOM     75  C   UNL     1      15.110  -3.326  11.070  1.00  0.00     0.000 A 
ENDBRANCH  56  70
BRANCH  57  76
ATOM     76  C   UNL     1       9.372   3.356   1.806  1.00  0.00    -0.014 A 
ATOM     77  C   UNL     1      10.071   3.806   0.676  1.00  0.00     0.009 A 
ATOM     78  C   UNL     1       8.014   3.690   1.938  1.00  0.00     0.009 A 
ATOM     79  C   UNL     1       9.434   4.596  -0.284  1.00  0.00     0.001 A 
ATOM     80  C   UNL     1       7.370   4.451   0.960  1.00  0.00     0.001 A 
ATOM     81  C   UNL     1       8.083   4.912  -0.145  1.00  0.00     0.000 A 
ENDBRANCH  57  76
BRANCH  69  82
ATOM     82  C   UNL     1      14.428   4.874   6.349  1.00  0.00    -0.014 A 
ATOM     83  C   UNL     1      13.848   6.030   6.894  1.00  0.00     0.009 A 
ATOM     84  C   UNL     1      15.799   4.883   6.046  1.00  0.00     0.009 A 
ATOM     85  C   UNL     1      14.614   7.183   7.087  1.00  0.00     0.001 A 
ATOM     86  C   UNL     1      16.570   6.024   6.274  1.00  0.00     0.001 A 
ATOM     87  C   UNL     1      15.975   7.177   6.781  1.00  0.00     0.000 A 
ENDBRANCH  69  82
ENDBRANCH  43  44
ENDBRANCH  36  38
ENDBRANCH  35  36
ENDBRANCH  34  35
ENDBRANCH  33  34
ENDBRANCH  32  33
ENDBRANCH  31  32
ENDBRANCH  30  31
ENDBRANCH   1  30
TORSDOF 24
