REMARK SMILES CC(C)[NH2+][C@]1(C(=O)OCCOCCOCCOCCOC(=O)c2ccc(-c3c4nc(c(-c5ccccc5)c5ccc([nH]5)c(-c5ccccc5)c5nc(c(-c6ccccc6)c6ccc3[nH]6)C=C5)C=C4)cc2)CC[C@H]([N@H+](C)C2CCCC2)C1
REMARK SMILES IDX 14 1 13 2 12 3 11 4 10 5 9 6 8 7 6 8 7 9 5 10 71 11 81 12
REMARK SMILES IDX 72 13 73 14 4 15 2 18 1 19 3 20 74 21 75 22 76 24 77 25
REMARK SMILES IDX 80 26 78 27 79 28 15 29 16 30 17 31 18 32 19 33 20 34 21 35
REMARK SMILES IDX 22 36 23 37 24 38 70 39 25 40 69 41 26 42 27 43 28 44 63 45
REMARK SMILES IDX 29 46 68 47 62 48 64 49 30 50 67 51 61 52 60 53 31 55 53 56
REMARK SMILES IDX 38 57 52 58 39 59 42 60 51 61 65 62 40 63 41 64 50 66 66 67
REMARK SMILES IDX 43 68 32 69 33 70 37 71 34 72 36 73 35 74 54 75 55 76 59 77
REMARK SMILES IDX 56 78 58 79 57 80 44 81 45 82 49 83 46 84 48 85 47 86
REMARK H PARENT 4 16 4 17 74 23 64 54 42 65
REMARK Flexibility Score: inf
ROOT
ATOM      1  O   UNL     1      -0.757   2.562  -1.088  1.00  0.00    -0.377 OA
ENDROOT
BRANCH   1   2
ATOM      2  C   UNL     1      -1.499   1.358  -1.018  1.00  0.00     0.188 C 
BRANCH   2   3
ATOM      3  C   UNL     1      -1.693   0.742   0.386  1.00  0.00     0.188 C 
BRANCH   3   4
ATOM      4  O   UNL     1      -0.679   0.843   1.374  1.00  0.00    -0.376 OA
BRANCH   4   5
ATOM      5  C   UNL     1       0.659   1.060   0.975  1.00  0.00     0.202 C 
BRANCH   5   6
ATOM      6  C   UNL     1       1.357   0.007   0.097  1.00  0.00     0.261 C 
BRANCH   6   7
ATOM      7  O   UNL     1       0.618  -0.515  -1.031  1.00  0.00    -0.459 OA
BRANCH   7   8
ATOM      8  C   UNL     1      -0.088  -1.654  -0.791  1.00  0.00     0.368 C 
ATOM      9  O   UNL     1      -0.052  -2.238   0.291  1.00  0.00    -0.245 OA
BRANCH   8  10
ATOM     10  C   UNL     1      -1.008  -2.139  -1.978  1.00  0.00     0.200 C 
ATOM     11  C   UNL     1      -0.505  -1.927  -3.404  1.00  0.00     0.087 C 
ATOM     12  C   UNL     1      -0.819  -3.673  -1.875  1.00  0.00     0.146 C 
ATOM     13  C   UNL     1      -0.927  -3.186  -4.198  1.00  0.00     0.072 C 
ATOM     14  C   UNL     1      -1.293  -4.304  -3.175  1.00  0.00     0.191 C 
BRANCH  10  15
ATOM     15  N   UNL     1      -2.430  -1.808  -1.728  1.00  0.00    -0.330 N 
ATOM     16  H   UNL     1      -2.908  -2.708  -1.735  1.00  0.00     0.347 HD
ATOM     17  H   UNL     1      -2.304  -1.219  -0.904  1.00  0.00     0.347 HD
BRANCH  15  18
ATOM     18  C   UNL     1      -3.302  -0.923  -2.494  1.00  0.00     0.176 C 
ATOM     19  C   UNL     1      -4.074  -1.560  -3.653  1.00  0.00     0.075 C 
ATOM     20  C   UNL     1      -4.403  -0.374  -1.562  1.00  0.00     0.075 C 
ENDBRANCH  15  18
ENDBRANCH  10  15
BRANCH  14  21
ATOM     21  N   UNL     1      -2.606  -4.999  -3.237  1.00  0.00    -0.332 N 
ATOM     22  C   UNL     1      -3.169  -5.033  -4.583  1.00  0.00     0.333 C 
ATOM     23  H   UNL     1      -2.331  -5.950  -2.993  1.00  0.00     0.348 HD
BRANCH  21  24
ATOM     24  C   UNL     1      -3.589  -4.780  -2.167  1.00  0.00     0.184 C 
ATOM     25  C   UNL     1      -5.043  -5.239  -2.421  1.00  0.00     0.065 C 
ATOM     26  C   UNL     1      -3.354  -5.512  -0.831  1.00  0.00     0.065 C 
ATOM     27  C   UNL     1      -5.727  -5.065  -1.062  1.00  0.00     0.006 C 
ATOM     28  C   UNL     1      -4.611  -5.178  -0.029  1.00  0.00     0.006 C 
ENDBRANCH  21  24
ENDBRANCH  14  21
ENDBRANCH   8  10
ENDBRANCH   7   8
ENDBRANCH   6   7
ENDBRANCH   5   6
ENDBRANCH   4   5
ENDBRANCH   3   4
ENDBRANCH   2   3
ENDBRANCH   1   2
BRANCH   1  29
ATOM     29  C   UNL     1      -1.323   3.609  -0.312  1.00  0.00     0.188 C 
BRANCH  29  30
ATOM     30  C   UNL     1      -2.757   3.915  -0.715  1.00  0.00     0.188 C 
BRANCH  30  31
ATOM     31  O   UNL     1      -3.744   2.950  -0.360  1.00  0.00    -0.376 OA
BRANCH  31  32
ATOM     32  C   UNL     1      -5.083   3.397  -0.614  1.00  0.00     0.202 C 
BRANCH  32  33
ATOM     33  C   UNL     1      -5.477   3.615  -2.094  1.00  0.00     0.261 C 
BRANCH  33  34
ATOM     34  O   UNL     1      -4.645   4.504  -2.868  1.00  0.00    -0.460 OA
BRANCH  34  35
ATOM     35  C   UNL     1      -4.413   5.754  -2.386  1.00  0.00     0.338 C 
ATOM     36  O   UNL     1      -4.974   6.293  -1.465  1.00  0.00    -0.246 OA
BRANCH  35  37
ATOM     37  C   UNL     1      -3.120   6.211  -2.978  1.00  0.00     0.060 A 
ATOM     38  C   UNL     1      -2.133   6.720  -2.115  1.00  0.00     0.016 A 
ATOM     39  C   UNL     1      -2.841   6.040  -4.334  1.00  0.00     0.016 A 
ATOM     40  C   UNL     1      -0.874   7.069  -2.604  1.00  0.00     0.010 A 
ATOM     41  C   UNL     1      -1.601   6.441  -4.835  1.00  0.00     0.010 A 
ATOM     42  C   UNL     1      -0.629   6.991  -3.978  1.00  0.00    -0.014 A 
BRANCH  42  43
ATOM     43  C   UNL     1       0.468   7.788  -4.572  1.00  0.00     0.031 A 
ATOM     44  C   UNL     1       0.127   9.191  -4.991  1.00  0.00     0.074 A 
ATOM     45  C   UNL     1       1.700   7.293  -4.774  1.00  0.00     0.049 A 
ATOM     46  N   UNL     1       0.832  10.053  -5.674  1.00  0.00    -0.248 NA
ATOM     47  C   UNL     1      -1.208   9.678  -4.598  1.00  0.00     0.031 C 
ATOM     48  C   UNL     1       2.170   5.975  -4.354  1.00  0.00     0.029 A 
ATOM     49  N   UNL     1       2.777   7.851  -5.418  1.00  0.00    -0.354 N 
ATOM     50  C   UNL     1       0.015  11.168  -5.814  1.00  0.00     0.074 A 
ATOM     51  C   UNL     1      -1.239  10.871  -5.164  1.00  0.00     0.031 C 
ATOM     52  C   UNL     1       3.436   5.812  -4.782  1.00  0.00     0.029 A 
ATOM     53  C   UNL     1       3.844   6.995  -5.541  1.00  0.00     0.049 A 
ATOM     54  H   UNL     1       2.784   8.774  -5.758  1.00  0.00     0.167 HD
ATOM     55  C   UNL     1       0.280  12.336  -6.442  1.00  0.00     0.031 A 
ATOM     56  C   UNL     1       4.997   7.140  -6.224  1.00  0.00     0.031 A 
ATOM     57  C   UNL     1       1.517  12.613  -7.115  1.00  0.00     0.049 A 
ATOM     58  C   UNL     1       5.246   8.417  -6.988  1.00  0.00     0.074 A 
ATOM     59  C   UNL     1       1.899  13.766  -7.774  1.00  0.00     0.029 A 
ATOM     60  N   UNL     1       2.567  11.714  -7.226  1.00  0.00    -0.354 N 
ATOM     61  N   UNL     1       4.479   9.476  -7.103  1.00  0.00    -0.248 NA
ATOM     62  C   UNL     1       6.520   8.521  -7.716  1.00  0.00     0.031 C 
ATOM     63  C   UNL     1       3.156  13.540  -8.342  1.00  0.00     0.029 A 
ATOM     64  C   UNL     1       3.587  12.276  -7.970  1.00  0.00     0.049 A 
ATOM     65  H   UNL     1       2.583  10.811  -6.833  1.00  0.00     0.167 HD
ATOM     66  C   UNL     1       5.191  10.383  -7.880  1.00  0.00     0.074 A 
ATOM     67  C   UNL     1       6.452   9.750  -8.211  1.00  0.00     0.031 C 
ATOM     68  C   UNL     1       4.839  11.631  -8.277  1.00  0.00     0.031 A 
BRANCH  55  69
ATOM     69  C   UNL     1      -0.820  13.359  -6.483  1.00  0.00    -0.014 A 
ATOM     70  C   UNL     1      -1.252  14.025  -5.325  1.00  0.00     0.009 A 
ATOM     71  C   UNL     1      -1.444  13.650  -7.706  1.00  0.00     0.009 A 
ATOM     72  C   UNL     1      -2.317  14.926  -5.384  1.00  0.00     0.001 A 
ATOM     73  C   UNL     1      -2.484  14.578  -7.768  1.00  0.00     0.001 A 
ATOM     74  C   UNL     1      -2.929  15.205  -6.606  1.00  0.00     0.000 A 
ENDBRANCH  55  69
BRANCH  56  75
ATOM     75  C   UNL     1       5.991   6.034  -6.245  1.00  0.00    -0.014 A 
ATOM     76  C   UNL     1       7.224   6.162  -5.588  1.00  0.00     0.009 A 
ATOM     77  C   UNL     1       5.710   4.836  -6.923  1.00  0.00     0.009 A 
ATOM     78  C   UNL     1       8.158   5.122  -5.621  1.00  0.00     0.001 A 
ATOM     79  C   UNL     1       6.633   3.788  -6.931  1.00  0.00     0.001 A 
ATOM     80  C   UNL     1       7.859   3.934  -6.285  1.00  0.00     0.000 A 
ENDBRANCH  56  75
BRANCH  68  81
ATOM     81  C   UNL     1       5.843  12.431  -9.059  1.00  0.00    -0.014 A 
ATOM     82  C   UNL     1       6.125  12.149 -10.403  1.00  0.00     0.009 A 
ATOM     83  C   UNL     1       6.439  13.554  -8.458  1.00  0.00     0.009 A 
ATOM     84  C   UNL     1       7.000  12.965 -11.124  1.00  0.00     0.001 A 
ATOM     85  C   UNL     1       7.287  14.384  -9.190  1.00  0.00     0.001 A 
ATOM     86  C   UNL     1       7.571  14.086 -10.521  1.00  0.00     0.000 A 
ENDBRANCH  68  81
ENDBRANCH  42  43
ENDBRANCH  35  37
ENDBRANCH  34  35
ENDBRANCH  33  34
ENDBRANCH  32  33
ENDBRANCH  31  32
ENDBRANCH  30  31
ENDBRANCH  29  30
ENDBRANCH   1  29
TORSDOF 24
