REMARK SMILES C[C@@H](C(=O)OCCOCCOCCOCCOC(=O)c1ccc(-c2c3nc(c(-c4ccccc4)c4ccc([nH]4)c(-c4ccccc4)c4nc(c(-c5ccccc5)c5ccc2[nH]5)C=C4)C=C3)cc1)c1ccc(C[C@H]2CCCC2=O)c(-c2ccccc2)c1
REMARK SMILES IDX 10 1 9 2 8 3 7 4 6 5 5 6 3 7 4 8 2 9 1 10 68 11 69 12 86 13
REMARK SMILES IDX 70 14 79 15 71 16 80 17 81 18 85 19 82 20 84 21 83 22 72 23
REMARK SMILES IDX 73 24 74 25 77 26 75 27 76 28 78 29 11 30 12 31 13 32 14 33
REMARK SMILES IDX 15 34 16 35 17 36 18 37 19 38 20 39 21 40 67 41 22 42 66 43
REMARK SMILES IDX 23 44 24 45 25 46 60 47 26 48 65 49 59 50 61 51 27 52 64 53
REMARK SMILES IDX 58 54 57 55 28 57 50 58 35 59 49 60 36 61 39 62 48 63 62 64
REMARK SMILES IDX 37 65 38 66 47 68 63 69 40 70 29 71 30 72 34 73 31 74 33 75
REMARK SMILES IDX 32 76 51 77 52 78 56 79 53 80 55 81 54 82 41 83 42 84 46 85
REMARK SMILES IDX 43 86 45 87 44 88
REMARK H PARENT 61 56 39 67
REMARK Flexibility Score: inf
ROOT
ATOM      1  C   UNL     1       0.789  -1.204   2.477  1.00  0.00     0.188 C 
ENDROOT
BRANCH   1   2
ATOM      2  C   UNL     1       0.137  -2.592   2.571  1.00  0.00     0.188 C 
BRANCH   2   3
ATOM      3  O   UNL     1       0.879  -3.600   3.225  1.00  0.00    -0.376 OA
BRANCH   3   4
ATOM      4  C   UNL     1       1.950  -4.266   2.572  1.00  0.00     0.202 C 
BRANCH   4   5
ATOM      5  C   UNL     1       2.477  -3.971   1.150  1.00  0.00     0.261 C 
BRANCH   5   6
ATOM      6  O   UNL     1       1.916  -2.843   0.474  1.00  0.00    -0.463 OA
BRANCH   6   7
ATOM      7  C   UNL     1       1.276  -3.054  -0.701  1.00  0.00     0.313 C 
ATOM      8  O   UNL     1       1.177  -4.150  -1.242  1.00  0.00    -0.252 OA
BRANCH   7   9
ATOM      9  C   UNL     1       0.600  -1.783  -1.239  1.00  0.00     0.126 C 
ATOM     10  C   UNL     1       1.480  -0.533  -1.036  1.00  0.00     0.025 C 
BRANCH   9  11
ATOM     11  C   UNL     1      -0.878  -1.645  -0.839  1.00  0.00    -0.033 A 
ATOM     12  C   UNL     1      -1.522  -0.406  -0.757  1.00  0.00     0.005 A 
ATOM     13  C   UNL     1      -1.678  -2.786  -0.630  1.00  0.00     0.013 A 
ATOM     14  C   UNL     1      -2.896  -0.319  -0.486  1.00  0.00     0.004 A 
ATOM     15  C   UNL     1      -3.059  -2.727  -0.322  1.00  0.00    -0.015 A 
ATOM     16  C   UNL     1      -3.686  -1.464  -0.270  1.00  0.00    -0.039 A 
BRANCH  15  17
ATOM     17  C   UNL     1      -3.763  -4.001  -0.086  1.00  0.00    -0.018 A 
ATOM     18  C   UNL     1      -4.726  -4.483  -0.986  1.00  0.00     0.009 A 
ATOM     19  C   UNL     1      -3.465  -4.781   1.045  1.00  0.00     0.009 A 
ATOM     20  C   UNL     1      -5.409  -5.676  -0.738  1.00  0.00     0.001 A 
ATOM     21  C   UNL     1      -4.135  -5.984   1.285  1.00  0.00     0.001 A 
ATOM     22  C   UNL     1      -5.115  -6.424   0.399  1.00  0.00     0.000 A 
ENDBRANCH  15  17
BRANCH  16  23
ATOM     23  C   UNL     1      -5.186  -1.287  -0.084  1.00  0.00     0.047 C 
BRANCH  23  24
ATOM     24  C   UNL     1      -5.720  -0.744   1.243  1.00  0.00     0.060 C 
ATOM     25  C   UNL     1      -5.278  -1.459   2.518  1.00  0.00     0.012 C 
ATOM     26  C   UNL     1      -5.294   0.678   1.502  1.00  0.00     0.136 C 
ATOM     27  C   UNL     1      -4.136  -0.632   3.094  1.00  0.00     0.009 C 
ATOM     28  C   UNL     1      -4.454   0.814   2.741  1.00  0.00     0.076 C 
ATOM     29  O   UNL     1      -5.609   1.626   0.791  1.00  0.00    -0.299 OA
ENDBRANCH  23  24
ENDBRANCH  16  23
ENDBRANCH   9  11
ENDBRANCH   7   9
ENDBRANCH   6   7
ENDBRANCH   5   6
ENDBRANCH   4   5
ENDBRANCH   3   4
ENDBRANCH   2   3
ENDBRANCH   1   2
BRANCH   1  30
ATOM     30  O   UNL     1       2.205  -1.194   2.508  1.00  0.00    -0.377 OA
BRANCH  30  31
ATOM     31  C   UNL     1       2.866  -1.270   3.766  1.00  0.00     0.188 C 
BRANCH  31  32
ATOM     32  C   UNL     1       2.106  -1.639   5.059  1.00  0.00     0.188 C 
BRANCH  32  33
ATOM     33  O   UNL     1       0.786  -1.127   5.149  1.00  0.00    -0.376 OA
BRANCH  33  34
ATOM     34  C   UNL     1       0.568   0.065   5.886  1.00  0.00     0.202 C 
BRANCH  34  35
ATOM     35  C   UNL     1       1.233   1.350   5.368  1.00  0.00     0.261 C 
BRANCH  35  36
ATOM     36  O   UNL     1       2.667   1.334   5.284  1.00  0.00    -0.460 OA
BRANCH  36  37
ATOM     37  C   UNL     1       3.364   1.092   6.412  1.00  0.00     0.338 C 
ATOM     38  O   UNL     1       2.918   0.939   7.538  1.00  0.00    -0.246 OA
BRANCH  37  39
ATOM     39  C   UNL     1       4.769   0.845   6.031  1.00  0.00     0.060 A 
ATOM     40  C   UNL     1       5.349  -0.393   6.338  1.00  0.00     0.016 A 
ATOM     41  C   UNL     1       5.510   1.830   5.374  1.00  0.00     0.016 A 
ATOM     42  C   UNL     1       6.687  -0.634   6.027  1.00  0.00     0.010 A 
ATOM     43  C   UNL     1       6.856   1.595   5.082  1.00  0.00     0.010 A 
ATOM     44  C   UNL     1       7.460   0.376   5.441  1.00  0.00    -0.014 A 
BRANCH  44  45
ATOM     45  C   UNL     1       8.936   0.239   5.394  1.00  0.00     0.031 A 
ATOM     46  C   UNL     1       9.749   0.916   6.465  1.00  0.00     0.074 A 
ATOM     47  C   UNL     1       9.548  -0.486   4.442  1.00  0.00     0.049 A 
ATOM     48  N   UNL     1      11.048   0.982   6.607  1.00  0.00    -0.248 NA
ATOM     49  C   UNL     1       8.991   1.614   7.517  1.00  0.00     0.031 C 
ATOM     50  C   UNL     1       8.876  -1.233   3.381  1.00  0.00     0.029 A 
ATOM     51  N   UNL     1      10.884  -0.703   4.215  1.00  0.00    -0.354 N 
ATOM     52  C   UNL     1      11.261   1.734   7.756  1.00  0.00     0.074 A 
ATOM     53  C   UNL     1       9.962   2.131   8.252  1.00  0.00     0.031 C 
ATOM     54  C   UNL     1       9.806  -1.819   2.607  1.00  0.00     0.029 A 
ATOM     55  C   UNL     1      11.136  -1.457   3.095  1.00  0.00     0.049 A 
ATOM     56  H   UNL     1      11.595  -0.352   4.800  1.00  0.00     0.167 HD
ATOM     57  C   UNL     1      12.433   2.062   8.350  1.00  0.00     0.031 A 
ATOM     58  C   UNL     1      12.306  -1.792   2.516  1.00  0.00     0.031 A 
ATOM     59  C   UNL     1      13.726   1.688   7.844  1.00  0.00     0.049 A 
ATOM     60  C   UNL     1      13.600  -1.335   3.141  1.00  0.00     0.074 A 
ATOM     61  C   UNL     1      14.973   1.968   8.375  1.00  0.00     0.029 A 
ATOM     62  N   UNL     1      13.939   0.962   6.683  1.00  0.00    -0.354 N 
ATOM     63  N   UNL     1      13.791  -0.641   4.238  1.00  0.00    -0.248 NA
ATOM     64  C   UNL     1      14.841  -1.716   2.450  1.00  0.00     0.031 C 
ATOM     65  C   UNL     1      15.942   1.468   7.500  1.00  0.00     0.029 A 
ATOM     66  C   UNL     1      15.298   0.810   6.464  1.00  0.00     0.049 A 
ATOM     67  H   UNL     1      13.229   0.606   6.101  1.00  0.00     0.167 HD
ATOM     68  C   UNL     1      15.169  -0.531   4.384  1.00  0.00     0.074 A 
ATOM     69  C   UNL     1      15.766  -1.244   3.273  1.00  0.00     0.031 C 
ATOM     70  C   UNL     1      15.879   0.099   5.353  1.00  0.00     0.031 A 
BRANCH  57  71
ATOM     71  C   UNL     1      12.364   2.906   9.593  1.00  0.00    -0.014 A 
ATOM     72  C   UNL     1      11.854   2.397  10.798  1.00  0.00     0.009 A 
ATOM     73  C   UNL     1      12.835   4.228   9.562  1.00  0.00     0.009 A 
ATOM     74  C   UNL     1      11.783   3.206  11.935  1.00  0.00     0.001 A 
ATOM     75  C   UNL     1      12.794   5.024  10.708  1.00  0.00     0.001 A 
ATOM     76  C   UNL     1      12.258   4.516  11.890  1.00  0.00     0.000 A 
ENDBRANCH  57  71
BRANCH  58  77
ATOM     77  C   UNL     1      12.316  -2.581   1.254  1.00  0.00    -0.014 A 
ATOM     78  C   UNL     1      12.821  -3.890   1.226  1.00  0.00     0.009 A 
ATOM     79  C   UNL     1      11.841  -2.014   0.060  1.00  0.00     0.009 A 
ATOM     80  C   UNL     1      12.875  -4.603   0.026  1.00  0.00     0.001 A 
ATOM     81  C   UNL     1      11.865  -2.742  -1.131  1.00  0.00     0.001 A 
ATOM     82  C   UNL     1      12.392  -4.031  -1.150  1.00  0.00     0.000 A 
ENDBRANCH  58  77
BRANCH  70  83
ATOM     83  C   UNL     1      17.380   0.012   5.285  1.00  0.00    -0.014 A 
ATOM     84  C   UNL     1      18.112   0.686   4.296  1.00  0.00     0.009 A 
ATOM     85  C   UNL     1      18.075  -0.724   6.260  1.00  0.00     0.009 A 
ATOM     86  C   UNL     1      19.506   0.595   4.263  1.00  0.00     0.001 A 
ATOM     87  C   UNL     1      19.469  -0.784   6.245  1.00  0.00     0.001 A 
ATOM     88  C   UNL     1      20.183  -0.134   5.241  1.00  0.00     0.000 A 
ENDBRANCH  70  83
ENDBRANCH  44  45
ENDBRANCH  37  39
ENDBRANCH  36  37
ENDBRANCH  35  36
ENDBRANCH  34  35
ENDBRANCH  33  34
ENDBRANCH  32  33
ENDBRANCH  31  32
ENDBRANCH  30  31
ENDBRANCH   1  30
TORSDOF 24
