REMARK SMILES COc1cc([C@@H]2CC(=O)Nc3c(C(=O)OCCOCCOCCOCCOC(=O)c4ccc(-c5c6nc(c(-c7ccccc7)c7ccc([nH]7)c(-c7ccccc7)c7nc(c(-c8ccccc8)c8ccc5[nH]8)C=C7)C=C6)cc4)cn(-c4ccc(F)cc4)c32)c(OC)c2c1OCO2
REMARK SMILES IDX 21 1 20 2 19 3 18 4 17 5 16 6 15 7 13 8 14 9 12 10 6 11 7 12
REMARK SMILES IDX 87 13 8 14 11 15 79 16 9 17 10 18 78 19 5 21 3 22 4 23 92 24
REMARK SMILES IDX 91 25 93 26 88 27 95 28 94 29 2 30 1 31 89 32 90 33 80 34
REMARK SMILES IDX 81 35 86 36 82 37 85 38 83 39 84 40 22 41 23 42 24 43 25 44
REMARK SMILES IDX 26 45 27 46 28 47 29 48 30 49 31 50 77 51 32 52 76 53 33 54
REMARK SMILES IDX 34 55 35 56 70 57 36 58 75 59 69 60 71 61 37 62 74 63 68 64
REMARK SMILES IDX 67 65 38 67 60 68 45 69 59 70 46 71 49 72 58 73 72 74 47 75
REMARK SMILES IDX 48 76 57 78 73 79 50 80 39 81 40 82 44 83 41 84 43 85 42 86
REMARK SMILES IDX 61 87 62 88 66 89 63 90 65 91 64 92 51 93 52 94 56 95 53 96
REMARK SMILES IDX 55 97 54 98
REMARK H PARENT 10 20 71 66 49 77
REMARK Flexibility Score: inf
ROOT
ATOM      1  O   UNL     1      -1.412  -2.829  11.482  1.00  0.00    -0.377 OA
ENDROOT
BRANCH   1   2
ATOM      2  C   UNL     1      -2.112  -3.477  10.433  1.00  0.00     0.188 C 
BRANCH   2   3
ATOM      3  C   UNL     1      -1.756  -4.965  10.238  1.00  0.00     0.188 C 
BRANCH   3   4
ATOM      4  O   UNL     1      -1.033  -5.502  11.334  1.00  0.00    -0.376 OA
BRANCH   4   5
ATOM      5  C   UNL     1       0.368  -5.661  11.280  1.00  0.00     0.202 C 
BRANCH   5   6
ATOM      6  C   UNL     1       1.305  -4.529  10.828  1.00  0.00     0.261 C 
BRANCH   6   7
ATOM      7  O   UNL     1       0.855  -3.686   9.768  1.00  0.00    -0.460 OA
BRANCH   7   8
ATOM      8  C   UNL     1       0.707  -4.258   8.544  1.00  0.00     0.341 C 
ATOM      9  O   UNL     1       1.031  -5.400   8.265  1.00  0.00    -0.246 OA
BRANCH   8  10
ATOM     10  C   UNL     1      -0.023  -3.374   7.648  1.00  0.00     0.102 A 
ATOM     11  C   UNL     1      -0.537  -0.195   5.892  1.00  0.00     0.082 C 
ATOM     12  C   UNL     1      -0.329   0.811   7.038  1.00  0.00     0.115 C 
ATOM     13  C   UNL     1      -0.653  -1.575   6.454  1.00  0.00     0.055 A 
ATOM     14  C   UNL     1       0.495   0.309   8.220  1.00  0.00     0.225 C 
ATOM     15  C   UNL     1      -0.064  -1.962   7.632  1.00  0.00     0.078 A 
ATOM     16  N   UNL     1      -1.275  -2.676   5.913  1.00  0.00    -0.317 N 
ATOM     17  O   UNL     1       1.068   1.095   8.977  1.00  0.00    -0.275 OA
ATOM     18  N   UNL     1       0.496  -1.039   8.483  1.00  0.00    -0.324 N 
ATOM     19  C   UNL     1      -0.878  -3.783   6.632  1.00  0.00     0.109 A 
ATOM     20  H   UNL     1       0.916  -1.357   9.315  1.00  0.00     0.170 HD
BRANCH  11  21
ATOM     21  C   UNL     1       0.555  -0.111   4.812  1.00  0.00     0.012 A 
ATOM     22  C   UNL     1       1.030   0.303   2.435  1.00  0.00     0.165 A 
ATOM     23  C   UNL     1       0.169   0.365   3.534  1.00  0.00     0.059 A 
ATOM     24  C   UNL     1       2.309  -0.176   2.647  1.00  0.00     0.211 A 
ATOM     25  C   UNL     1       2.727  -0.589   3.897  1.00  0.00     0.211 A 
ATOM     26  O   UNL     1       3.299  -0.291   1.717  1.00  0.00    -0.449 OA
ATOM     27  C   UNL     1       1.886  -0.564   5.000  1.00  0.00     0.168 A 
ATOM     28  O   UNL     1       4.022  -1.019   3.876  1.00  0.00    -0.449 OA
ATOM     29  C   UNL     1       4.393  -0.763   2.517  1.00  0.00     0.468 C 
BRANCH  22  30
ATOM     30  O   UNL     1       0.502   0.742   1.256  1.00  0.00    -0.493 OA
ATOM     31  C   UNL     1       0.954   0.049   0.097  1.00  0.00     0.278 C 
ENDBRANCH  22  30
BRANCH  27  32
ATOM     32  O   UNL     1       2.230  -0.942   6.259  1.00  0.00    -0.492 OA
ATOM     33  C   UNL     1       3.522  -1.457   6.531  1.00  0.00     0.278 C 
ENDBRANCH  27  32
ENDBRANCH  11  21
BRANCH  16  34
ATOM     34  C   UNL     1      -2.124  -2.714   4.792  1.00  0.00     0.046 A 
ATOM     35  C   UNL     1      -1.587  -2.491   3.523  1.00  0.00     0.029 A 
ATOM     36  C   UNL     1      -3.489  -2.976   4.966  1.00  0.00     0.029 A 
ATOM     37  C   UNL     1      -2.431  -2.476   2.416  1.00  0.00     0.041 A 
ATOM     38  C   UNL     1      -4.327  -2.957   3.849  1.00  0.00     0.041 A 
ATOM     39  C   UNL     1      -3.793  -2.699   2.588  1.00  0.00     0.123 A 
ATOM     40  F   UNL     1      -4.603  -2.671   1.522  1.00  0.00    -0.207 F 
ENDBRANCH  16  34
ENDBRANCH   8  10
ENDBRANCH   7   8
ENDBRANCH   6   7
ENDBRANCH   5   6
ENDBRANCH   4   5
ENDBRANCH   3   4
ENDBRANCH   2   3
ENDBRANCH   1   2
BRANCH   1  41
ATOM     41  C   UNL     1      -1.704  -3.197  12.831  1.00  0.00     0.188 C 
BRANCH  41  42
ATOM     42  C   UNL     1      -2.652  -4.369  13.233  1.00  0.00     0.188 C 
BRANCH  42  43
ATOM     43  O   UNL     1      -3.528  -4.844  12.218  1.00  0.00    -0.376 OA
BRANCH  43  44
ATOM     44  C   UNL     1      -4.933  -4.737  12.345  1.00  0.00     0.202 C 
BRANCH  44  45
ATOM     45  C   UNL     1      -5.476  -3.345  12.047  1.00  0.00     0.261 C 
BRANCH  45  46
ATOM     46  O   UNL     1      -4.745  -2.334  12.717  1.00  0.00    -0.460 OA
BRANCH  46  47
ATOM     47  C   UNL     1      -4.805  -2.402  14.061  1.00  0.00     0.338 C 
ATOM     48  O   UNL     1      -5.384  -3.235  14.734  1.00  0.00    -0.246 OA
BRANCH  47  49
ATOM     49  C   UNL     1      -4.150  -1.210  14.610  1.00  0.00     0.060 A 
ATOM     50  C   UNL     1      -4.279  -1.088  15.991  1.00  0.00     0.016 A 
ATOM     51  C   UNL     1      -4.005  -0.109  13.752  1.00  0.00     0.016 A 
ATOM     52  C   UNL     1      -4.694   0.128  16.458  1.00  0.00     0.010 A 
ATOM     53  C   UNL     1      -4.455   1.095  14.211  1.00  0.00     0.010 A 
ATOM     54  C   UNL     1      -4.905   1.148  15.525  1.00  0.00    -0.014 A 
BRANCH  54  55
ATOM     55  C   UNL     1      -5.636   2.296  15.981  1.00  0.00     0.031 A 
ATOM     56  C   UNL     1      -4.802   3.241  16.730  1.00  0.00     0.074 A 
ATOM     57  C   UNL     1      -6.931   2.485  15.685  1.00  0.00     0.049 A 
ATOM     58  N   UNL     1      -4.872   3.513  17.987  1.00  0.00    -0.248 NA
ATOM     59  C   UNL     1      -3.644   3.817  16.032  1.00  0.00     0.031 C 
ATOM     60  C   UNL     1      -7.758   1.781  14.703  1.00  0.00     0.029 A 
ATOM     61  N   UNL     1      -7.741   3.480  16.121  1.00  0.00    -0.354 N 
ATOM     62  C   UNL     1      -3.860   4.431  18.214  1.00  0.00     0.074 A 
ATOM     63  C   UNL     1      -3.030   4.436  17.036  1.00  0.00     0.031 C 
ATOM     64  C   UNL     1      -8.841   2.544  14.429  1.00  0.00     0.029 A 
ATOM     65  C   UNL     1      -8.822   3.717  15.293  1.00  0.00     0.049 A 
ATOM     66  H   UNL     1      -7.575   3.986  16.950  1.00  0.00     0.167 HD
ATOM     67  C   UNL     1      -3.919   5.308  19.248  1.00  0.00     0.031 A 
ATOM     68  C   UNL     1      -9.535   4.869  15.247  1.00  0.00     0.031 A 
ATOM     69  C   UNL     1      -4.903   4.931  20.227  1.00  0.00     0.049 A 
ATOM     70  C   UNL     1      -9.265   5.620  16.505  1.00  0.00     0.074 A 
ATOM     71  C   UNL     1      -5.098   3.812  21.015  1.00  0.00     0.029 A 
ATOM     72  N   UNL     1      -6.106   5.599  20.211  1.00  0.00    -0.354 N 
ATOM     73  N   UNL     1      -9.674   5.230  17.680  1.00  0.00    -0.248 NA
ATOM     74  C   UNL     1      -8.148   6.557  16.522  1.00  0.00     0.031 C 
ATOM     75  C   UNL     1      -6.509   3.617  21.035  1.00  0.00     0.029 A 
ATOM     76  C   UNL     1      -7.095   4.652  20.305  1.00  0.00     0.049 A 
ATOM     77  H   UNL     1      -6.233   6.573  20.144  1.00  0.00     0.167 HD
ATOM     78  C   UNL     1      -8.619   5.513  18.540  1.00  0.00     0.074 A 
ATOM     79  C   UNL     1      -7.754   6.423  17.793  1.00  0.00     0.031 C 
ATOM     80  C   UNL     1      -8.384   4.758  19.656  1.00  0.00     0.031 A 
BRANCH  67  81
ATOM     81  C   UNL     1      -3.368   6.699  19.146  1.00  0.00    -0.014 A 
ATOM     82  C   UNL     1      -3.335   7.497  20.298  1.00  0.00     0.009 A 
ATOM     83  C   UNL     1      -3.128   7.341  17.914  1.00  0.00     0.009 A 
ATOM     84  C   UNL     1      -3.124   8.877  20.212  1.00  0.00     0.001 A 
ATOM     85  C   UNL     1      -2.869   8.707  17.828  1.00  0.00     0.001 A 
ATOM     86  C   UNL     1      -2.894   9.480  18.978  1.00  0.00     0.000 A 
ENDBRANCH  67  81
BRANCH  68  87
ATOM     87  C   UNL     1     -10.137   5.492  14.046  1.00  0.00    -0.014 A 
ATOM     88  C   UNL     1     -11.028   6.568  14.166  1.00  0.00     0.009 A 
ATOM     89  C   UNL     1      -9.664   5.182  12.755  1.00  0.00     0.009 A 
ATOM     90  C   UNL     1     -11.408   7.317  13.042  1.00  0.00     0.001 A 
ATOM     91  C   UNL     1     -10.052   5.918  11.633  1.00  0.00     0.001 A 
ATOM     92  C   UNL     1     -10.915   6.996  11.779  1.00  0.00     0.000 A 
ENDBRANCH  68  87
BRANCH  80  93
ATOM     93  C   UNL     1      -9.424   3.745  20.073  1.00  0.00    -0.014 A 
ATOM     94  C   UNL     1      -9.867   2.713  19.227  1.00  0.00     0.009 A 
ATOM     95  C   UNL     1      -9.838   3.724  21.413  1.00  0.00     0.009 A 
ATOM     96  C   UNL     1     -10.725   1.714  19.698  1.00  0.00     0.001 A 
ATOM     97  C   UNL     1     -10.675   2.712  21.892  1.00  0.00     0.001 A 
ATOM     98  C   UNL     1     -11.123   1.712  21.033  1.00  0.00     0.000 A 
ENDBRANCH  80  93
ENDBRANCH  54  55
ENDBRANCH  47  49
ENDBRANCH  46  47
ENDBRANCH  45  46
ENDBRANCH  44  45
ENDBRANCH  43  44
ENDBRANCH  42  43
ENDBRANCH  41  42
ENDBRANCH   1  41
TORSDOF 24
