REMARK SMILES COc1ccc(CCNc2ncnc3sc(C(=O)OCCOCCOCCOCCOC(=O)c4ccc(-c5c6nc(c(-c7ccccc7)c7ccc([nH]7)c(-c7ccccc7)c7nc(c(-c8ccccc8)c8ccc5[nH]8)C=C7)C=C6)cc4)c(C)c23)cc1OC
REMARK SMILES IDX 23 1 22 2 21 3 20 4 19 5 17 6 18 7 16 8 10 9 11 10 84 11
REMARK SMILES IDX 12 12 14 13 82 14 13 15 15 16 83 17 9 18 8 20 7 21 6 22 3 23
REMARK SMILES IDX 4 24 86 25 5 26 85 27 2 28 1 29 87 30 88 31 24 32 25 33
REMARK SMILES IDX 26 34 27 35 28 36 29 37 30 38 31 39 32 40 33 41 34 42 35 43
REMARK SMILES IDX 81 44 36 45 80 46 37 47 38 48 39 49 74 50 40 51 79 52 73 53
REMARK SMILES IDX 75 54 41 55 78 56 72 57 71 58 42 60 64 61 49 62 63 63 50 64
REMARK SMILES IDX 53 65 62 66 76 67 51 68 52 69 61 71 77 72 54 73 43 74 44 75
REMARK SMILES IDX 48 76 45 77 47 78 46 79 65 80 66 81 70 82 67 83 69 84 68 85
REMARK SMILES IDX 55 86 56 87 60 88 57 89 59 90 58 91
REMARK H PARENT 9 19 75 59 53 70
REMARK Flexibility Score: inf
ROOT
ATOM      1  C   UNL     1      -5.314   5.469   2.466  1.00  0.00     0.188 C 
ENDROOT
BRANCH   1   2
ATOM      2  O   UNL     1      -6.508   4.992   3.058  1.00  0.00    -0.376 OA
BRANCH   2   3
ATOM      3  C   UNL     1      -6.551   4.859   4.461  1.00  0.00     0.202 C 
BRANCH   3   4
ATOM      4  C   UNL     1      -6.475   6.165   5.264  1.00  0.00     0.261 C 
BRANCH   4   5
ATOM      5  O   UNL     1      -5.415   7.059   4.887  1.00  0.00    -0.459 OA
BRANCH   5   6
ATOM      6  C   UNL     1      -4.160   6.714   5.278  1.00  0.00     0.348 C 
ATOM      7  O   UNL     1      -3.901   5.725   5.964  1.00  0.00    -0.245 OA
BRANCH   6   8
ATOM      8  C   UNL     1      -3.179   7.539   4.599  1.00  0.00     0.118 A 
ATOM      9  C   UNL     1      -0.136   8.308   2.562  1.00  0.00     0.138 A 
ATOM     10  N   UNL     1       0.385   9.521   2.291  1.00  0.00    -0.219 NA
ATOM     11  C   UNL     1      -1.310   8.226   3.345  1.00  0.00     0.058 A 
ATOM     12  C   UNL     1      -0.232  10.608   2.783  1.00  0.00     0.225 A 
ATOM     13  C   UNL     1      -1.842   9.432   3.771  1.00  0.00     0.129 A 
ATOM     14  C   UNL     1      -2.116   7.114   3.812  1.00  0.00    -0.012 A 
ATOM     15  N   UNL     1      -1.348  10.655   3.516  1.00  0.00    -0.225 NA
ATOM     16  S   UNL     1      -3.263   9.242   4.691  1.00  0.00    -0.108 S 
ATOM     17  C   UNL     1      -1.841   5.691   3.452  1.00  0.00     0.047 C 
BRANCH   9  18
ATOM     18  N   UNL     1       0.446   7.186   1.986  1.00  0.00    -0.369 N 
ATOM     19  H   UNL     1      -0.082   6.573   1.424  1.00  0.00     0.162 HD
BRANCH  18  20
ATOM     20  C   UNL     1       1.866   6.940   2.240  1.00  0.00     0.119 C 
BRANCH  20  21
ATOM     21  C   UNL     1       2.101   5.548   2.862  1.00  0.00     0.057 C 
BRANCH  21  22
ATOM     22  C   UNL     1       1.851   4.344   1.970  1.00  0.00    -0.042 A 
ATOM     23  C   UNL     1       1.398   2.050   0.376  1.00  0.00     0.160 A 
ATOM     24  C   UNL     1       0.383   2.987   0.574  1.00  0.00     0.051 A 
ATOM     25  C   UNL     1       2.648   2.243   0.976  1.00  0.00     0.160 A 
ATOM     26  C   UNL     1       0.614   4.116   1.363  1.00  0.00     0.008 A 
ATOM     27  C   UNL     1       2.855   3.384   1.774  1.00  0.00     0.054 A 
BRANCH  23  28
ATOM     28  O   UNL     1       1.178   1.035  -0.515  1.00  0.00    -0.493 OA
ATOM     29  C   UNL     1       0.235   0.076  -0.038  1.00  0.00     0.278 C 
ENDBRANCH  23  28
BRANCH  25  30
ATOM     30  O   UNL     1       3.762   1.451   0.878  1.00  0.00    -0.493 OA
ATOM     31  C   UNL     1       3.605   0.146   0.341  1.00  0.00     0.278 C 
ENDBRANCH  25  30
ENDBRANCH  21  22
ENDBRANCH  20  21
ENDBRANCH  18  20
ENDBRANCH   9  18
ENDBRANCH   6   8
ENDBRANCH   5   6
ENDBRANCH   4   5
ENDBRANCH   3   4
ENDBRANCH   2   3
ENDBRANCH   1   2
BRANCH   1  32
ATOM     32  C   UNL     1      -5.457   6.820   1.727  1.00  0.00     0.188 C 
BRANCH  32  33
ATOM     33  O   UNL     1      -6.705   7.499   1.636  1.00  0.00    -0.377 OA
BRANCH  33  34
ATOM     34  C   UNL     1      -7.920   6.760   1.671  1.00  0.00     0.188 C 
BRANCH  34  35
ATOM     35  C   UNL     1      -8.061   5.454   0.845  1.00  0.00     0.188 C 
BRANCH  35  36
ATOM     36  O   UNL     1      -6.840   4.919   0.356  1.00  0.00    -0.376 OA
BRANCH  36  37
ATOM     37  C   UNL     1      -6.510   4.926  -1.019  1.00  0.00     0.202 C 
BRANCH  37  38
ATOM     38  C   UNL     1      -6.374   6.264  -1.739  1.00  0.00     0.261 C 
BRANCH  38  39
ATOM     39  O   UNL     1      -7.309   7.232  -1.316  1.00  0.00    -0.460 OA
BRANCH  39  40
ATOM     40  C   UNL     1      -8.574   6.982  -1.677  1.00  0.00     0.338 C 
ATOM     41  O   UNL     1      -9.001   5.981  -2.246  1.00  0.00    -0.246 OA
BRANCH  40  42
ATOM     42  C   UNL     1      -9.377   8.163  -1.370  1.00  0.00     0.060 A 
ATOM     43  C   UNL     1     -10.731   8.051  -1.670  1.00  0.00     0.016 A 
ATOM     44  C   UNL     1      -8.711   9.397  -1.285  1.00  0.00     0.016 A 
ATOM     45  C   UNL     1     -11.323   9.137  -2.253  1.00  0.00     0.010 A 
ATOM     46  C   UNL     1      -9.294  10.473  -1.891  1.00  0.00     0.010 A 
ATOM     47  C   UNL     1     -10.541  10.279  -2.471  1.00  0.00    -0.014 A 
BRANCH  47  48
ATOM     48  C   UNL     1     -11.091  11.289  -3.331  1.00  0.00     0.031 A 
ATOM     49  C   UNL     1     -12.128  12.085  -2.664  1.00  0.00     0.074 A 
ATOM     50  C   UNL     1     -10.676  11.477  -4.593  1.00  0.00     0.049 A 
ATOM     51  N   UNL     1     -13.400  12.010  -2.850  1.00  0.00    -0.248 NA
ATOM     52  C   UNL     1     -11.714  12.908  -1.520  1.00  0.00     0.031 C 
ATOM     53  C   UNL     1      -9.491  10.947  -5.271  1.00  0.00     0.029 A 
ATOM     54  N   UNL     1     -11.220  12.302  -5.519  1.00  0.00    -0.354 N 
ATOM     55  C   UNL     1     -13.951  12.920  -1.963  1.00  0.00     0.074 A 
ATOM     56  C   UNL     1     -12.900  13.293  -1.050  1.00  0.00     0.031 C 
ATOM     57  C   UNL     1      -9.285  11.656  -6.408  1.00  0.00     0.029 A 
ATOM     58  C   UNL     1     -10.396  12.576  -6.595  1.00  0.00     0.049 A 
ATOM     59  H   UNL     1     -12.127  12.675  -5.434  1.00  0.00     0.167 HD
ATOM     60  C   UNL     1     -15.156  13.496  -2.209  1.00  0.00     0.031 A 
ATOM     61  C   UNL     1     -10.600  13.555  -7.509  1.00  0.00     0.031 A 
ATOM     62  C   UNL     1     -15.894  12.783  -3.221  1.00  0.00     0.049 A 
ATOM     63  C   UNL     1     -12.034  13.938  -7.442  1.00  0.00     0.074 A 
ATOM     64  C   UNL     1     -16.394  11.501  -3.332  1.00  0.00     0.029 A 
ATOM     65  N   UNL     1     -15.856  13.291  -4.499  1.00  0.00    -0.354 N 
ATOM     66  N   UNL     1     -13.002  13.156  -7.827  1.00  0.00    -0.248 NA
ATOM     67  C   UNL     1     -12.424  14.999  -6.522  1.00  0.00     0.031 C 
ATOM     68  C   UNL     1     -16.198  11.144  -4.697  1.00  0.00     0.029 A 
ATOM     69  C   UNL     1     -15.641  12.243  -5.356  1.00  0.00     0.049 A 
ATOM     70  H   UNL     1     -15.963  14.236  -4.752  1.00  0.00     0.167 HD
ATOM     71  C   UNL     1     -14.008  13.341  -6.888  1.00  0.00     0.074 A 
ATOM     72  C   UNL     1     -13.637  14.560  -6.171  1.00  0.00     0.031 C 
ATOM     73  C   UNL     1     -14.885  12.340  -6.586  1.00  0.00     0.031 A 
BRANCH  60  74
ATOM     74  C   UNL     1     -15.453  14.927  -1.855  1.00  0.00    -0.014 A 
ATOM     75  C   UNL     1     -16.733  15.431  -2.129  1.00  0.00     0.009 A 
ATOM     76  C   UNL     1     -14.454  15.867  -1.534  1.00  0.00     0.009 A 
ATOM     77  C   UNL     1     -16.977  16.808  -2.157  1.00  0.00     0.001 A 
ATOM     78  C   UNL     1     -14.704  17.239  -1.517  1.00  0.00     0.001 A 
ATOM     79  C   UNL     1     -15.960  17.711  -1.860  1.00  0.00     0.000 A 
ENDBRANCH  60  74
BRANCH  61  80
ATOM     80  C   UNL     1      -9.594  14.380  -8.208  1.00  0.00    -0.014 A 
ATOM     81  C   UNL     1      -9.943  15.128  -9.342  1.00  0.00     0.009 A 
ATOM     82  C   UNL     1      -8.351  14.648  -7.602  1.00  0.00     0.009 A 
ATOM     83  C   UNL     1      -9.095  16.133  -9.829  1.00  0.00     0.001 A 
ATOM     84  C   UNL     1      -7.505  15.648  -8.090  1.00  0.00     0.001 A 
ATOM     85  C   UNL     1      -7.884  16.401  -9.195  1.00  0.00     0.000 A 
ENDBRANCH  61  80
BRANCH  73  86
ATOM     86  C   UNL     1     -14.875  11.104  -7.452  1.00  0.00    -0.014 A 
ATOM     87  C   UNL     1     -13.763  10.248  -7.544  1.00  0.00     0.009 A 
ATOM     88  C   UNL     1     -16.081  10.696  -8.039  1.00  0.00     0.009 A 
ATOM     89  C   UNL     1     -13.855   9.026  -8.219  1.00  0.00     0.001 A 
ATOM     90  C   UNL     1     -16.178   9.468  -8.695  1.00  0.00     0.001 A 
ATOM     91  C   UNL     1     -15.066   8.633  -8.786  1.00  0.00     0.000 A 
ENDBRANCH  73  86
ENDBRANCH  47  48
ENDBRANCH  40  42
ENDBRANCH  39  40
ENDBRANCH  38  39
ENDBRANCH  37  38
ENDBRANCH  36  37
ENDBRANCH  35  36
ENDBRANCH  34  35
ENDBRANCH  33  34
ENDBRANCH  32  33
ENDBRANCH   1  32
TORSDOF 26
