REMARK SMILES C[C@H]1CC[C@H]([NH2+]Cc2c(C(=O)OCCOCCOCCOCCOC(=O)c3ccc(-c4c5nc(c(-c6ccccc6)c6ccc([nH]6)c(-c6ccccc6)c6nc(c(-c7ccccc7)c7ccc4[nH]7)C=C6)C=C5)cc3)n(Cc3ccccc3F)c3ccccc23)CC1
REMARK SMILES IDX 17 1 16 2 15 3 14 4 13 5 12 6 10 7 11 8 9 9 8 10 89 11 75 12
REMARK SMILES IDX 84 13 88 14 85 15 87 16 86 17 7 18 6 19 5 22 1 23 2 24 3 25
REMARK SMILES IDX 91 26 4 27 90 28 76 29 77 30 78 31 82 32 79 33 81 34 83 35
REMARK SMILES IDX 80 36 18 37 19 38 20 39 21 40 22 41 23 42 24 43 25 44 26 45
REMARK SMILES IDX 27 46 28 47 74 48 29 49 73 50 30 51 31 52 32 53 67 54 33 55
REMARK SMILES IDX 72 56 66 57 68 58 34 59 71 60 65 61 64 62 35 64 57 65 42 66
REMARK SMILES IDX 56 67 43 68 46 69 55 70 69 71 44 72 45 73 54 75 70 76 47 77
REMARK SMILES IDX 36 78 37 79 41 80 38 81 40 82 39 83 58 84 59 85 63 86 60 87
REMARK SMILES IDX 62 88 61 89 48 90 49 91 53 92 50 93 52 94 51 95
REMARK H PARENT 6 20 6 21 68 63 46 74
REMARK Flexibility Score: inf
ROOT
ATOM      1  C   UNL     1      -2.391  -1.843   4.317  1.00  0.00     0.188 C 
ENDROOT
BRANCH   1   2
ATOM      2  C   UNL     1      -0.888  -1.952   4.622  1.00  0.00     0.188 C 
BRANCH   2   3
ATOM      3  O   UNL     1      -0.110  -0.798   4.872  1.00  0.00    -0.376 OA
BRANCH   3   4
ATOM      4  C   UNL     1       0.133   0.151   3.850  1.00  0.00     0.202 C 
BRANCH   4   5
ATOM      5  C   UNL     1       0.048  -0.162   2.356  1.00  0.00     0.261 C 
BRANCH   5   6
ATOM      6  O   UNL     1      -1.021  -1.005   1.886  1.00  0.00    -0.459 OA
BRANCH   6   7
ATOM      7  C   UNL     1      -0.678  -2.229   1.404  1.00  0.00     0.355 C 
ATOM      8  O   UNL     1       0.486  -2.639   1.369  1.00  0.00    -0.244 OA
BRANCH   7   9
ATOM      9  C   UNL     1      -1.822  -3.032   0.996  1.00  0.00     0.137 A 
ATOM     10  C   UNL     1      -2.998  -2.706   0.288  1.00  0.00     0.047 A 
ATOM     11  C   UNL     1      -3.640  -3.953  -0.048  1.00  0.00     0.009 A 
ATOM     12  N   UNL     1      -1.856  -4.417   1.193  1.00  0.00    -0.330 N 
ATOM     13  C   UNL     1      -2.811  -4.984   0.370  1.00  0.00     0.050 A 
ATOM     14  C   UNL     1      -4.815  -4.279  -0.765  1.00  0.00     0.011 A 
ATOM     15  C   UNL     1      -3.037  -6.316  -0.017  1.00  0.00     0.027 A 
ATOM     16  C   UNL     1      -5.089  -5.611  -1.087  1.00  0.00     0.001 A 
ATOM     17  C   UNL     1      -4.194  -6.614  -0.738  1.00  0.00     0.002 A 
BRANCH  10  18
ATOM     18  C   UNL     1      -3.566  -1.414  -0.253  1.00  0.00     0.300 C 
BRANCH  18  19
ATOM     19  N   UNL     1      -2.687  -0.273  -0.181  1.00  0.00    -0.340 N 
ATOM     20  H   UNL     1      -3.269   0.541   0.017  1.00  0.00     0.346 HD
ATOM     21  H   UNL     1      -2.008  -0.530   0.535  1.00  0.00     0.346 HD
BRANCH  19  22
ATOM     22  C   UNL     1      -1.862   0.060  -1.349  1.00  0.00     0.182 C 
ATOM     23  C   UNL     1       2.499  -0.072  -0.692  1.00  0.00     0.007 C 
ATOM     24  C   UNL     1       0.986  -0.055  -0.865  1.00  0.00    -0.014 C 
ATOM     25  C   UNL     1       0.496  -0.892  -2.031  1.00  0.00     0.009 C 
ATOM     26  C   UNL     1       0.399   1.339  -0.983  1.00  0.00     0.009 C 
ATOM     27  C   UNL     1      -1.013  -1.096  -1.937  1.00  0.00     0.065 C 
ATOM     28  C   UNL     1      -1.122   1.365  -0.973  1.00  0.00     0.065 C 
ENDBRANCH  19  22
ENDBRANCH  18  19
ENDBRANCH  10  18
BRANCH  12  29
ATOM     29  C   UNL     1      -0.950  -5.208   2.046  1.00  0.00     0.161 C 
BRANCH  29  30
ATOM     30  C   UNL     1      -1.583  -5.726   3.325  1.00  0.00     0.008 A 
ATOM     31  C   UNL     1      -2.649  -6.636   3.337  1.00  0.00     0.008 A 
ATOM     32  C   UNL     1      -1.050  -5.368   4.568  1.00  0.00     0.128 A 
ATOM     33  C   UNL     1      -3.188  -7.116   4.537  1.00  0.00     0.001 A 
ATOM     34  C   UNL     1      -1.604  -5.805   5.772  1.00  0.00     0.039 A 
ATOM     35  F   UNL     1       0.051  -4.608   4.628  1.00  0.00    -0.207 F 
ATOM     36  C   UNL     1      -2.680  -6.684   5.757  1.00  0.00     0.003 A 
ENDBRANCH  29  30
ENDBRANCH  12  29
ENDBRANCH   7   9
ENDBRANCH   6   7
ENDBRANCH   5   6
ENDBRANCH   4   5
ENDBRANCH   3   4
ENDBRANCH   2   3
ENDBRANCH   1   2
BRANCH   1  37
ATOM     37  O   UNL     1      -2.786  -0.667   3.651  1.00  0.00    -0.377 OA
BRANCH  37  38
ATOM     38  C   UNL     1      -3.030   0.498   4.420  1.00  0.00     0.188 C 
BRANCH  38  39
ATOM     39  C   UNL     1      -2.632   0.546   5.905  1.00  0.00     0.188 C 
BRANCH  39  40
ATOM     40  O   UNL     1      -3.240  -0.495   6.657  1.00  0.00    -0.376 OA
BRANCH  40  41
ATOM     41  C   UNL     1      -4.367  -0.133   7.443  1.00  0.00     0.202 C 
BRANCH  41  42
ATOM     42  C   UNL     1      -5.609   0.346   6.673  1.00  0.00     0.261 C 
BRANCH  42  43
ATOM     43  O   UNL     1      -5.409   1.536   5.883  1.00  0.00    -0.460 OA
BRANCH  43  44
ATOM     44  C   UNL     1      -5.149   2.708   6.497  1.00  0.00     0.338 C 
ATOM     45  O   UNL     1      -5.314   2.957   7.688  1.00  0.00    -0.246 OA
BRANCH  44  46
ATOM     46  C   UNL     1      -4.301   3.504   5.565  1.00  0.00     0.060 A 
ATOM     47  C   UNL     1      -4.486   3.447   4.179  1.00  0.00     0.016 A 
ATOM     48  C   UNL     1      -3.137   4.093   6.086  1.00  0.00     0.016 A 
ATOM     49  C   UNL     1      -3.472   3.894   3.330  1.00  0.00     0.010 A 
ATOM     50  C   UNL     1      -2.120   4.535   5.232  1.00  0.00     0.010 A 
ATOM     51  C   UNL     1      -2.268   4.413   3.848  1.00  0.00    -0.014 A 
BRANCH  51  52
ATOM     52  C   UNL     1      -1.314   4.994   2.886  1.00  0.00     0.031 A 
ATOM     53  C   UNL     1      -1.872   6.122   2.084  1.00  0.00     0.074 A 
ATOM     54  C   UNL     1       0.016   4.784   2.770  1.00  0.00     0.049 A 
ATOM     55  N   UNL     1      -1.888   6.272   0.799  1.00  0.00    -0.248 NA
ATOM     56  C   UNL     1      -2.530   7.205   2.833  1.00  0.00     0.031 C 
ATOM     57  C   UNL     1       0.898   4.047   3.674  1.00  0.00     0.029 A 
ATOM     58  N   UNL     1       0.886   5.314   1.844  1.00  0.00    -0.354 N 
ATOM     59  C   UNL     1      -2.453   7.522   0.572  1.00  0.00     0.074 A 
ATOM     60  C   UNL     1      -2.911   8.014   1.847  1.00  0.00     0.031 C 
ATOM     61  C   UNL     1       2.183   4.360   3.386  1.00  0.00     0.029 A 
ATOM     62  C   UNL     1       2.218   5.221   2.212  1.00  0.00     0.049 A 
ATOM     63  H   UNL     1       0.588   5.721   0.999  1.00  0.00     0.167 HD
ATOM     64  C   UNL     1      -2.392   8.160  -0.626  1.00  0.00     0.031 A 
ATOM     65  C   UNL     1       3.273   5.867   1.658  1.00  0.00     0.031 A 
ATOM     66  C   UNL     1      -2.028   7.295  -1.709  1.00  0.00     0.049 A 
ATOM     67  C   UNL     1       2.903   6.409   0.333  1.00  0.00     0.074 A 
ATOM     68  C   UNL     1      -2.566   6.142  -2.239  1.00  0.00     0.029 A 
ATOM     69  N   UNL     1      -0.780   7.430  -2.264  1.00  0.00    -0.354 N 
ATOM     70  N   UNL     1       2.798   5.715  -0.761  1.00  0.00    -0.248 NA
ATOM     71  C   UNL     1       2.425   7.779   0.250  1.00  0.00     0.031 C 
ATOM     72  C   UNL     1      -1.456   5.405  -2.727  1.00  0.00     0.029 A 
ATOM     73  C   UNL     1      -0.302   6.173  -2.548  1.00  0.00     0.049 A 
ATOM     74  H   UNL     1      -0.310   8.279  -2.430  1.00  0.00     0.167 HD
ATOM     75  C   UNL     1       1.916   6.419  -1.562  1.00  0.00     0.074 A 
ATOM     76  C   UNL     1       1.821   7.733  -0.937  1.00  0.00     0.031 C 
ATOM     77  C   UNL     1       1.108   5.793  -2.474  1.00  0.00     0.031 A 
BRANCH  64  78
ATOM     78  C   UNL     1      -2.424   9.654  -0.761  1.00  0.00    -0.014 A 
ATOM     79  C   UNL     1      -1.977  10.509   0.265  1.00  0.00     0.009 A 
ATOM     80  C   UNL     1      -2.683  10.236  -2.013  1.00  0.00     0.009 A 
ATOM     81  C   UNL     1      -1.823  11.882   0.067  1.00  0.00     0.001 A 
ATOM     82  C   UNL     1      -2.487  11.606  -2.227  1.00  0.00     0.001 A 
ATOM     83  C   UNL     1      -2.061  12.428  -1.187  1.00  0.00     0.000 A 
ENDBRANCH  64  78
BRANCH  65  84
ATOM     84  C   UNL     1       4.540   6.282   2.300  1.00  0.00    -0.014 A 
ATOM     85  C   UNL     1       4.536   6.715   3.638  1.00  0.00     0.009 A 
ATOM     86  C   UNL     1       5.695   6.520   1.537  1.00  0.00     0.009 A 
ATOM     87  C   UNL     1       5.632   7.388   4.186  1.00  0.00     0.001 A 
ATOM     88  C   UNL     1       6.793   7.197   2.086  1.00  0.00     0.001 A 
ATOM     89  C   UNL     1       6.755   7.642   3.406  1.00  0.00     0.000 A 
ENDBRANCH  65  84
BRANCH  77  90
ATOM     90  C   UNL     1       1.538   4.488  -3.150  1.00  0.00    -0.014 A 
ATOM     91  C   UNL     1       0.894   4.113  -4.351  1.00  0.00     0.009 A 
ATOM     92  C   UNL     1       2.510   3.594  -2.674  1.00  0.00     0.009 A 
ATOM     93  C   UNL     1       1.126   2.882  -4.975  1.00  0.00     0.001 A 
ATOM     94  C   UNL     1       2.797   2.389  -3.334  1.00  0.00     0.001 A 
ATOM     95  C   UNL     1       2.079   2.015  -4.463  1.00  0.00     0.000 A 
ENDBRANCH  77  90
ENDBRANCH  51  52
ENDBRANCH  44  46
ENDBRANCH  43  44
ENDBRANCH  42  43
ENDBRANCH  41  42
ENDBRANCH  40  41
ENDBRANCH  39  40
ENDBRANCH  38  39
ENDBRANCH  37  38
ENDBRANCH   1  37
TORSDOF 25
