REMARK SMILES O=C(OCCOCCOCCOCCOC(=O)[C@H]1O[C@@H](Oc2c(-c3cc(O)c(O)c(O)c3)oc3cc(O)cc(O)c3c2=O)[C@H](O)[C@@H](O)[C@@H]1O)c1ccc(-c2c3nc(c(-c4ccccc4)c4ccc([nH]4)c(-c4ccccc4)c4nc(c(-c5ccccc5)c5ccc2[nH]5)C=C4)C=C3)cc1
REMARK SMILES IDX 10 1 9 2 8 3 7 4 6 5 5 6 4 7 3 8 2 9 1 10 50 11 51 12 97 13
REMARK SMILES IDX 52 14 96 15 53 16 54 17 55 18 90 19 56 20 95 21 89 22 91 23
REMARK SMILES IDX 57 24 94 25 88 26 87 27 58 29 80 30 65 31 79 32 66 33 69 34
REMARK SMILES IDX 78 35 92 36 67 37 68 38 77 40 93 41 70 42 59 43 60 44 64 45
REMARK SMILES IDX 61 46 63 47 62 48 81 49 82 50 86 51 83 52 85 53 84 54 71 55
REMARK SMILES IDX 72 56 76 57 73 58 75 59 74 60 11 61 12 62 13 63 14 64 15 65
REMARK SMILES IDX 16 66 17 67 18 68 19 69 48 70 20 71 46 72 44 73 49 74 21 76
REMARK SMILES IDX 22 77 23 78 42 79 33 80 41 81 43 82 34 83 39 84 35 85 38 86
REMARK SMILES IDX 36 87 24 88 25 89 32 90 26 91 30 92 28 93 27 94 31 96 29 98
REMARK SMILES IDX 40 100 37 102 47 104 45 106
REMARK H PARENT 91 28 69 39 49 75 27 95 31 97 29 99 40 101 37 103 47 105
REMARK H PARENT 45 107
REMARK Flexibility Score: inf
ROOT
ATOM      1  C   UNL     1       6.191   5.261   3.170  1.00  0.00     0.188 C 
ENDROOT
BRANCH   1   2
ATOM      2  O   UNL     1       6.176   6.538   3.794  1.00  0.00    -0.377 OA
BRANCH   2   3
ATOM      3  C   UNL     1       6.711   7.607   3.022  1.00  0.00     0.188 C 
BRANCH   3   4
ATOM      4  C   UNL     1       8.053   7.300   2.356  1.00  0.00     0.188 C 
BRANCH   4   5
ATOM      5  O   UNL     1       7.915   6.295   1.349  1.00  0.00    -0.376 OA
BRANCH   5   6
ATOM      6  C   UNL     1       8.901   5.258   1.349  1.00  0.00     0.202 C 
BRANCH   6   7
ATOM      7  C   UNL     1      10.206   5.640   0.659  1.00  0.00     0.261 C 
BRANCH   7   8
ATOM      8  O   UNL     1      10.505   7.038   0.774  1.00  0.00    -0.460 OA
BRANCH   8   9
ATOM      9  C   UNL     1      10.068   8.052  -0.012  1.00  0.00     0.338 C 
ATOM     10  O   UNL     1      10.443   9.193   0.261  1.00  0.00    -0.246 OA
BRANCH   9  11
ATOM     11  C   UNL     1       9.162   7.890  -1.196  1.00  0.00     0.060 A 
ATOM     12  C   UNL     1       8.300   6.818  -1.432  1.00  0.00     0.016 A 
ATOM     13  C   UNL     1       9.137   8.954  -2.118  1.00  0.00     0.016 A 
ATOM     14  C   UNL     1       7.464   6.773  -2.533  1.00  0.00     0.010 A 
ATOM     15  C   UNL     1       8.306   8.918  -3.242  1.00  0.00     0.010 A 
ATOM     16  C   UNL     1       7.485   7.808  -3.455  1.00  0.00    -0.014 A 
BRANCH  16  17
ATOM     17  C   UNL     1       6.806   7.556  -4.732  1.00  0.00     0.031 A 
ATOM     18  C   UNL     1       7.654   7.082  -5.872  1.00  0.00     0.074 A 
ATOM     19  C   UNL     1       5.464   7.546  -4.785  1.00  0.00     0.049 A 
ATOM     20  N   UNL     1       7.312   6.798  -7.098  1.00  0.00    -0.248 NA
ATOM     21  C   UNL     1       9.086   6.873  -5.581  1.00  0.00     0.031 C 
ATOM     22  C   UNL     1       4.570   7.806  -3.652  1.00  0.00     0.029 A 
ATOM     23  N   UNL     1       4.618   7.262  -5.820  1.00  0.00    -0.354 N 
ATOM     24  C   UNL     1       8.487   6.411  -7.728  1.00  0.00     0.074 A 
ATOM     25  C   UNL     1       9.552   6.492  -6.758  1.00  0.00     0.031 C 
ATOM     26  C   UNL     1       3.298   7.653  -4.055  1.00  0.00     0.029 A 
ATOM     27  C   UNL     1       3.290   7.360  -5.483  1.00  0.00     0.049 A 
ATOM     28  H   UNL     1       4.930   7.012  -6.720  1.00  0.00     0.167 HD
ATOM     29  C   UNL     1       8.653   6.036  -9.016  1.00  0.00     0.031 A 
ATOM     30  C   UNL     1       2.202   7.263  -6.268  1.00  0.00     0.031 A 
ATOM     31  C   UNL     1       7.568   5.984  -9.953  1.00  0.00     0.049 A 
ATOM     32  C   UNL     1       2.429   6.989  -7.731  1.00  0.00     0.074 A 
ATOM     33  C   UNL     1       7.599   5.718 -11.307  1.00  0.00     0.029 A 
ATOM     34  N   UNL     1       6.239   6.209  -9.611  1.00  0.00    -0.354 N 
ATOM     35  N   UNL     1       3.553   6.726  -8.358  1.00  0.00    -0.248 NA
ATOM     36  C   UNL     1       1.246   7.016  -8.598  1.00  0.00     0.031 C 
ATOM     37  C   UNL     1       6.293   5.837 -11.795  1.00  0.00     0.029 A 
ATOM     38  C   UNL     1       5.441   6.112 -10.733  1.00  0.00     0.049 A 
ATOM     39  H   UNL     1       5.915   6.408  -8.703  1.00  0.00     0.167 HD
ATOM     40  C   UNL     1       3.213   6.540  -9.689  1.00  0.00     0.074 A 
ATOM     41  C   UNL     1       1.772   6.694  -9.771  1.00  0.00     0.031 C 
ATOM     42  C   UNL     1       4.009   6.273 -10.755  1.00  0.00     0.031 A 
BRANCH  29  43
ATOM     43  C   UNL     1      10.059   5.771  -9.472  1.00  0.00    -0.014 A 
ATOM     44  C   UNL     1      10.768   4.628  -9.067  1.00  0.00     0.009 A 
ATOM     45  C   UNL     1      10.704   6.717 -10.283  1.00  0.00     0.009 A 
ATOM     46  C   UNL     1      12.106   4.461  -9.434  1.00  0.00     0.001 A 
ATOM     47  C   UNL     1      12.032   6.535 -10.670  1.00  0.00     0.001 A 
ATOM     48  C   UNL     1      12.736   5.413 -10.236  1.00  0.00     0.000 A 
ENDBRANCH  29  43
BRANCH  30  49
ATOM     49  C   UNL     1       0.841   7.515  -5.721  1.00  0.00    -0.014 A 
ATOM     50  C   UNL     1      -0.146   6.519  -5.734  1.00  0.00     0.009 A 
ATOM     51  C   UNL     1       0.509   8.782  -5.210  1.00  0.00     0.009 A 
ATOM     52  C   UNL     1      -1.440   6.795  -5.278  1.00  0.00     0.001 A 
ATOM     53  C   UNL     1      -0.774   9.046  -4.724  1.00  0.00     0.001 A 
ATOM     54  C   UNL     1      -1.751   8.056  -4.771  1.00  0.00     0.000 A 
ENDBRANCH  30  49
BRANCH  42  55
ATOM     55  C   UNL     1       3.324   6.098 -12.077  1.00  0.00    -0.014 A 
ATOM     56  C   UNL     1       2.785   7.193 -12.768  1.00  0.00     0.009 A 
ATOM     57  C   UNL     1       3.265   4.822 -12.657  1.00  0.00     0.009 A 
ATOM     58  C   UNL     1       2.167   7.005 -14.004  1.00  0.00     0.001 A 
ATOM     59  C   UNL     1       2.677   4.643 -13.907  1.00  0.00     0.001 A 
ATOM     60  C   UNL     1       2.120   5.733 -14.575  1.00  0.00     0.000 A 
ENDBRANCH  42  55
ENDBRANCH  16  17
ENDBRANCH   9  11
ENDBRANCH   8   9
ENDBRANCH   7   8
ENDBRANCH   6   7
ENDBRANCH   5   6
ENDBRANCH   4   5
ENDBRANCH   3   4
ENDBRANCH   2   3
ENDBRANCH   1   2
BRANCH   1  61
ATOM     61  C   UNL     1       5.374   5.020   1.880  1.00  0.00     0.188 C 
BRANCH  61  62
ATOM     62  O   UNL     1       4.936   6.213   1.239  1.00  0.00    -0.376 OA
BRANCH  62  63
ATOM     63  C   UNL     1       3.537   6.472   1.311  1.00  0.00     0.202 C 
BRANCH  63  64
ATOM     64  C   UNL     1       2.960   6.734   2.708  1.00  0.00     0.261 C 
BRANCH  64  65
ATOM     65  O   UNL     1       3.419   5.824   3.718  1.00  0.00    -0.461 OA
BRANCH  65  66
ATOM     66  C   UNL     1       2.853   4.601   3.846  1.00  0.00     0.338 C 
ATOM     67  O   UNL     1       1.937   4.180   3.145  1.00  0.00    -0.249 OA
BRANCH  66  68
ATOM     68  C   UNL     1       3.554   3.772   4.951  1.00  0.00     0.263 C 
ATOM     69  O   UNL     1       4.693   3.010   4.495  1.00  0.00    -0.322 OA
ATOM     70  C   UNL     1       3.959   4.703   6.107  1.00  0.00     0.186 C 
ATOM     71  C   UNL     1       5.400   2.224   5.474  1.00  0.00     0.340 C 
ATOM     72  C   UNL     1       4.296   3.796   7.277  1.00  0.00     0.181 C 
ATOM     73  C   UNL     1       5.393   2.808   6.893  1.00  0.00     0.214 C 
BRANCH  70  74
ATOM     74  O   UNL     1       2.936   5.625   6.491  1.00  0.00    -0.387 OA
ATOM     75  H   UNL     1       2.154   5.135   6.788  1.00  0.00     0.211 HD
ENDBRANCH  70  74
BRANCH  71  76
ATOM     76  O   UNL     1       6.697   1.708   5.010  1.00  0.00    -0.454 OA
BRANCH  76  77
ATOM     77  C   UNL     1       8.016   2.145   4.978  1.00  0.00     0.214 A 
ATOM     78  C   UNL     1       8.839   2.599   5.967  1.00  0.00     0.181 A 
ATOM     79  C   UNL     1       8.739   1.883   3.656  1.00  0.00     0.239 A 
ATOM     80  O   UNL     1      10.159   2.982   5.806  1.00  0.00    -0.452 OA
ATOM     81  C   UNL     1      10.216   2.094   3.575  1.00  0.00     0.111 A 
ATOM     82  O   UNL     1       8.100   1.524   2.671  1.00  0.00    -0.285 OA
ATOM     83  C   UNL     1      10.832   2.678   4.668  1.00  0.00     0.146 A 
ATOM     84  C   UNL     1      11.028   1.777   2.470  1.00  0.00     0.134 A 
ATOM     85  C   UNL     1      12.196   2.995   4.669  1.00  0.00     0.094 A 
ATOM     86  C   UNL     1      12.402   2.084   2.457  1.00  0.00     0.093 A 
ATOM     87  C   UNL     1      12.972   2.707   3.559  1.00  0.00     0.123 A 
BRANCH  78  88
ATOM     88  C   UNL     1       8.520   2.811   7.381  1.00  0.00     0.029 A 
ATOM     89  C   UNL     1       8.440   4.142   7.837  1.00  0.00     0.062 A 
ATOM     90  C   UNL     1       8.273   1.747   8.259  1.00  0.00     0.062 A 
ATOM     91  C   UNL     1       7.885   4.397   9.078  1.00  0.00     0.162 A 
ATOM     92  C   UNL     1       7.746   2.026   9.515  1.00  0.00     0.162 A 
ATOM     93  C   UNL     1       7.484   3.341   9.885  1.00  0.00     0.200 A 
BRANCH  91  94
ATOM     94  O   UNL     1       7.620   5.689   9.427  1.00  0.00    -0.504 OA
ATOM     95  H   UNL     1       7.897   6.390   8.871  1.00  0.00     0.293 HD
ENDBRANCH  91  94
BRANCH  92  96
ATOM     96  O   UNL     1       7.346   0.992  10.313  1.00  0.00    -0.504 OA
ATOM     97  H   UNL     1       6.989   1.166  11.162  1.00  0.00     0.293 HD
ENDBRANCH  92  96
BRANCH  93  98
ATOM     98  O   UNL     1       6.655   3.589  10.948  1.00  0.00    -0.502 OA
ATOM     99  H   UNL     1       6.473   4.471  11.204  1.00  0.00     0.293 HD
ENDBRANCH  93  98
ENDBRANCH  78  88
BRANCH  84 100
ATOM    100  O   UNL     1      10.507   1.162   1.367  1.00  0.00    -0.507 OA
ATOM    101  H   UNL     1      11.060   0.957   0.639  1.00  0.00     0.293 HD
ENDBRANCH  84 100
BRANCH  87 102
ATOM    102  O   UNL     1      14.288   3.057   3.598  1.00  0.00    -0.508 OA
ATOM    103  H   UNL     1      14.638   3.476   4.359  1.00  0.00     0.293 HD
ENDBRANCH  87 102
ENDBRANCH  76  77
ENDBRANCH  71  76
BRANCH  72 104
ATOM    104  O   UNL     1       4.702   4.565   8.430  1.00  0.00    -0.387 OA
ATOM    105  H   UNL     1       5.503   5.069   8.216  1.00  0.00     0.211 HD
ENDBRANCH  72 104
BRANCH  73 106
ATOM    106  O   UNL     1       5.383   1.746   7.854  1.00  0.00    -0.384 OA
ATOM    107  H   UNL     1       4.545   1.261   7.792  1.00  0.00     0.211 HD
ENDBRANCH  73 106
ENDBRANCH  66  68
ENDBRANCH  65  66
ENDBRANCH  64  65
ENDBRANCH  63  64
ENDBRANCH  62  63
ENDBRANCH  61  62
ENDBRANCH   1  61
TORSDOF 31
