REMARK SMILES Cc1c(N[C@@H]2CC[C@@H]([NH3+])C2)cccc1C(=O)OCCOCCOCCOCCOC(=O)c1ccc(-c2c3nc(c(-c4ccccc4)c4ccc([nH]4)c(-c4ccccc4)c4nc(c(-c5ccccc5)c5ccc2[nH]5)C=C4)C=C3)cc1
REMARK SMILES IDX 22 1 21 2 20 3 19 4 18 5 17 6 15 7 16 8 14 9 1 10 2 11 3 12
REMARK SMILES IDX 11 13 13 14 12 15 4 16 5 18 6 19 10 20 7 21 8 22 9 23 23 27
REMARK SMILES IDX 24 28 25 29 26 30 27 31 28 32 29 33 30 34 31 35 32 36 33 37
REMARK SMILES IDX 79 38 34 39 78 40 35 41 36 42 37 43 72 44 38 45 77 46 71 47
REMARK SMILES IDX 73 48 39 49 76 50 70 51 69 52 40 54 62 55 47 56 61 57 48 58
REMARK SMILES IDX 51 59 60 60 74 61 49 62 50 63 59 65 75 66 52 67 41 68 42 69
REMARK SMILES IDX 46 70 43 71 45 72 44 73 63 74 64 75 68 76 65 77 67 78 66 79
REMARK SMILES IDX 53 80 54 81 58 82 55 83 57 84 56 85
REMARK H PARENT 4 17 9 24 9 25 9 26 73 53 51 64
REMARK Flexibility Score: inf
ROOT
ATOM      1  C   UNL     1      -0.208   1.364  -2.933  1.00  0.00     0.188 C 
ENDROOT
BRANCH   1   2
ATOM      2  C   UNL     1      -1.034   2.329  -2.067  1.00  0.00     0.188 C 
BRANCH   2   3
ATOM      3  O   UNL     1      -0.695   3.704  -1.980  1.00  0.00    -0.376 OA
BRANCH   3   4
ATOM      4  C   UNL     1       0.165   4.065  -0.904  1.00  0.00     0.202 C 
BRANCH   4   5
ATOM      5  C   UNL     1      -0.301   3.820   0.522  1.00  0.00     0.261 C 
BRANCH   5   6
ATOM      6  O   UNL     1      -0.102   2.448   0.829  1.00  0.00    -0.460 OA
BRANCH   6   7
ATOM      7  C   UNL     1      -1.093   1.882   1.529  1.00  0.00     0.338 C 
ATOM      8  O   UNL     1      -1.880   2.440   2.264  1.00  0.00    -0.246 OA
BRANCH   7   9
ATOM      9  C   UNL     1      -1.320   0.535   0.958  1.00  0.00     0.065 A 
ATOM     10  C   UNL     1       1.126  -0.076   0.403  1.00  0.00     0.047 C 
ATOM     11  C   UNL     1      -0.344  -0.391   0.520  1.00  0.00    -0.013 A 
ATOM     12  C   UNL     1      -0.771  -1.674   0.132  1.00  0.00     0.038 A 
ATOM     13  C   UNL     1      -2.141  -1.855  -0.102  1.00  0.00     0.026 A 
ATOM     14  C   UNL     1      -2.684   0.300   0.730  1.00  0.00     0.016 A 
ATOM     15  C   UNL     1      -3.091  -0.876   0.147  1.00  0.00     0.003 A 
BRANCH  12  16
ATOM     16  N   UNL     1       0.161  -2.687  -0.028  1.00  0.00    -0.382 N 
ATOM     17  H   UNL     1       1.105  -2.409  -0.043  1.00  0.00     0.160 HD
BRANCH  16  18
ATOM     18  C   UNL     1      -0.087  -4.107  -0.176  1.00  0.00     0.085 C 
ATOM     19  C   UNL     1      -0.755  -4.473  -1.501  1.00  0.00     0.031 C 
ATOM     20  C   UNL     1      -0.932  -4.687   0.957  1.00  0.00     0.089 C 
ATOM     21  C   UNL     1      -1.994  -5.285  -1.127  1.00  0.00     0.067 C 
ATOM     22  C   UNL     1      -1.751  -5.791   0.296  1.00  0.00     0.182 C 
BRANCH  22  23
ATOM     23  N   UNL     1      -1.017  -7.052   0.273  1.00  0.00    -0.355 N 
ATOM     24  H   UNL     1      -0.135  -6.923  -0.224  1.00  0.00     0.344 HD
ATOM     25  H   UNL     1      -1.575  -7.761  -0.203  1.00  0.00     0.344 HD
ATOM     26  H   UNL     1      -0.828  -7.354   1.229  1.00  0.00     0.344 HD
ENDBRANCH  22  23
ENDBRANCH  16  18
ENDBRANCH  12  16
ENDBRANCH   7   9
ENDBRANCH   6   7
ENDBRANCH   5   6
ENDBRANCH   4   5
ENDBRANCH   3   4
ENDBRANCH   2   3
ENDBRANCH   1   2
BRANCH   1  27
ATOM     27  O   UNL     1       1.124   1.038  -2.565  1.00  0.00    -0.377 OA
BRANCH  27  28
ATOM     28  C   UNL     1       2.180   1.891  -2.996  1.00  0.00     0.188 C 
BRANCH  28  29
ATOM     29  C   UNL     1       2.086   2.479  -4.397  1.00  0.00     0.188 C 
BRANCH  29  30
ATOM     30  O   UNL     1       1.126   3.534  -4.391  1.00  0.00    -0.376 OA
BRANCH  30  31
ATOM     31  C   UNL     1       0.409   3.730  -5.606  1.00  0.00     0.202 C 
BRANCH  31  32
ATOM     32  C   UNL     1       1.303   4.053  -6.810  1.00  0.00     0.261 C 
BRANCH  32  33
ATOM     33  O   UNL     1       1.970   5.312  -6.595  1.00  0.00    -0.460 OA
BRANCH  33  34
ATOM     34  C   UNL     1       3.277   5.223  -6.231  1.00  0.00     0.338 C 
ATOM     35  O   UNL     1       4.127   4.559  -6.801  1.00  0.00    -0.246 OA
BRANCH  34  36
ATOM     36  C   UNL     1       3.464   5.808  -4.872  1.00  0.00     0.060 A 
ATOM     37  C   UNL     1       4.684   5.642  -4.196  1.00  0.00     0.016 A 
ATOM     38  C   UNL     1       2.335   6.181  -4.159  1.00  0.00     0.016 A 
ATOM     39  C   UNL     1       4.716   5.642  -2.791  1.00  0.00     0.010 A 
ATOM     40  C   UNL     1       2.358   6.062  -2.787  1.00  0.00     0.010 A 
ATOM     41  C   UNL     1       3.523   5.733  -2.082  1.00  0.00    -0.014 A 
BRANCH  41  42
ATOM     42  C   UNL     1       3.335   5.364  -0.662  1.00  0.00     0.031 A 
ATOM     43  C   UNL     1       2.558   6.296   0.231  1.00  0.00     0.074 A 
ATOM     44  C   UNL     1       3.508   4.060  -0.306  1.00  0.00     0.049 A 
ATOM     45  N   UNL     1       2.212   6.043   1.446  1.00  0.00    -0.248 NA
ATOM     46  C   UNL     1       2.025   7.590  -0.205  1.00  0.00     0.031 C 
ATOM     47  C   UNL     1       2.920   3.367   0.843  1.00  0.00     0.029 A 
ATOM     48  N   UNL     1       4.218   3.026  -0.906  1.00  0.00    -0.354 N 
ATOM     49  C   UNL     1       1.163   6.874   1.796  1.00  0.00     0.074 A 
ATOM     50  C   UNL     1       1.145   7.878   0.764  1.00  0.00     0.031 C 
ATOM     51  C   UNL     1       3.411   2.126   0.964  1.00  0.00     0.029 A 
ATOM     52  C   UNL     1       4.525   2.063   0.062  1.00  0.00     0.049 A 
ATOM     53  H   UNL     1       4.465   2.979  -1.858  1.00  0.00     0.167 HD
ATOM     54  C   UNL     1       0.352   6.521   2.842  1.00  0.00     0.031 A 
ATOM     55  C   UNL     1       5.796   1.843   0.509  1.00  0.00     0.031 A 
ATOM     56  C   UNL     1       0.881   5.341   3.562  1.00  0.00     0.049 A 
ATOM     57  C   UNL     1       5.865   2.328   1.969  1.00  0.00     0.074 A 
ATOM     58  C   UNL     1       0.366   4.112   3.935  1.00  0.00     0.029 A 
ATOM     59  N   UNL     1       2.252   5.264   3.825  1.00  0.00    -0.354 N 
ATOM     60  N   UNL     1       5.167   3.349   2.432  1.00  0.00    -0.248 NA
ATOM     61  C   UNL     1       6.421   1.513   3.051  1.00  0.00     0.031 C 
ATOM     62  C   UNL     1       1.466   3.244   4.221  1.00  0.00     0.029 A 
ATOM     63  C   UNL     1       2.646   3.975   4.125  1.00  0.00     0.049 A 
ATOM     64  H   UNL     1       2.863   6.035   3.800  1.00  0.00     0.167 HD
ATOM     65  C   UNL     1       4.987   3.193   3.789  1.00  0.00     0.074 A 
ATOM     66  C   UNL     1       5.863   2.080   4.138  1.00  0.00     0.031 C 
ATOM     67  C   UNL     1       4.005   3.723   4.589  1.00  0.00     0.031 A 
BRANCH  54  68
ATOM     68  C   UNL     1      -1.035   7.104   3.128  1.00  0.00    -0.014 A 
ATOM     69  C   UNL     1      -1.756   6.668   4.261  1.00  0.00     0.009 A 
ATOM     70  C   UNL     1      -1.727   8.012   2.302  1.00  0.00     0.009 A 
ATOM     71  C   UNL     1      -3.064   7.100   4.548  1.00  0.00     0.001 A 
ATOM     72  C   UNL     1      -3.024   8.478   2.600  1.00  0.00     0.001 A 
ATOM     73  C   UNL     1      -3.696   8.017   3.723  1.00  0.00     0.000 A 
ENDBRANCH  54  68
BRANCH  55  74
ATOM     74  C   UNL     1       6.756   1.827  -0.641  1.00  0.00    -0.014 A 
ATOM     75  C   UNL     1       6.574   0.719  -1.511  1.00  0.00     0.009 A 
ATOM     76  C   UNL     1       7.213   3.027  -1.213  1.00  0.00     0.009 A 
ATOM     77  C   UNL     1       6.547   0.886  -2.902  1.00  0.00     0.001 A 
ATOM     78  C   UNL     1       7.228   3.173  -2.616  1.00  0.00     0.001 A 
ATOM     79  C   UNL     1       6.817   2.132  -3.452  1.00  0.00     0.000 A 
ENDBRANCH  55  74
BRANCH  67  80
ATOM     80  C   UNL     1       4.307   4.177   6.000  1.00  0.00    -0.014 A 
ATOM     81  C   UNL     1       5.610   4.281   6.495  1.00  0.00     0.009 A 
ATOM     82  C   UNL     1       3.277   4.764   6.778  1.00  0.00     0.009 A 
ATOM     83  C   UNL     1       5.871   4.930   7.704  1.00  0.00     0.001 A 
ATOM     84  C   UNL     1       3.541   5.458   7.956  1.00  0.00     0.001 A 
ATOM     85  C   UNL     1       4.843   5.534   8.422  1.00  0.00     0.000 A 
ENDBRANCH  67  80
ENDBRANCH  41  42
ENDBRANCH  34  36
ENDBRANCH  33  34
ENDBRANCH  32  33
ENDBRANCH  31  32
ENDBRANCH  30  31
ENDBRANCH  29  30
ENDBRANCH  28  29
ENDBRANCH  27  28
ENDBRANCH   1  27
TORSDOF 23
