REMARK SMILES C[C@H]1[C@H](C)CC[C@@]2(C(=O)OCCOCCOCCOCCOC(=O)c3ccc(-c4c5nc(c(-c6ccccc6)c6ccc([nH]6)c(-c6ccccc6)c6nc(c(-c7ccccc7)c7ccc4[nH]7)C=C6)C=C5)cc3)CC[C@@]3(C)C(=CC[C@@H]4[C@@]5(C)CC[C@H](O)C(C)(C)[C@@H]5CC[C@]43C)[C@H]12
REMARK SMILES IDX 17 1 16 2 15 3 14 4 13 5 12 6 11 7 10 8 8 9 9 10 7 11 1 12
REMARK SMILES IDX 2 13 3 14 95 15 4 16 5 17 77 18 6 19 73 20 75 21 78 22 74 23
REMARK SMILES IDX 76 24 93 25 79 26 80 27 92 28 94 29 81 30 91 31 82 32 83 33
REMARK SMILES IDX 90 34 84 35 87 36 85 37 88 38 89 39 86 40 18 42 19 43 20 44
REMARK SMILES IDX 21 45 22 46 23 47 24 48 25 49 26 50 72 51 27 52 71 53 28 54
REMARK SMILES IDX 29 55 30 56 65 57 31 58 70 59 64 60 66 61 32 62 69 63 63 64
REMARK SMILES IDX 62 65 33 67 55 68 40 69 54 70 41 71 44 72 53 73 67 74 42 75
REMARK SMILES IDX 43 76 52 78 68 79 45 80 34 81 35 82 39 83 36 84 38 85 37 86
REMARK SMILES IDX 56 87 57 88 61 89 58 90 60 91 59 92 46 93 47 94 51 95 48 96
REMARK SMILES IDX 50 97 49 98
REMARK H PARENT 86 41 66 66 44 77
REMARK Flexibility Score: inf
ROOT
ATOM      1  C   UNL     1       4.199   1.051  -4.569  1.00  0.00     0.188 C 
ENDROOT
BRANCH   1   2
ATOM      2  O   UNL     1       3.308   0.103  -5.107  1.00  0.00    -0.377 OA
BRANCH   2   3
ATOM      3  C   UNL     1       1.920   0.360  -4.996  1.00  0.00     0.188 C 
BRANCH   3   4
ATOM      4  C   UNL     1       1.377   1.784  -4.722  1.00  0.00     0.188 C 
BRANCH   4   5
ATOM      5  O   UNL     1       2.091   2.609  -3.809  1.00  0.00    -0.376 OA
BRANCH   5   6
ATOM      6  C   UNL     1       2.132   2.238  -2.450  1.00  0.00     0.202 C 
BRANCH   6   7
ATOM      7  C   UNL     1       1.722   0.825  -2.087  1.00  0.00     0.261 C 
BRANCH   7   8
ATOM      8  O   UNL     1       0.292   0.520  -2.208  1.00  0.00    -0.463 OA
BRANCH   8   9
ATOM      9  C   UNL     1      -0.610  -0.103  -3.007  1.00  0.00     0.312 C 
ATOM     10  O   UNL     1      -0.556  -0.271  -4.217  1.00  0.00    -0.252 OA
BRANCH   9  11
ATOM     11  C   UNL     1      -1.735  -0.741  -2.158  1.00  0.00     0.075 C 
ATOM     12  C   UNL     1      -0.383  -0.353   1.564  1.00  0.00     0.008 C 
ATOM     13  C   UNL     1      -0.421  -0.689   0.075  1.00  0.00    -0.003 C 
ATOM     14  C   UNL     1      -0.039  -2.203  -0.175  1.00  0.00    -0.011 C 
ATOM     15  C   UNL     1      -1.730  -0.135  -0.716  1.00  0.00     0.036 C 
ATOM     16  C   UNL     1       1.404  -2.556   0.243  1.00  0.00     0.008 C 
ATOM     17  C   UNL     1      -0.148  -2.642  -1.635  1.00  0.00     0.005 C 
ATOM     18  C   UNL     1      -2.014   1.435  -0.988  1.00  0.00    -0.063 C 
ATOM     19  C   UNL     1      -1.484  -2.259  -2.214  1.00  0.00     0.020 C 
ATOM     20  C   UNL     1      -3.124  -0.543  -2.798  1.00  0.00     0.020 C 
ATOM     21  C   UNL     1      -3.325   1.839  -1.794  1.00  0.00    -0.006 C 
ATOM     22  C   UNL     1      -1.059   2.375  -0.807  1.00  0.00    -0.027 C 
ATOM     23  C   UNL     1      -3.499   0.908  -3.024  1.00  0.00     0.013 C 
ATOM     24  C   UNL     1      -4.522   1.602  -0.844  1.00  0.00     0.017 C 
ATOM     25  C   UNL     1      -3.319   3.417  -2.329  1.00  0.00    -0.020 C 
ATOM     26  C   UNL     1      -0.976   3.659  -1.615  1.00  0.00     0.032 C 
ATOM     27  C   UNL     1      -1.874   3.668  -2.877  1.00  0.00     0.006 C 
ATOM     28  C   UNL     1      -4.354   3.741  -3.440  1.00  0.00     0.008 C 
ATOM     29  C   UNL     1      -3.666   4.381  -1.153  1.00  0.00     0.012 C 
ATOM     30  C   UNL     1      -1.593   4.851  -3.949  1.00  0.00    -0.025 C 
ATOM     31  C   UNL     1      -4.139   5.130  -4.088  1.00  0.00     0.005 C 
ATOM     32  C   UNL     1      -1.033   6.083  -3.210  1.00  0.00     0.012 C 
ATOM     33  C   UNL     1      -0.490   4.393  -4.960  1.00  0.00     0.010 C 
ATOM     34  C   UNL     1      -2.829   5.121  -4.880  1.00  0.00     0.003 C 
ATOM     35  C   UNL     1      -0.207   5.328  -6.143  1.00  0.00     0.033 C 
ATOM     36  C   UNL     1      -2.626   6.254  -5.977  1.00  0.00    -0.006 C 
ATOM     37  C   UNL     1      -1.457   5.782  -6.900  1.00  0.00     0.120 C 
ATOM     38  C   UNL     1      -2.365   7.675  -5.431  1.00  0.00     0.014 C 
ATOM     39  C   UNL     1      -3.888   6.394  -6.867  1.00  0.00     0.014 C 
BRANCH  37  40
ATOM     40  O   UNL     1      -1.099   6.785  -7.853  1.00  0.00    -0.393 OA
ATOM     41  H   UNL     1      -0.747   7.561  -7.389  1.00  0.00     0.210 HD
ENDBRANCH  37  40
ENDBRANCH   9  11
ENDBRANCH   8   9
ENDBRANCH   7   8
ENDBRANCH   6   7
ENDBRANCH   5   6
ENDBRANCH   4   5
ENDBRANCH   3   4
ENDBRANCH   2   3
ENDBRANCH   1   2
BRANCH   1  42
ATOM     42  C   UNL     1       4.386   2.298  -5.444  1.00  0.00     0.188 C 
BRANCH  42  43
ATOM     43  O   UNL     1       3.412   2.426  -6.460  1.00  0.00    -0.376 OA
BRANCH  43  44
ATOM     44  C   UNL     1       3.550   1.734  -7.691  1.00  0.00     0.202 C 
BRANCH  44  45
ATOM     45  C   UNL     1       4.083   0.292  -7.840  1.00  0.00     0.261 C 
BRANCH  45  46
ATOM     46  O   UNL     1       5.165  -0.151  -7.008  1.00  0.00    -0.460 OA
BRANCH  46  47
ATOM     47  C   UNL     1       6.361   0.459  -7.064  1.00  0.00     0.338 C 
ATOM     48  O   UNL     1       6.714   1.322  -7.851  1.00  0.00    -0.246 OA
BRANCH  47  49
ATOM     49  C   UNL     1       7.061   0.103  -5.798  1.00  0.00     0.060 A 
ATOM     50  C   UNL     1       7.519   1.149  -4.976  1.00  0.00     0.016 A 
ATOM     51  C   UNL     1       7.075  -1.216  -5.322  1.00  0.00     0.016 A 
ATOM     52  C   UNL     1       7.982   0.881  -3.687  1.00  0.00     0.010 A 
ATOM     53  C   UNL     1       7.616  -1.496  -4.063  1.00  0.00     0.010 A 
ATOM     54  C   UNL     1       8.110  -0.450  -3.264  1.00  0.00    -0.014 A 
BRANCH  54  55
ATOM     55  C   UNL     1       9.150  -0.745  -2.251  1.00  0.00     0.031 A 
ATOM     56  C   UNL     1      10.566  -0.765  -2.769  1.00  0.00     0.074 A 
ATOM     57  C   UNL     1       8.887  -0.958  -0.951  1.00  0.00     0.049 A 
ATOM     58  N   UNL     1      11.687  -0.974  -2.133  1.00  0.00    -0.248 NA
ATOM     59  C   UNL     1      10.737  -0.498  -4.211  1.00  0.00     0.031 C 
ATOM     60  C   UNL     1       7.570  -0.912  -0.320  1.00  0.00     0.029 A 
ATOM     61  N   UNL     1       9.743  -1.262   0.078  1.00  0.00    -0.354 N 
ATOM     62  C   UNL     1      12.683  -0.846  -3.094  1.00  0.00     0.074 A 
ATOM     63  C   UNL     1      12.047  -0.562  -4.354  1.00  0.00     0.031 C 
ATOM     64  C   UNL     1       7.706  -1.194   0.991  1.00  0.00     0.029 A 
ATOM     65  C   UNL     1       9.114  -1.464   1.282  1.00  0.00     0.049 A 
ATOM     66  H   UNL     1      10.719  -1.328  -0.036  1.00  0.00     0.167 HD
ATOM     67  C   UNL     1      14.021  -0.963  -2.949  1.00  0.00     0.031 A 
ATOM     68  C   UNL     1       9.626  -1.846   2.469  1.00  0.00     0.031 A 
ATOM     69  C   UNL     1      14.653  -1.319  -1.716  1.00  0.00     0.049 A 
ATOM     70  C   UNL     1      11.112  -2.085   2.583  1.00  0.00     0.074 A 
ATOM     71  C   UNL     1      15.998  -1.500  -1.459  1.00  0.00     0.029 A 
ATOM     72  N   UNL     1      13.972  -1.572  -0.537  1.00  0.00    -0.354 N 
ATOM     73  N   UNL     1      12.049  -1.935   1.675  1.00  0.00    -0.248 NA
ATOM     74  C   UNL     1      11.612  -2.544   3.888  1.00  0.00     0.031 C 
ATOM     75  C   UNL     1      16.126  -1.919  -0.132  1.00  0.00     0.029 A 
ATOM     76  C   UNL     1      14.866  -1.935   0.450  1.00  0.00     0.049 A 
ATOM     77  H   UNL     1      12.996  -1.504  -0.421  1.00  0.00     0.167 HD
ATOM     78  C   UNL     1      13.247  -2.251   2.307  1.00  0.00     0.074 A 
ATOM     79  C   UNL     1      12.920  -2.587   3.677  1.00  0.00     0.031 C 
ATOM     80  C   UNL     1      14.507  -2.261   1.805  1.00  0.00     0.031 A 
BRANCH  67  81
ATOM     81  C   UNL     1      14.854  -0.766  -4.180  1.00  0.00    -0.014 A 
ATOM     82  C   UNL     1      15.022   0.508  -4.749  1.00  0.00     0.009 A 
ATOM     83  C   UNL     1      15.454  -1.873  -4.796  1.00  0.00     0.009 A 
ATOM     84  C   UNL     1      15.752   0.662  -5.929  1.00  0.00     0.001 A 
ATOM     85  C   UNL     1      16.205  -1.712  -5.960  1.00  0.00     0.001 A 
ATOM     86  C   UNL     1      16.347  -0.447  -6.530  1.00  0.00     0.000 A 
ENDBRANCH  67  81
BRANCH  68  87
ATOM     87  C   UNL     1       8.738  -2.061   3.645  1.00  0.00    -0.014 A 
ATOM     88  C   UNL     1       8.812  -1.222   4.768  1.00  0.00     0.009 A 
ATOM     89  C   UNL     1       7.842  -3.143   3.670  1.00  0.00     0.009 A 
ATOM     90  C   UNL     1       8.030  -1.477   5.899  1.00  0.00     0.001 A 
ATOM     91  C   UNL     1       7.042  -3.379   4.791  1.00  0.00     0.001 A 
ATOM     92  C   UNL     1       7.143  -2.552   5.908  1.00  0.00     0.000 A 
ENDBRANCH  68  87
BRANCH  80  93
ATOM     93  C   UNL     1      15.625  -2.605   2.747  1.00  0.00    -0.014 A 
ATOM     94  C   UNL     1      15.825  -3.918   3.196  1.00  0.00     0.009 A 
ATOM     95  C   UNL     1      16.531  -1.604   3.135  1.00  0.00     0.009 A 
ATOM     96  C   UNL     1      16.892  -4.216   4.045  1.00  0.00     0.001 A 
ATOM     97  C   UNL     1      17.615  -1.911   3.957  1.00  0.00     0.001 A 
ATOM     98  C   UNL     1      17.789  -3.214   4.419  1.00  0.00     0.000 A 
ENDBRANCH  80  93
ENDBRANCH  54  55
ENDBRANCH  47  49
ENDBRANCH  46  47
ENDBRANCH  45  46
ENDBRANCH  44  45
ENDBRANCH  43  44
ENDBRANCH  42  43
ENDBRANCH   1  42
TORSDOF 21
