REMARK SMILES CC[NH2+][C@@]1(C(=O)OCCOCCOCCOCCOC(=O)c2ccc(-c3c4nc(c(-c5ccccc5)c5ccc([nH]5)c(-c5ccccc5)c5nc(c(-c6ccccc6)c6ccc3[nH]6)C=C5)C=C4)cc2)CCC[C@H]1CC[NH+]1CCCCC1
REMARK SMILES IDX 12 1 11 2 10 3 9 4 8 5 7 6 5 7 6 8 4 9 70 10 73 11 71 12
REMARK SMILES IDX 72 13 3 14 2 17 1 18 74 19 75 20 76 21 77 22 81 23 78 25
REMARK SMILES IDX 80 26 79 27 13 28 14 29 15 30 16 31 17 32 18 33 19 34 20 35
REMARK SMILES IDX 21 36 22 37 23 38 69 39 24 40 68 41 25 42 26 43 27 44 62 45
REMARK SMILES IDX 28 46 67 47 61 48 63 49 29 50 66 51 60 52 59 53 30 55 52 56
REMARK SMILES IDX 37 57 51 58 38 59 41 60 50 61 64 62 39 63 40 64 49 66 65 67
REMARK SMILES IDX 42 68 31 69 32 70 36 71 33 72 35 73 34 74 53 75 54 76 58 77
REMARK SMILES IDX 55 78 57 79 56 80 43 81 44 82 48 83 45 84 47 85 46 86
REMARK H PARENT 3 15 3 16 76 24 63 54 41 65
REMARK Flexibility Score: inf
ROOT
ATOM      1  C   UNL     1      -2.404  -3.511  -1.143  1.00  0.00     0.188 C 
ENDROOT
BRANCH   1   2
ATOM      2  C   UNL     1      -3.066  -2.145  -1.218  1.00  0.00     0.188 C 
BRANCH   2   3
ATOM      3  O   UNL     1      -4.197  -2.162  -2.046  1.00  0.00    -0.376 OA
BRANCH   3   4
ATOM      4  C   UNL     1      -4.039  -1.683  -3.365  1.00  0.00     0.202 C 
BRANCH   4   5
ATOM      5  C   UNL     1      -2.799  -1.994  -4.240  1.00  0.00     0.261 C 
BRANCH   5   6
ATOM      6  O   UNL     1      -1.597  -2.499  -3.614  1.00  0.00    -0.459 OA
BRANCH   6   7
ATOM      7  C   UNL     1      -0.531  -1.664  -3.582  1.00  0.00     0.368 C 
ATOM      8  O   UNL     1      -0.595  -0.508  -4.004  1.00  0.00    -0.245 OA
BRANCH   7   9
ATOM      9  C   UNL     1       0.812  -2.259  -2.970  1.00  0.00     0.197 C 
ATOM     10  C   UNL     1       1.846  -2.044  -4.099  1.00  0.00     0.081 C 
ATOM     11  C   UNL     1       0.978  -3.808  -2.737  1.00  0.00     0.068 C 
ATOM     12  C   UNL     1       1.570  -3.205  -5.056  1.00  0.00     0.008 C 
ATOM     13  C   UNL     1       1.092  -4.363  -4.181  1.00  0.00     0.011 C 
BRANCH   9  14
ATOM     14  N   UNL     1       1.170  -1.575  -1.708  1.00  0.00    -0.332 N 
ATOM     15  H   UNL     1       0.821  -2.155  -0.944  1.00  0.00     0.347 HD
ATOM     16  H   UNL     1       2.182  -1.463  -1.768  1.00  0.00     0.347 HD
BRANCH  14  17
ATOM     17  C   UNL     1       0.682  -0.224  -1.475  1.00  0.00     0.257 C 
ATOM     18  C   UNL     1       1.147   0.216  -0.093  1.00  0.00     0.071 C 
ENDBRANCH  14  17
ENDBRANCH   9  14
BRANCH  11  19
ATOM     19  C   UNL     1       2.267  -4.290  -1.958  1.00  0.00     0.072 C 
BRANCH  19  20
ATOM     20  C   UNL     1       2.481  -4.071  -0.432  1.00  0.00     0.262 C 
BRANCH  20  21
ATOM     21  N   UNL     1       1.641  -4.736   0.573  1.00  0.00    -0.335 N 
ATOM     22  C   UNL     1       0.498  -3.914   0.960  1.00  0.00     0.262 C 
ATOM     23  C   UNL     1       1.329  -6.125   0.248  1.00  0.00     0.262 C 
ATOM     24  H   UNL     1       2.201  -4.820   1.421  1.00  0.00     0.348 HD
ATOM     25  C   UNL     1      -0.482  -4.582   1.929  1.00  0.00     0.062 C 
ATOM     26  C   UNL     1       0.504  -6.793   1.346  1.00  0.00     0.062 C 
ATOM     27  C   UNL     1      -0.783  -6.019   1.535  1.00  0.00     0.012 C 
ENDBRANCH  20  21
ENDBRANCH  19  20
ENDBRANCH  11  19
ENDBRANCH   7   9
ENDBRANCH   6   7
ENDBRANCH   5   6
ENDBRANCH   4   5
ENDBRANCH   3   4
ENDBRANCH   2   3
ENDBRANCH   1   2
BRANCH   1  28
ATOM     28  O   UNL     1      -2.674  -4.510  -2.108  1.00  0.00    -0.377 OA
BRANCH  28  29
ATOM     29  C   UNL     1      -3.987  -4.990  -2.348  1.00  0.00     0.188 C 
BRANCH  29  30
ATOM     30  C   UNL     1      -5.150  -4.802  -1.353  1.00  0.00     0.188 C 
BRANCH  30  31
ATOM     31  O   UNL     1      -4.939  -4.864   0.051  1.00  0.00    -0.376 OA
BRANCH  31  32
ATOM     32  C   UNL     1      -3.987  -5.782   0.557  1.00  0.00     0.202 C 
BRANCH  32  33
ATOM     33  C   UNL     1      -4.433  -7.213   0.792  1.00  0.00     0.261 C 
BRANCH  33  34
ATOM     34  O   UNL     1      -4.520  -7.885  -0.467  1.00  0.00    -0.460 OA
BRANCH  34  35
ATOM     35  C   UNL     1      -5.771  -8.042  -0.935  1.00  0.00     0.338 C 
ATOM     36  O   UNL     1      -6.825  -7.833  -0.352  1.00  0.00    -0.246 OA
BRANCH  35  37
ATOM     37  C   UNL     1      -5.683  -8.323  -2.372  1.00  0.00     0.060 A 
ATOM     38  C   UNL     1      -6.563  -7.635  -3.218  1.00  0.00     0.016 A 
ATOM     39  C   UNL     1      -4.768  -9.252  -2.874  1.00  0.00     0.016 A 
ATOM     40  C   UNL     1      -6.585  -7.925  -4.571  1.00  0.00     0.010 A 
ATOM     41  C   UNL     1      -4.806  -9.566  -4.226  1.00  0.00     0.010 A 
ATOM     42  C   UNL     1      -5.758  -8.944  -5.053  1.00  0.00    -0.014 A 
BRANCH  42  43
ATOM     43  C   UNL     1      -6.105  -9.579  -6.331  1.00  0.00     0.031 A 
ATOM     44  C   UNL     1      -6.971 -10.802  -6.270  1.00  0.00     0.074 A 
ATOM     45  C   UNL     1      -5.655  -9.074  -7.487  1.00  0.00     0.049 A 
ATOM     46  N   UNL     1      -7.327 -11.614  -7.226  1.00  0.00    -0.248 NA
ATOM     47  C   UNL     1      -7.493 -11.169  -4.940  1.00  0.00     0.031 C 
ATOM     48  C   UNL     1      -4.856  -7.857  -7.623  1.00  0.00     0.029 A 
ATOM     49  N   UNL     1      -5.789  -9.544  -8.763  1.00  0.00    -0.354 N 
ATOM     50  C   UNL     1      -8.084 -12.602  -6.609  1.00  0.00     0.074 A 
ATOM     51  C   UNL     1      -8.122 -12.303  -5.197  1.00  0.00     0.031 C 
ATOM     52  C   UNL     1      -4.542  -7.693  -8.919  1.00  0.00     0.029 A 
ATOM     53  C   UNL     1      -5.080  -8.815  -9.682  1.00  0.00     0.049 A 
ATOM     54  H   UNL     1      -6.340 -10.326  -8.998  1.00  0.00     0.167 HD
ATOM     55  C   UNL     1      -8.685 -13.671  -7.178  1.00  0.00     0.031 A 
ATOM     56  C   UNL     1      -4.862  -9.065 -10.986  1.00  0.00     0.031 A 
ATOM     57  C   UNL     1      -8.605 -13.949  -8.585  1.00  0.00     0.049 A 
ATOM     58  C   UNL     1      -5.488 -10.292 -11.592  1.00  0.00     0.074 A 
ATOM     59  C   UNL     1      -9.187 -14.979  -9.296  1.00  0.00     0.029 A 
ATOM     60  N   UNL     1      -7.878 -13.188  -9.491  1.00  0.00    -0.354 N 
ATOM     61  N   UNL     1      -6.229 -11.210 -11.015  1.00  0.00    -0.248 NA
ATOM     62  C   UNL     1      -5.259 -10.514 -13.024  1.00  0.00     0.031 C 
ATOM     63  C   UNL     1      -8.751 -14.884 -10.620  1.00  0.00     0.029 A 
ATOM     64  C   UNL     1      -7.965 -13.747 -10.751  1.00  0.00     0.049 A 
ATOM     65  H   UNL     1      -7.375 -12.371  -9.268  1.00  0.00     0.167 HD
ATOM     66  C   UNL     1      -6.583 -12.102 -12.018  1.00  0.00     0.074 A 
ATOM     67  C   UNL     1      -5.976 -11.610 -13.240  1.00  0.00     0.031 C 
ATOM     68  C   UNL     1      -7.346 -13.221 -11.943  1.00  0.00     0.031 A 
BRANCH  55  69
ATOM     69  C   UNL     1      -9.400 -14.632  -6.270  1.00  0.00    -0.014 A 
ATOM     70  C   UNL     1     -10.563 -14.270  -5.570  1.00  0.00     0.009 A 
ATOM     71  C   UNL     1      -8.887 -15.928  -6.099  1.00  0.00     0.009 A 
ATOM     72  C   UNL     1     -11.167 -15.167  -4.685  1.00  0.00     0.001 A 
ATOM     73  C   UNL     1      -9.512 -16.834  -5.242  1.00  0.00     0.001 A 
ATOM     74  C   UNL     1     -10.643 -16.449  -4.525  1.00  0.00     0.000 A 
ENDBRANCH  55  69
BRANCH  56  75
ATOM     75  C   UNL     1      -3.995  -8.150 -11.770  1.00  0.00    -0.014 A 
ATOM     76  C   UNL     1      -4.538  -7.311 -12.752  1.00  0.00     0.009 A 
ATOM     77  C   UNL     1      -2.618  -8.074 -11.499  1.00  0.00     0.009 A 
ATOM     78  C   UNL     1      -3.719  -6.423 -13.455  1.00  0.00     0.001 A 
ATOM     79  C   UNL     1      -1.807  -7.165 -12.182  1.00  0.00     0.001 A 
ATOM     80  C   UNL     1      -2.357  -6.345 -13.164  1.00  0.00     0.000 A 
ENDBRANCH  56  75
BRANCH  68  81
ATOM     81  C   UNL     1      -7.612 -13.962 -13.221  1.00  0.00    -0.014 A 
ATOM     82  C   UNL     1      -6.620 -14.735 -13.840  1.00  0.00     0.009 A 
ATOM     83  C   UNL     1      -8.911 -13.960 -13.755  1.00  0.00     0.009 A 
ATOM     84  C   UNL     1      -6.921 -15.478 -14.983  1.00  0.00     0.001 A 
ATOM     85  C   UNL     1      -9.216 -14.729 -14.876  1.00  0.00     0.001 A 
ATOM     86  C   UNL     1      -8.219 -15.483 -15.493  1.00  0.00     0.000 A 
ENDBRANCH  68  81
ENDBRANCH  42  43
ENDBRANCH  35  37
ENDBRANCH  34  35
ENDBRANCH  33  34
ENDBRANCH  32  33
ENDBRANCH  31  32
ENDBRANCH  30  31
ENDBRANCH  29  30
ENDBRANCH  28  29
ENDBRANCH   1  28
TORSDOF 25
