REMARK SMILES CC(C)(C)OC(=O)N[C@H](Cc1ccc(N=[N+]=[N-])cc1)C(=O)OCCOCCOCCOCCOC(=O)c1ccc(-c2c3nc(c(-c4ccccc4)c4ccc([nH]4)c(-c4ccccc4)c4nc(c(-c5ccccc5)c5ccc2[nH]5)C=C4)C=C3)cc1
REMARK SMILES IDX 27 1 26 2 25 3 24 4 23 5 22 6 20 7 21 8 9 9 8 10 6 11 7 12
REMARK SMILES IDX 5 14 2 15 1 16 3 17 4 18 10 19 11 20 12 21 19 22 13 23 18 24
REMARK SMILES IDX 14 25 15 26 16 27 17 28 28 29 29 30 30 31 31 32 32 33 33 34
REMARK SMILES IDX 34 35 35 36 36 37 37 38 38 39 84 40 39 41 83 42 40 43 41 44
REMARK SMILES IDX 42 45 77 46 43 47 82 48 76 49 78 50 44 51 81 52 75 53 74 54
REMARK SMILES IDX 45 56 67 57 52 58 66 59 53 60 56 61 65 62 79 63 54 64 55 65
REMARK SMILES IDX 64 67 80 68 57 69 46 70 47 71 51 72 48 73 50 74 49 75 68 76
REMARK SMILES IDX 69 77 73 78 70 79 72 80 71 81 58 82 59 83 63 84 60 85 62 86
REMARK SMILES IDX 61 87
REMARK H PARENT 8 13 78 55 56 66
REMARK Flexibility Score: inf
ROOT
ATOM      1  C   UNL     1      -1.128   5.183  -1.023  1.00  0.00     0.188 C 
ENDROOT
BRANCH   1   2
ATOM      2  C   UNL     1      -0.860   5.661   0.408  1.00  0.00     0.188 C 
BRANCH   2   3
ATOM      3  O   UNL     1      -1.087   7.048   0.583  1.00  0.00    -0.376 OA
BRANCH   3   4
ATOM      4  C   UNL     1      -0.055   7.987   0.342  1.00  0.00     0.202 C 
BRANCH   4   5
ATOM      5  C   UNL     1       0.745   8.041  -0.973  1.00  0.00     0.261 C 
BRANCH   5   6
ATOM      6  O   UNL     1       1.327   6.858  -1.540  1.00  0.00    -0.462 OA
BRANCH   6   7
ATOM      7  C   UNL     1       2.027   5.999  -0.768  1.00  0.00     0.329 C 
ATOM      8  O   UNL     1       2.143   6.087   0.450  1.00  0.00    -0.250 OA
BRANCH   7   9
ATOM      9  C   UNL     1       2.804   4.975  -1.620  1.00  0.00     0.199 C 
BRANCH   9  10
ATOM     10  N   UNL     1       4.074   5.518  -2.117  1.00  0.00    -0.308 N 
ATOM     11  C   UNL     1       4.864   6.481  -1.562  1.00  0.00     0.408 C 
ATOM     12  O   UNL     1       5.979   6.704  -2.009  1.00  0.00    -0.225 OA
ATOM     13  H   UNL     1       4.399   5.136  -2.964  1.00  0.00     0.168 HD
BRANCH  11  14
ATOM     14  O   UNL     1       4.264   7.142  -0.557  1.00  0.00    -0.444 OA
BRANCH  14  15
ATOM     15  C   UNL     1       4.852   8.272   0.123  1.00  0.00     0.106 C 
ATOM     16  C   UNL     1       3.883   8.636   1.264  1.00  0.00     0.056 C 
ATOM     17  C   UNL     1       4.939   9.453  -0.843  1.00  0.00     0.056 C 
ATOM     18  C   UNL     1       6.191   7.893   0.751  1.00  0.00     0.056 C 
ENDBRANCH  14  15
ENDBRANCH  11  14
ENDBRANCH   9  10
BRANCH   9  19
ATOM     19  C   UNL     1       1.900   4.403  -2.752  1.00  0.00     0.072 C 
BRANCH  19  20
ATOM     20  C   UNL     1       2.529   3.478  -3.764  1.00  0.00    -0.045 A 
ATOM     21  C   UNL     1       2.178   2.123  -3.809  1.00  0.00     0.004 A 
ATOM     22  C   UNL     1       3.427   3.969  -4.714  1.00  0.00     0.004 A 
ATOM     23  C   UNL     1       2.793   1.265  -4.725  1.00  0.00     0.010 A 
ATOM     24  C   UNL     1       4.063   3.102  -5.604  1.00  0.00     0.010 A 
ATOM     25  C   UNL     1       3.772   1.731  -5.607  1.00  0.00     0.038 A 
BRANCH  25  26
ATOM     26  N   UNL     1       4.372   0.787  -6.463  1.00  0.00    -0.061 NA
ATOM     27  N   UNL     1       5.417   1.153  -7.020  1.00  0.00     0.005 N 
ATOM     28  N   UNL     1       6.378   1.491  -7.545  1.00  0.00    -0.003 NA
ENDBRANCH  25  26
ENDBRANCH  19  20
ENDBRANCH   9  19
ENDBRANCH   7   9
ENDBRANCH   6   7
ENDBRANCH   5   6
ENDBRANCH   4   5
ENDBRANCH   3   4
ENDBRANCH   2   3
ENDBRANCH   1   2
BRANCH   1  29
ATOM     29  O   UNL     1      -1.260   6.220  -1.977  1.00  0.00    -0.377 OA
BRANCH  29  30
ATOM     30  C   UNL     1      -2.489   6.942  -2.010  1.00  0.00     0.188 C 
BRANCH  30  31
ATOM     31  C   UNL     1      -3.497   6.875  -0.837  1.00  0.00     0.188 C 
BRANCH  31  32
ATOM     32  O   UNL     1      -3.568   5.623  -0.179  1.00  0.00    -0.376 OA
BRANCH  32  33
ATOM     33  C   UNL     1      -4.554   4.675  -0.535  1.00  0.00     0.202 C 
BRANCH  33  34
ATOM     34  C   UNL     1      -4.650   4.192  -1.990  1.00  0.00     0.261 C 
BRANCH  34  35
ATOM     35  O   UNL     1      -4.702   5.200  -3.008  1.00  0.00    -0.460 OA
BRANCH  35  36
ATOM     36  C   UNL     1      -5.738   6.067  -2.990  1.00  0.00     0.338 C 
ATOM     37  O   UNL     1      -6.683   6.067  -2.225  1.00  0.00    -0.246 OA
BRANCH  36  38
ATOM     38  C   UNL     1      -5.410   7.161  -3.934  1.00  0.00     0.060 A 
ATOM     39  C   UNL     1      -5.272   8.469  -3.445  1.00  0.00     0.016 A 
ATOM     40  C   UNL     1      -5.191   6.888  -5.286  1.00  0.00     0.016 A 
ATOM     41  C   UNL     1      -4.933   9.510  -4.309  1.00  0.00     0.010 A 
ATOM     42  C   UNL     1      -4.892   7.939  -6.158  1.00  0.00     0.010 A 
ATOM     43  C   UNL     1      -4.788   9.256  -5.677  1.00  0.00    -0.014 A 
BRANCH  43  44
ATOM     44  C   UNL     1      -4.745  10.388  -6.632  1.00  0.00     0.031 A 
ATOM     45  C   UNL     1      -6.031  10.806  -7.289  1.00  0.00     0.074 A 
ATOM     46  C   UNL     1      -3.603  11.043  -6.901  1.00  0.00     0.049 A 
ATOM     47  N   UNL     1      -6.239  11.710  -8.211  1.00  0.00    -0.248 NA
ATOM     48  C   UNL     1      -7.248  10.104  -6.846  1.00  0.00     0.031 C 
ATOM     49  C   UNL     1      -2.306  10.781  -6.282  1.00  0.00     0.029 A 
ATOM     50  N   UNL     1      -3.357  12.066  -7.784  1.00  0.00    -0.354 N 
ATOM     51  C   UNL     1      -7.604  11.675  -8.467  1.00  0.00     0.074 A 
ATOM     52  C   UNL     1      -8.171  10.646  -7.625  1.00  0.00     0.031 C 
ATOM     53  C   UNL     1      -1.395  11.614  -6.816  1.00  0.00     0.029 A 
ATOM     54  C   UNL     1      -2.036  12.434  -7.843  1.00  0.00     0.049 A 
ATOM     55  H   UNL     1      -4.061  12.494  -8.323  1.00  0.00     0.167 HD
ATOM     56  C   UNL     1      -8.322  12.433  -9.329  1.00  0.00     0.031 A 
ATOM     57  C   UNL     1      -1.413  13.309  -8.657  1.00  0.00     0.031 A 
ATOM     58  C   UNL     1      -7.754  13.439 -10.184  1.00  0.00     0.049 A 
ATOM     59  C   UNL     1      -2.218  14.064  -9.685  1.00  0.00     0.074 A 
ATOM     60  C   UNL     1      -8.398  14.266 -11.087  1.00  0.00     0.029 A 
ATOM     61  N   UNL     1      -6.404  13.746 -10.251  1.00  0.00    -0.354 N 
ATOM     62  N   UNL     1      -3.510  14.040  -9.908  1.00  0.00    -0.248 NA
ATOM     63  C   UNL     1      -1.474  14.971 -10.572  1.00  0.00     0.031 C 
ATOM     64  C   UNL     1      -7.429  15.022 -11.753  1.00  0.00     0.029 A 
ATOM     65  C   UNL     1      -6.190  14.723 -11.208  1.00  0.00     0.049 A 
ATOM     66  H   UNL     1      -5.701  13.331  -9.700  1.00  0.00     0.167 HD
ATOM     67  C   UNL     1      -3.737  14.948 -10.936  1.00  0.00     0.074 A 
ATOM     68  C   UNL     1      -2.452  15.520 -11.279  1.00  0.00     0.031 C 
ATOM     69  C   UNL     1      -4.904  15.281 -11.542  1.00  0.00     0.031 A 
BRANCH  56  70
ATOM     70  C   UNL     1      -9.798  12.160  -9.424  1.00  0.00    -0.014 A 
ATOM     71  C   UNL     1     -10.673  12.475  -8.372  1.00  0.00     0.009 A 
ATOM     72  C   UNL     1     -10.324  11.600 -10.599  1.00  0.00     0.009 A 
ATOM     73  C   UNL     1     -12.039  12.200  -8.482  1.00  0.00     0.001 A 
ATOM     74  C   UNL     1     -11.693  11.358 -10.719  1.00  0.00     0.001 A 
ATOM     75  C   UNL     1     -12.547  11.649  -9.658  1.00  0.00     0.000 A 
ENDBRANCH  56  70
BRANCH  57  76
ATOM     76  C   UNL     1       0.060  13.498  -8.568  1.00  0.00    -0.014 A 
ATOM     77  C   UNL     1       0.603  14.724  -8.152  1.00  0.00     0.009 A 
ATOM     78  C   UNL     1       0.935  12.463  -8.936  1.00  0.00     0.009 A 
ATOM     79  C   UNL     1       1.987  14.917  -8.133  1.00  0.00     0.001 A 
ATOM     80  C   UNL     1       2.318  12.647  -8.884  1.00  0.00     0.001 A 
ATOM     81  C   UNL     1       2.843  13.878  -8.494  1.00  0.00     0.000 A 
ENDBRANCH  57  76
BRANCH  69  82
ATOM     82  C   UNL     1      -4.855  16.340 -12.611  1.00  0.00    -0.014 A 
ATOM     83  C   UNL     1      -4.256  16.099 -13.857  1.00  0.00     0.009 A 
ATOM     84  C   UNL     1      -5.461  17.586 -12.380  1.00  0.00     0.009 A 
ATOM     85  C   UNL     1      -4.233  17.097 -14.835  1.00  0.00     0.001 A 
ATOM     86  C   UNL     1      -5.468  18.568 -13.372  1.00  0.00     0.001 A 
ATOM     87  C   UNL     1      -4.844  18.327 -14.594  1.00  0.00     0.000 A 
ENDBRANCH  69  82
ENDBRANCH  43  44
ENDBRANCH  36  38
ENDBRANCH  35  36
ENDBRANCH  34  35
ENDBRANCH  33  34
ENDBRANCH  32  33
ENDBRANCH  31  32
ENDBRANCH  30  31
ENDBRANCH  29  30
ENDBRANCH   1  29
TORSDOF 26
