REMARK SMILES C[C@H](C(=O)OCCOCCOCCOCCOC(=O)c1ccc(-c2c3nc(c(-c4ccccc4)c4ccc([nH]4)c(-c4ccccc4)c4nc(c(-c5ccccc5)c5ccc2[nH]5)C=C4)C=C3)cc1)c1ccc2c3cc(Cl)ccc3n(C(=O)c3ccc(Cl)cc3)c2c1
REMARK SMILES IDX 10 1 9 2 8 3 7 4 6 5 5 6 3 7 4 8 2 9 1 10 68 11 69 12 90 13
REMARK SMILES IDX 70 14 89 15 71 16 79 17 72 18 78 19 73 20 77 21 74 22 76 23
REMARK SMILES IDX 75 24 80 25 81 26 82 27 83 28 88 29 84 30 87 31 85 32 86 33
REMARK SMILES IDX 11 34 12 35 13 36 14 37 15 38 16 39 17 40 18 41 19 42 20 43
REMARK SMILES IDX 21 44 67 45 22 46 66 47 23 48 24 49 25 50 60 51 26 52 65 53
REMARK SMILES IDX 59 54 61 55 27 56 64 57 58 58 57 59 28 61 50 62 35 63 49 64
REMARK SMILES IDX 36 65 39 66 48 67 62 68 37 69 38 70 47 72 63 73 40 74 29 75
REMARK SMILES IDX 30 76 34 77 31 78 33 79 32 80 51 81 52 82 56 83 53 84 55 85
REMARK SMILES IDX 54 86 41 87 42 88 46 89 43 90 45 91 44 92
REMARK H PARENT 61 60 39 71
REMARK Flexibility Score: inf
ROOT
ATOM      1  C   UNL     1       1.744  -1.568  -1.273  1.00  0.00     0.188 C 
ENDROOT
BRANCH   1   2
ATOM      2  C   UNL     1       2.924  -0.857  -0.570  1.00  0.00     0.188 C 
BRANCH   2   3
ATOM      3  O   UNL     1       3.368  -1.284   0.711  1.00  0.00    -0.376 OA
BRANCH   3   4
ATOM      4  C   UNL     1       2.433  -1.664   1.708  1.00  0.00     0.202 C 
BRANCH   4   5
ATOM      5  C   UNL     1       1.109  -0.909   1.924  1.00  0.00     0.261 C 
BRANCH   5   6
ATOM      6  O   UNL     1       0.634  -0.106   0.840  1.00  0.00    -0.463 OA
BRANCH   6   7
ATOM      7  C   UNL     1       0.918   1.217   0.847  1.00  0.00     0.313 C 
ATOM      8  O   UNL     1       1.643   1.754   1.679  1.00  0.00    -0.252 OA
BRANCH   7   9
ATOM      9  C   UNL     1       0.288   1.976  -0.327  1.00  0.00     0.126 C 
ATOM     10  C   UNL     1       0.990   1.857  -1.683  1.00  0.00     0.025 C 
BRANCH   9  11
ATOM     11  C   UNL     1      -1.210   1.793  -0.530  1.00  0.00    -0.032 A 
ATOM     12  C   UNL     1      -1.958   2.930  -0.843  1.00  0.00     0.005 A 
ATOM     13  C   UNL     1      -1.847   0.538  -0.497  1.00  0.00     0.032 A 
ATOM     14  C   UNL     1      -3.319   2.841  -1.121  1.00  0.00     0.011 A 
ATOM     15  C   UNL     1      -3.248   0.472  -0.639  1.00  0.00     0.057 A 
ATOM     16  C   UNL     1      -3.972   1.600  -1.003  1.00  0.00     0.008 A 
ATOM     17  N   UNL     1      -4.146  -0.600  -0.496  1.00  0.00    -0.276 N 
ATOM     18  C   UNL     1      -5.327   1.214  -1.134  1.00  0.00     0.009 A 
ATOM     19  C   UNL     1      -5.443  -0.094  -0.653  1.00  0.00     0.057 A 
ATOM     20  C   UNL     1      -6.476   1.935  -1.515  1.00  0.00     0.031 A 
ATOM     21  C   UNL     1      -6.713  -0.623  -0.351  1.00  0.00     0.029 A 
ATOM     22  C   UNL     1      -7.728   1.379  -1.282  1.00  0.00     0.041 A 
ATOM     23  C   UNL     1      -7.847   0.138  -0.669  1.00  0.00     0.023 A 
ATOM     24  Cl  UNL     1      -9.134   2.277  -1.701  1.00  0.00    -0.084 Cl
BRANCH  17  25
ATOM     25  C   UNL     1      -3.760  -1.922  -0.148  1.00  0.00     0.262 C 
ATOM     26  O   UNL     1      -2.719  -2.031   0.503  1.00  0.00    -0.268 OA
BRANCH  25  27
ATOM     27  C   UNL     1      -4.437  -3.206  -0.505  1.00  0.00     0.040 A 
ATOM     28  C   UNL     1      -3.982  -4.368   0.143  1.00  0.00     0.015 A 
ATOM     29  C   UNL     1      -5.386  -3.343  -1.526  1.00  0.00     0.015 A 
ATOM     30  C   UNL     1      -4.469  -5.622  -0.222  1.00  0.00     0.021 A 
ATOM     31  C   UNL     1      -5.894  -4.608  -1.864  1.00  0.00     0.021 A 
ATOM     32  C   UNL     1      -5.422  -5.746  -1.220  1.00  0.00     0.041 A 
ATOM     33  Cl  UNL     1      -5.985  -7.306  -1.668  1.00  0.00    -0.084 Cl
ENDBRANCH  25  27
ENDBRANCH  17  25
ENDBRANCH   9  11
ENDBRANCH   7   9
ENDBRANCH   6   7
ENDBRANCH   5   6
ENDBRANCH   4   5
ENDBRANCH   3   4
ENDBRANCH   2   3
ENDBRANCH   1   2
BRANCH   1  34
ATOM     34  O   UNL     1       1.188  -2.637  -0.526  1.00  0.00    -0.377 OA
BRANCH  34  35
ATOM     35  C   UNL     1       1.667  -3.928  -0.874  1.00  0.00     0.188 C 
BRANCH  35  36
ATOM     36  C   UNL     1       3.196  -4.093  -0.984  1.00  0.00     0.188 C 
BRANCH  36  37
ATOM     37  O   UNL     1       3.803  -3.148  -1.856  1.00  0.00    -0.376 OA
BRANCH  37  38
ATOM     38  C   UNL     1       4.222  -3.557  -3.146  1.00  0.00     0.202 C 
BRANCH  38  39
ATOM     39  C   UNL     1       3.113  -3.813  -4.178  1.00  0.00     0.261 C 
BRANCH  39  40
ATOM     40  O   UNL     1       2.102  -4.752  -3.783  1.00  0.00    -0.460 OA
BRANCH  40  41
ATOM     41  C   UNL     1       2.502  -6.021  -3.562  1.00  0.00     0.338 C 
ATOM     42  O   UNL     1       3.621  -6.477  -3.733  1.00  0.00    -0.246 OA
BRANCH  41  43
ATOM     43  C   UNL     1       1.411  -6.738  -2.867  1.00  0.00     0.060 A 
ATOM     44  C   UNL     1       1.687  -7.326  -1.625  1.00  0.00     0.016 A 
ATOM     45  C   UNL     1       0.133  -6.829  -3.421  1.00  0.00     0.016 A 
ATOM     46  C   UNL     1       0.702  -8.050  -0.954  1.00  0.00     0.010 A 
ATOM     47  C   UNL     1      -0.848  -7.574  -2.758  1.00  0.00     0.010 A 
ATOM     48  C   UNL     1      -0.554  -8.224  -1.541  1.00  0.00    -0.014 A 
BRANCH  48  49
ATOM     49  C   UNL     1      -1.479  -9.261  -1.020  1.00  0.00     0.031 A 
ATOM     50  C   UNL     1      -1.581 -10.560  -1.774  1.00  0.00     0.074 A 
ATOM     51  C   UNL     1      -2.185  -9.101   0.114  1.00  0.00     0.049 A 
ATOM     52  N   UNL     1      -2.397 -11.564  -1.587  1.00  0.00    -0.248 NA
ATOM     53  C   UNL     1      -0.603 -10.770  -2.856  1.00  0.00     0.031 C 
ATOM     54  C   UNL     1      -2.074  -7.984   1.049  1.00  0.00     0.029 A 
ATOM     55  N   UNL     1      -3.195  -9.876   0.634  1.00  0.00    -0.354 N 
ATOM     56  C   UNL     1      -2.000 -12.540  -2.492  1.00  0.00     0.074 A 
ATOM     57  C   UNL     1      -0.924 -11.983  -3.280  1.00  0.00     0.031 C 
ATOM     58  C   UNL     1      -3.061  -8.082   1.960  1.00  0.00     0.029 A 
ATOM     59  C   UNL     1      -3.886  -9.243   1.639  1.00  0.00     0.049 A 
ATOM     60  H   UNL     1      -3.401 -10.786   0.321  1.00  0.00     0.167 HD
ATOM     61  C   UNL     1      -2.463 -13.804  -2.623  1.00  0.00     0.031 A 
ATOM     62  C   UNL     1      -5.090  -9.524   2.174  1.00  0.00     0.031 A 
ATOM     63  C   UNL     1      -3.546 -14.350  -1.853  1.00  0.00     0.049 A 
ATOM     64  C   UNL     1      -5.779 -10.807   1.809  1.00  0.00     0.074 A 
ATOM     65  C   UNL     1      -4.058 -15.635  -1.874  1.00  0.00     0.029 A 
ATOM     66  N   UNL     1      -4.301 -13.632  -0.939  1.00  0.00    -0.354 N 
ATOM     67  N   UNL     1      -5.392 -11.739   0.974  1.00  0.00    -0.248 NA
ATOM     68  C   UNL     1      -7.034 -11.107   2.512  1.00  0.00     0.031 C 
ATOM     69  C   UNL     1      -5.172 -15.673  -1.030  1.00  0.00     0.029 A 
ATOM     70  C   UNL     1      -5.305 -14.433  -0.424  1.00  0.00     0.049 A 
ATOM     71  H   UNL     1      -4.146 -12.691  -0.693  1.00  0.00     0.167 HD
ATOM     72  C   UNL     1      -6.303 -12.777   1.120  1.00  0.00     0.074 A 
ATOM     73  C   UNL     1      -7.287 -12.339   2.089  1.00  0.00     0.031 C 
ATOM     74  C   UNL     1      -6.285 -14.002   0.540  1.00  0.00     0.031 A 
BRANCH  61  75
ATOM     75  C   UNL     1      -1.801 -14.685  -3.644  1.00  0.00    -0.014 A 
ATOM     76  C   UNL     1      -0.498 -15.171  -3.450  1.00  0.00     0.009 A 
ATOM     77  C   UNL     1      -2.511 -15.082  -4.787  1.00  0.00     0.009 A 
ATOM     78  C   UNL     1       0.088 -16.019  -4.391  1.00  0.00     0.001 A 
ATOM     79  C   UNL     1      -1.933 -15.951  -5.713  1.00  0.00     0.001 A 
ATOM     80  C   UNL     1      -0.633 -16.414  -5.518  1.00  0.00     0.000 A 
ENDBRANCH  61  75
BRANCH  62  81
ATOM     81  C   UNL     1      -5.753  -8.541   3.067  1.00  0.00    -0.014 A 
ATOM     82  C   UNL     1      -5.786  -8.719   4.455  1.00  0.00     0.009 A 
ATOM     83  C   UNL     1      -6.391  -7.420   2.511  1.00  0.00     0.009 A 
ATOM     84  C   UNL     1      -6.453  -7.797   5.267  1.00  0.00     0.001 A 
ATOM     85  C   UNL     1      -7.036  -6.488   3.325  1.00  0.00     0.001 A 
ATOM     86  C   UNL     1      -7.072  -6.681   4.703  1.00  0.00     0.000 A 
ENDBRANCH  62  81
BRANCH  74  87
ATOM     87  C   UNL     1      -7.301 -15.006   1.007  1.00  0.00    -0.014 A 
ATOM     88  C   UNL     1      -8.661 -14.894   0.687  1.00  0.00     0.009 A 
ATOM     89  C   UNL     1      -6.868 -16.114   1.756  1.00  0.00     0.009 A 
ATOM     90  C   UNL     1      -9.571 -15.854   1.137  1.00  0.00     0.001 A 
ATOM     91  C   UNL     1      -7.772 -17.090   2.173  1.00  0.00     0.001 A 
ATOM     92  C   UNL     1      -9.126 -16.953   1.872  1.00  0.00     0.000 A 
ENDBRANCH  74  87
ENDBRANCH  48  49
ENDBRANCH  41  43
ENDBRANCH  40  41
ENDBRANCH  39  40
ENDBRANCH  38  39
ENDBRANCH  37  38
ENDBRANCH  36  37
ENDBRANCH  35  36
ENDBRANCH  34  35
ENDBRANCH   1  34
TORSDOF 23
