REMARK SMILES Cc1ccc2nc(CC3(CC(=O)OCCOCCOCCOCCOC(=O)c4ccc(-c5c6nc(c(-c7ccccc7)c7ccc([nH]7)c(-c7ccccc7)c7nc(c(-c8ccccc8)c8ccc5[nH]8)C=C7)C=C6)cc4)CCCCC3)sc2c1
REMARK SMILES IDX 18 1 17 2 16 3 15 4 14 5 13 6 11 7 12 8 10 9 9 10 76 11
REMARK SMILES IDX 80 12 77 13 79 14 78 15 8 16 7 17 1 18 2 19 3 20 83 21 4 22
REMARK SMILES IDX 82 23 5 24 81 25 6 26 19 27 20 28 21 29 22 30 23 31 24 32
REMARK SMILES IDX 25 33 26 34 27 35 28 36 29 37 75 38 30 39 74 40 31 41 32 42
REMARK SMILES IDX 33 43 68 44 34 45 73 46 67 47 69 48 35 49 72 50 66 51 65 52
REMARK SMILES IDX 36 54 58 55 43 56 57 57 44 58 47 59 56 60 70 61 45 62 46 63
REMARK SMILES IDX 55 65 71 66 48 67 37 68 38 69 42 70 39 71 41 72 40 73 59 74
REMARK SMILES IDX 60 75 64 76 61 77 63 78 62 79 49 80 50 81 54 82 51 83 53 84
REMARK SMILES IDX 52 85
REMARK H PARENT 69 53 47 64
REMARK Flexibility Score: inf
ROOT
ATOM      1  C   UNL     1      -5.490  -1.498   2.630  1.00  0.00     0.188 C 
ENDROOT
BRANCH   1   2
ATOM      2  C   UNL     1      -6.878  -1.617   2.005  1.00  0.00     0.188 C 
BRANCH   2   3
ATOM      3  O   UNL     1      -7.614  -2.793   2.344  1.00  0.00    -0.376 OA
BRANCH   3   4
ATOM      4  C   UNL     1      -6.963  -4.050   2.159  1.00  0.00     0.202 C 
BRANCH   4   5
ATOM      5  C   UNL     1      -6.670  -4.479   0.711  1.00  0.00     0.261 C 
BRANCH   5   6
ATOM      6  O   UNL     1      -5.984  -3.485  -0.079  1.00  0.00    -0.463 OA
BRANCH   6   7
ATOM      7  C   UNL     1      -6.670  -2.990  -1.134  1.00  0.00     0.306 C 
ATOM      8  O   UNL     1      -7.801  -3.350  -1.452  1.00  0.00    -0.252 OA
BRANCH   7   9
ATOM      9  C   UNL     1      -6.003  -1.828  -1.859  1.00  0.00     0.130 C 
BRANCH   9  10
ATOM     10  C   UNL     1      -4.452  -1.600  -1.939  1.00  0.00    -0.013 C 
ATOM     11  C   UNL     1      -4.156  -0.850  -3.279  1.00  0.00     0.008 C 
ATOM     12  C   UNL     1      -3.644  -2.919  -1.953  1.00  0.00     0.008 C 
ATOM     13  C   UNL     1      -4.356  -1.706  -4.537  1.00  0.00     0.001 C 
ATOM     14  C   UNL     1      -3.944  -3.793  -3.166  1.00  0.00     0.001 C 
ATOM     15  C   UNL     1      -3.624  -3.041  -4.454  1.00  0.00     0.000 C 
BRANCH  10  16
ATOM     16  C   UNL     1      -4.046  -0.651  -0.760  1.00  0.00     0.075 C 
BRANCH  16  17
ATOM     17  C   UNL     1      -2.568  -0.435  -0.533  1.00  0.00     0.094 A 
ATOM     18  C   UNL     1       3.444   0.980   0.034  1.00  0.00     0.044 C 
ATOM     19  C   UNL     1       2.092   0.326  -0.028  1.00  0.00    -0.050 A 
ATOM     20  C   UNL     1       1.979  -1.063   0.060  1.00  0.00     0.006 A 
ATOM     21  C   UNL     1       0.938   1.117  -0.186  1.00  0.00     0.024 A 
ATOM     22  C   UNL     1       0.727  -1.683  -0.001  1.00  0.00     0.030 A 
ATOM     23  C   UNL     1      -0.313   0.477  -0.278  1.00  0.00     0.055 A 
ATOM     24  C   UNL     1      -0.434  -0.907  -0.169  1.00  0.00     0.082 A 
ATOM     25  S   UNL     1      -1.883   1.146  -0.544  1.00  0.00    -0.119 S 
ATOM     26  N   UNL     1      -1.722  -1.397  -0.244  1.00  0.00    -0.241 NA
ENDBRANCH  16  17
ENDBRANCH  10  16
ENDBRANCH   9  10
ENDBRANCH   7   9
ENDBRANCH   6   7
ENDBRANCH   5   6
ENDBRANCH   4   5
ENDBRANCH   3   4
ENDBRANCH   2   3
ENDBRANCH   1   2
BRANCH   1  27
ATOM     27  O   UNL     1      -4.643  -2.527   2.144  1.00  0.00    -0.377 OA
BRANCH  27  28
ATOM     28  C   UNL     1      -3.529  -2.942   2.924  1.00  0.00     0.188 C 
BRANCH  28  29
ATOM     29  C   UNL     1      -3.607  -2.752   4.444  1.00  0.00     0.188 C 
BRANCH  29  30
ATOM     30  O   UNL     1      -3.262  -1.508   5.052  1.00  0.00    -0.376 OA
BRANCH  30  31
ATOM     31  C   UNL     1      -2.824  -0.401   4.284  1.00  0.00     0.202 C 
BRANCH  31  32
ATOM     32  C   UNL     1      -1.373  -0.371   3.789  1.00  0.00     0.261 C 
BRANCH  32  33
ATOM     33  O   UNL     1      -0.810  -1.648   3.505  1.00  0.00    -0.460 OA
BRANCH  33  34
ATOM     34  C   UNL     1      -0.354  -2.317   4.587  1.00  0.00     0.338 C 
ATOM     35  O   UNL     1      -0.315  -1.943   5.742  1.00  0.00    -0.246 OA
BRANCH  34  36
ATOM     36  C   UNL     1      -0.005  -3.675   4.144  1.00  0.00     0.060 A 
ATOM     37  C   UNL     1      -0.586  -4.763   4.802  1.00  0.00     0.016 A 
ATOM     38  C   UNL     1       0.925  -3.865   3.120  1.00  0.00     0.016 A 
ATOM     39  C   UNL     1      -0.226  -6.056   4.447  1.00  0.00     0.010 A 
ATOM     40  C   UNL     1       1.315  -5.160   2.787  1.00  0.00     0.010 A 
ATOM     41  C   UNL     1       0.766  -6.252   3.480  1.00  0.00    -0.014 A 
BRANCH  41  42
ATOM     42  C   UNL     1       1.409  -7.576   3.389  1.00  0.00     0.031 A 
ATOM     43  C   UNL     1       2.651  -7.807   4.200  1.00  0.00     0.074 A 
ATOM     44  C   UNL     1       0.873  -8.555   2.645  1.00  0.00     0.049 A 
ATOM     45  N   UNL     1       3.408  -8.869   4.274  1.00  0.00    -0.248 NA
ATOM     46  C   UNL     1       3.101  -6.684   5.042  1.00  0.00     0.031 C 
ATOM     47  C   UNL     1      -0.365  -8.454   1.875  1.00  0.00     0.029 A 
ATOM     48  N   UNL     1       1.312  -9.833   2.421  1.00  0.00    -0.354 N 
ATOM     49  C   UNL     1       4.426  -8.539   5.160  1.00  0.00     0.074 A 
ATOM     50  C   UNL     1       4.207  -7.173   5.577  1.00  0.00     0.031 C 
ATOM     51  C   UNL     1      -0.581  -9.624   1.249  1.00  0.00     0.029 A 
ATOM     52  C   UNL     1       0.521 -10.536   1.549  1.00  0.00     0.049 A 
ATOM     53  H   UNL     1       2.117 -10.209   2.844  1.00  0.00     0.167 HD
ATOM     54  C   UNL     1       5.452  -9.310   5.588  1.00  0.00     0.031 A 
ATOM     55  C   UNL     1       0.689 -11.769   1.036  1.00  0.00     0.031 A 
ATOM     56  C   UNL     1       5.671 -10.660   5.148  1.00  0.00     0.049 A 
ATOM     57  C   UNL     1       1.888 -12.577   1.457  1.00  0.00     0.074 A 
ATOM     58  C   UNL     1       6.674 -11.536   5.518  1.00  0.00     0.029 A 
ATOM     59  N   UNL     1       4.875 -11.324   4.225  1.00  0.00    -0.354 N 
ATOM     60  N   UNL     1       2.838 -12.267   2.308  1.00  0.00    -0.248 NA
ATOM     61  C   UNL     1       2.033 -13.907   0.852  1.00  0.00     0.031 C 
ATOM     62  C   UNL     1       6.523 -12.708   4.769  1.00  0.00     0.029 A 
ATOM     63  C   UNL     1       5.384 -12.588   3.987  1.00  0.00     0.049 A 
ATOM     64  H   UNL     1       4.068 -10.951   3.803  1.00  0.00     0.167 HD
ATOM     65  C   UNL     1       3.677 -13.373   2.362  1.00  0.00     0.074 A 
ATOM     66  C   UNL     1       3.114 -14.366   1.469  1.00  0.00     0.031 C 
ATOM     67  C   UNL     1       4.808 -13.556   3.088  1.00  0.00     0.031 A 
BRANCH  54  68
ATOM     68  C   UNL     1       6.439  -8.681   6.531  1.00  0.00    -0.014 A 
ATOM     69  C   UNL     1       6.092  -8.358   7.853  1.00  0.00     0.009 A 
ATOM     70  C   UNL     1       7.741  -8.407   6.085  1.00  0.00     0.009 A 
ATOM     71  C   UNL     1       7.019  -7.737   8.695  1.00  0.00     0.001 A 
ATOM     72  C   UNL     1       8.674  -7.816   6.938  1.00  0.00     0.001 A 
ATOM     73  C   UNL     1       8.309  -7.472   8.238  1.00  0.00     0.000 A 
ENDBRANCH  54  68
BRANCH  55  74
ATOM     74  C   UNL     1      -0.286 -12.300   0.049  1.00  0.00    -0.014 A 
ATOM     75  C   UNL     1      -1.132 -13.370   0.375  1.00  0.00     0.009 A 
ATOM     76  C   UNL     1      -0.375 -11.733  -1.234  1.00  0.00     0.009 A 
ATOM     77  C   UNL     1      -2.030 -13.875  -0.568  1.00  0.00     0.001 A 
ATOM     78  C   UNL     1      -1.294 -12.220  -2.164  1.00  0.00     0.001 A 
ATOM     79  C   UNL     1      -2.115 -13.296  -1.834  1.00  0.00     0.000 A 
ENDBRANCH  55  74
BRANCH  67  80
ATOM     80  C   UNL     1       5.489 -14.892   2.977  1.00  0.00    -0.014 A 
ATOM     81  C   UNL     1       6.178 -15.268   1.814  1.00  0.00     0.009 A 
ATOM     82  C   UNL     1       5.483 -15.764   4.077  1.00  0.00     0.009 A 
ATOM     83  C   UNL     1       6.817 -16.508   1.744  1.00  0.00     0.001 A 
ATOM     84  C   UNL     1       6.150 -16.988   4.016  1.00  0.00     0.001 A 
ATOM     85  C   UNL     1       6.807 -17.363   2.846  1.00  0.00     0.000 A 
ENDBRANCH  67  80
ENDBRANCH  41  42
ENDBRANCH  34  36
ENDBRANCH  33  34
ENDBRANCH  32  33
ENDBRANCH  31  32
ENDBRANCH  30  31
ENDBRANCH  29  30
ENDBRANCH  28  29
ENDBRANCH  27  28
ENDBRANCH   1  27
TORSDOF 23
