REMARK SMILES COC(=O)c1c(NC(=O)[C@@H]2C[C@@H]2C(=O)OCCOCCOCCOCCOC(=O)c2ccc(-c3c4nc(c(-c5ccccc5)c5ccc([nH]5)c(-c5ccccc5)c5nc(c(-c6ccccc6)c6ccc3[nH]6)C=C5)C=C4)cc2)sc2c1CC[N@@H+](Cc1ccccc1)C2
REMARK SMILES IDX 20 1 19 2 18 3 17 4 16 5 15 6 13 7 14 8 12 9 10 10 11 11
REMARK SMILES IDX 8 12 7 13 9 15 6 16 5 17 80 18 78 19 79 20 81 21 91 22 82 23
REMARK SMILES IDX 83 24 3 26 4 27 2 28 1 29 84 30 85 31 86 32 90 33 87 34
REMARK SMILES IDX 89 35 88 36 21 37 22 38 23 39 24 40 25 41 26 42 27 43 28 44
REMARK SMILES IDX 29 45 30 46 31 47 77 48 32 49 76 50 33 51 34 52 35 53 70 54
REMARK SMILES IDX 36 55 75 56 69 57 71 58 37 59 74 60 68 61 67 62 38 64 60 65
REMARK SMILES IDX 45 66 59 67 46 68 49 69 58 70 72 71 47 72 48 73 57 75 73 76
REMARK SMILES IDX 50 77 39 78 40 79 44 80 41 81 43 82 42 83 61 84 62 85 66 86
REMARK SMILES IDX 63 87 65 88 64 89 51 90 52 91 56 92 53 93 55 94 54 95
REMARK H PARENT 7 14 83 25 71 63 49 74
REMARK Flexibility Score: inf
ROOT
ATOM      1  C   UNL     1      -2.609   0.562  -5.614  1.00  0.00     0.188 C 
ENDROOT
BRANCH   1   2
ATOM      2  C   UNL     1      -1.594   0.459  -6.767  1.00  0.00     0.188 C 
BRANCH   2   3
ATOM      3  O   UNL     1      -1.749  -0.732  -7.502  1.00  0.00    -0.376 OA
BRANCH   3   4
ATOM      4  C   UNL     1      -0.961  -1.852  -7.194  1.00  0.00     0.202 C 
BRANCH   4   5
ATOM      5  C   UNL     1      -0.453  -2.182  -5.786  1.00  0.00     0.261 C 
BRANCH   5   6
ATOM      6  O   UNL     1      -0.732  -1.333  -4.662  1.00  0.00    -0.463 OA
BRANCH   6   7
ATOM      7  C   UNL     1       0.239  -0.451  -4.308  1.00  0.00     0.309 C 
ATOM      8  O   UNL     1       1.225  -0.209  -4.987  1.00  0.00    -0.252 OA
BRANCH   7   9
ATOM      9  C   UNL     1       0.064   0.227  -2.991  1.00  0.00     0.112 C 
ATOM     10  C   UNL     1      -0.859  -0.130  -1.846  1.00  0.00     0.094 C 
ATOM     11  C   UNL     1      -1.073   1.140  -2.641  1.00  0.00     0.030 C 
BRANCH  10  12
ATOM     12  C   UNL     1      -1.957  -1.123  -1.800  1.00  0.00     0.229 C 
ATOM     13  N   UNL     1      -1.737  -2.474  -1.849  1.00  0.00    -0.317 N 
ATOM     14  H   UNL     1      -2.491  -3.038  -1.564  1.00  0.00     0.170 HD
ATOM     15  O   UNL     1      -3.107  -0.716  -1.641  1.00  0.00    -0.274 OA
BRANCH  13  16
ATOM     16  C   UNL     1      -0.609  -3.148  -2.241  1.00  0.00     0.110 A 
ATOM     17  C   UNL     1       0.752  -2.912  -2.299  1.00  0.00     0.098 A 
ATOM     18  C   UNL     1       1.279  -3.648  -3.424  1.00  0.00    -0.006 A 
ATOM     19  S   UNL     1      -1.035  -4.642  -2.963  1.00  0.00    -0.116 S 
ATOM     20  C   UNL     1       0.440  -4.683  -3.797  1.00  0.00     0.065 A 
ATOM     21  C   UNL     1       2.603  -3.451  -4.111  1.00  0.00     0.099 C 
ATOM     22  C   UNL     1       0.780  -5.730  -4.814  1.00  0.00     0.310 C 
ATOM     23  C   UNL     1       2.865  -4.525  -5.195  1.00  0.00     0.267 C 
ATOM     24  N   UNL     1       2.237  -5.847  -5.001  1.00  0.00    -0.326 N 
ATOM     25  H   UNL     1       2.378  -6.353  -5.875  1.00  0.00     0.348 HD
BRANCH  17  26
ATOM     26  C   UNL     1       1.531  -1.989  -1.481  1.00  0.00     0.341 C 
ATOM     27  O   UNL     1       2.568  -1.461  -1.865  1.00  0.00    -0.246 OA
BRANCH  26  28
ATOM     28  O   UNL     1       0.989  -1.772  -0.246  1.00  0.00    -0.465 OA
ATOM     29  C   UNL     1       1.697  -0.799   0.528  1.00  0.00     0.282 C 
ENDBRANCH  26  28
ENDBRANCH  17  26
BRANCH  24  30
ATOM     30  C   UNL     1       2.914  -6.727  -4.027  1.00  0.00     0.299 C 
BRANCH  30  31
ATOM     31  C   UNL     1       2.854  -6.338  -2.562  1.00  0.00     0.006 A 
ATOM     32  C   UNL     1       3.844  -5.520  -1.997  1.00  0.00     0.009 A 
ATOM     33  C   UNL     1       1.754  -6.699  -1.768  1.00  0.00     0.009 A 
ATOM     34  C   UNL     1       3.671  -4.969  -0.725  1.00  0.00     0.001 A 
ATOM     35  C   UNL     1       1.585  -6.152  -0.494  1.00  0.00     0.001 A 
ATOM     36  C   UNL     1       2.532  -5.269   0.017  1.00  0.00     0.000 A 
ENDBRANCH  30  31
ENDBRANCH  24  30
ENDBRANCH  13  16
ENDBRANCH  10  12
ENDBRANCH   7   9
ENDBRANCH   6   7
ENDBRANCH   5   6
ENDBRANCH   4   5
ENDBRANCH   3   4
ENDBRANCH   2   3
ENDBRANCH   1   2
BRANCH   1  37
ATOM     37  O   UNL     1      -3.985   0.457  -5.918  1.00  0.00    -0.377 OA
BRANCH  37  38
ATOM     38  C   UNL     1      -4.355  -0.643  -6.715  1.00  0.00     0.188 C 
BRANCH  38  39
ATOM     39  C   UNL     1      -4.631  -0.258  -8.179  1.00  0.00     0.188 C 
BRANCH  39  40
ATOM     40  O   UNL     1      -4.604   1.077  -8.696  1.00  0.00    -0.376 OA
BRANCH  40  41
ATOM     41  C   UNL     1      -4.352   2.255  -7.944  1.00  0.00     0.202 C 
BRANCH  41  42
ATOM     42  C   UNL     1      -5.430   2.847  -7.030  1.00  0.00     0.261 C 
BRANCH  42  43
ATOM     43  O   UNL     1      -6.100   1.881  -6.250  1.00  0.00    -0.460 OA
BRANCH  43  44
ATOM     44  C   UNL     1      -6.971   1.153  -6.973  1.00  0.00     0.338 C 
ATOM     45  O   UNL     1      -7.335   1.363  -8.117  1.00  0.00    -0.246 OA
BRANCH  44  46
ATOM     46  C   UNL     1      -7.531   0.088  -6.122  1.00  0.00     0.060 A 
ATOM     47  C   UNL     1      -8.577  -0.583  -6.744  1.00  0.00     0.016 A 
ATOM     48  C   UNL     1      -7.455   0.255  -4.731  1.00  0.00     0.016 A 
ATOM     49  C   UNL     1      -9.763  -0.576  -6.069  1.00  0.00     0.010 A 
ATOM     50  C   UNL     1      -8.642   0.250  -4.047  1.00  0.00     0.010 A 
ATOM     51  C   UNL     1      -9.789  -0.011  -4.787  1.00  0.00    -0.014 A 
BRANCH  51  52
ATOM     52  C   UNL     1     -11.090   0.389  -4.316  1.00  0.00     0.031 A 
ATOM     53  C   UNL     1     -11.943  -0.738  -3.937  1.00  0.00     0.074 A 
ATOM     54  C   UNL     1     -11.490   1.670  -4.279  1.00  0.00     0.049 A 
ATOM     55  N   UNL     1     -13.021  -1.140  -4.517  1.00  0.00    -0.248 NA
ATOM     56  C   UNL     1     -11.443  -1.603  -2.863  1.00  0.00     0.031 C 
ATOM     57  C   UNL     1     -10.677   2.885  -4.374  1.00  0.00     0.029 A 
ATOM     58  N   UNL     1     -12.741   2.143  -4.032  1.00  0.00    -0.354 N 
ATOM     59  C   UNL     1     -13.442  -2.228  -3.771  1.00  0.00     0.074 A 
ATOM     60  C   UNL     1     -12.366  -2.561  -2.869  1.00  0.00     0.031 C 
ATOM     61  C   UNL     1     -11.415   3.935  -3.947  1.00  0.00     0.029 A 
ATOM     62  C   UNL     1     -12.770   3.478  -3.679  1.00  0.00     0.049 A 
ATOM     63  H   UNL     1     -13.550   1.585  -4.098  1.00  0.00     0.167 HD
ATOM     64  C   UNL     1     -14.738  -2.628  -3.773  1.00  0.00     0.031 A 
ATOM     65  C   UNL     1     -13.814   4.125  -3.112  1.00  0.00     0.031 A 
ATOM     66  C   UNL     1     -15.464  -2.144  -4.917  1.00  0.00     0.049 A 
ATOM     67  C   UNL     1     -15.041   3.328  -3.353  1.00  0.00     0.074 A 
ATOM     68  C   UNL     1     -15.342  -2.299  -6.284  1.00  0.00     0.029 A 
ATOM     69  N   UNL     1     -16.313  -1.081  -4.729  1.00  0.00    -0.354 N 
ATOM     70  N   UNL     1     -15.614   3.205  -4.515  1.00  0.00    -0.248 NA
ATOM     71  C   UNL     1     -15.444   2.343  -2.359  1.00  0.00     0.031 C 
ATOM     72  C   UNL     1     -15.794  -1.071  -6.848  1.00  0.00     0.029 A 
ATOM     73  C   UNL     1     -16.167  -0.232  -5.796  1.00  0.00     0.049 A 
ATOM     74  H   UNL     1     -16.919  -0.951  -3.964  1.00  0.00     0.167 HD
ATOM     75  C   UNL     1     -16.117   1.911  -4.533  1.00  0.00     0.074 A 
ATOM     76  C   UNL     1     -16.104   1.483  -3.139  1.00  0.00     0.031 C 
ATOM     77  C   UNL     1     -16.226   1.212  -5.702  1.00  0.00     0.031 A 
BRANCH  64  78
ATOM     78  C   UNL     1     -15.409  -3.113  -2.519  1.00  0.00    -0.014 A 
ATOM     79  C   UNL     1     -16.723  -3.595  -2.599  1.00  0.00     0.009 A 
ATOM     80  C   UNL     1     -14.897  -2.866  -1.228  1.00  0.00     0.009 A 
ATOM     81  C   UNL     1     -17.499  -3.769  -1.447  1.00  0.00     0.001 A 
ATOM     82  C   UNL     1     -15.649  -3.085  -0.075  1.00  0.00     0.001 A 
ATOM     83  C   UNL     1     -16.962  -3.512  -0.188  1.00  0.00     0.000 A 
ENDBRANCH  64  78
BRANCH  65  84
ATOM     84  C   UNL     1     -13.764   5.246  -2.153  1.00  0.00    -0.014 A 
ATOM     85  C   UNL     1     -14.904   6.019  -1.893  1.00  0.00     0.009 A 
ATOM     86  C   UNL     1     -12.650   5.415  -1.309  1.00  0.00     0.009 A 
ATOM     87  C   UNL     1     -14.933   6.912  -0.815  1.00  0.00     0.001 A 
ATOM     88  C   UNL     1     -12.674   6.315  -0.241  1.00  0.00     0.001 A 
ATOM     89  C   UNL     1     -13.822   7.054   0.014  1.00  0.00     0.000 A 
ENDBRANCH  65  84
BRANCH  77  90
ATOM     90  C   UNL     1     -16.078   1.980  -6.992  1.00  0.00    -0.014 A 
ATOM     91  C   UNL     1     -14.900   2.670  -7.329  1.00  0.00     0.009 A 
ATOM     92  C   UNL     1     -17.096   1.894  -7.954  1.00  0.00     0.009 A 
ATOM     93  C   UNL     1     -14.764   3.293  -8.573  1.00  0.00     0.001 A 
ATOM     94  C   UNL     1     -16.950   2.497  -9.206  1.00  0.00     0.001 A 
ATOM     95  C   UNL     1     -15.788   3.203  -9.512  1.00  0.00     0.000 A 
ENDBRANCH  77  90
ENDBRANCH  51  52
ENDBRANCH  44  46
ENDBRANCH  43  44
ENDBRANCH  42  43
ENDBRANCH  41  42
ENDBRANCH  40  41
ENDBRANCH  39  40
ENDBRANCH  38  39
ENDBRANCH  37  38
ENDBRANCH   1  37
TORSDOF 26
