REMARK SMILES CC(C)(C)OC(=O)N1CCC[C@H]1C(=O)N[C@@H](Cc1ccccc1)C(=O)OCCOCCOCCOCCOC(=O)c1ccc(-c2c3nc(c(-c4ccccc4)c4ccc([nH]4)c(-c4ccccc4)c4nc(c(-c5ccccc5)c5ccc2[nH]5)C=C4)C=C3)cc1
REMARK SMILES IDX 30 1 29 2 28 3 27 4 26 5 24 6 25 7 16 8 15 9 13 10 14 11
REMARK SMILES IDX 12 13 8 14 9 15 10 16 11 17 6 18 7 19 5 20 2 21 1 22 3 23
REMARK SMILES IDX 4 24 17 25 18 26 19 27 23 28 20 29 22 30 21 31 31 32 32 33
REMARK SMILES IDX 33 34 34 35 35 36 36 37 37 38 38 39 39 40 40 41 41 42 42 43
REMARK SMILES IDX 88 44 43 45 87 46 44 47 45 48 46 49 81 50 47 51 86 52 80 53
REMARK SMILES IDX 82 54 48 55 85 56 79 57 78 58 49 60 71 61 56 62 70 63 57 64
REMARK SMILES IDX 60 65 69 66 83 67 58 68 59 69 68 71 84 72 61 73 50 74 51 75
REMARK SMILES IDX 55 76 52 77 54 78 53 79 72 80 73 81 77 82 74 83 76 84 75 85
REMARK SMILES IDX 62 86 63 87 67 88 64 89 66 90 65 91
REMARK H PARENT 15 12 82 59 60 70
REMARK Flexibility Score: inf
ROOT
ATOM      1  C   UNL     1      -3.769   3.277   4.021  1.00  0.00     0.188 C 
ENDROOT
BRANCH   1   2
ATOM      2  O   UNL     1      -5.184   3.288   4.201  1.00  0.00    -0.376 OA
BRANCH   2   3
ATOM      3  C   UNL     1      -5.787   4.297   4.996  1.00  0.00     0.202 C 
BRANCH   3   4
ATOM      4  C   UNL     1      -5.313   4.472   6.446  1.00  0.00     0.261 C 
BRANCH   4   5
ATOM      5  O   UNL     1      -3.884   4.467   6.627  1.00  0.00    -0.462 OA
BRANCH   5   6
ATOM      6  C   UNL     1      -3.364   3.461   7.372  1.00  0.00     0.329 C 
ATOM      7  O   UNL     1      -4.026   2.575   7.907  1.00  0.00    -0.250 OA
BRANCH   6   8
ATOM      8  C   UNL     1      -1.851   3.619   7.645  1.00  0.00     0.196 C 
BRANCH   8   9
ATOM      9  N   UNL     1      -1.025   4.409   6.711  1.00  0.00    -0.341 N 
ATOM     10  C   UNL     1      -0.028   4.040   5.843  1.00  0.00     0.243 C 
ATOM     11  O   UNL     1       0.593   4.936   5.265  1.00  0.00    -0.273 OA
ATOM     12  H   UNL     1      -1.225   5.373   6.710  1.00  0.00     0.164 HD
BRANCH  10  13
ATOM     13  C   UNL     1       0.323   2.549   5.664  1.00  0.00     0.178 C 
ATOM     14  N   UNL     1       1.048   2.235   4.426  1.00  0.00    -0.296 N 
ATOM     15  C   UNL     1       2.391   1.768   4.692  1.00  0.00     0.124 C 
ATOM     16  C   UNL     1       2.282   1.183   6.086  1.00  0.00     0.024 C 
ATOM     17  C   UNL     1       1.277   2.100   6.779  1.00  0.00     0.037 C 
BRANCH  14  18
ATOM     18  C   UNL     1       0.421   2.229   3.202  1.00  0.00     0.410 C 
ATOM     19  O   UNL     1      -0.675   2.727   3.023  1.00  0.00    -0.224 OA
BRANCH  18  20
ATOM     20  O   UNL     1       1.132   1.547   2.263  1.00  0.00    -0.444 OA
BRANCH  20  21
ATOM     21  C   UNL     1       0.652   1.371   0.899  1.00  0.00     0.106 C 
ATOM     22  C   UNL     1       1.447   0.179   0.338  1.00  0.00     0.056 C 
ATOM     23  C   UNL     1       0.996   2.624   0.090  1.00  0.00     0.056 C 
ATOM     24  C   UNL     1      -0.839   1.022   0.787  1.00  0.00     0.056 C 
ENDBRANCH  20  21
ENDBRANCH  18  20
ENDBRANCH  14  18
ENDBRANCH  10  13
ENDBRANCH   8   9
BRANCH   8  25
ATOM     25  C   UNL     1      -1.717   4.193   9.076  1.00  0.00     0.072 C 
BRANCH  25  26
ATOM     26  C   UNL     1      -2.276   5.596   9.233  1.00  0.00    -0.045 A 
ATOM     27  C   UNL     1      -1.518   6.715   8.862  1.00  0.00     0.004 A 
ATOM     28  C   UNL     1      -3.587   5.793   9.695  1.00  0.00     0.004 A 
ATOM     29  C   UNL     1      -2.068   7.997   8.918  1.00  0.00     0.000 A 
ATOM     30  C   UNL     1      -4.130   7.077   9.762  1.00  0.00     0.000 A 
ATOM     31  C   UNL     1      -3.374   8.178   9.367  1.00  0.00     0.000 A 
ENDBRANCH  25  26
ENDBRANCH   8  25
ENDBRANCH   6   8
ENDBRANCH   5   6
ENDBRANCH   4   5
ENDBRANCH   3   4
ENDBRANCH   2   3
ENDBRANCH   1   2
BRANCH   1  32
ATOM     32  C   UNL     1      -2.959   4.586   3.962  1.00  0.00     0.188 C 
BRANCH  32  33
ATOM     33  O   UNL     1      -3.699   5.780   4.150  1.00  0.00    -0.377 OA
BRANCH  33  34
ATOM     34  C   UNL     1      -3.869   6.555   2.974  1.00  0.00     0.188 C 
BRANCH  34  35
ATOM     35  C   UNL     1      -4.433   5.790   1.765  1.00  0.00     0.188 C 
BRANCH  35  36
ATOM     36  O   UNL     1      -3.612   4.712   1.326  1.00  0.00    -0.376 OA
BRANCH  36  37
ATOM     37  C   UNL     1      -2.689   4.957   0.270  1.00  0.00     0.202 C 
BRANCH  37  38
ATOM     38  C   UNL     1      -1.475   5.844   0.598  1.00  0.00     0.261 C 
BRANCH  38  39
ATOM     39  O   UNL     1      -1.770   7.218   0.903  1.00  0.00    -0.460 OA
BRANCH  39  40
ATOM     40  C   UNL     1      -2.506   7.921   0.021  1.00  0.00     0.338 C 
ATOM     41  O   UNL     1      -2.856   7.583  -1.094  1.00  0.00    -0.246 OA
BRANCH  40  42
ATOM     42  C   UNL     1      -3.018   9.112   0.726  1.00  0.00     0.060 A 
ATOM     43  C   UNL     1      -4.404   9.317   0.766  1.00  0.00     0.016 A 
ATOM     44  C   UNL     1      -2.147  10.012   1.346  1.00  0.00     0.016 A 
ATOM     45  C   UNL     1      -4.922  10.446   1.395  1.00  0.00     0.010 A 
ATOM     46  C   UNL     1      -2.666  11.160   1.948  1.00  0.00     0.010 A 
ATOM     47  C   UNL     1      -4.051  11.397   1.940  1.00  0.00    -0.014 A 
BRANCH  47  48
ATOM     48  C   UNL     1      -4.573  12.742   2.271  1.00  0.00     0.031 A 
ATOM     49  C   UNL     1      -4.503  13.801   1.204  1.00  0.00     0.074 A 
ATOM     50  C   UNL     1      -5.136  13.006   3.462  1.00  0.00     0.049 A 
ATOM     51  N   UNL     1      -4.870  15.055   1.252  1.00  0.00    -0.248 NA
ATOM     52  C   UNL     1      -3.952  13.384  -0.098  1.00  0.00     0.031 C 
ATOM     53  C   UNL     1      -5.322  12.046   4.548  1.00  0.00     0.029 A 
ATOM     54  N   UNL     1      -5.660  14.176   3.951  1.00  0.00    -0.354 N 
ATOM     55  C   UNL     1      -4.601  15.571  -0.009  1.00  0.00     0.074 A 
ATOM     56  C   UNL     1      -4.010  14.510  -0.792  1.00  0.00     0.031 C 
ATOM     57  C   UNL     1      -5.914  12.670   5.583  1.00  0.00     0.029 A 
ATOM     58  C   UNL     1      -6.117  14.077   5.242  1.00  0.00     0.049 A 
ATOM     59  H   UNL     1      -5.705  15.008   3.426  1.00  0.00     0.167 HD
ATOM     60  C   UNL     1      -4.836  16.817  -0.481  1.00  0.00     0.031 A 
ATOM     61  C   UNL     1      -6.621  15.025   6.056  1.00  0.00     0.031 A 
ATOM     62  C   UNL     1      -5.396  17.881   0.305  1.00  0.00     0.049 A 
ATOM     63  C   UNL     1      -6.758  16.436   5.543  1.00  0.00     0.074 A 
ATOM     64  C   UNL     1      -5.644  19.190  -0.068  1.00  0.00     0.029 A 
ATOM     65  N   UNL     1      -5.789  17.756   1.627  1.00  0.00    -0.354 N 
ATOM     66  N   UNL     1      -6.505  16.913   4.347  1.00  0.00    -0.248 NA
ATOM     67  C   UNL     1      -7.257  17.440   6.495  1.00  0.00     0.031 C 
ATOM     68  C   UNL     1      -6.146  19.870   1.046  1.00  0.00     0.029 A 
ATOM     69  C   UNL     1      -6.264  18.968   2.092  1.00  0.00     0.049 A 
ATOM     70  H   UNL     1      -5.739  16.927   2.157  1.00  0.00     0.167 HD
ATOM     71  C   UNL     1      -6.849  18.259   4.394  1.00  0.00     0.074 A 
ATOM     72  C   UNL     1      -7.342  18.520   5.730  1.00  0.00     0.031 C 
ATOM     73  C   UNL     1      -6.766  19.199   3.421  1.00  0.00     0.031 A 
BRANCH  60  74
ATOM     74  C   UNL     1      -4.462  17.098  -1.907  1.00  0.00    -0.014 A 
ATOM     75  C   UNL     1      -5.216  16.573  -2.969  1.00  0.00     0.009 A 
ATOM     76  C   UNL     1      -3.366  17.924  -2.194  1.00  0.00     0.009 A 
ATOM     77  C   UNL     1      -4.865  16.853  -4.291  1.00  0.00     0.001 A 
ATOM     78  C   UNL     1      -3.033  18.224  -3.516  1.00  0.00     0.001 A 
ATOM     79  C   UNL     1      -3.778  17.684  -4.563  1.00  0.00     0.000 A 
ENDBRANCH  60  74
BRANCH  61  80
ATOM     80  C   UNL     1      -7.006  14.700   7.457  1.00  0.00    -0.014 A 
ATOM     81  C   UNL     1      -8.344  14.784   7.871  1.00  0.00     0.009 A 
ATOM     82  C   UNL     1      -6.024  14.371   8.405  1.00  0.00     0.009 A 
ATOM     83  C   UNL     1      -8.685  14.589   9.213  1.00  0.00     0.001 A 
ATOM     84  C   UNL     1      -6.372  14.145   9.739  1.00  0.00     0.001 A 
ATOM     85  C   UNL     1      -7.699  14.268  10.144  1.00  0.00     0.000 A 
ENDBRANCH  61  80
BRANCH  73  86
ATOM     86  C   UNL     1      -7.270  20.577   3.746  1.00  0.00    -0.014 A 
ATOM     87  C   UNL     1      -6.564  21.431   4.607  1.00  0.00     0.009 A 
ATOM     88  C   UNL     1      -8.449  21.042   3.141  1.00  0.00     0.009 A 
ATOM     89  C   UNL     1      -7.050  22.711   4.883  1.00  0.00     0.001 A 
ATOM     90  C   UNL     1      -8.915  22.332   3.395  1.00  0.00     0.001 A 
ATOM     91  C   UNL     1      -8.220  23.162   4.274  1.00  0.00     0.000 A 
ENDBRANCH  73  86
ENDBRANCH  47  48
ENDBRANCH  40  42
ENDBRANCH  39  40
ENDBRANCH  38  39
ENDBRANCH  37  38
ENDBRANCH  36  37
ENDBRANCH  35  36
ENDBRANCH  34  35
ENDBRANCH  33  34
ENDBRANCH  32  33
ENDBRANCH   1  32
TORSDOF 27
