REMARK SMILES O=C(C[C@H]1S/C(=[NH+]/N=C/c2cccc(Cl)c2)NC1=O)OCCOCCOCCOCCOC(=O)c1ccc(-c2c3nc(c(-c4ccccc4)c4ccc([nH]4)c(-c4ccccc4)c4nc(c(-c5ccccc5)c5ccc2[nH]5)C=C4)C=C3)cc1
REMARK SMILES IDX 25 1 24 2 23 3 22 4 21 5 20 6 2 7 1 8 3 9 4 10 5 11 18 12
REMARK SMILES IDX 6 13 17 14 19 15 7 16 8 19 9 20 10 21 11 22 16 23 12 24
REMARK SMILES IDX 14 25 13 26 15 27 26 28 27 29 28 30 29 31 30 32 31 33 32 34
REMARK SMILES IDX 33 35 34 36 35 37 36 38 82 39 37 40 81 41 38 42 39 43 40 44
REMARK SMILES IDX 75 45 41 46 80 47 74 48 76 49 42 50 79 51 73 52 72 53 43 55
REMARK SMILES IDX 65 56 50 57 64 58 51 59 54 60 63 61 77 62 52 63 53 64 62 66
REMARK SMILES IDX 78 67 55 68 44 69 45 70 49 71 46 72 48 73 47 74 66 75 67 76
REMARK SMILES IDX 71 77 68 78 70 79 69 80 56 81 57 82 61 83 58 84 60 85 59 86
REMARK H PARENT 17 17 7 18 76 54 54 65
REMARK Flexibility Score: inf
ROOT
ATOM      1  C   UNL     1       1.987  -1.409  -1.735  1.00  0.00     0.188 C 
ENDROOT
BRANCH   1   2
ATOM      2  C   UNL     1       2.630  -0.029  -1.574  1.00  0.00     0.188 C 
BRANCH   2   3
ATOM      3  O   UNL     1       4.037   0.014  -1.432  1.00  0.00    -0.376 OA
BRANCH   3   4
ATOM      4  C   UNL     1       4.765  -0.216  -0.243  1.00  0.00     0.202 C 
BRANCH   4   5
ATOM      5  C   UNL     1       4.116  -0.731   1.034  1.00  0.00     0.261 C 
BRANCH   5   6
ATOM      6  O   UNL     1       2.804  -0.257   1.378  1.00  0.00    -0.463 OA
BRANCH   6   7
ATOM      7  C   UNL     1       2.458   1.001   1.718  1.00  0.00     0.307 C 
ATOM      8  O   UNL     1       1.518   1.191   2.486  1.00  0.00    -0.252 OA
BRANCH   7   9
ATOM      9  C   UNL     1       3.102   2.155   1.011  1.00  0.00     0.150 C 
BRANCH   9  10
ATOM     10  C   UNL     1       3.979   3.008   1.903  1.00  0.00     0.184 C 
ATOM     11  S   UNL     1       5.671   2.319   2.059  1.00  0.00    -0.020 SA
ATOM     12  C   UNL     1       4.172   4.331   1.188  1.00  0.00     0.322 C 
ATOM     13  C   UNL     1       6.318   3.453   0.918  1.00  0.00     0.337 C 
ATOM     14  N   UNL     1       5.417   4.425   0.647  1.00  0.00    -0.202 N 
ATOM     15  O   UNL     1       3.296   5.170   1.026  1.00  0.00    -0.246 OA
ATOM     16  N   UNL     1       7.510   3.403   0.424  1.00  0.00    -0.142 N 
ATOM     17  H   UNL     1       5.656   5.185   0.069  1.00  0.00     0.316 HD
ATOM     18  H   UNL     1       8.121   2.635   0.501  1.00  0.00     0.343 HD
BRANCH  16  19
ATOM     19  N   UNL     1       7.805   4.596  -0.236  1.00  0.00    -0.093 NA
ATOM     20  C   UNL     1       8.969   4.605  -0.799  1.00  0.00     0.166 C 
BRANCH  20  21
ATOM     21  C   UNL     1       9.518   5.897  -1.250  1.00  0.00    -0.002 A 
ATOM     22  C   UNL     1       9.151   7.050  -0.538  1.00  0.00     0.010 A 
ATOM     23  C   UNL     1      10.425   5.973  -2.303  1.00  0.00     0.030 A 
ATOM     24  C   UNL     1       9.691   8.286  -0.877  1.00  0.00     0.002 A 
ATOM     25  C   UNL     1      10.946   7.222  -2.647  1.00  0.00     0.041 A 
ATOM     26  C   UNL     1      10.588   8.373  -1.939  1.00  0.00     0.020 A 
ATOM     27  Cl  UNL     1      12.050   7.354  -3.961  1.00  0.00    -0.084 Cl
ENDBRANCH  20  21
ENDBRANCH  16  19
ENDBRANCH   9  10
ENDBRANCH   7   9
ENDBRANCH   6   7
ENDBRANCH   5   6
ENDBRANCH   4   5
ENDBRANCH   3   4
ENDBRANCH   2   3
ENDBRANCH   1   2
BRANCH   1  28
ATOM     28  O   UNL     1       2.603  -2.283  -2.672  1.00  0.00    -0.377 OA
BRANCH  28  29
ATOM     29  C   UNL     1       3.967  -2.566  -2.411  1.00  0.00     0.188 C 
BRANCH  29  30
ATOM     30  C   UNL     1       4.971  -1.818  -3.320  1.00  0.00     0.188 C 
BRANCH  30  31
ATOM     31  O   UNL     1       4.552  -0.810  -4.223  1.00  0.00    -0.376 OA
BRANCH  31  32
ATOM     32  C   UNL     1       3.380  -0.972  -5.002  1.00  0.00     0.202 C 
BRANCH  32  33
ATOM     33  C   UNL     1       3.030  -2.292  -5.720  1.00  0.00     0.261 C 
BRANCH  33  34
ATOM     34  O   UNL     1       3.445  -3.512  -5.094  1.00  0.00    -0.460 OA
BRANCH  34  35
ATOM     35  C   UNL     1       4.596  -4.052  -5.553  1.00  0.00     0.338 C 
ATOM     36  O   UNL     1       5.293  -3.641  -6.469  1.00  0.00    -0.246 OA
BRANCH  35  37
ATOM     37  C   UNL     1       5.026  -5.115  -4.619  1.00  0.00     0.060 A 
ATOM     38  C   UNL     1       6.295  -5.002  -4.030  1.00  0.00     0.016 A 
ATOM     39  C   UNL     1       4.194  -6.190  -4.298  1.00  0.00     0.016 A 
ATOM     40  C   UNL     1       6.746  -5.971  -3.140  1.00  0.00     0.010 A 
ATOM     41  C   UNL     1       4.665  -7.188  -3.436  1.00  0.00     0.010 A 
ATOM     42  C   UNL     1       5.956  -7.097  -2.883  1.00  0.00    -0.014 A 
BRANCH  42  43
ATOM     43  C   UNL     1       6.587  -8.267  -2.228  1.00  0.00     0.031 A 
ATOM     44  C   UNL     1       7.145  -9.353  -3.109  1.00  0.00     0.074 A 
ATOM     45  C   UNL     1       6.738  -8.329  -0.894  1.00  0.00     0.049 A 
ATOM     46  N   UNL     1       7.758 -10.459  -2.775  1.00  0.00    -0.248 NA
ATOM     47  C   UNL     1       6.995  -9.161  -4.562  1.00  0.00     0.031 C 
ATOM     48  C   UNL     1       6.297  -7.313   0.061  1.00  0.00     0.029 A 
ATOM     49  N   UNL     1       7.317  -9.298  -0.113  1.00  0.00    -0.354 N 
ATOM     50  C   UNL     1       8.069 -11.090  -3.974  1.00  0.00     0.074 A 
ATOM     51  C   UNL     1       7.546 -10.265  -5.040  1.00  0.00     0.031 C 
ATOM     52  C   UNL     1       6.616  -7.718   1.304  1.00  0.00     0.029 A 
ATOM     53  C   UNL     1       7.254  -9.031   1.233  1.00  0.00     0.049 A 
ATOM     54  H   UNL     1       7.737 -10.108  -0.482  1.00  0.00     0.167 HD
ATOM     55  C   UNL     1       8.739 -12.249  -4.171  1.00  0.00     0.031 A 
ATOM     56  C   UNL     1       7.648  -9.775   2.285  1.00  0.00     0.031 A 
ATOM     57  C   UNL     1       9.242 -13.081  -3.112  1.00  0.00     0.049 A 
ATOM     58  C   UNL     1       8.304 -11.111   2.038  1.00  0.00     0.074 A 
ATOM     59  C   UNL     1       9.927 -14.279  -3.209  1.00  0.00     0.029 A 
ATOM     60  N   UNL     1       9.107 -12.804  -1.761  1.00  0.00    -0.354 N 
ATOM     61  N   UNL     1       8.608 -11.688   0.900  1.00  0.00    -0.248 NA
ATOM     62  C   UNL     1       8.682 -11.890   3.226  1.00  0.00     0.031 C 
ATOM     63  C   UNL     1      10.153 -14.758  -1.915  1.00  0.00     0.029 A 
ATOM     64  C   UNL     1       9.672 -13.823  -1.013  1.00  0.00     0.049 A 
ATOM     65  H   UNL     1       8.673 -12.003  -1.389  1.00  0.00     0.167 HD
ATOM     66  C   UNL     1       9.238 -12.882   1.237  1.00  0.00     0.074 A 
ATOM     67  C   UNL     1       9.298 -12.929   2.682  1.00  0.00     0.031 C 
ATOM     68  C   UNL     1       9.721 -13.855   0.425  1.00  0.00     0.031 A 
BRANCH  55  69
ATOM     69  C   UNL     1       8.942 -12.701  -5.590  1.00  0.00    -0.014 A 
ATOM     70  C   UNL     1       9.836 -12.038  -6.446  1.00  0.00     0.009 A 
ATOM     71  C   UNL     1       8.265 -13.836  -6.062  1.00  0.00     0.009 A 
ATOM     72  C   UNL     1      10.032 -12.492  -7.752  1.00  0.00     0.001 A 
ATOM     73  C   UNL     1       8.485 -14.305  -7.359  1.00  0.00     0.001 A 
ATOM     74  C   UNL     1       9.363 -13.629  -8.204  1.00  0.00     0.000 A 
ENDBRANCH  55  69
BRANCH  56  75
ATOM     75  C   UNL     1       7.402  -9.308   3.677  1.00  0.00    -0.014 A 
ATOM     76  C   UNL     1       8.469  -9.018   4.543  1.00  0.00     0.009 A 
ATOM     77  C   UNL     1       6.090  -9.211   4.168  1.00  0.00     0.009 A 
ATOM     78  C   UNL     1       8.228  -8.684   5.879  1.00  0.00     0.001 A 
ATOM     79  C   UNL     1       5.851  -8.842   5.494  1.00  0.00     0.001 A 
ATOM     80  C   UNL     1       6.920  -8.594   6.352  1.00  0.00     0.000 A 
ENDBRANCH  56  75
BRANCH  68  81
ATOM     81  C   UNL     1      10.389 -15.031   1.085  1.00  0.00    -0.014 A 
ATOM     82  C   UNL     1       9.659 -15.962   1.841  1.00  0.00     0.009 A 
ATOM     83  C   UNL     1      11.773 -15.218   0.934  1.00  0.00     0.009 A 
ATOM     84  C   UNL     1      10.308 -17.024   2.474  1.00  0.00     0.001 A 
ATOM     85  C   UNL     1      12.413 -16.302   1.538  1.00  0.00     0.001 A 
ATOM     86  C   UNL     1      11.683 -17.195   2.320  1.00  0.00     0.000 A 
ENDBRANCH  68  81
ENDBRANCH  42  43
ENDBRANCH  35  37
ENDBRANCH  34  35
ENDBRANCH  33  34
ENDBRANCH  32  33
ENDBRANCH  31  32
ENDBRANCH  30  31
ENDBRANCH  29  30
ENDBRANCH  28  29
ENDBRANCH   1  28
TORSDOF 23
