REMARK SMILES Cc1ccccc1NC(=O)CSc1nc(C(=O)OCCOCCOCCOCCOC(=O)c2ccc(-c3c4nc(c(-c5ccccc5)c5ccc([nH]5)c(-c5ccccc5)c5nc(c(-c6ccccc6)c6ccc3[nH]6)C=C5)C=C4)cc2)c2ccccc2n1
REMARK SMILES IDX 23 1 22 2 21 3 20 4 19 5 18 6 16 7 17 8 15 9 13 10 14 11
REMARK SMILES IDX 87 12 86 13 81 14 85 15 82 16 84 17 83 18 12 19 11 20 9 21
REMARK SMILES IDX 8 22 10 24 7 25 1 26 2 27 3 28 4 29 6 30 5 31 24 32 25 33
REMARK SMILES IDX 26 34 27 35 28 36 29 37 30 38 31 39 32 40 33 41 34 42 80 43
REMARK SMILES IDX 35 44 79 45 36 46 37 47 38 48 73 49 39 50 78 51 72 52 74 53
REMARK SMILES IDX 40 54 77 55 71 56 70 57 41 59 63 60 48 61 62 62 49 63 52 64
REMARK SMILES IDX 61 65 75 66 50 67 51 68 60 70 76 71 53 72 42 73 43 74 47 75
REMARK SMILES IDX 44 76 46 77 45 78 64 79 65 80 69 81 66 82 68 83 67 84 54 85
REMARK SMILES IDX 55 86 59 87 56 88 58 89 57 90
REMARK H PARENT 8 23 74 58 52 69
REMARK Flexibility Score: inf
ROOT
ATOM      1  C   UNL     1      -3.961   4.889  -4.886  1.00  0.00     0.188 C 
ENDROOT
BRANCH   1   2
ATOM      2  C   UNL     1      -3.746   5.194  -3.400  1.00  0.00     0.188 C 
BRANCH   2   3
ATOM      3  O   UNL     1      -4.135   6.479  -2.930  1.00  0.00    -0.376 OA
BRANCH   3   4
ATOM      4  C   UNL     1      -3.156   7.513  -3.040  1.00  0.00     0.202 C 
BRANCH   4   5
ATOM      5  C   UNL     1      -1.806   7.197  -2.408  1.00  0.00     0.261 C 
BRANCH   5   6
ATOM      6  O   UNL     1      -1.050   6.372  -3.316  1.00  0.00    -0.458 OA
BRANCH   6   7
ATOM      7  C   UNL     1      -0.060   5.679  -2.719  1.00  0.00     0.357 C 
ATOM      8  O   UNL     1       0.437   5.927  -1.632  1.00  0.00    -0.244 OA
BRANCH   7   9
ATOM      9  C   UNL     1      -0.004   4.311  -3.275  1.00  0.00     0.160 A 
ATOM     10  C   UNL     1      -0.647   2.316  -2.494  1.00  0.00     0.189 A 
ATOM     11  N   UNL     1      -0.070   3.462  -2.246  1.00  0.00    -0.215 NA
ATOM     12  N   UNL     1      -0.650   1.746  -3.699  1.00  0.00    -0.222 NA
ATOM     13  C   UNL     1      -0.282   2.518  -4.733  1.00  0.00     0.076 A 
ATOM     14  C   UNL     1      -0.107   3.897  -4.598  1.00  0.00     0.034 A 
ATOM     15  C   UNL     1      -0.162   1.960  -6.000  1.00  0.00     0.029 A 
ATOM     16  C   UNL     1      -0.061   4.702  -5.754  1.00  0.00     0.013 A 
ATOM     17  C   UNL     1       0.010   2.751  -7.140  1.00  0.00     0.002 A 
ATOM     18  C   UNL     1      -0.003   4.132  -7.021  1.00  0.00     0.001 A 
BRANCH  10  19
ATOM     19  S   UNL     1      -2.000   2.009  -1.385  1.00  0.00    -0.076 SA
BRANCH  19  20
ATOM     20  C   UNL     1      -1.589   3.196  -0.017  1.00  0.00     0.178 C 
BRANCH  20  21
ATOM     21  C   UNL     1      -0.161   3.154   0.544  1.00  0.00     0.234 C 
ATOM     22  N   UNL     1       0.570   2.006   0.675  1.00  0.00    -0.325 N 
ATOM     23  H   UNL     1       1.534   2.143   0.825  1.00  0.00     0.169 HD
ATOM     24  O   UNL     1       0.378   4.196   0.942  1.00  0.00    -0.274 OA
BRANCH  22  25
ATOM     25  C   UNL     1       0.166   0.665   0.631  1.00  0.00     0.044 A 
ATOM     26  C   UNL     1       2.506  -0.107  -0.110  1.00  0.00     0.046 C 
ATOM     27  C   UNL     1       1.044  -0.328   0.169  1.00  0.00    -0.027 A 
ATOM     28  C   UNL     1       0.534  -1.622  -0.044  1.00  0.00     0.005 A 
ATOM     29  C   UNL     1      -0.804  -1.925   0.212  1.00  0.00     0.000 A 
ATOM     30  C   UNL     1      -1.131   0.307   1.021  1.00  0.00     0.026 A 
ATOM     31  C   UNL     1      -1.633  -0.965   0.769  1.00  0.00     0.002 A 
ENDBRANCH  22  25
ENDBRANCH  20  21
ENDBRANCH  19  20
ENDBRANCH  10  19
ENDBRANCH   7   9
ENDBRANCH   6   7
ENDBRANCH   5   6
ENDBRANCH   4   5
ENDBRANCH   3   4
ENDBRANCH   2   3
ENDBRANCH   1   2
BRANCH   1  32
ATOM     32  O   UNL     1      -3.129   5.566  -5.817  1.00  0.00    -0.377 OA
BRANCH  32  33
ATOM     33  C   UNL     1      -3.650   6.684  -6.541  1.00  0.00     0.188 C 
BRANCH  33  34
ATOM     34  C   UNL     1      -5.165   6.801  -6.723  1.00  0.00     0.188 C 
BRANCH  34  35
ATOM     35  O   UNL     1      -5.741   7.250  -5.497  1.00  0.00    -0.376 OA
BRANCH  35  36
ATOM     36  C   UNL     1      -7.076   6.821  -5.238  1.00  0.00     0.202 C 
BRANCH  36  37
ATOM     37  C   UNL     1      -8.112   7.316  -6.257  1.00  0.00     0.261 C 
BRANCH  37  38
ATOM     38  O   UNL     1      -8.216   8.752  -6.196  1.00  0.00    -0.460 OA
BRANCH  38  39
ATOM     39  C   UNL     1      -7.564   9.419  -7.183  1.00  0.00     0.338 C 
ATOM     40  O   UNL     1      -7.689   9.207  -8.384  1.00  0.00    -0.246 OA
BRANCH  39  41
ATOM     41  C   UNL     1      -6.470  10.241  -6.598  1.00  0.00     0.060 A 
ATOM     42  C   UNL     1      -5.494  10.811  -7.434  1.00  0.00     0.016 A 
ATOM     43  C   UNL     1      -6.229  10.134  -5.234  1.00  0.00     0.016 A 
ATOM     44  C   UNL     1      -4.216  11.103  -6.931  1.00  0.00     0.010 A 
ATOM     45  C   UNL     1      -4.939  10.300  -4.782  1.00  0.00     0.010 A 
ATOM     46  C   UNL     1      -3.904  10.756  -5.616  1.00  0.00    -0.014 A 
BRANCH  46  47
ATOM     47  C   UNL     1      -2.550  10.622  -5.039  1.00  0.00     0.031 A 
ATOM     48  C   UNL     1      -2.311  11.039  -3.605  1.00  0.00     0.074 A 
ATOM     49  C   UNL     1      -1.674   9.770  -5.634  1.00  0.00     0.049 A 
ATOM     50  N   UNL     1      -1.262  10.752  -2.909  1.00  0.00    -0.248 NA
ATOM     51  C   UNL     1      -3.272  11.811  -2.811  1.00  0.00     0.031 C 
ATOM     52  C   UNL     1      -0.676   8.973  -4.925  1.00  0.00     0.029 A 
ATOM     53  N   UNL     1      -1.495   9.327  -6.936  1.00  0.00    -0.354 N 
ATOM     54  C   UNL     1      -1.532  10.967  -1.574  1.00  0.00     0.074 A 
ATOM     55  C   UNL     1      -2.770  11.702  -1.575  1.00  0.00     0.031 C 
ATOM     56  C   UNL     1       0.064   8.261  -5.777  1.00  0.00     0.029 A 
ATOM     57  C   UNL     1      -0.206   8.801  -7.072  1.00  0.00     0.049 A 
ATOM     58  H   UNL     1      -2.169   9.376  -7.652  1.00  0.00     0.167 HD
ATOM     59  C   UNL     1      -0.735  10.390  -0.623  1.00  0.00     0.031 A 
ATOM     60  C   UNL     1       0.804   9.361  -7.803  1.00  0.00     0.031 A 
ATOM     61  C   UNL     1       0.491   9.805  -1.200  1.00  0.00     0.049 A 
ATOM     62  C   UNL     1       1.970   9.794  -6.907  1.00  0.00     0.074 A 
ATOM     63  C   UNL     1       1.138   8.591  -1.064  1.00  0.00     0.029 A 
ATOM     64  N   UNL     1       1.186  10.480  -2.208  1.00  0.00    -0.354 N 
ATOM     65  N   UNL     1       1.807  10.125  -5.643  1.00  0.00    -0.248 NA
ATOM     66  C   UNL     1       3.387   9.722  -7.261  1.00  0.00     0.031 C 
ATOM     67  C   UNL     1       2.107   8.478  -2.101  1.00  0.00     0.029 A 
ATOM     68  C   UNL     1       2.152   9.684  -2.781  1.00  0.00     0.049 A 
ATOM     69  H   UNL     1       1.006  11.410  -2.476  1.00  0.00     0.167 HD
ATOM     70  C   UNL     1       3.018  10.160  -5.005  1.00  0.00     0.074 A 
ATOM     71  C   UNL     1       3.982   9.967  -6.075  1.00  0.00     0.031 C 
ATOM     72  C   UNL     1       3.176  10.250  -3.649  1.00  0.00     0.031 A 
BRANCH  59  73
ATOM     73  C   UNL     1      -1.139  10.172   0.840  1.00  0.00    -0.014 A 
ATOM     74  C   UNL     1      -0.262   9.514   1.730  1.00  0.00     0.009 A 
ATOM     75  C   UNL     1      -2.397  10.491   1.389  1.00  0.00     0.009 A 
ATOM     76  C   UNL     1      -0.620   9.172   3.047  1.00  0.00     0.001 A 
ATOM     77  C   UNL     1      -2.748  10.195   2.720  1.00  0.00     0.001 A 
ATOM     78  C   UNL     1      -1.864   9.522   3.547  1.00  0.00     0.000 A 
ENDBRANCH  59  73
BRANCH  60  79
ATOM     79  C   UNL     1       0.348   9.770  -9.162  1.00  0.00    -0.014 A 
ATOM     80  C   UNL     1       0.037   8.665  -9.989  1.00  0.00     0.009 A 
ATOM     81  C   UNL     1      -0.441  10.927  -9.286  1.00  0.00     0.009 A 
ATOM     82  C   UNL     1      -1.199   8.595 -10.642  1.00  0.00     0.001 A 
ATOM     83  C   UNL     1      -1.667  10.861  -9.970  1.00  0.00     0.001 A 
ATOM     84  C   UNL     1      -2.076   9.673 -10.581  1.00  0.00     0.000 A 
ENDBRANCH  60  79
BRANCH  72  85
ATOM     85  C   UNL     1       4.366  10.860  -2.933  1.00  0.00    -0.014 A 
ATOM     86  C   UNL     1       5.381  11.571  -3.574  1.00  0.00     0.009 A 
ATOM     87  C   UNL     1       4.354  10.923  -1.513  1.00  0.00     0.009 A 
ATOM     88  C   UNL     1       6.326  12.302  -2.840  1.00  0.00     0.001 A 
ATOM     89  C   UNL     1       5.266  11.680  -0.781  1.00  0.00     0.001 A 
ATOM     90  C   UNL     1       6.258  12.373  -1.450  1.00  0.00     0.000 A 
ENDBRANCH  72  85
ENDBRANCH  46  47
ENDBRANCH  39  41
ENDBRANCH  38  39
ENDBRANCH  37  38
ENDBRANCH  36  37
ENDBRANCH  35  36
ENDBRANCH  34  35
ENDBRANCH  33  34
ENDBRANCH  32  33
ENDBRANCH   1  32
TORSDOF 24
