REMARK SMILES COc1ccc(-c2ccc(C#N)c(S[C@@H](C)C(=O)OCCOCCOCCOCCOC(=O)c3ccc(-c4c5nc(c(-c6ccccc6)c6ccc([nH]6)c(-c6ccccc6)c6nc(c(-c7ccccc7)c7ccc4[nH]7)C=C6)C=C5)cc3)n2)cc1
REMARK SMILES IDX 24 1 23 2 22 3 21 4 20 5 19 6 17 7 18 8 15 9 16 10 14 11
REMARK SMILES IDX 13 12 7 13 8 14 82 15 9 16 10 17 6 18 3 19 4 20 84 21 5 22
REMARK SMILES IDX 83 23 2 24 1 25 11 26 12 27 25 28 26 29 27 30 28 31 29 32
REMARK SMILES IDX 30 33 31 34 32 35 33 36 34 37 35 38 81 39 36 40 80 41 37 42
REMARK SMILES IDX 38 43 39 44 74 45 40 46 79 47 73 48 75 49 41 50 78 51 72 52
REMARK SMILES IDX 71 53 42 55 64 56 49 57 63 58 50 59 53 60 62 61 76 62 51 63
REMARK SMILES IDX 52 64 61 66 77 67 54 68 43 69 44 70 48 71 45 72 47 73 46 74
REMARK SMILES IDX 65 75 66 76 70 77 67 78 69 79 68 80 55 81 56 82 60 83 57 84
REMARK SMILES IDX 59 85 58 86
REMARK H PARENT 75 54 53 65
REMARK Flexibility Score: inf
ROOT
ATOM      1  C   UNL     1      -0.992  -9.954   4.076  1.00  0.00     0.188 C 
ENDROOT
BRANCH   1   2
ATOM      2  C   UNL     1      -1.096 -11.390   4.621  1.00  0.00     0.188 C 
BRANCH   2   3
ATOM      3  O   UNL     1      -0.774 -11.678   5.973  1.00  0.00    -0.376 OA
BRANCH   3   4
ATOM      4  C   UNL     1       0.446 -11.255   6.561  1.00  0.00     0.202 C 
BRANCH   4   5
ATOM      5  C   UNL     1       1.784 -11.208   5.805  1.00  0.00     0.261 C 
BRANCH   5   6
ATOM      6  O   UNL     1       1.745 -10.733   4.449  1.00  0.00    -0.462 OA
BRANCH   6   7
ATOM      7  C   UNL     1       1.932 -11.668   3.496  1.00  0.00     0.319 C 
ATOM      8  O   UNL     1       2.091 -12.860   3.756  1.00  0.00    -0.251 OA
BRANCH   7   9
ATOM      9  C   UNL     1       1.834 -11.196   2.059  1.00  0.00     0.160 C 
ATOM     10  C   UNL     1       2.938 -11.801   1.201  1.00  0.00     0.032 C 
BRANCH   9  11
ATOM     11  S   UNL     1       1.520  -9.480   1.503  1.00  0.00    -0.090 SA
BRANCH  11  12
ATOM     12  C   UNL     1       2.212  -8.207   2.529  1.00  0.00     0.115 A 
ATOM     13  C   UNL     1       2.041  -5.867   2.845  1.00  0.00     0.072 A 
ATOM     14  C   UNL     1       3.022  -5.893   3.823  1.00  0.00     0.030 A 
ATOM     15  N   UNL     1       1.609  -7.003   2.244  1.00  0.00    -0.240 NA
ATOM     16  C   UNL     1       3.648  -7.101   4.103  1.00  0.00     0.024 A 
ATOM     17  C   UNL     1       3.285  -8.263   3.408  1.00  0.00     0.084 A 
BRANCH  13  18
ATOM     18  C   UNL     1       1.545  -4.582   2.322  1.00  0.00     0.000 A 
ATOM     19  C   UNL     1       0.717  -2.012   1.451  1.00  0.00     0.118 A 
ATOM     20  C   UNL     1      -0.193  -2.900   2.031  1.00  0.00     0.047 A 
ATOM     21  C   UNL     1       2.041  -2.407   1.294  1.00  0.00     0.047 A 
ATOM     22  C   UNL     1       0.210  -4.181   2.443  1.00  0.00     0.014 A 
ATOM     23  C   UNL     1       2.445  -3.677   1.724  1.00  0.00     0.014 A 
BRANCH  19  24
ATOM     24  O   UNL     1       0.224  -0.776   1.134  1.00  0.00    -0.497 OA
ATOM     25  C   UNL     1       0.851  -0.119   0.035  1.00  0.00     0.278 C 
ENDBRANCH  19  24
ENDBRANCH  13  18
BRANCH  17  26
ATOM     26  C   UNL     1       4.119  -9.408   3.582  1.00  0.00     0.102 C 
ATOM     27  N   UNL     1       4.820 -10.314   3.742  1.00  0.00    -0.192 NA
ENDBRANCH  17  26
ENDBRANCH  11  12
ENDBRANCH   9  11
ENDBRANCH   7   9
ENDBRANCH   6   7
ENDBRANCH   5   6
ENDBRANCH   4   5
ENDBRANCH   3   4
ENDBRANCH   2   3
ENDBRANCH   1   2
BRANCH   1  28
ATOM     28  O   UNL     1      -0.162  -9.098   4.839  1.00  0.00    -0.377 OA
BRANCH  28  29
ATOM     29  C   UNL     1      -0.789  -8.275   5.813  1.00  0.00     0.188 C 
BRANCH  29  30
ATOM     30  C   UNL     1      -2.046  -8.797   6.545  1.00  0.00     0.188 C 
BRANCH  30  31
ATOM     31  O   UNL     1      -2.984  -9.448   5.707  1.00  0.00    -0.376 OA
BRANCH  31  32
ATOM     32  C   UNL     1      -4.095  -8.738   5.188  1.00  0.00     0.202 C 
BRANCH  32  33
ATOM     33  C   UNL     1      -3.880  -7.456   4.363  1.00  0.00     0.261 C 
BRANCH  33  34
ATOM     34  O   UNL     1      -2.971  -6.479   4.886  1.00  0.00    -0.460 OA
BRANCH  34  35
ATOM     35  C   UNL     1      -3.304  -5.873   6.044  1.00  0.00     0.338 C 
ATOM     36  O   UNL     1      -4.317  -6.042   6.697  1.00  0.00    -0.246 OA
BRANCH  35  37
ATOM     37  C   UNL     1      -2.132  -5.092   6.498  1.00  0.00     0.060 A 
ATOM     38  C   UNL     1      -1.546  -5.401   7.733  1.00  0.00     0.016 A 
ATOM     39  C   UNL     1      -1.633  -4.045   5.722  1.00  0.00     0.016 A 
ATOM     40  C   UNL     1      -0.504  -4.617   8.228  1.00  0.00     0.010 A 
ATOM     41  C   UNL     1      -0.597  -3.252   6.223  1.00  0.00     0.010 A 
ATOM     42  C   UNL     1      -0.072  -3.499   7.504  1.00  0.00    -0.014 A 
BRANCH  42  43
ATOM     43  C   UNL     1       0.723  -2.453   8.193  1.00  0.00     0.031 A 
ATOM     44  C   UNL     1      -0.003  -1.229   8.691  1.00  0.00     0.074 A 
ATOM     45  C   UNL     1       2.041  -2.593   8.415  1.00  0.00     0.049 A 
ATOM     46  N   UNL     1       0.471  -0.164   9.286  1.00  0.00    -0.248 NA
ATOM     47  C   UNL     1      -1.462  -1.205   8.487  1.00  0.00     0.031 C 
ATOM     48  C   UNL     1       2.847  -3.754   8.045  1.00  0.00     0.029 A 
ATOM     49  N   UNL     1       2.932  -1.737   9.012  1.00  0.00    -0.354 N 
ATOM     50  C   UNL     1      -0.627   0.661   9.507  1.00  0.00     0.074 A 
ATOM     51  C   UNL     1      -1.782  -0.009   8.952  1.00  0.00     0.031 C 
ATOM     52  C   UNL     1       4.120  -3.535   8.419  1.00  0.00     0.029 A 
ATOM     53  C   UNL     1       4.223  -2.204   9.018  1.00  0.00     0.049 A 
ATOM     54  H   UNL     1       2.671  -0.871   9.400  1.00  0.00     0.167 HD
ATOM     55  C   UNL     1      -0.674   1.866  10.122  1.00  0.00     0.031 A 
ATOM     56  C   UNL     1       5.358  -1.614   9.439  1.00  0.00     0.031 A 
ATOM     57  C   UNL     1       0.477   2.540  10.659  1.00  0.00     0.049 A 
ATOM     58  C   UNL     1       5.295  -0.232  10.040  1.00  0.00     0.074 A 
ATOM     59  C   UNL     1       0.536   3.761  11.308  1.00  0.00     0.029 A 
ATOM     60  N   UNL     1       1.773   2.053  10.602  1.00  0.00    -0.354 N 
ATOM     61  N   UNL     1       4.253   0.534  10.254  1.00  0.00    -0.248 NA
ATOM     62  C   UNL     1       6.571   0.358  10.472  1.00  0.00     0.031 C 
ATOM     63  C   UNL     1       1.877   4.046  11.577  1.00  0.00     0.029 A 
ATOM     64  C   UNL     1       2.644   2.962  11.180  1.00  0.00     0.049 A 
ATOM     65  H   UNL     1       2.036   1.189  10.209  1.00  0.00     0.167 HD
ATOM     66  C   UNL     1       4.740   1.673  10.887  1.00  0.00     0.074 A 
ATOM     67  C   UNL     1       6.169   1.491  11.031  1.00  0.00     0.031 C 
ATOM     68  C   UNL     1       4.064   2.767  11.321  1.00  0.00     0.031 A 
BRANCH  55  69
ATOM     69  C   UNL     1      -2.011   2.553  10.199  1.00  0.00    -0.014 A 
ATOM     70  C   UNL     1      -3.054   2.050  10.995  1.00  0.00     0.009 A 
ATOM     71  C   UNL     1      -2.222   3.739   9.479  1.00  0.00     0.009 A 
ATOM     72  C   UNL     1      -4.291   2.699  11.034  1.00  0.00     0.001 A 
ATOM     73  C   UNL     1      -3.446   4.405   9.548  1.00  0.00     0.001 A 
ATOM     74  C   UNL     1      -4.483   3.879  10.316  1.00  0.00     0.000 A 
ENDBRANCH  55  69
BRANCH  56  75
ATOM     75  C   UNL     1       6.664  -2.313   9.296  1.00  0.00    -0.014 A 
ATOM     76  C   UNL     1       7.394  -2.715  10.426  1.00  0.00     0.009 A 
ATOM     77  C   UNL     1       7.207  -2.551   8.023  1.00  0.00     0.009 A 
ATOM     78  C   UNL     1       8.652  -3.305  10.284  1.00  0.00     0.001 A 
ATOM     79  C   UNL     1       8.448  -3.174   7.883  1.00  0.00     0.001 A 
ATOM     80  C   UNL     1       9.176  -3.539   9.014  1.00  0.00     0.000 A 
ENDBRANCH  56  75
BRANCH  68  81
ATOM     81  C   UNL     1       4.848   3.820  12.061  1.00  0.00    -0.014 A 
ATOM     82  C   UNL     1       5.812   4.617  11.425  1.00  0.00     0.009 A 
ATOM     83  C   UNL     1       4.587   4.035  13.425  1.00  0.00     0.009 A 
ATOM     84  C   UNL     1       6.534   5.568  12.152  1.00  0.00     0.001 A 
ATOM     85  C   UNL     1       5.280   5.013  14.139  1.00  0.00     0.001 A 
ATOM     86  C   UNL     1       6.264   5.768  13.505  1.00  0.00     0.000 A 
ENDBRANCH  68  81
ENDBRANCH  42  43
ENDBRANCH  35  37
ENDBRANCH  34  35
ENDBRANCH  33  34
ENDBRANCH  32  33
ENDBRANCH  31  32
ENDBRANCH  30  31
ENDBRANCH  29  30
ENDBRANCH  28  29
ENDBRANCH   1  28
TORSDOF 25
