REMARK SMILES CC[NH2+][C@]1(C(=O)OCCOCCOCCOCCOC(=O)c2ccc(-c3c4nc(c(-c5ccccc5)c5ccc([nH]5)c(-c5ccccc5)c5nc(c(-c6ccccc6)c6ccc3[nH]6)C=C5)C=C4)cc2)CCC[C@@H]([N@@H+](C)CC2CCCC2)C1
REMARK SMILES IDX 12 1 11 2 10 3 9 4 8 5 7 6 5 7 6 8 4 9 70 10 82 11 71 12
REMARK SMILES IDX 73 13 72 14 3 15 2 18 1 19 74 20 75 21 76 23 77 24 78 25
REMARK SMILES IDX 81 26 79 27 80 28 13 29 14 30 15 31 16 32 17 33 18 34 19 35
REMARK SMILES IDX 20 36 21 37 22 38 23 39 69 40 24 41 68 42 25 43 26 44 27 45
REMARK SMILES IDX 62 46 28 47 67 48 61 49 63 50 29 51 66 52 60 53 59 54 30 56
REMARK SMILES IDX 52 57 37 58 51 59 38 60 41 61 50 62 64 63 39 64 40 65 49 67
REMARK SMILES IDX 65 68 42 69 31 70 32 71 36 72 33 73 35 74 34 75 53 76 54 77
REMARK SMILES IDX 58 78 55 79 57 80 56 81 43 82 44 83 48 84 45 85 47 86 46 87
REMARK H PARENT 3 16 3 17 74 22 63 55 41 66
REMARK Flexibility Score: inf
ROOT
ATOM      1  C   UNL     1       3.063  -2.365  -0.743  1.00  0.00     0.188 C 
ENDROOT
BRANCH   1   2
ATOM      2  C   UNL     1       2.806  -0.864  -0.878  1.00  0.00     0.188 C 
BRANCH   2   3
ATOM      3  O   UNL     1       3.078  -0.043   0.255  1.00  0.00    -0.376 OA
BRANCH   3   4
ATOM      4  C   UNL     1       2.604  -0.400   1.551  1.00  0.00     0.202 C 
BRANCH   4   5
ATOM      5  C   UNL     1       1.171  -0.912   1.774  1.00  0.00     0.261 C 
BRANCH   5   6
ATOM      6  O   UNL     1       0.887  -2.138   1.073  1.00  0.00    -0.459 OA
BRANCH   6   7
ATOM      7  C   UNL     1      -0.203  -2.134   0.263  1.00  0.00     0.368 C 
ATOM      8  O   UNL     1      -1.017  -1.215   0.241  1.00  0.00    -0.245 OA
BRANCH   7   9
ATOM      9  C   UNL     1      -0.289  -3.374  -0.697  1.00  0.00     0.200 C 
ATOM     10  C   UNL     1       0.578  -4.590  -0.272  1.00  0.00     0.081 C 
ATOM     11  C   UNL     1      -1.726  -3.892  -0.556  1.00  0.00     0.146 C 
ATOM     12  C   UNL     1       0.516  -5.742  -1.272  1.00  0.00     0.013 C 
ATOM     13  C   UNL     1      -2.056  -5.166  -1.354  1.00  0.00     0.190 C 
ATOM     14  C   UNL     1      -0.874  -6.045  -1.824  1.00  0.00     0.065 C 
BRANCH   9  15
ATOM     15  N   UNL     1       0.108  -2.976  -2.078  1.00  0.00    -0.332 N 
ATOM     16  H   UNL     1       1.105  -2.762  -2.060  1.00  0.00     0.347 HD
ATOM     17  H   UNL     1      -0.155  -3.768  -2.664  1.00  0.00     0.347 HD
BRANCH  15  18
ATOM     18  C   UNL     1      -0.577  -1.829  -2.667  1.00  0.00     0.257 C 
ATOM     19  C   UNL     1      -0.088  -1.665  -4.102  1.00  0.00     0.071 C 
ENDBRANCH  15  18
ENDBRANCH   9  15
BRANCH  13  20
ATOM     20  N   UNL     1      -3.211  -5.906  -0.824  1.00  0.00    -0.334 N 
ATOM     21  C   UNL     1      -3.787  -6.878  -1.734  1.00  0.00     0.332 C 
ATOM     22  H   UNL     1      -3.837  -5.101  -0.794  1.00  0.00     0.348 HD
BRANCH  20  23
ATOM     23  C   UNL     1      -3.375  -6.184   0.602  1.00  0.00     0.265 C 
BRANCH  23  24
ATOM     24  C   UNL     1      -2.754  -7.383   1.345  1.00  0.00     0.044 C 
ATOM     25  C   UNL     1      -3.394  -8.744   1.074  1.00  0.00     0.009 C 
ATOM     26  C   UNL     1      -1.266  -7.662   1.195  1.00  0.00     0.009 C 
ATOM     27  C   UNL     1      -2.373  -9.778   1.558  1.00  0.00     0.001 C 
ATOM     28  C   UNL     1      -1.098  -9.007   1.891  1.00  0.00     0.001 C 
ENDBRANCH  23  24
ENDBRANCH  20  23
ENDBRANCH  13  20
ENDBRANCH   7   9
ENDBRANCH   6   7
ENDBRANCH   5   6
ENDBRANCH   4   5
ENDBRANCH   3   4
ENDBRANCH   2   3
ENDBRANCH   1   2
BRANCH   1  29
ATOM     29  O   UNL     1       4.380  -2.851  -0.840  1.00  0.00    -0.377 OA
BRANCH  29  30
ATOM     30  C   UNL     1       5.279  -2.357   0.128  1.00  0.00     0.188 C 
BRANCH  30  31
ATOM     31  C   UNL     1       6.169  -1.266  -0.461  1.00  0.00     0.188 C 
BRANCH  31  32
ATOM     32  O   UNL     1       6.904  -1.546  -1.655  1.00  0.00    -0.376 OA
BRANCH  32  33
ATOM     33  C   UNL     1       6.278  -2.309  -2.682  1.00  0.00     0.202 C 
BRANCH  33  34
ATOM     34  C   UNL     1       6.742  -3.778  -2.694  1.00  0.00     0.261 C 
BRANCH  34  35
ATOM     35  O   UNL     1       6.902  -4.372  -1.394  1.00  0.00    -0.460 OA
BRANCH  35  36
ATOM     36  C   UNL     1       8.069  -4.082  -0.759  1.00  0.00     0.338 C 
ATOM     37  O   UNL     1       9.018  -3.459  -1.179  1.00  0.00    -0.246 OA
BRANCH  36  38
ATOM     38  C   UNL     1       7.987  -4.585   0.631  1.00  0.00     0.060 A 
ATOM     39  C   UNL     1       8.217  -3.694   1.691  1.00  0.00     0.016 A 
ATOM     40  C   UNL     1       7.720  -5.932   0.881  1.00  0.00     0.016 A 
ATOM     41  C   UNL     1       8.220  -4.160   3.007  1.00  0.00     0.010 A 
ATOM     42  C   UNL     1       7.761  -6.405   2.193  1.00  0.00     0.010 A 
ATOM     43  C   UNL     1       8.053  -5.529   3.254  1.00  0.00    -0.014 A 
BRANCH  43  44
ATOM     44  C   UNL     1       8.470  -6.099   4.556  1.00  0.00     0.031 A 
ATOM     45  C   UNL     1       9.905  -6.535   4.689  1.00  0.00     0.074 A 
ATOM     46  C   UNL     1       7.612  -6.255   5.577  1.00  0.00     0.049 A 
ATOM     47  N   UNL     1      10.494  -7.169   5.669  1.00  0.00    -0.248 NA
ATOM     48  C   UNL     1      10.792  -6.214   3.557  1.00  0.00     0.031 C 
ATOM     49  C   UNL     1       6.218  -5.818   5.593  1.00  0.00     0.029 A 
ATOM     50  N   UNL     1       7.797  -6.844   6.803  1.00  0.00    -0.354 N 
ATOM     51  C   UNL     1      11.815  -7.329   5.266  1.00  0.00     0.074 A 
ATOM     52  C   UNL     1      11.938  -6.744   3.950  1.00  0.00     0.031 C 
ATOM     53  C   UNL     1       5.666  -6.172   6.768  1.00  0.00     0.029 A 
ATOM     54  C   UNL     1       6.656  -6.894   7.566  1.00  0.00     0.049 A 
ATOM     55  H   UNL     1       8.664  -7.197   7.106  1.00  0.00     0.167 HD
ATOM     56  C   UNL     1      12.837  -7.915   5.930  1.00  0.00     0.031 A 
ATOM     57  C   UNL     1       6.437  -7.485   8.757  1.00  0.00     0.031 A 
ATOM     58  C   UNL     1      12.707  -8.529   7.221  1.00  0.00     0.049 A 
ATOM     59  C   UNL     1       7.565  -8.220   9.435  1.00  0.00     0.074 A 
ATOM     60  C   UNL     1      13.674  -9.171   7.973  1.00  0.00     0.029 A 
ATOM     61  N   UNL     1      11.527  -8.583   7.945  1.00  0.00    -0.354 N 
ATOM     62  N   UNL     1       8.810  -8.365   9.048  1.00  0.00    -0.248 NA
ATOM     63  C   UNL     1       7.256  -8.875  10.715  1.00  0.00     0.031 C 
ATOM     64  C   UNL     1      13.066  -9.654   9.136  1.00  0.00     0.029 A 
ATOM     65  C   UNL     1      11.736  -9.262   9.131  1.00  0.00     0.049 A 
ATOM     66  H   UNL     1      10.669  -8.196   7.659  1.00  0.00     0.167 HD
ATOM     67  C   UNL     1       9.440  -9.090  10.054  1.00  0.00     0.074 A 
ATOM     68  C   UNL     1       8.441  -9.355  11.068  1.00  0.00     0.031 C 
ATOM     69  C   UNL     1      10.731  -9.495  10.134  1.00  0.00     0.031 A 
BRANCH  56  70
ATOM     70  C   UNL     1      14.168  -7.957   5.237  1.00  0.00    -0.014 A 
ATOM     71  C   UNL     1      14.944  -6.798   5.081  1.00  0.00     0.009 A 
ATOM     72  C   UNL     1      14.654  -9.174   4.736  1.00  0.00     0.009 A 
ATOM     73  C   UNL     1      16.165  -6.851   4.406  1.00  0.00     0.001 A 
ATOM     74  C   UNL     1      15.887  -9.229   4.085  1.00  0.00     0.001 A 
ATOM     75  C   UNL     1      16.637  -8.067   3.912  1.00  0.00     0.000 A 
ENDBRANCH  56  70
BRANCH  57  76
ATOM     76  C   UNL     1       5.089  -7.438   9.384  1.00  0.00    -0.014 A 
ATOM     77  C   UNL     1       4.871  -6.702  10.559  1.00  0.00     0.009 A 
ATOM     78  C   UNL     1       4.020  -8.161   8.831  1.00  0.00     0.009 A 
ATOM     79  C   UNL     1       3.620  -6.713  11.181  1.00  0.00     0.001 A 
ATOM     80  C   UNL     1       2.763  -8.149   9.441  1.00  0.00     0.001 A 
ATOM     81  C   UNL     1       2.567  -7.433  10.621  1.00  0.00     0.000 A 
ENDBRANCH  57  76
BRANCH  69  82
ATOM     82  C   UNL     1      11.160 -10.209  11.384  1.00  0.00    -0.014 A 
ATOM     83  C   UNL     1      10.796 -11.541  11.630  1.00  0.00     0.009 A 
ATOM     84  C   UNL     1      12.006  -9.553  12.293  1.00  0.00     0.009 A 
ATOM     85  C   UNL     1      11.255 -12.195  12.776  1.00  0.00     0.001 A 
ATOM     86  C   UNL     1      12.484 -10.218  13.422  1.00  0.00     0.001 A 
ATOM     87  C   UNL     1      12.103 -11.536  13.666  1.00  0.00     0.000 A 
ENDBRANCH  69  82
ENDBRANCH  43  44
ENDBRANCH  36  38
ENDBRANCH  35  36
ENDBRANCH  34  35
ENDBRANCH  33  34
ENDBRANCH  32  33
ENDBRANCH  31  32
ENDBRANCH  30  31
ENDBRANCH  29  30
ENDBRANCH   1  29
TORSDOF 25
