REMARK SMILES COCCCC(=O)N1CCCC[C@@H]1CCC(=O)OCCOCCOCCOCCOC(=O)c1ccc(-c2c3nc(c(-c4ccccc4)c4ccc([nH]4)c(-c4ccccc4)c4nc(c(-c5ccccc5)c5ccc2[nH]5)C=C4)C=C3)cc1
REMARK SMILES IDX 22 1 21 2 20 3 19 4 18 5 16 6 17 7 15 8 14 9 13 10 8 11 9 12
REMARK SMILES IDX 10 13 12 14 11 15 6 16 7 17 5 18 4 19 3 20 2 21 1 22 23 23
REMARK SMILES IDX 24 24 25 25 26 26 27 27 28 28 29 29 30 30 31 31 32 32 33 33
REMARK SMILES IDX 34 34 80 35 35 36 79 37 36 38 37 39 38 40 73 41 39 42 78 43
REMARK SMILES IDX 72 44 74 45 40 46 77 47 71 48 70 49 41 51 63 52 48 53 62 54
REMARK SMILES IDX 49 55 52 56 61 57 75 58 50 59 51 60 60 62 76 63 53 64 42 65
REMARK SMILES IDX 43 66 47 67 44 68 46 69 45 70 64 71 65 72 69 73 66 74 68 75
REMARK SMILES IDX 67 76 54 77 55 78 59 79 56 80 58 81 57 82
REMARK H PARENT 74 50 52 61
REMARK Flexibility Score: inf
ROOT
ATOM      1  C   UNL     1      -1.227  -4.062  -0.960  1.00  0.00     0.188 C 
ENDROOT
BRANCH   1   2
ATOM      2  O   UNL     1      -0.635  -5.280  -0.492  1.00  0.00    -0.376 OA
BRANCH   2   3
ATOM      3  C   UNL     1       0.390  -5.164   0.486  1.00  0.00     0.202 C 
BRANCH   3   4
ATOM      4  C   UNL     1       1.781  -4.712   0.015  1.00  0.00     0.261 C 
BRANCH   4   5
ATOM      5  O   UNL     1       1.795  -3.816  -1.110  1.00  0.00    -0.463 OA
BRANCH   5   6
ATOM      6  C   UNL     1       2.296  -4.337  -2.259  1.00  0.00     0.305 C 
ATOM      7  O   UNL     1       2.666  -5.499  -2.391  1.00  0.00    -0.252 OA
BRANCH   6   8
ATOM      8  C   UNL     1       2.262  -3.382  -3.435  1.00  0.00     0.125 C 
BRANCH   8   9
ATOM      9  C   UNL     1       2.904  -1.984  -3.416  1.00  0.00     0.037 C 
BRANCH   9  10
ATOM     10  C   UNL     1       3.677  -1.519  -2.178  1.00  0.00     0.085 C 
ATOM     11  N   UNL     1       3.882  -0.046  -2.032  1.00  0.00    -0.340 N 
ATOM     12  C   UNL     1       4.758   0.340  -0.920  1.00  0.00     0.120 C 
ATOM     13  C   UNL     1       6.128  -0.308  -1.018  1.00  0.00     0.022 C 
ATOM     14  C   UNL     1       5.056  -2.226  -2.213  1.00  0.00     0.025 C 
ATOM     15  C   UNL     1       5.974  -1.821  -1.065  1.00  0.00     0.004 C 
BRANCH  11  16
ATOM     16  C   UNL     1       3.514   0.980  -2.876  1.00  0.00     0.222 C 
ATOM     17  O   UNL     1       4.377   1.804  -3.225  1.00  0.00    -0.275 OA
BRANCH  16  18
ATOM     18  C   UNL     1       2.057   1.409  -3.120  1.00  0.00     0.102 C 
BRANCH  18  19
ATOM     19  C   UNL     1       0.775   0.598  -3.050  1.00  0.00     0.038 C 
BRANCH  19  20
ATOM     20  C   UNL     1       0.490  -0.261  -1.828  1.00  0.00     0.160 C 
BRANCH  20  21
ATOM     21  O   UNL     1       1.402  -0.121  -0.758  1.00  0.00    -0.385 OA
ATOM     22  C   UNL     1       1.368   1.102  -0.054  1.00  0.00     0.194 C 
ENDBRANCH  20  21
ENDBRANCH  19  20
ENDBRANCH  18  19
ENDBRANCH  16  18
ENDBRANCH  11  16
ENDBRANCH   9  10
ENDBRANCH   8   9
ENDBRANCH   6   8
ENDBRANCH   5   6
ENDBRANCH   4   5
ENDBRANCH   3   4
ENDBRANCH   2   3
ENDBRANCH   1   2
BRANCH   1  23
ATOM     23  C   UNL     1      -1.581  -3.028   0.118  1.00  0.00     0.188 C 
BRANCH  23  24
ATOM     24  O   UNL     1      -0.420  -2.254   0.401  1.00  0.00    -0.377 OA
BRANCH  24  25
ATOM     25  C   UNL     1      -0.225  -1.849   1.748  1.00  0.00     0.188 C 
BRANCH  25  26
ATOM     26  C   UNL     1      -1.411  -1.218   2.490  1.00  0.00     0.188 C 
BRANCH  26  27
ATOM     27  O   UNL     1      -2.407  -0.530   1.741  1.00  0.00    -0.376 OA
BRANCH  27  28
ATOM     28  C   UNL     1      -1.965   0.489   0.855  1.00  0.00     0.202 C 
BRANCH  28  29
ATOM     29  C   UNL     1      -1.840   1.891   1.456  1.00  0.00     0.261 C 
BRANCH  29  30
ATOM     30  O   UNL     1      -0.586   2.028   2.148  1.00  0.00    -0.460 OA
BRANCH  30  31
ATOM     31  C   UNL     1      -0.641   1.939   3.492  1.00  0.00     0.338 C 
ATOM     32  O   UNL     1      -1.641   1.901   4.189  1.00  0.00    -0.246 OA
BRANCH  31  33
ATOM     33  C   UNL     1       0.715   1.667   4.012  1.00  0.00     0.060 A 
ATOM     34  C   UNL     1       0.841   0.641   4.958  1.00  0.00     0.016 A 
ATOM     35  C   UNL     1       1.830   2.420   3.631  1.00  0.00     0.016 A 
ATOM     36  C   UNL     1       2.063   0.403   5.575  1.00  0.00     0.010 A 
ATOM     37  C   UNL     1       3.056   2.194   4.267  1.00  0.00     0.010 A 
ATOM     38  C   UNL     1       3.159   1.222   5.278  1.00  0.00    -0.014 A 
BRANCH  38  39
ATOM     39  C   UNL     1       4.298   1.238   6.224  1.00  0.00     0.031 A 
ATOM     40  C   UNL     1       4.282   2.267   7.323  1.00  0.00     0.074 A 
ATOM     41  C   UNL     1       5.277   0.319   6.170  1.00  0.00     0.049 A 
ATOM     42  N   UNL     1       5.142   2.472   8.286  1.00  0.00    -0.248 NA
ATOM     43  C   UNL     1       3.128   3.183   7.340  1.00  0.00     0.031 C 
ATOM     44  C   UNL     1       5.360  -0.778   5.210  1.00  0.00     0.029 A 
ATOM     45  N   UNL     1       6.385   0.163   6.963  1.00  0.00    -0.354 N 
ATOM     46  C   UNL     1       4.636   3.539   9.019  1.00  0.00     0.074 A 
ATOM     47  C   UNL     1       3.416   3.962   8.369  1.00  0.00     0.031 C 
ATOM     48  C   UNL     1       6.463  -1.501   5.473  1.00  0.00     0.029 A 
ATOM     49  C   UNL     1       7.177  -0.896   6.597  1.00  0.00     0.049 A 
ATOM     50  H   UNL     1       6.593   0.755   7.721  1.00  0.00     0.167 HD
ATOM     51  C   UNL     1       5.134   4.113  10.139  1.00  0.00     0.031 A 
ATOM     52  C   UNL     1       8.351  -1.316   7.107  1.00  0.00     0.031 A 
ATOM     53  C   UNL     1       6.363   3.714  10.768  1.00  0.00     0.049 A 
ATOM     54  C   UNL     1       8.954  -0.579   8.275  1.00  0.00     0.074 A 
ATOM     55  C   UNL     1       6.967   4.240  11.896  1.00  0.00     0.029 A 
ATOM     56  N   UNL     1       7.183   2.694  10.310  1.00  0.00    -0.354 N 
ATOM     57  N   UNL     1       8.467   0.426   8.963  1.00  0.00    -0.248 NA
ATOM     58  C   UNL     1      10.271  -1.042   8.737  1.00  0.00     0.031 C 
ATOM     59  C   UNL     1       8.185   3.578  12.084  1.00  0.00     0.029 A 
ATOM     60  C   UNL     1       8.305   2.595  11.114  1.00  0.00     0.049 A 
ATOM     61  H   UNL     1       6.995   2.125   9.529  1.00  0.00     0.167 HD
ATOM     62  C   UNL     1       9.400   0.693   9.959  1.00  0.00     0.074 A 
ATOM     63  C   UNL     1      10.476  -0.263   9.790  1.00  0.00     0.031 C 
ATOM     64  C   UNL     1       9.367   1.639  10.930  1.00  0.00     0.031 A 
BRANCH  51  65
ATOM     65  C   UNL     1       4.363   5.271  10.711  1.00  0.00    -0.014 A 
ATOM     66  C   UNL     1       3.107   5.089  11.313  1.00  0.00     0.009 A 
ATOM     67  C   UNL     1       4.895   6.566  10.630  1.00  0.00     0.009 A 
ATOM     68  C   UNL     1       2.379   6.187  11.777  1.00  0.00     0.001 A 
ATOM     69  C   UNL     1       4.180   7.659  11.125  1.00  0.00     0.001 A 
ATOM     70  C   UNL     1       2.917   7.470  11.685  1.00  0.00     0.000 A 
ENDBRANCH  51  65
BRANCH  52  71
ATOM     71  C   UNL     1       9.045  -2.491   6.516  1.00  0.00    -0.014 A 
ATOM     72  C   UNL     1       9.166  -3.687   7.239  1.00  0.00     0.009 A 
ATOM     73  C   UNL     1       9.609  -2.415   5.232  1.00  0.00     0.009 A 
ATOM     74  C   UNL     1       9.855  -4.775   6.698  1.00  0.00     0.001 A 
ATOM     75  C   UNL     1      10.273  -3.514   4.683  1.00  0.00     0.001 A 
ATOM     76  C   UNL     1      10.403  -4.690   5.419  1.00  0.00     0.000 A 
ENDBRANCH  52  71
BRANCH  64  77
ATOM     77  C   UNL     1      10.506   1.661  11.913  1.00  0.00    -0.014 A 
ATOM     78  C   UNL     1      11.789   2.093  11.541  1.00  0.00     0.009 A 
ATOM     79  C   UNL     1      10.276   1.284  13.246  1.00  0.00     0.009 A 
ATOM     80  C   UNL     1      12.825   2.113  12.477  1.00  0.00     0.001 A 
ATOM     81  C   UNL     1      11.306   1.336  14.187  1.00  0.00     0.001 A 
ATOM     82  C   UNL     1      12.582   1.740  13.799  1.00  0.00     0.000 A 
ENDBRANCH  64  77
ENDBRANCH  38  39
ENDBRANCH  31  33
ENDBRANCH  30  31
ENDBRANCH  29  30
ENDBRANCH  28  29
ENDBRANCH  27  28
ENDBRANCH  26  27
ENDBRANCH  25  26
ENDBRANCH  24  25
ENDBRANCH  23  24
ENDBRANCH   1  23
TORSDOF 27
