REMARK SMILES O=C(COc1ccccc1/C=C1/SC(=S)N(c2ccc(F)c(Cl)c2)C1=O)OCCOCCOCCOCCOC(=O)c1ccc(-c2c3nc(c(-c4ccccc4)c4ccc([nH]4)c(-c4ccccc4)c4nc(c(-c5ccccc5)c5ccc2[nH]5)C=C4)C=C3)cc1
REMARK SMILES IDX 32 1 31 2 30 3 29 4 28 5 27 6 2 7 1 8 3 9 4 10 5 11 6 12
REMARK SMILES IDX 10 13 7 14 9 15 8 16 11 17 12 18 13 19 25 20 14 21 16 22
REMARK SMILES IDX 26 23 15 24 17 25 18 26 24 27 19 28 22 29 20 30 23 31 21 32
REMARK SMILES IDX 33 33 34 34 35 35 36 36 37 37 38 38 39 39 40 40 41 41 42 42
REMARK SMILES IDX 43 43 89 44 44 45 88 46 45 47 46 48 47 49 82 50 48 51 87 52
REMARK SMILES IDX 81 53 83 54 49 55 86 56 80 57 79 58 50 60 72 61 57 62 71 63
REMARK SMILES IDX 58 64 61 65 70 66 84 67 59 68 60 69 69 71 85 72 62 73 51 74
REMARK SMILES IDX 52 75 56 76 53 77 55 78 54 79 73 80 74 81 78 82 75 83 77 84
REMARK SMILES IDX 76 85 63 86 64 87 68 88 65 89 67 90 66 91
REMARK H PARENT 83 59 61 70
REMARK Flexibility Score: inf
ROOT
ATOM      1  C   UNL     1       2.073  -0.688  -2.858  1.00  0.00     0.188 C 
ENDROOT
BRANCH   1   2
ATOM      2  C   UNL     1       2.776   0.676  -2.642  1.00  0.00     0.188 C 
BRANCH   2   3
ATOM      3  O   UNL     1       4.180   0.722  -2.707  1.00  0.00    -0.376 OA
BRANCH   3   4
ATOM      4  C   UNL     1       5.059   0.871  -1.608  1.00  0.00     0.202 C 
BRANCH   4   5
ATOM      5  C   UNL     1       4.691   0.608  -0.152  1.00  0.00     0.261 C 
BRANCH   5   6
ATOM      6  O   UNL     1       3.339   0.195   0.080  1.00  0.00    -0.461 OA
BRANCH   6   7
ATOM      7  C   UNL     1       2.335   1.064   0.393  1.00  0.00     0.344 C 
ATOM      8  O   UNL     1       1.159   0.717   0.294  1.00  0.00    -0.248 OA
BRANCH   7   9
ATOM      9  C   UNL     1       2.723   2.453   0.807  1.00  0.00     0.351 C 
BRANCH   9  10
ATOM     10  O   UNL     1       3.711   2.368   1.821  1.00  0.00    -0.481 OA
BRANCH  10  11
ATOM     11  C   UNL     1       3.205   2.342   3.084  1.00  0.00     0.127 A 
ATOM     12  C   UNL     1       3.536   3.496   3.804  1.00  0.00     0.047 A 
ATOM     13  C   UNL     1       2.463   1.296   3.669  1.00  0.00     0.018 A 
ATOM     14  C   UNL     1       3.066   3.671   5.095  1.00  0.00     0.004 A 
ATOM     15  C   UNL     1       1.979   1.513   4.966  1.00  0.00     0.012 A 
ATOM     16  C   UNL     1       2.271   2.686   5.668  1.00  0.00     0.001 A 
BRANCH  13  17
ATOM     17  C   UNL     1       2.020   0.016   3.071  1.00  0.00     0.033 C 
ATOM     18  C   UNL     1       2.697  -1.085   2.694  1.00  0.00     0.081 C 
ATOM     19  S   UNL     1       1.907  -2.425   1.939  1.00  0.00    -0.054 SA
ATOM     20  C   UNL     1       4.165  -1.322   2.703  1.00  0.00     0.270 C 
ATOM     21  C   UNL     1       3.418  -3.144   1.385  1.00  0.00     0.152 C 
ATOM     22  N   UNL     1       4.493  -2.422   1.890  1.00  0.00    -0.261 N 
ATOM     23  O   UNL     1       4.941  -0.576   3.287  1.00  0.00    -0.268 OA
ATOM     24  S   UNL     1       3.396  -4.554   0.485  1.00  0.00    -0.051 S 
BRANCH  22  25
ATOM     25  C   UNL     1       5.877  -2.661   1.572  1.00  0.00     0.052 A 
ATOM     26  C   UNL     1       6.863  -2.501   2.560  1.00  0.00     0.030 A 
ATOM     27  C   UNL     1       6.305  -2.894   0.253  1.00  0.00     0.050 A 
ATOM     28  C   UNL     1       8.224  -2.509   2.241  1.00  0.00     0.043 A 
ATOM     29  C   UNL     1       7.668  -2.872  -0.071  1.00  0.00     0.078 A 
ATOM     30  C   UNL     1       8.619  -2.671   0.922  1.00  0.00     0.141 A 
ATOM     31  Cl  UNL     1       8.151  -2.998  -1.718  1.00  0.00    -0.081 Cl
ATOM     32  F   UNL     1       9.924  -2.597   0.623  1.00  0.00    -0.205 F 
ENDBRANCH  22  25
ENDBRANCH  13  17
ENDBRANCH  10  11
ENDBRANCH   9  10
ENDBRANCH   7   9
ENDBRANCH   6   7
ENDBRANCH   5   6
ENDBRANCH   4   5
ENDBRANCH   3   4
ENDBRANCH   2   3
ENDBRANCH   1   2
BRANCH   1  33
ATOM     33  O   UNL     1       2.779  -1.830  -3.321  1.00  0.00    -0.377 OA
BRANCH  33  34
ATOM     34  C   UNL     1       4.100  -2.010  -2.866  1.00  0.00     0.188 C 
BRANCH  34  35
ATOM     35  C   UNL     1       5.190  -1.603  -3.882  1.00  0.00     0.188 C 
BRANCH  35  36
ATOM     36  O   UNL     1       4.947  -0.724  -4.967  1.00  0.00    -0.376 OA
BRANCH  36  37
ATOM     37  C   UNL     1       3.748  -0.808  -5.716  1.00  0.00     0.202 C 
BRANCH  37  38
ATOM     38  C   UNL     1       3.195  -2.148  -6.245  1.00  0.00     0.261 C 
BRANCH  38  39
ATOM     39  O   UNL     1       3.542  -3.336  -5.523  1.00  0.00    -0.460 OA
BRANCH  39  40
ATOM     40  C   UNL     1       4.667  -3.958  -5.950  1.00  0.00     0.338 C 
ATOM     41  O   UNL     1       5.370  -3.647  -6.886  1.00  0.00    -0.246 OA
BRANCH  40  42
ATOM     42  C   UNL     1       5.044  -4.992  -4.957  1.00  0.00     0.060 A 
ATOM     43  C   UNL     1       6.322  -4.911  -4.386  1.00  0.00     0.016 A 
ATOM     44  C   UNL     1       4.189  -6.043  -4.626  1.00  0.00     0.016 A 
ATOM     45  C   UNL     1       6.763  -5.892  -3.507  1.00  0.00     0.010 A 
ATOM     46  C   UNL     1       4.652  -7.059  -3.783  1.00  0.00     0.010 A 
ATOM     47  C   UNL     1       5.955  -7.003  -3.254  1.00  0.00    -0.014 A 
BRANCH  47  48
ATOM     48  C   UNL     1       6.590  -8.197  -2.654  1.00  0.00     0.031 A 
ATOM     49  C   UNL     1       7.159  -9.232  -3.586  1.00  0.00     0.074 A 
ATOM     50  C   UNL     1       6.748  -8.316  -1.326  1.00  0.00     0.049 A 
ATOM     51  N   UNL     1       7.766 -10.356  -3.307  1.00  0.00    -0.248 NA
ATOM     52  C   UNL     1       7.040  -8.953  -5.028  1.00  0.00     0.031 C 
ATOM     53  C   UNL     1       6.322  -7.335  -0.331  1.00  0.00     0.029 A 
ATOM     54  N   UNL     1       7.316  -9.323  -0.587  1.00  0.00    -0.354 N 
ATOM     55  C   UNL     1       8.101 -10.914  -4.535  1.00  0.00     0.074 A 
ATOM     56  C   UNL     1       7.606 -10.024  -5.561  1.00  0.00     0.031 C 
ATOM     57  C   UNL     1       6.621  -7.801   0.895  1.00  0.00     0.029 A 
ATOM     58  C   UNL     1       7.234  -9.121   0.769  1.00  0.00     0.049 A 
ATOM     59  H   UNL     1       7.741 -10.114  -0.990  1.00  0.00     0.167 HD
ATOM     60  C   UNL     1       8.770 -12.063  -4.785  1.00  0.00     0.031 A 
ATOM     61  C   UNL     1       7.590  -9.928   1.786  1.00  0.00     0.031 A 
ATOM     62  C   UNL     1       9.241 -12.958  -3.763  1.00  0.00     0.049 A 
ATOM     63  C   UNL     1       8.225 -11.260   1.476  1.00  0.00     0.074 A 
ATOM     64  C   UNL     1       9.913 -14.158  -3.911  1.00  0.00     0.029 A 
ATOM     65  N   UNL     1       9.080 -12.753  -2.402  1.00  0.00    -0.354 N 
ATOM     66  N   UNL     1       8.542 -11.779   0.314  1.00  0.00    -0.248 NA
ATOM     67  C   UNL     1       8.562 -12.113   2.625  1.00  0.00     0.031 C 
ATOM     68  C   UNL     1      10.106 -14.709  -2.641  1.00  0.00     0.029 A 
ATOM     69  C   UNL     1       9.616 -13.818  -1.699  1.00  0.00     0.049 A 
ATOM     70  H   UNL     1       8.649 -11.967  -1.995  1.00  0.00     0.167 HD
ATOM     71  C   UNL     1       9.144 -13.000   0.593  1.00  0.00     0.074 A 
ATOM     72  C   UNL     1       9.170 -13.132   2.035  1.00  0.00     0.031 C 
ATOM     73  C   UNL     1       9.631 -13.932  -0.263  1.00  0.00     0.031 A 
BRANCH  60  74
ATOM     74  C   UNL     1       8.997 -12.435  -6.223  1.00  0.00    -0.014 A 
ATOM     75  C   UNL     1       9.915 -11.736  -7.022  1.00  0.00     0.009 A 
ATOM     76  C   UNL     1       8.312 -13.530  -6.773  1.00  0.00     0.009 A 
ATOM     77  C   UNL     1      10.126 -12.114  -8.350  1.00  0.00     0.001 A 
ATOM     78  C   UNL     1       8.546 -13.923  -8.091  1.00  0.00     0.001 A 
ATOM     79  C   UNL     1       9.448 -13.212  -8.880  1.00  0.00     0.000 A 
ENDBRANCH  60  74
BRANCH  61  80
ATOM     80  C   UNL     1       7.320  -9.532   3.195  1.00  0.00    -0.014 A 
ATOM     81  C   UNL     1       8.370  -9.306   4.098  1.00  0.00     0.009 A 
ATOM     82  C   UNL     1       5.998  -9.439   3.661  1.00  0.00     0.009 A 
ATOM     83  C   UNL     1       8.103  -9.038   5.443  1.00  0.00     0.001 A 
ATOM     84  C   UNL     1       5.733  -9.136   4.998  1.00  0.00     0.001 A 
ATOM     85  C   UNL     1       6.786  -8.951   5.891  1.00  0.00     0.000 A 
ENDBRANCH  61  80
BRANCH  73  86
ATOM     86  C   UNL     1      10.270 -15.152   0.342  1.00  0.00    -0.014 A 
ATOM     87  C   UNL     1       9.510 -16.119   1.018  1.00  0.00     0.009 A 
ATOM     88  C   UNL     1      11.655 -15.345   0.214  1.00  0.00     0.009 A 
ATOM     89  C   UNL     1      10.131 -17.227   1.599  1.00  0.00     0.001 A 
ATOM     90  C   UNL     1      12.268 -16.472   0.762  1.00  0.00     0.001 A 
ATOM     91  C   UNL     1      11.508 -17.404   1.467  1.00  0.00     0.000 A 
ENDBRANCH  73  86
ENDBRANCH  47  48
ENDBRANCH  40  42
ENDBRANCH  39  40
ENDBRANCH  38  39
ENDBRANCH  37  38
ENDBRANCH  36  37
ENDBRANCH  35  36
ENDBRANCH  34  35
ENDBRANCH  33  34
ENDBRANCH   1  33
TORSDOF 24
