REMARK SMILES CCC[NH2+][C@]1(C(=O)OCCOCCOCCOCCOC(=O)c2ccc(-c3c4nc(c(-c5ccccc5)c5ccc([nH]5)c(-c5ccccc5)c5nc(c(-c6ccccc6)c6ccc3[nH]6)C=C5)C=C4)cc2)CC[C@H](n2nc(C)c(CC)c2C)C1
REMARK SMILES IDX 13 1 12 2 11 3 10 4 9 5 8 6 6 7 7 8 5 9 71 10 83 11 72 12
REMARK SMILES IDX 73 13 4 14 3 17 2 18 1 19 74 20 75 21 81 22 76 23 78 24
REMARK SMILES IDX 82 25 77 26 79 27 80 28 14 29 15 30 16 31 17 32 18 33 19 34
REMARK SMILES IDX 20 35 21 36 22 37 23 38 24 39 70 40 25 41 69 42 26 43 27 44
REMARK SMILES IDX 28 45 63 46 29 47 68 48 62 49 64 50 30 51 67 52 61 53 60 54
REMARK SMILES IDX 31 56 53 57 38 58 52 59 39 60 42 61 51 62 65 63 40 64 41 65
REMARK SMILES IDX 50 67 66 68 43 69 32 70 33 71 37 72 34 73 36 74 35 75 54 76
REMARK SMILES IDX 55 77 59 78 56 79 58 80 57 81 44 82 45 83 49 84 46 85 48 86
REMARK SMILES IDX 47 87
REMARK H PARENT 4 15 4 16 64 55 42 66
REMARK Flexibility Score: inf
ROOT
ATOM      1  C   UNL     1      -0.796   0.385   2.943  1.00  0.00     0.188 C 
ENDROOT
BRANCH   1   2
ATOM      2  C   UNL     1       0.502   0.757   2.213  1.00  0.00     0.188 C 
BRANCH   2   3
ATOM      3  O   UNL     1       0.603   0.698   0.795  1.00  0.00    -0.376 OA
BRANCH   3   4
ATOM      4  C   UNL     1      -0.206  -0.208   0.063  1.00  0.00     0.202 C 
BRANCH   4   5
ATOM      5  C   UNL     1      -0.115  -1.718   0.360  1.00  0.00     0.261 C 
BRANCH   5   6
ATOM      6  O   UNL     1      -0.038  -2.095   1.752  1.00  0.00    -0.459 OA
BRANCH   6   7
ATOM      7  C   UNL     1       1.174  -2.525   2.177  1.00  0.00     0.368 C 
ATOM      8  O   UNL     1       2.129  -2.680   1.415  1.00  0.00    -0.245 OA
BRANCH   7   9
ATOM      9  C   UNL     1       1.292  -2.817   3.699  1.00  0.00     0.196 C 
ATOM     10  C   UNL     1       1.438  -4.311   3.990  1.00  0.00     0.083 C 
ATOM     11  C   UNL     1       2.731  -2.366   4.092  1.00  0.00     0.108 C 
ATOM     12  C   UNL     1       2.143  -4.343   5.352  1.00  0.00     0.034 C 
ATOM     13  C   UNL     1       3.036  -3.064   5.412  1.00  0.00     0.115 C 
BRANCH   9  14
ATOM     14  N   UNL     1       0.323  -2.141   4.613  1.00  0.00    -0.332 N 
ATOM     15  H   UNL     1       0.750  -2.118   5.539  1.00  0.00     0.347 HD
ATOM     16  H   UNL     1       0.154  -1.239   4.169  1.00  0.00     0.347 HD
BRANCH  14  17
ATOM     17  C   UNL     1      -1.018  -2.713   4.772  1.00  0.00     0.261 C 
BRANCH  17  18
ATOM     18  C   UNL     1      -1.741  -2.129   6.010  1.00  0.00     0.058 C 
ATOM     19  C   UNL     1      -2.062  -0.643   5.957  1.00  0.00     0.010 C 
ENDBRANCH  17  18
ENDBRANCH  14  17
ENDBRANCH   9  14
BRANCH  13  20
ATOM     20  N   UNL     1       2.900  -2.326   6.666  1.00  0.00    -0.266 N 
ATOM     21  N   UNL     1       3.141  -3.070   7.769  1.00  0.00    -0.178 NA
ATOM     22  C   UNL     1       2.644  -1.003   6.986  1.00  0.00     0.039 A 
ATOM     23  C   UNL     1       3.080  -2.224   8.794  1.00  0.00     0.063 A 
ATOM     24  C   UNL     1       2.757  -0.916   8.371  1.00  0.00    -0.004 A 
ATOM     25  C   UNL     1       2.354   0.145   6.080  1.00  0.00     0.066 C 
ATOM     26  C   UNL     1       3.352  -2.721  10.164  1.00  0.00     0.069 C 
BRANCH  24  27
ATOM     27  C   UNL     1       2.606   0.305   9.223  1.00  0.00     0.036 C 
ATOM     28  C   UNL     1       1.306   0.310  10.011  1.00  0.00     0.009 C 
ENDBRANCH  24  27
ENDBRANCH  13  20
ENDBRANCH   7   9
ENDBRANCH   6   7
ENDBRANCH   5   6
ENDBRANCH   4   5
ENDBRANCH   3   4
ENDBRANCH   2   3
ENDBRANCH   1   2
BRANCH   1  29
ATOM     29  O   UNL     1      -1.866  -0.047   2.126  1.00  0.00    -0.377 OA
BRANCH  29  30
ATOM     30  C   UNL     1      -2.982   0.820   2.067  1.00  0.00     0.188 C 
BRANCH  30  31
ATOM     31  C   UNL     1      -2.657   2.291   1.758  1.00  0.00     0.188 C 
BRANCH  31  32
ATOM     32  O   UNL     1      -1.692   2.845   2.638  1.00  0.00    -0.376 OA
BRANCH  32  33
ATOM     33  C   UNL     1      -2.085   3.589   3.778  1.00  0.00     0.202 C 
BRANCH  33  34
ATOM     34  C   UNL     1      -3.081   3.050   4.825  1.00  0.00     0.261 C 
BRANCH  34  35
ATOM     35  O   UNL     1      -4.163   2.232   4.368  1.00  0.00    -0.460 OA
BRANCH  35  36
ATOM     36  C   UNL     1      -5.188   2.849   3.755  1.00  0.00     0.338 C 
ATOM     37  O   UNL     1      -5.306   4.053   3.562  1.00  0.00    -0.246 OA
BRANCH  36  38
ATOM     38  C   UNL     1      -6.070   1.825   3.154  1.00  0.00     0.060 A 
ATOM     39  C   UNL     1      -6.265   1.862   1.768  1.00  0.00     0.016 A 
ATOM     40  C   UNL     1      -6.716   0.857   3.930  1.00  0.00     0.016 A 
ATOM     41  C   UNL     1      -7.154   0.979   1.161  1.00  0.00     0.010 A 
ATOM     42  C   UNL     1      -7.632  -0.014   3.322  1.00  0.00     0.010 A 
ATOM     43  C   UNL     1      -7.891   0.081   1.943  1.00  0.00    -0.014 A 
BRANCH  43  44
ATOM     44  C   UNL     1      -9.079  -0.566   1.332  1.00  0.00     0.031 A 
ATOM     45  C   UNL     1     -10.427   0.071   1.548  1.00  0.00     0.074 A 
ATOM     46  C   UNL     1      -8.958  -1.626   0.514  1.00  0.00     0.049 A 
ATOM     47  N   UNL     1     -11.593  -0.261   1.053  1.00  0.00    -0.248 NA
ATOM     48  C   UNL     1     -10.463   1.246   2.433  1.00  0.00     0.031 C 
ATOM     49  C   UNL     1      -7.705  -2.296   0.173  1.00  0.00     0.029 A 
ATOM     50  N   UNL     1      -9.913  -2.314  -0.192  1.00  0.00    -0.354 N 
ATOM     51  C   UNL     1     -12.496   0.661   1.568  1.00  0.00     0.074 A 
ATOM     52  C   UNL     1     -11.753   1.542   2.441  1.00  0.00     0.031 C 
ATOM     53  C   UNL     1      -7.967  -3.298  -0.684  1.00  0.00     0.029 A 
ATOM     54  C   UNL     1      -9.408  -3.357  -0.929  1.00  0.00     0.049 A 
ATOM     55  H   UNL     1     -10.870  -2.082  -0.173  1.00  0.00     0.167 HD
ATOM     56  C   UNL     1     -13.824   0.774   1.330  1.00  0.00     0.031 A 
ATOM     57  C   UNL     1     -10.038  -4.261  -1.704  1.00  0.00     0.031 A 
ATOM     58  C   UNL     1     -14.570  -0.112   0.477  1.00  0.00     0.049 A 
ATOM     59  C   UNL     1     -11.532  -4.170  -1.881  1.00  0.00     0.074 A 
ATOM     60  C   UNL     1     -15.919  -0.079   0.169  1.00  0.00     0.029 A 
ATOM     61  N   UNL     1     -14.032  -1.197  -0.196  1.00  0.00    -0.354 N 
ATOM     62  N   UNL     1     -12.371  -3.279  -1.407  1.00  0.00    -0.248 NA
ATOM     63  C   UNL     1     -12.162  -5.204  -2.714  1.00  0.00     0.031 C 
ATOM     64  C   UNL     1     -16.209  -1.185  -0.636  1.00  0.00     0.029 A 
ATOM     65  C   UNL     1     -15.028  -1.862  -0.892  1.00  0.00     0.049 A 
ATOM     66  H   UNL     1     -13.082  -1.458  -0.181  1.00  0.00     0.167 HD
ATOM     67  C   UNL     1     -13.619  -3.626  -1.913  1.00  0.00     0.074 A 
ATOM     68  C   UNL     1     -13.422  -4.796  -2.744  1.00  0.00     0.031 C 
ATOM     69  C   UNL     1     -14.820  -3.029  -1.711  1.00  0.00     0.031 A 
BRANCH  56  70
ATOM     70  C   UNL     1     -14.563   1.873   2.044  1.00  0.00    -0.014 A 
ATOM     71  C   UNL     1     -14.367   3.225   1.718  1.00  0.00     0.009 A 
ATOM     72  C   UNL     1     -15.492   1.546   3.045  1.00  0.00     0.009 A 
ATOM     73  C   UNL     1     -15.058   4.226   2.404  1.00  0.00     0.001 A 
ATOM     74  C   UNL     1     -16.205   2.547   3.707  1.00  0.00     0.001 A 
ATOM     75  C   UNL     1     -15.980   3.886   3.393  1.00  0.00     0.000 A 
ENDBRANCH  56  70
BRANCH  57  76
ATOM     76  C   UNL     1      -9.267  -5.351  -2.361  1.00  0.00    -0.014 A 
ATOM     77  C   UNL     1      -9.147  -5.410  -3.758  1.00  0.00     0.009 A 
ATOM     78  C   UNL     1      -8.673  -6.361  -1.588  1.00  0.00     0.009 A 
ATOM     79  C   UNL     1      -8.475  -6.474  -4.366  1.00  0.00     0.001 A 
ATOM     80  C   UNL     1      -7.973  -7.405  -2.197  1.00  0.00     0.001 A 
ATOM     81  C   UNL     1      -7.886  -7.467  -3.586  1.00  0.00     0.000 A 
ENDBRANCH  57  76
BRANCH  69  82
ATOM     82  C   UNL     1     -16.008  -3.603  -2.438  1.00  0.00    -0.014 A 
ATOM     83  C   UNL     1     -16.537  -4.860  -2.107  1.00  0.00     0.009 A 
ATOM     84  C   UNL     1     -16.622  -2.856  -3.456  1.00  0.00     0.009 A 
ATOM     85  C   UNL     1     -17.624  -5.378  -2.815  1.00  0.00     0.001 A 
ATOM     86  C   UNL     1     -17.732  -3.360  -4.137  1.00  0.00     0.001 A 
ATOM     87  C   UNL     1     -18.223  -4.626  -3.825  1.00  0.00     0.000 A 
ENDBRANCH  69  82
ENDBRANCH  43  44
ENDBRANCH  36  38
ENDBRANCH  35  36
ENDBRANCH  34  35
ENDBRANCH  33  34
ENDBRANCH  32  33
ENDBRANCH  31  32
ENDBRANCH  30  31
ENDBRANCH  29  30
ENDBRANCH   1  29
TORSDOF 25
