REMARK SMILES CCN(CCC(=O)OCCOCCOCCOCCOC(=O)c1ccc(-c2c3nc(c(-c4ccccc4)c4ccc([nH]4)c(-c4ccccc4)c4nc(c(-c5ccccc5)c5ccc2[nH]5)C=C4)C=C3)cc1)C(=O)N1C[C@H](C(=O)OC)[C@@H](C)C1
REMARK SMILES IDX 12 1 11 2 10 3 9 4 8 5 6 6 7 7 5 8 4 9 3 10 2 11 1 12 71 13
REMARK SMILES IDX 72 14 73 15 74 16 82 17 75 18 80 19 81 20 76 21 77 22 78 23
REMARK SMILES IDX 79 24 13 25 14 26 15 27 16 28 17 29 18 30 19 31 20 32 21 33
REMARK SMILES IDX 22 34 23 35 24 36 70 37 25 38 69 39 26 40 27 41 28 42 63 43
REMARK SMILES IDX 29 44 68 45 62 46 64 47 30 48 67 49 61 50 60 51 31 53 53 54
REMARK SMILES IDX 38 55 52 56 39 57 42 58 51 59 65 60 40 61 41 62 50 64 66 65
REMARK SMILES IDX 43 66 32 67 33 68 37 69 34 70 36 71 35 72 54 73 55 74 59 75
REMARK SMILES IDX 56 76 58 77 57 78 44 79 45 80 49 81 46 82 48 83 47 84
REMARK H PARENT 64 52 42 63
REMARK Flexibility Score: inf
ROOT
ATOM      1  C   UNL     1       2.642  -3.758  -3.738  1.00  0.00     0.188 C 
ENDROOT
BRANCH   1   2
ATOM      2  O   UNL     1       3.354  -2.706  -5.299  1.00  0.00    -0.376 OA
BRANCH   2   3
ATOM      3  C   UNL     1       3.963  -1.270  -5.667  1.00  0.00     0.202 C 
BRANCH   3   4
ATOM      4  C   UNL     1       3.125  -0.154  -6.332  1.00  0.00     0.261 C 
BRANCH   4   5
ATOM      5  O   UNL     1       2.082   0.343  -5.477  1.00  0.00    -0.463 OA
BRANCH   5   6
ATOM      6  C   UNL     1       0.819   0.252  -5.941  1.00  0.00     0.307 C 
ATOM      7  O   UNL     1       0.525   0.115  -7.123  1.00  0.00    -0.252 OA
BRANCH   6   8
ATOM      8  C   UNL     1      -0.222   0.311  -4.849  1.00  0.00     0.144 C 
BRANCH   8   9
ATOM      9  C   UNL     1      -0.029  -0.538  -3.591  1.00  0.00     0.133 C 
BRANCH   9  10
ATOM     10  N   UNL     1       1.154  -0.245  -2.796  1.00  0.00    -0.324 N 
BRANCH  10  11
ATOM     11  C   UNL     1       0.947   0.646  -1.649  1.00  0.00     0.118 C 
ATOM     12  C   UNL     1       1.155  -0.047  -0.302  1.00  0.00     0.027 C 
ENDBRANCH  10  11
BRANCH  10  13
ATOM     13  C   UNL     1       2.446  -0.717  -3.005  1.00  0.00     0.320 C 
ATOM     14  O   UNL     1       3.405  -0.246  -2.387  1.00  0.00    -0.248 OA
BRANCH  13  15
ATOM     15  N   UNL     1       2.656  -1.795  -3.856  1.00  0.00    -0.323 N 
ATOM     16  C   UNL     1       1.535  -2.661  -5.192  1.00  0.00     0.137 C 
ATOM     17  C   UNL     1       4.392  -2.699  -3.773  1.00  0.00     0.125 C 
ATOM     18  C   UNL     1       2.535  -4.266  -5.879  1.00  0.00     0.123 C 
ATOM     19  C   UNL     1       4.348  -4.252  -5.043  1.00  0.00     0.021 C 
ATOM     20  C   UNL     1       5.466  -4.166  -6.079  1.00  0.00     0.010 C 
BRANCH  18  21
ATOM     21  C   UNL     1       1.806  -5.598  -5.647  1.00  0.00     0.310 C 
ATOM     22  O   UNL     1       2.358  -6.689  -5.655  1.00  0.00    -0.252 OA
BRANCH  21  23
ATOM     23  O   UNL     1       0.503  -5.391  -5.290  1.00  0.00    -0.469 OA
ATOM     24  C   UNL     1      -0.029  -6.299  -4.312  1.00  0.00     0.282 C 
ENDBRANCH  21  23
ENDBRANCH  18  21
ENDBRANCH  13  15
ENDBRANCH  10  13
ENDBRANCH   9  10
ENDBRANCH   8   9
ENDBRANCH   6   8
ENDBRANCH   5   6
ENDBRANCH   4   5
ENDBRANCH   3   4
ENDBRANCH   2   3
ENDBRANCH   1   2
BRANCH   1  25
ATOM     25  C   UNL     1       2.217  -3.436  -2.163  1.00  0.00     0.188 C 
BRANCH  25  26
ATOM     26  O   UNL     1       3.196  -2.938  -1.280  1.00  0.00    -0.377 OA
BRANCH  26  27
ATOM     27  C   UNL     1       4.180  -3.809  -0.743  1.00  0.00     0.188 C 
BRANCH  27  28
ATOM     28  C   UNL     1       4.524  -5.160  -1.413  1.00  0.00     0.188 C 
BRANCH  28  29
ATOM     29  O   UNL     1       3.376  -5.942  -1.711  1.00  0.00    -0.376 OA
BRANCH  29  30
ATOM     30  C   UNL     1       3.088  -7.008  -0.816  1.00  0.00     0.202 C 
BRANCH  30  31
ATOM     31  C   UNL     1       2.580  -6.581   0.570  1.00  0.00     0.261 C 
BRANCH  31  32
ATOM     32  O   UNL     1       3.467  -5.773   1.369  1.00  0.00    -0.460 OA
BRANCH  32  33
ATOM     33  C   UNL     1       4.735  -6.182   1.605  1.00  0.00     0.338 C 
ATOM     34  O   UNL     1       5.187  -7.292   1.397  1.00  0.00    -0.246 OA
BRANCH  33  35
ATOM     35  C   UNL     1       5.557  -4.956   1.856  1.00  0.00     0.060 A 
ATOM     36  C   UNL     1       6.780  -4.823   1.176  1.00  0.00     0.016 A 
ATOM     37  C   UNL     1       5.059  -3.873   2.597  1.00  0.00     0.016 A 
ATOM     38  C   UNL     1       7.517  -3.636   1.262  1.00  0.00     0.010 A 
ATOM     39  C   UNL     1       5.804  -2.689   2.700  1.00  0.00     0.010 A 
ATOM     40  C   UNL     1       7.066  -2.591   2.083  1.00  0.00    -0.014 A 
BRANCH  40  41
ATOM     41  C   UNL     1       8.084  -1.681   2.676  1.00  0.00     0.031 A 
ATOM     42  C   UNL     1       8.757  -2.199   3.926  1.00  0.00     0.074 A 
ATOM     43  C   UNL     1       8.441  -0.491   2.160  1.00  0.00     0.049 A 
ATOM     44  N   UNL     1       9.689  -1.661   4.668  1.00  0.00    -0.248 NA
ATOM     45  C   UNL     1       8.302  -3.519   4.405  1.00  0.00     0.031 C 
ATOM     46  C   UNL     1       7.915   0.115   0.939  1.00  0.00     0.029 A 
ATOM     47  N   UNL     1       9.358   0.426   2.621  1.00  0.00    -0.354 N 
ATOM     48  C   UNL     1       9.917  -2.574   5.692  1.00  0.00     0.074 A 
ATOM     49  C   UNL     1       9.008  -3.675   5.507  1.00  0.00     0.031 C 
ATOM     50  C   UNL     1       8.525   1.301   0.744  1.00  0.00     0.029 A 
ATOM     51  C   UNL     1       9.462   1.552   1.839  1.00  0.00     0.049 A 
ATOM     52  H   UNL     1       9.891   0.288   3.437  1.00  0.00     0.167 HD
ATOM     53  C   UNL     1      10.810  -2.516   6.704  1.00  0.00     0.031 A 
ATOM     54  C   UNL     1      10.224   2.654   2.003  1.00  0.00     0.031 A 
ATOM     55  C   UNL     1      11.692  -1.410   6.921  1.00  0.00     0.049 A 
ATOM     56  C   UNL     1      11.148   2.744   3.198  1.00  0.00     0.074 A 
ATOM     57  C   UNL     1      12.635  -1.244   7.917  1.00  0.00     0.029 A 
ATOM     58  N   UNL     1      11.721  -0.270   6.135  1.00  0.00    -0.354 N 
ATOM     59  N   UNL     1      11.386   1.858   4.136  1.00  0.00    -0.248 NA
ATOM     60  C   UNL     1      11.918   3.990   3.348  1.00  0.00     0.031 C 
ATOM     61  C   UNL     1      13.189   0.031   7.773  1.00  0.00     0.029 A 
ATOM     62  C   UNL     1      12.647   0.621   6.641  1.00  0.00     0.049 A 
ATOM     63  H   UNL     1      11.166  -0.119   5.336  1.00  0.00     0.167 HD
ATOM     64  C   UNL     1      12.361   2.419   4.957  1.00  0.00     0.074 A 
ATOM     65  C   UNL     1      12.675   3.719   4.402  1.00  0.00     0.031 C 
ATOM     66  C   UNL     1      12.951   1.905   6.065  1.00  0.00     0.031 A 
BRANCH  53  67
ATOM     67  C   UNL     1      10.809  -3.663   7.675  1.00  0.00    -0.014 A 
ATOM     68  C   UNL     1      11.238  -4.947   7.298  1.00  0.00     0.009 A 
ATOM     69  C   UNL     1      10.327  -3.462   8.976  1.00  0.00     0.009 A 
ATOM     70  C   UNL     1      11.140  -6.014   8.192  1.00  0.00     0.001 A 
ATOM     71  C   UNL     1      10.264  -4.523   9.879  1.00  0.00     0.001 A 
ATOM     72  C   UNL     1      10.659  -5.800   9.483  1.00  0.00     0.000 A 
ENDBRANCH  53  67
BRANCH  54  73
ATOM     73  C   UNL     1      10.165   3.779   1.025  1.00  0.00    -0.014 A 
ATOM     74  C   UNL     1      11.278   4.095   0.226  1.00  0.00     0.009 A 
ATOM     75  C   UNL     1       9.018   4.581   0.922  1.00  0.00     0.009 A 
ATOM     76  C   UNL     1      11.253   5.202  -0.628  1.00  0.00     0.001 A 
ATOM     77  C   UNL     1       8.984   5.670   0.045  1.00  0.00     0.001 A 
ATOM     78  C   UNL     1      10.104   5.986  -0.721  1.00  0.00     0.000 A 
ENDBRANCH  54  73
BRANCH  66  79
ATOM     79  C   UNL     1      14.040   2.711   6.717  1.00  0.00    -0.014 A 
ATOM     80  C   UNL     1      13.767   3.895   7.418  1.00  0.00     0.009 A 
ATOM     81  C   UNL     1      15.361   2.232   6.681  1.00  0.00     0.009 A 
ATOM     82  C   UNL     1      14.800   4.603   8.035  1.00  0.00     0.001 A 
ATOM     83  C   UNL     1      16.385   2.922   7.329  1.00  0.00     0.001 A 
ATOM     84  C   UNL     1      16.106   4.113   7.996  1.00  0.00     0.000 A 
ENDBRANCH  66  79
ENDBRANCH  40  41
ENDBRANCH  33  35
ENDBRANCH  32  33
ENDBRANCH  31  32
ENDBRANCH  30  31
ENDBRANCH  29  30
ENDBRANCH  28  29
ENDBRANCH  27  28
ENDBRANCH  26  27
ENDBRANCH  25  26
ENDBRANCH   1  25
TORSDOF 27
