REMARK SMILES CC(=O)Nc1cccc(-c2cc(F)ccc2C(=O)OCCOCCOCCOCCOC(=O)c2ccc(-c3c4nc(c(-c5ccccc5)c5ccc([nH]5)c(-c5ccccc5)c5nc(c(-c6ccccc6)c6ccc3[nH]6)C=C5)C=C4)cc2)c1
REMARK SMILES IDX 25 1 24 2 23 3 22 4 21 5 20 6 19 7 17 8 18 9 16 10 10 11
REMARK SMILES IDX 11 12 12 13 15 14 13 15 14 16 9 17 5 18 6 19 82 20 7 21 8 22
REMARK SMILES IDX 4 23 1 24 2 25 3 26 26 28 27 29 28 30 29 31 30 32 31 33
REMARK SMILES IDX 32 34 33 35 34 36 35 37 81 38 36 39 80 40 37 41 38 42 39 43
REMARK SMILES IDX 74 44 40 45 79 46 73 47 75 48 41 49 78 50 72 51 71 52 42 54
REMARK SMILES IDX 64 55 49 56 63 57 50 58 53 59 62 60 76 61 51 62 52 63 61 65
REMARK SMILES IDX 77 66 54 67 43 68 44 69 48 70 45 71 47 72 46 73 65 74 66 75
REMARK SMILES IDX 70 76 67 77 69 78 68 79 55 80 56 81 60 82 57 83 59 84 58 85
REMARK H PARENT 4 27 75 53 53 64
REMARK Flexibility Score: inf
ROOT
ATOM      1  O   UNL     1       5.393   1.675   4.614  1.00  0.00    -0.377 OA
ENDROOT
BRANCH   1   2
ATOM      2  C   UNL     1       6.479   1.429   3.726  1.00  0.00     0.188 C 
BRANCH   2   3
ATOM      3  C   UNL     1       6.801   2.350   2.519  1.00  0.00     0.188 C 
BRANCH   3   4
ATOM      4  O   UNL     1       6.027   3.532   2.443  1.00  0.00    -0.376 OA
BRANCH   4   5
ATOM      5  C   UNL     1       5.041   3.683   1.443  1.00  0.00     0.202 C 
BRANCH   5   6
ATOM      6  C   UNL     1       4.003   2.579   1.225  1.00  0.00     0.261 C 
BRANCH   6   7
ATOM      7  O   UNL     1       4.448   1.270   1.587  1.00  0.00    -0.460 OA
BRANCH   7   8
ATOM      8  C   UNL     1       4.898   0.467   0.602  1.00  0.00     0.338 C 
ATOM      9  O   UNL     1       5.022   0.769  -0.573  1.00  0.00    -0.246 OA
BRANCH   8  10
ATOM     10  C   UNL     1       5.377  -0.825   1.173  1.00  0.00     0.068 A 
ATOM     11  C   UNL     1       4.687  -1.597   2.150  1.00  0.00    -0.001 A 
ATOM     12  C   UNL     1       5.290  -2.809   2.548  1.00  0.00     0.048 A 
ATOM     13  C   UNL     1       6.538  -3.192   2.062  1.00  0.00     0.123 A 
ATOM     14  C   UNL     1       6.645  -1.225   0.703  1.00  0.00     0.019 A 
ATOM     15  F   UNL     1       7.086  -4.338   2.486  1.00  0.00    -0.207 F 
ATOM     16  C   UNL     1       7.233  -2.399   1.163  1.00  0.00     0.040 A 
BRANCH  11  17
ATOM     17  C   UNL     1       3.436  -1.163   2.822  1.00  0.00    -0.015 A 
ATOM     18  C   UNL     1       1.325   0.073   2.731  1.00  0.00     0.041 A 
ATOM     19  C   UNL     1       1.258   0.052   4.127  1.00  0.00     0.026 A 
ATOM     20  C   UNL     1       2.376  -0.592   2.097  1.00  0.00     0.034 A 
ATOM     21  C   UNL     1       2.235  -0.606   4.871  1.00  0.00     0.003 A 
ATOM     22  C   UNL     1       3.324  -1.190   4.223  1.00  0.00     0.009 A 
BRANCH  18  23
ATOM     23  N   UNL     1       0.400   0.895   2.061  1.00  0.00    -0.326 N 
ATOM     24  C   UNL     1       0.536   0.090  -0.301  1.00  0.00     0.114 C 
ATOM     25  C   UNL     1       0.118   1.088   0.741  1.00  0.00     0.221 C 
ATOM     26  O   UNL     1      -0.524   2.091   0.420  1.00  0.00    -0.275 OA
ATOM     27  H   UNL     1      -0.155   1.439   2.666  1.00  0.00     0.169 HD
ENDBRANCH  18  23
ENDBRANCH  11  17
ENDBRANCH   8  10
ENDBRANCH   7   8
ENDBRANCH   6   7
ENDBRANCH   5   6
ENDBRANCH   4   5
ENDBRANCH   3   4
ENDBRANCH   2   3
ENDBRANCH   1   2
BRANCH   1  28
ATOM     28  C   UNL     1       4.950   3.005   4.849  1.00  0.00     0.188 C 
BRANCH  28  29
ATOM     29  C   UNL     1       5.997   4.113   5.096  1.00  0.00     0.188 C 
BRANCH  29  30
ATOM     30  O   UNL     1       7.337   3.673   4.963  1.00  0.00    -0.376 OA
BRANCH  30  31
ATOM     31  C   UNL     1       8.082   3.439   6.144  1.00  0.00     0.202 C 
BRANCH  31  32
ATOM     32  C   UNL     1       7.531   2.455   7.188  1.00  0.00     0.261 C 
BRANCH  32  33
ATOM     33  O   UNL     1       6.170   2.642   7.603  1.00  0.00    -0.460 OA
BRANCH  33  34
ATOM     34  C   UNL     1       5.877   3.757   8.300  1.00  0.00     0.338 C 
ATOM     35  O   UNL     1       6.642   4.650   8.631  1.00  0.00    -0.246 OA
BRANCH  34  36
ATOM     36  C   UNL     1       4.409   3.808   8.446  1.00  0.00     0.060 A 
ATOM     37  C   UNL     1       3.696   4.863   7.861  1.00  0.00     0.016 A 
ATOM     38  C   UNL     1       3.742   2.805   9.151  1.00  0.00     0.016 A 
ATOM     39  C   UNL     1       2.311   4.934   8.008  1.00  0.00     0.010 A 
ATOM     40  C   UNL     1       2.359   2.889   9.318  1.00  0.00     0.010 A 
ATOM     41  C   UNL     1       1.643   3.972   8.776  1.00  0.00    -0.014 A 
BRANCH  41  42
ATOM     42  C   UNL     1       0.240   4.204   9.186  1.00  0.00     0.031 A 
ATOM     43  C   UNL     1      -0.018   4.775  10.553  1.00  0.00     0.074 A 
ATOM     44  C   UNL     1      -0.786   3.924   8.365  1.00  0.00     0.049 A 
ATOM     45  N   UNL     1      -1.154   5.021  11.151  1.00  0.00    -0.248 NA
ATOM     46  C   UNL     1       1.172   5.107  11.353  1.00  0.00     0.031 C 
ATOM     47  C   UNL     1      -0.666   3.413   7.001  1.00  0.00     0.029 A 
ATOM     48  N   UNL     1      -2.138   4.028   8.573  1.00  0.00    -0.354 N 
ATOM     49  C   UNL     1      -0.817   5.521  12.403  1.00  0.00     0.074 A 
ATOM     50  C   UNL     1       0.627   5.513  12.489  1.00  0.00     0.031 C 
ATOM     51  C   UNL     1      -1.900   3.237   6.496  1.00  0.00     0.029 A 
ATOM     52  C   UNL     1      -2.891   3.587   7.513  1.00  0.00     0.049 A 
ATOM     53  H   UNL     1      -2.531   4.384   9.402  1.00  0.00     0.167 HD
ATOM     54  C   UNL     1      -1.634   5.950  13.393  1.00  0.00     0.031 A 
ATOM     55  C   UNL     1      -4.226   3.458   7.390  1.00  0.00     0.031 A 
ATOM     56  C   UNL     1      -3.071   5.934  13.314  1.00  0.00     0.049 A 
ATOM     57  C   UNL     1      -5.119   3.865   8.532  1.00  0.00     0.074 A 
ATOM     58  C   UNL     1      -3.990   6.367  14.252  1.00  0.00     0.029 A 
ATOM     59  N   UNL     1      -3.795   5.443  12.239  1.00  0.00    -0.354 N 
ATOM     60  N   UNL     1      -4.793   4.367   9.699  1.00  0.00    -0.248 NA
ATOM     61  C   UNL     1      -6.566   3.696   8.334  1.00  0.00     0.031 C 
ATOM     62  C   UNL     1      -5.271   6.069  13.775  1.00  0.00     0.029 A 
ATOM     63  C   UNL     1      -5.152   5.525  12.506  1.00  0.00     0.049 A 
ATOM     64  H   UNL     1      -3.404   5.089  11.408  1.00  0.00     0.167 HD
ATOM     65  C   UNL     1      -5.992   4.599  10.363  1.00  0.00     0.074 A 
ATOM     66  C   UNL     1      -7.052   4.196   9.462  1.00  0.00     0.031 C 
ATOM     67  C   UNL     1      -6.197   5.107  11.605  1.00  0.00     0.031 A 
BRANCH  54  68
ATOM     68  C   UNL     1      -0.983   6.415  14.668  1.00  0.00    -0.014 A 
ATOM     69  C   UNL     1      -0.211   7.588  14.718  1.00  0.00     0.009 A 
ATOM     70  C   UNL     1      -1.142   5.659  15.840  1.00  0.00     0.009 A 
ATOM     71  C   UNL     1       0.429   7.963  15.902  1.00  0.00     0.001 A 
ATOM     72  C   UNL     1      -0.531   6.056  17.030  1.00  0.00     0.001 A 
ATOM     73  C   UNL     1       0.266   7.199  17.057  1.00  0.00     0.000 A 
ENDBRANCH  54  68
BRANCH  55  74
ATOM     74  C   UNL     1      -4.797   2.897   6.137  1.00  0.00    -0.014 A 
ATOM     75  C   UNL     1      -5.526   3.708   5.254  1.00  0.00     0.009 A 
ATOM     76  C   UNL     1      -4.604   1.544   5.813  1.00  0.00     0.009 A 
ATOM     77  C   UNL     1      -6.061   3.171   4.080  1.00  0.00     0.001 A 
ATOM     78  C   UNL     1      -5.114   1.019   4.624  1.00  0.00     0.001 A 
ATOM     79  C   UNL     1      -5.848   1.831   3.762  1.00  0.00     0.000 A 
ENDBRANCH  55  74
BRANCH  67  80
ATOM     80  C   UNL     1      -7.623   5.288  12.053  1.00  0.00    -0.014 A 
ATOM     81  C   UNL     1      -8.444   4.191  12.354  1.00  0.00     0.009 A 
ATOM     82  C   UNL     1      -8.136   6.585  12.224  1.00  0.00     0.009 A 
ATOM     83  C   UNL     1      -9.760   4.388  12.780  1.00  0.00     0.001 A 
ATOM     84  C   UNL     1      -9.439   6.779  12.683  1.00  0.00     0.001 A 
ATOM     85  C   UNL     1     -10.254   5.681  12.950  1.00  0.00     0.000 A 
ENDBRANCH  67  80
ENDBRANCH  41  42
ENDBRANCH  34  36
ENDBRANCH  33  34
ENDBRANCH  32  33
ENDBRANCH  31  32
ENDBRANCH  30  31
ENDBRANCH  29  30
ENDBRANCH  28  29
ENDBRANCH   1  28
TORSDOF 22
