REMARK SMILES C[C@@H]1CCCN(C(=O)c2ccc(=O)n([C@H](C)C(=O)OCCOCCOCCOCCOC(=O)c3ccc(-c4c5nc(c(-c6ccccc6)c6ccc([nH]6)c(-c6ccccc6)c6nc(c(-c7ccccc7)c7ccc4[nH]7)C=C6)C=C5)cc3)n2)C1
REMARK SMILES IDX 24 1 23 2 22 3 21 4 20 5 19 6 17 7 18 8 15 9 16 10 14 11
REMARK SMILES IDX 9 12 10 13 82 14 11 15 12 16 13 17 7 18 8 19 6 20 1 21 2 22
REMARK SMILES IDX 3 23 83 24 4 25 5 26 25 27 26 28 27 29 28 30 29 31 30 32
REMARK SMILES IDX 31 33 32 34 33 35 34 36 35 37 81 38 36 39 80 40 37 41 38 42
REMARK SMILES IDX 39 43 74 44 40 45 79 46 73 47 75 48 41 49 78 50 72 51 71 52
REMARK SMILES IDX 42 54 64 55 49 56 63 57 50 58 53 59 62 60 76 61 51 62 52 63
REMARK SMILES IDX 61 65 77 66 54 67 43 68 44 69 48 70 45 71 47 72 46 73 65 74
REMARK SMILES IDX 66 75 70 76 67 77 69 78 68 79 55 80 56 81 60 82 57 83 59 84
REMARK SMILES IDX 58 85
REMARK H PARENT 75 53 53 64
REMARK Flexibility Score: inf
ROOT
ATOM      1  C   UNL     1       5.625  -1.374  -0.868  1.00  0.00     0.188 C 
ENDROOT
BRANCH   1   2
ATOM      2  C   UNL     1       5.731  -2.682  -1.667  1.00  0.00     0.188 C 
BRANCH   2   3
ATOM      3  O   UNL     1       6.953  -3.404  -1.741  1.00  0.00    -0.376 OA
BRANCH   3   4
ATOM      4  C   UNL     1       8.200  -2.729  -1.819  1.00  0.00     0.202 C 
BRANCH   4   5
ATOM      5  C   UNL     1       8.444  -1.644  -2.881  1.00  0.00     0.261 C 
BRANCH   5   6
ATOM      6  O   UNL     1       7.412  -0.651  -3.018  1.00  0.00    -0.462 OA
BRANCH   6   7
ATOM      7  C   UNL     1       6.675  -0.718  -4.157  1.00  0.00     0.330 C 
ATOM      8  O   UNL     1       6.879  -1.556  -5.032  1.00  0.00    -0.250 OA
BRANCH   7   9
ATOM      9  C   UNL     1       5.609   0.388  -4.292  1.00  0.00     0.218 C 
ATOM     10  C   UNL     1       5.273   1.272  -3.086  1.00  0.00     0.046 C 
BRANCH   9  11
ATOM     11  N   UNL     1       6.072   1.191  -5.423  1.00  0.00    -0.215 N 
ATOM     12  C   UNL     1       7.242   3.038  -6.078  1.00  0.00     0.149 A 
ATOM     13  C   UNL     1       7.147   2.673  -7.502  1.00  0.00     0.042 A 
ATOM     14  N   UNL     1       6.763   2.337  -5.104  1.00  0.00    -0.164 NA
ATOM     15  C   UNL     1       6.449   1.572  -7.788  1.00  0.00     0.076 A 
ATOM     16  C   UNL     1       5.808   0.774  -6.721  1.00  0.00     0.267 A 
ATOM     17  O   UNL     1       5.101  -0.180  -7.028  1.00  0.00    -0.268 OA
BRANCH  12  18
ATOM     18  C   UNL     1       7.901   4.362  -5.745  1.00  0.00     0.274 C 
ATOM     19  O   UNL     1       7.482   5.345  -6.351  1.00  0.00    -0.267 OA
BRANCH  18  20
ATOM     20  N   UNL     1       8.901   4.394  -4.776  1.00  0.00    -0.337 N 
ATOM     21  C   UNL     1      10.232   7.152  -2.501  1.00  0.00     0.009 C 
ATOM     22  C   UNL     1       9.560   5.831  -2.866  1.00  0.00     0.005 C 
ATOM     23  C   UNL     1      10.325   4.642  -2.272  1.00  0.00     0.007 C 
ATOM     24  C   UNL     1       9.447   5.691  -4.391  1.00  0.00     0.123 C 
ATOM     25  C   UNL     1       9.677   3.322  -2.684  1.00  0.00     0.022 C 
ATOM     26  C   UNL     1       9.566   3.221  -4.204  1.00  0.00     0.120 C 
ENDBRANCH  18  20
ENDBRANCH  12  18
ENDBRANCH   9  11
ENDBRANCH   7   9
ENDBRANCH   6   7
ENDBRANCH   5   6
ENDBRANCH   4   5
ENDBRANCH   3   4
ENDBRANCH   2   3
ENDBRANCH   1   2
BRANCH   1  27
ATOM     27  O   UNL     1       6.850  -0.854  -0.397  1.00  0.00    -0.377 OA
BRANCH  27  28
ATOM     28  C   UNL     1       7.121  -1.027   0.985  1.00  0.00     0.188 C 
BRANCH  28  29
ATOM     29  C   UNL     1       6.743  -2.380   1.610  1.00  0.00     0.188 C 
BRANCH  29  30
ATOM     30  O   UNL     1       5.349  -2.666   1.532  1.00  0.00    -0.376 OA
BRANCH  30  31
ATOM     31  C   UNL     1       4.549  -2.362   2.670  1.00  0.00     0.202 C 
BRANCH  31  32
ATOM     32  C   UNL     1       4.259  -0.873   2.919  1.00  0.00     0.261 C 
BRANCH  32  33
ATOM     33  O   UNL     1       5.380  -0.038   3.260  1.00  0.00    -0.460 OA
BRANCH  33  34
ATOM     34  C   UNL     1       6.215  -0.420   4.249  1.00  0.00     0.338 C 
ATOM     35  O   UNL     1       6.085  -1.372   4.997  1.00  0.00    -0.246 OA
BRANCH  34  36
ATOM     36  C   UNL     1       7.447   0.394   4.133  1.00  0.00     0.060 A 
ATOM     37  C   UNL     1       7.380   1.785   4.021  1.00  0.00     0.016 A 
ATOM     38  C   UNL     1       8.688  -0.256   4.105  1.00  0.00     0.016 A 
ATOM     39  C   UNL     1       8.559   2.528   3.923  1.00  0.00     0.010 A 
ATOM     40  C   UNL     1       9.867   0.488   3.996  1.00  0.00     0.010 A 
ATOM     41  C   UNL     1       9.812   1.888   3.936  1.00  0.00    -0.014 A 
BRANCH  41  42
ATOM     42  C   UNL     1      11.045   2.694   4.112  1.00  0.00     0.031 A 
ATOM     43  C   UNL     1      11.971   3.016   2.980  1.00  0.00     0.074 A 
ATOM     44  C   UNL     1      11.322   3.137   5.355  1.00  0.00     0.049 A 
ATOM     45  N   UNL     1      13.025   3.794   2.987  1.00  0.00    -0.248 NA
ATOM     46  C   UNL     1      11.691   2.391   1.680  1.00  0.00     0.031 C 
ATOM     47  C   UNL     1      10.505   2.862   6.538  1.00  0.00     0.029 A 
ATOM     48  N   UNL     1      12.348   3.915   5.829  1.00  0.00    -0.354 N 
ATOM     49  C   UNL     1      13.527   3.771   1.694  1.00  0.00     0.074 A 
ATOM     50  C   UNL     1      12.684   2.868   0.935  1.00  0.00     0.031 C 
ATOM     51  C   UNL     1      11.041   3.489   7.595  1.00  0.00     0.029 A 
ATOM     52  C   UNL     1      12.252   4.185   7.172  1.00  0.00     0.049 A 
ATOM     53  H   UNL     1      13.080   4.247   5.261  1.00  0.00     0.167 HD
ATOM     54  C   UNL     1      14.584   4.453   1.191  1.00  0.00     0.031 A 
ATOM     55  C   UNL     1      13.041   4.919   7.980  1.00  0.00     0.031 A 
ATOM     56  C   UNL     1      15.430   5.333   1.960  1.00  0.00     0.049 A 
ATOM     57  C   UNL     1      14.226   5.634   7.401  1.00  0.00     0.074 A 
ATOM     58  C   UNL     1      16.491   6.104   1.514  1.00  0.00     0.029 A 
ATOM     59  N   UNL     1      15.327   5.549   3.325  1.00  0.00    -0.354 N 
ATOM     60  N   UNL     1      14.632   5.676   6.155  1.00  0.00    -0.248 NA
ATOM     61  C   UNL     1      15.053   6.417   8.330  1.00  0.00     0.031 C 
ATOM     62  C   UNL     1      17.073   6.729   2.618  1.00  0.00     0.029 A 
ATOM     63  C   UNL     1      16.329   6.411   3.742  1.00  0.00     0.049 A 
ATOM     64  H   UNL     1      14.644   5.150   3.911  1.00  0.00     0.167 HD
ATOM     65  C   UNL     1      15.745   6.506   6.146  1.00  0.00     0.074 A 
ATOM     66  C   UNL     1      15.941   6.960   7.508  1.00  0.00     0.031 C 
ATOM     67  C   UNL     1      16.529   6.857   5.098  1.00  0.00     0.031 A 
BRANCH  54  68
ATOM     68  C   UNL     1      14.901   4.305  -0.273  1.00  0.00    -0.014 A 
ATOM     69  C   UNL     1      16.097   3.689  -0.675  1.00  0.00     0.009 A 
ATOM     70  C   UNL     1      14.090   4.908  -1.245  1.00  0.00     0.009 A 
ATOM     71  C   UNL     1      16.481   3.693  -2.019  1.00  0.00     0.001 A 
ATOM     72  C   UNL     1      14.462   4.887  -2.591  1.00  0.00     0.001 A 
ATOM     73  C   UNL     1      15.661   4.288  -2.976  1.00  0.00     0.000 A 
ENDBRANCH  54  68
BRANCH  55  74
ATOM     74  C   UNL     1      12.686   5.044   9.418  1.00  0.00    -0.014 A 
ATOM     75  C   UNL     1      12.768   3.932  10.273  1.00  0.00     0.009 A 
ATOM     76  C   UNL     1      12.200   6.257   9.927  1.00  0.00     0.009 A 
ATOM     77  C   UNL     1      12.344   4.025  11.600  1.00  0.00     0.001 A 
ATOM     78  C   UNL     1      11.807   6.355  11.264  1.00  0.00     0.001 A 
ATOM     79  C   UNL     1      11.868   5.238  12.095  1.00  0.00     0.000 A 
ENDBRANCH  55  74
BRANCH  67  80
ATOM     80  C   UNL     1      17.682   7.788   5.359  1.00  0.00    -0.014 A 
ATOM     81  C   UNL     1      17.672   9.082   4.812  1.00  0.00     0.009 A 
ATOM     82  C   UNL     1      18.824   7.354   6.050  1.00  0.00     0.009 A 
ATOM     83  C   UNL     1      18.787   9.913   4.932  1.00  0.00     0.001 A 
ATOM     84  C   UNL     1      19.926   8.199   6.196  1.00  0.00     0.001 A 
ATOM     85  C   UNL     1      19.912   9.473   5.627  1.00  0.00     0.000 A 
ENDBRANCH  67  80
ENDBRANCH  41  42
ENDBRANCH  34  36
ENDBRANCH  33  34
ENDBRANCH  32  33
ENDBRANCH  31  32
ENDBRANCH  30  31
ENDBRANCH  29  30
ENDBRANCH  28  29
ENDBRANCH  27  28
ENDBRANCH   1  27
TORSDOF 23
