REMARK SMILES C[C@H](C(=O)OCCOCCOCCOCCOC(=O)c1ccc(-c2c3nc(c(-c4ccccc4)c4ccc([nH]4)c(-c4ccccc4)c4nc(c(-c5ccccc5)c5ccc2[nH]5)C=C4)C=C3)cc1)[C@H](C)[NH+]1CCN(S(C)(=O)=O)CC1
REMARK SMILES IDX 10 1 9 2 8 3 7 4 6 5 5 6 3 7 4 8 2 9 1 10 68 11 69 12 70 13
REMARK SMILES IDX 71 14 79 15 72 17 78 18 73 19 74 20 75 21 76 22 77 23 11 24
REMARK SMILES IDX 12 25 13 26 14 27 15 28 16 29 17 30 18 31 19 32 20 33 21 34
REMARK SMILES IDX 67 35 22 36 66 37 23 38 24 39 25 40 60 41 26 42 65 43 59 44
REMARK SMILES IDX 61 45 27 46 64 47 58 48 57 49 28 51 50 52 35 53 49 54 36 55
REMARK SMILES IDX 39 56 48 57 62 58 37 59 38 60 47 62 63 63 40 64 29 65 30 66
REMARK SMILES IDX 34 67 31 68 33 69 32 70 51 71 52 72 56 73 53 74 55 75 54 76
REMARK SMILES IDX 41 77 42 78 46 79 43 80 45 81 44 82
REMARK H PARENT 70 16 61 50 39 61
REMARK Flexibility Score: inf
ROOT
ATOM      1  C   UNL     1      -0.769   0.380  -1.672  1.00  0.00     0.188 C 
ENDROOT
BRANCH   1   2
ATOM      2  C   UNL     1       0.682  -0.135  -1.507  1.00  0.00     0.188 C 
BRANCH   2   3
ATOM      3  O   UNL     1       1.193  -0.886  -2.597  1.00  0.00    -0.376 OA
BRANCH   3   4
ATOM      4  C   UNL     1       1.496  -2.248  -2.350  1.00  0.00     0.202 C 
BRANCH   4   5
ATOM      5  C   UNL     1       0.269  -3.140  -2.128  1.00  0.00     0.261 C 
BRANCH   5   6
ATOM      6  O   UNL     1      -0.659  -2.634  -1.153  1.00  0.00    -0.463 OA
BRANCH   6   7
ATOM      7  C   UNL     1      -0.330  -2.741   0.163  1.00  0.00     0.314 C 
ATOM      8  O   UNL     1       0.645  -3.340   0.590  1.00  0.00    -0.252 OA
BRANCH   7   9
ATOM      9  C   UNL     1      -1.354  -1.995   1.014  1.00  0.00     0.154 C 
ATOM     10  C   UNL     1      -2.157  -3.075   1.736  1.00  0.00     0.026 C 
BRANCH   9  11
ATOM     11  C   UNL     1      -0.808  -0.733   1.815  1.00  0.00     0.195 C 
ATOM     12  C   UNL     1       0.692  -0.385   1.709  1.00  0.00     0.076 C 
BRANCH  11  13
ATOM     13  N   UNL     1      -1.410  -0.456   3.140  1.00  0.00    -0.330 N 
ATOM     14  C   UNL     1      -1.088  -1.424   4.195  1.00  0.00     0.279 C 
ATOM     15  C   UNL     1      -1.169   0.918   3.653  1.00  0.00     0.279 C 
ATOM     16  H   UNL     1      -2.402  -0.554   2.927  1.00  0.00     0.348 HD
ATOM     17  C   UNL     1       0.297  -1.298   4.825  1.00  0.00     0.163 C 
ATOM     18  C   UNL     1       0.114   1.191   4.484  1.00  0.00     0.163 C 
ATOM     19  N   UNL     1       0.514   0.060   5.369  1.00  0.00    -0.191 NA
BRANCH  19  20
ATOM     20  S   UNL     1       0.421   0.264   7.035  1.00  0.00     0.211 S 
ATOM     21  C   UNL     1      -1.336   0.219   7.317  1.00  0.00     0.176 C 
ATOM     22  O   UNL     1       0.997  -0.912   7.665  1.00  0.00    -0.212 OA
ATOM     23  O   UNL     1       0.893   1.588   7.352  1.00  0.00    -0.212 OA
ENDBRANCH  19  20
ENDBRANCH  11  13
ENDBRANCH   9  11
ENDBRANCH   7   9
ENDBRANCH   6   7
ENDBRANCH   5   6
ENDBRANCH   4   5
ENDBRANCH   3   4
ENDBRANCH   2   3
ENDBRANCH   1   2
BRANCH   1  24
ATOM     24  O   UNL     1      -1.259   0.848  -2.921  1.00  0.00    -0.377 OA
BRANCH  24  25
ATOM     25  C   UNL     1      -0.457   0.576  -4.056  1.00  0.00     0.188 C 
BRANCH  25  26
ATOM     26  C   UNL     1       0.809   1.459  -4.130  1.00  0.00     0.188 C 
BRANCH  26  27
ATOM     27  O   UNL     1       1.097   2.131  -2.913  1.00  0.00    -0.376 OA
BRANCH  27  28
ATOM     28  C   UNL     1       0.644   3.453  -2.692  1.00  0.00     0.202 C 
BRANCH  28  29
ATOM     29  C   UNL     1      -0.789   3.916  -3.015  1.00  0.00     0.261 C 
BRANCH  29  30
ATOM     30  O   UNL     1      -1.422   3.381  -4.180  1.00  0.00    -0.460 OA
BRANCH  30  31
ATOM     31  C   UNL     1      -0.961   3.757  -5.391  1.00  0.00     0.338 C 
ATOM     32  O   UNL     1      -0.065   4.543  -5.629  1.00  0.00    -0.246 OA
BRANCH  31  33
ATOM     33  C   UNL     1      -1.585   2.841  -6.373  1.00  0.00     0.060 A 
ATOM     34  C   UNL     1      -0.757   2.022  -7.158  1.00  0.00     0.016 A 
ATOM     35  C   UNL     1      -2.975   2.706  -6.434  1.00  0.00     0.016 A 
ATOM     36  C   UNL     1      -1.317   1.065  -8.001  1.00  0.00     0.010 A 
ATOM     37  C   UNL     1      -3.538   1.789  -7.323  1.00  0.00     0.010 A 
ATOM     38  C   UNL     1      -2.709   0.987  -8.126  1.00  0.00    -0.014 A 
BRANCH  38  39
ATOM     39  C   UNL     1      -3.279   0.283  -9.294  1.00  0.00     0.031 A 
ATOM     40  C   UNL     1      -3.509   1.097 -10.536  1.00  0.00     0.074 A 
ATOM     41  C   UNL     1      -3.551  -1.032  -9.272  1.00  0.00     0.049 A 
ATOM     42  N   UNL     1      -4.022   0.738 -11.683  1.00  0.00    -0.248 NA
ATOM     43  C   UNL     1      -3.103   2.513 -10.472  1.00  0.00     0.031 C 
ATOM     44  C   UNL     1      -3.308  -1.935  -8.149  1.00  0.00     0.029 A 
ATOM     45  N   UNL     1      -4.100  -1.835 -10.240  1.00  0.00    -0.354 N 
ATOM     46  C   UNL     1      -4.009   1.883 -12.469  1.00  0.00     0.074 A 
ATOM     47  C   UNL     1      -3.464   2.953 -11.665  1.00  0.00     0.031 C 
ATOM     48  C   UNL     1      -3.716  -3.171  -8.491  1.00  0.00     0.029 A 
ATOM     49  C   UNL     1      -4.280  -3.135  -9.839  1.00  0.00     0.049 A 
ATOM     50  H   UNL     1      -4.341  -1.509 -11.137  1.00  0.00     0.167 HD
ATOM     51  C   UNL     1      -4.417   2.031 -13.749  1.00  0.00     0.031 A 
ATOM     52  C   UNL     1      -4.857  -4.167 -10.486  1.00  0.00     0.031 A 
ATOM     53  C   UNL     1      -4.982   0.971 -14.535  1.00  0.00     0.049 A 
ATOM     54  C   UNL     1      -5.397  -3.950 -11.878  1.00  0.00     0.074 A 
ATOM     55  C   UNL     1      -5.421   1.011 -15.845  1.00  0.00     0.029 A 
ATOM     56  N   UNL     1      -5.199  -0.319 -14.075  1.00  0.00    -0.354 N 
ATOM     57  N   UNL     1      -5.358  -2.872 -12.625  1.00  0.00    -0.248 NA
ATOM     58  C   UNL     1      -6.056  -5.098 -12.518  1.00  0.00     0.031 C 
ATOM     59  C   UNL     1      -5.970  -0.236 -16.156  1.00  0.00     0.029 A 
ATOM     60  C   UNL     1      -5.800  -1.075 -15.065  1.00  0.00     0.049 A 
ATOM     61  H   UNL     1      -4.962  -0.647 -13.178  1.00  0.00     0.167 HD
ATOM     62  C   UNL     1      -5.952  -3.223 -13.832  1.00  0.00     0.074 A 
ATOM     63  C   UNL     1      -6.330  -4.617 -13.722  1.00  0.00     0.031 C 
ATOM     64  C   UNL     1      -6.164  -2.463 -14.935  1.00  0.00     0.031 A 
BRANCH  51  65
ATOM     65  C   UNL     1      -4.315   3.404 -14.352  1.00  0.00    -0.014 A 
ATOM     66  C   UNL     1      -3.072   3.984 -14.655  1.00  0.00     0.009 A 
ATOM     67  C   UNL     1      -5.487   4.121 -14.636  1.00  0.00     0.009 A 
ATOM     68  C   UNL     1      -3.007   5.267 -15.201  1.00  0.00     0.001 A 
ATOM     69  C   UNL     1      -5.419   5.390 -15.212  1.00  0.00     0.001 A 
ATOM     70  C   UNL     1      -4.180   5.966 -15.485  1.00  0.00     0.000 A 
ENDBRANCH  51  65
BRANCH  52  71
ATOM     71  C   UNL     1      -4.984  -5.494  -9.826  1.00  0.00    -0.014 A 
ATOM     72  C   UNL     1      -4.289  -6.610 -10.319  1.00  0.00     0.009 A 
ATOM     73  C   UNL     1      -5.833  -5.662  -8.721  1.00  0.00     0.009 A 
ATOM     74  C   UNL     1      -4.466  -7.869  -9.741  1.00  0.00     0.001 A 
ATOM     75  C   UNL     1      -5.984  -6.916  -8.124  1.00  0.00     0.001 A 
ATOM     76  C   UNL     1      -5.310  -8.020  -8.641  1.00  0.00     0.000 A 
ENDBRANCH  52  71
BRANCH  64  77
ATOM     77  C   UNL     1      -6.787  -3.133 -16.130  1.00  0.00    -0.014 A 
ATOM     78  C   UNL     1      -8.133  -3.529 -16.133  1.00  0.00     0.009 A 
ATOM     79  C   UNL     1      -6.021  -3.322 -17.292  1.00  0.00     0.009 A 
ATOM     80  C   UNL     1      -8.688  -4.135 -17.262  1.00  0.00     0.001 A 
ATOM     81  C   UNL     1      -6.588  -3.894 -18.431  1.00  0.00     0.001 A 
ATOM     82  C   UNL     1      -7.917  -4.311 -18.412  1.00  0.00     0.000 A 
ENDBRANCH  64  77
ENDBRANCH  38  39
ENDBRANCH  31  33
ENDBRANCH  30  31
ENDBRANCH  29  30
ENDBRANCH  28  29
ENDBRANCH  27  28
ENDBRANCH  26  27
ENDBRANCH  25  26
ENDBRANCH  24  25
ENDBRANCH   1  24
TORSDOF 23
