REMARK SMILES CC[C@](C)(NC(=O)[C@H]1C[NH2+]Cc2ccccc21)C(=O)OCCOCCOCCOCCOC(=O)c1ccc(-c2c3nc(c(-c4ccccc4)c4ccc([nH]4)c(-c4ccccc4)c4nc(c(-c5ccccc5)c5ccc2[nH]5)C=C4)C=C3)cc1
REMARK SMILES IDX 26 1 25 2 24 3 23 4 22 5 21 6 20 7 18 8 19 9 3 10 4 11 2 12
REMARK SMILES IDX 1 13 5 14 6 15 7 17 8 18 9 19 17 20 10 21 12 22 16 23 11 24
REMARK SMILES IDX 13 27 15 28 14 29 27 30 28 31 29 32 30 33 31 34 32 35 33 36
REMARK SMILES IDX 34 37 35 38 36 39 82 40 37 41 81 42 38 43 39 44 40 45 75 46
REMARK SMILES IDX 41 47 80 48 74 49 76 50 42 51 79 52 73 53 72 54 43 56 65 57
REMARK SMILES IDX 50 58 64 59 51 60 54 61 63 62 77 63 52 64 53 65 62 67 78 68
REMARK SMILES IDX 55 69 44 70 45 71 49 72 46 73 48 74 47 75 66 76 67 77 71 78
REMARK SMILES IDX 68 79 70 80 69 81 56 82 57 83 61 84 58 85 60 86 59 87
REMARK H PARENT 5 16 10 25 10 26 76 55 54 66
REMARK Flexibility Score: inf
ROOT
ATOM      1  O   UNL     1       3.400   0.602  -3.544  1.00  0.00    -0.377 OA
ENDROOT
BRANCH   1   2
ATOM      2  C   UNL     1       4.670   0.912  -2.942  1.00  0.00     0.188 C 
BRANCH   2   3
ATOM      3  C   UNL     1       5.262   2.454  -2.485  1.00  0.00     0.188 C 
BRANCH   3   4
ATOM      4  O   UNL     1       4.494   3.606  -1.253  1.00  0.00    -0.376 OA
BRANCH   4   5
ATOM      5  C   UNL     1       3.839   4.889  -0.821  1.00  0.00     0.202 C 
BRANCH   5   6
ATOM      6  C   UNL     1       4.468   6.235  -1.460  1.00  0.00     0.261 C 
BRANCH   6   7
ATOM      7  O   UNL     1       5.692   6.112  -3.049  1.00  0.00    -0.462 OA
BRANCH   7   8
ATOM      8  C   UNL     1       6.321   5.657  -4.212  1.00  0.00     0.331 C 
ATOM      9  O   UNL     1       7.473   6.071  -4.409  1.00  0.00    -0.249 OA
BRANCH   8  10
ATOM     10  C   UNL     1       5.666   4.561  -5.270  1.00  0.00     0.135 C 
ATOM     11  C   UNL     1       6.722   3.434  -5.507  1.00  0.00     0.047 C 
BRANCH  10  12
ATOM     12  C   UNL     1       5.656   5.425  -6.615  1.00  0.00     0.037 C 
ATOM     13  C   UNL     1       6.999   5.960  -7.144  1.00  0.00     0.007 C 
ENDBRANCH  10  12
BRANCH  10  14
ATOM     14  N   UNL     1       4.219   3.838  -5.288  1.00  0.00    -0.340 N 
ATOM     15  C   UNL     1       3.315   3.147  -4.452  1.00  0.00     0.234 C 
ATOM     16  H   UNL     1       3.837   3.902  -6.194  1.00  0.00     0.164 HD
ATOM     17  O   UNL     1       2.401   2.561  -5.045  1.00  0.00    -0.274 OA
BRANCH  15  18
ATOM     18  C   UNL     1       3.260   3.378  -2.816  1.00  0.00     0.164 C 
ATOM     19  C   UNL     1       3.372   2.202  -1.190  1.00  0.00     0.279 C 
ATOM     20  C   UNL     1       4.462   4.712  -2.900  1.00  0.00    -0.021 A 
ATOM     21  N   UNL     1       4.896   2.142  -0.057  1.00  0.00    -0.342 N 
ATOM     22  C   UNL     1       6.023   4.715  -1.765  1.00  0.00     0.010 A 
ATOM     23  C   UNL     1       3.796   6.238  -3.583  1.00  0.00     0.005 A 
ATOM     24  C   UNL     1       6.195   3.444  -0.368  1.00  0.00     0.297 C 
ATOM     25  H   UNL     1       5.336   1.228  -0.173  1.00  0.00     0.346 HD
ATOM     26  H   UNL     1       4.547   2.319   0.885  1.00  0.00     0.346 HD
ATOM     27  C   UNL     1       6.767   6.292  -1.406  1.00  0.00     0.010 A 
ATOM     28  C   UNL     1       4.620   7.762  -3.178  1.00  0.00     0.000 A 
ATOM     29  C   UNL     1       6.053   7.787  -2.105  1.00  0.00     0.001 A 
ENDBRANCH  15  18
ENDBRANCH  10  14
ENDBRANCH   8  10
ENDBRANCH   7   8
ENDBRANCH   6   7
ENDBRANCH   5   6
ENDBRANCH   4   5
ENDBRANCH   3   4
ENDBRANCH   2   3
ENDBRANCH   1   2
BRANCH   1  30
ATOM     30  C   UNL     1       2.071   0.503  -2.979  1.00  0.00     0.188 C 
BRANCH  30  31
ATOM     31  C   UNL     1       1.718  -0.267  -1.660  1.00  0.00     0.188 C 
BRANCH  31  32
ATOM     32  O   UNL     1       2.339  -1.503  -1.378  1.00  0.00    -0.376 OA
BRANCH  32  33
ATOM     33  C   UNL     1       2.618  -2.340  -2.482  1.00  0.00     0.202 C 
BRANCH  33  34
ATOM     34  C   UNL     1       1.421  -2.943  -3.234  1.00  0.00     0.261 C 
BRANCH  34  35
ATOM     35  O   UNL     1       0.387  -2.007  -3.584  1.00  0.00    -0.460 OA
BRANCH  35  36
ATOM     36  C   UNL     1      -0.685  -1.959  -2.752  1.00  0.00     0.338 C 
ATOM     37  O   UNL     1      -0.897  -2.666  -1.782  1.00  0.00    -0.246 OA
BRANCH  36  38
ATOM     38  C   UNL     1      -1.490  -0.750  -3.065  1.00  0.00     0.060 A 
ATOM     39  C   UNL     1      -1.902   0.082  -2.009  1.00  0.00     0.016 A 
ATOM     40  C   UNL     1      -1.863  -0.453  -4.377  1.00  0.00     0.016 A 
ATOM     41  C   UNL     1      -2.733   1.177  -2.254  1.00  0.00     0.010 A 
ATOM     42  C   UNL     1      -2.731   0.616  -4.618  1.00  0.00     0.010 A 
ATOM     43  C   UNL     1      -3.211   1.397  -3.551  1.00  0.00    -0.014 A 
BRANCH  43  44
ATOM     44  C   UNL     1      -4.464   2.169  -3.741  1.00  0.00     0.031 A 
ATOM     45  C   UNL     1      -5.757   1.407  -3.603  1.00  0.00     0.074 A 
ATOM     46  C   UNL     1      -4.475   3.478  -4.043  1.00  0.00     0.049 A 
ATOM     47  N   UNL     1      -6.985   1.798  -3.826  1.00  0.00    -0.248 NA
ATOM     48  C   UNL     1      -5.644   0.006  -3.156  1.00  0.00     0.031 C 
ATOM     49  C   UNL     1      -3.303   4.343  -4.142  1.00  0.00     0.029 A 
ATOM     50  N   UNL     1      -5.532   4.304  -4.340  1.00  0.00    -0.354 N 
ATOM     51  C   UNL     1      -7.782   0.692  -3.557  1.00  0.00     0.074 A 
ATOM     52  C   UNL     1      -6.906  -0.389  -3.170  1.00  0.00     0.031 C 
ATOM     53  C   UNL     1      -3.704   5.577  -4.499  1.00  0.00     0.029 A 
ATOM     54  C   UNL     1      -5.154   5.576  -4.692  1.00  0.00     0.049 A 
ATOM     55  H   UNL     1      -6.471   4.011  -4.304  1.00  0.00     0.167 HD
ATOM     56  C   UNL     1      -9.127   0.576  -3.632  1.00  0.00     0.031 A 
ATOM     57  C   UNL     1      -5.894   6.605  -5.151  1.00  0.00     0.031 A 
ATOM     58  C   UNL     1      -9.998   1.633  -4.056  1.00  0.00     0.049 A 
ATOM     59  C   UNL     1      -7.382   6.423  -5.330  1.00  0.00     0.074 A 
ATOM     60  C   UNL     1     -11.375   1.619  -4.180  1.00  0.00     0.029 A 
ATOM     61  N   UNL     1      -9.569   2.893  -4.442  1.00  0.00    -0.354 N 
ATOM     62  N   UNL     1      -8.128   5.378  -5.061  1.00  0.00    -0.248 NA
ATOM     63  C   UNL     1      -8.129   7.565  -5.880  1.00  0.00     0.031 C 
ATOM     64  C   UNL     1     -11.775   2.856  -4.695  1.00  0.00     0.029 A 
ATOM     65  C   UNL     1     -10.652   3.658  -4.831  1.00  0.00     0.049 A 
ATOM     66  H   UNL     1      -8.633   3.197  -4.438  1.00  0.00     0.167 HD
ATOM     67  C   UNL     1      -9.431   5.745  -5.382  1.00  0.00     0.074 A 
ATOM     68  C   UNL     1      -9.375   7.113  -5.854  1.00  0.00     0.031 C 
ATOM     69  C   UNL     1     -10.572   5.019  -5.293  1.00  0.00     0.031 A 
BRANCH  56  70
ATOM     70  C   UNL     1      -9.717  -0.764  -3.299  1.00  0.00    -0.014 A 
ATOM     71  C   UNL     1      -9.750  -1.239  -1.978  1.00  0.00     0.009 A 
ATOM     72  C   UNL     1     -10.242  -1.565  -4.324  1.00  0.00     0.009 A 
ATOM     73  C   UNL     1     -10.265  -2.506  -1.697  1.00  0.00     0.001 A 
ATOM     74  C   UNL     1     -10.782  -2.818  -4.037  1.00  0.00     0.001 A 
ATOM     75  C   UNL     1     -10.785  -3.292  -2.725  1.00  0.00     0.000 A 
ENDBRANCH  56  70
BRANCH  57  76
ATOM     76  C   UNL     1      -5.247   7.893  -5.519  1.00  0.00    -0.014 A 
ATOM     77  C   UNL     1      -5.487   9.056  -4.771  1.00  0.00     0.009 A 
ATOM     78  C   UNL     1      -4.414   7.975  -6.646  1.00  0.00     0.009 A 
ATOM     79  C   UNL     1      -4.927  10.277  -5.158  1.00  0.00     0.001 A 
ATOM     80  C   UNL     1      -3.833   9.191  -7.014  1.00  0.00     0.001 A 
ATOM     81  C   UNL     1      -4.097  10.343  -6.276  1.00  0.00     0.000 A 
ENDBRANCH  57  76
BRANCH  69  82
ATOM     82  C   UNL     1     -11.859   5.696  -5.672  1.00  0.00    -0.014 A 
ATOM     83  C   UNL     1     -12.182   5.952  -7.012  1.00  0.00     0.009 A 
ATOM     84  C   UNL     1     -12.791   6.017  -4.672  1.00  0.00     0.009 A 
ATOM     85  C   UNL     1     -13.405   6.542  -7.341  1.00  0.00     0.001 A 
ATOM     86  C   UNL     1     -14.024   6.579  -5.006  1.00  0.00     0.001 A 
ATOM     87  C   UNL     1     -14.326   6.848  -6.340  1.00  0.00     0.000 A 
ENDBRANCH  69  82
ENDBRANCH  43  44
ENDBRANCH  36  38
ENDBRANCH  35  36
ENDBRANCH  34  35
ENDBRANCH  33  34
ENDBRANCH  32  33
ENDBRANCH  31  32
ENDBRANCH  30  31
ENDBRANCH   1  30
TORSDOF 23
