REMARK SMILES C[C@@H]1CCC/C(=C\Nc2ccc(C(=O)OCCOCCOCCOCCOC(=O)c3ccc(-c4c5nc(c(-c6ccccc6)c6ccc([nH]6)c(-c6ccccc6)c6nc(c(-c7ccccc7)c7ccc4[nH]7)C=C6)C=C5)cc3)c(O)c2)C1=O
REMARK SMILES IDX 21 1 20 2 19 3 18 4 17 5 16 6 15 7 13 8 14 9 12 10 9 11
REMARK SMILES IDX 10 12 80 13 11 14 78 15 8 16 7 18 1 19 2 20 3 21 81 22 4 23
REMARK SMILES IDX 6 24 82 25 5 26 79 27 22 29 23 30 24 31 25 32 26 33 27 34
REMARK SMILES IDX 28 35 29 36 30 37 31 38 77 39 32 40 76 41 33 42 34 43 35 44
REMARK SMILES IDX 70 45 36 46 75 47 69 48 71 49 37 50 74 51 68 52 67 53 38 55
REMARK SMILES IDX 60 56 45 57 59 58 46 59 49 60 58 61 72 62 47 63 48 64 57 66
REMARK SMILES IDX 73 67 50 68 39 69 40 70 44 71 41 72 43 73 42 74 61 75 62 76
REMARK SMILES IDX 66 77 63 78 65 79 64 80 51 81 52 82 56 83 53 84 55 85 54 86
REMARK H PARENT 8 17 79 28 71 54 49 65
REMARK Flexibility Score: inf
ROOT
ATOM      1  O   UNL     1      -0.939  -4.485   8.619  1.00  0.00    -0.377 OA
ENDROOT
BRANCH   1   2
ATOM      2  C   UNL     1      -0.398  -4.593   7.309  1.00  0.00     0.188 C 
BRANCH   2   3
ATOM      3  C   UNL     1       0.874  -5.460   7.249  1.00  0.00     0.188 C 
BRANCH   3   4
ATOM      4  O   UNL     1       1.016  -6.296   8.387  1.00  0.00    -0.376 OA
BRANCH   4   5
ATOM      5  C   UNL     1       1.845  -5.904   9.466  1.00  0.00     0.202 C 
BRANCH   5   6
ATOM      6  C   UNL     1       1.798  -4.496  10.089  1.00  0.00     0.261 C 
BRANCH   6   7
ATOM      7  O   UNL     1       1.549  -3.389   9.217  1.00  0.00    -0.460 OA
BRANCH   7   8
ATOM      8  C   UNL     1       2.551  -2.981   8.406  1.00  0.00     0.341 C 
ATOM      9  O   UNL     1       3.678  -3.438   8.358  1.00  0.00    -0.246 OA
BRANCH   8  10
ATOM     10  C   UNL     1       1.969  -2.023   7.431  1.00  0.00     0.101 A 
ATOM     11  C   UNL     1       0.888  -0.293   5.484  1.00  0.00     0.042 A 
ATOM     12  C   UNL     1       1.762  -1.322   5.113  1.00  0.00     0.027 A 
ATOM     13  C   UNL     1       0.508  -0.188   6.827  1.00  0.00     0.073 A 
ATOM     14  C   UNL     1       2.334  -2.154   6.084  1.00  0.00     0.022 A 
ATOM     15  C   UNL     1       1.011  -1.068   7.783  1.00  0.00     0.132 A 
BRANCH  11  16
ATOM     16  N   UNL     1       0.346   0.616   4.566  1.00  0.00    -0.361 N 
ATOM     17  H   UNL     1       0.196   1.528   4.906  1.00  0.00     0.166 HD
BRANCH  16  18
ATOM     18  C   UNL     1      -0.004   0.405   3.259  1.00  0.00     0.090 C 
ATOM     19  C   UNL     1       1.524   0.275  -0.280  1.00  0.00     0.016 C 
ATOM     20  C   UNL     1       0.380   1.286  -0.203  1.00  0.00     0.058 C 
ATOM     21  C   UNL     1       0.864   2.737  -0.046  1.00  0.00     0.012 C 
ATOM     22  C   UNL     1      -0.541   0.883   0.938  1.00  0.00     0.163 C 
ATOM     23  C   UNL     1       1.328   3.088   1.367  1.00  0.00     0.006 C 
ATOM     24  C   UNL     1      -0.132   1.334   2.300  1.00  0.00     0.011 C 
ATOM     25  O   UNL     1      -1.518   0.158   0.774  1.00  0.00    -0.294 OA
ATOM     26  C   UNL     1       0.240   2.780   2.395  1.00  0.00     0.041 C 
ENDBRANCH  16  18
ENDBRANCH  11  16
BRANCH  15  27
ATOM     27  O   UNL     1       0.478  -0.964   9.039  1.00  0.00    -0.507 OA
ATOM     28  H   UNL     1       0.777  -1.529   9.723  1.00  0.00     0.293 HD
ENDBRANCH  15  27
ENDBRANCH   8  10
ENDBRANCH   7   8
ENDBRANCH   6   7
ENDBRANCH   5   6
ENDBRANCH   4   5
ENDBRANCH   3   4
ENDBRANCH   2   3
ENDBRANCH   1   2
BRANCH   1  29
ATOM     29  C   UNL     1      -1.720  -5.577   9.111  1.00  0.00     0.188 C 
BRANCH  29  30
ATOM     30  C   UNL     1      -1.675  -6.990   8.474  1.00  0.00     0.188 C 
BRANCH  30  31
ATOM     31  O   UNL     1      -1.554  -6.998   7.059  1.00  0.00    -0.376 OA
BRANCH  31  32
ATOM     32  C   UNL     1      -2.692  -7.345   6.288  1.00  0.00     0.202 C 
BRANCH  32  33
ATOM     33  C   UNL     1      -3.847  -6.336   6.308  1.00  0.00     0.261 C 
BRANCH  33  34
ATOM     34  O   UNL     1      -4.378  -6.026   7.606  1.00  0.00    -0.460 OA
BRANCH  34  35
ATOM     35  C   UNL     1      -4.967  -7.027   8.295  1.00  0.00     0.338 C 
ATOM     36  O   UNL     1      -5.129  -8.179   7.933  1.00  0.00    -0.246 OA
BRANCH  35  37
ATOM     37  C   UNL     1      -5.218  -6.530   9.663  1.00  0.00     0.060 A 
ATOM     38  C   UNL     1      -4.596  -7.165  10.747  1.00  0.00     0.016 A 
ATOM     39  C   UNL     1      -6.040  -5.421   9.869  1.00  0.00     0.016 A 
ATOM     40  C   UNL     1      -4.806  -6.695  12.044  1.00  0.00     0.010 A 
ATOM     41  C   UNL     1      -6.267  -4.966  11.170  1.00  0.00     0.010 A 
ATOM     42  C   UNL     1      -5.667  -5.612  12.266  1.00  0.00    -0.014 A 
BRANCH  42  43
ATOM     43  C   UNL     1      -6.054  -5.231  13.645  1.00  0.00     0.031 A 
ATOM     44  C   UNL     1      -7.369  -5.715  14.188  1.00  0.00     0.074 A 
ATOM     45  C   UNL     1      -5.255  -4.458  14.403  1.00  0.00     0.049 A 
ATOM     46  N   UNL     1      -7.943  -5.448  15.333  1.00  0.00    -0.248 NA
ATOM     47  C   UNL     1      -8.140  -6.620  13.321  1.00  0.00     0.031 C 
ATOM     48  C   UNL     1      -3.939  -3.960  14.011  1.00  0.00     0.029 A 
ATOM     49  N   UNL     1      -5.450  -3.947  15.662  1.00  0.00    -0.354 N 
ATOM     50  C   UNL     1      -9.147  -6.142  15.320  1.00  0.00     0.074 A 
ATOM     51  C   UNL     1      -9.231  -6.821  14.045  1.00  0.00     0.031 C 
ATOM     52  C   UNL     1      -3.447  -3.202  15.007  1.00  0.00     0.029 A 
ATOM     53  C   UNL     1      -4.431  -3.129  16.086  1.00  0.00     0.049 A 
ATOM     54  H   UNL     1      -6.243  -4.147  16.209  1.00  0.00     0.167 HD
ATOM     55  C   UNL     1     -10.096  -6.209  16.283  1.00  0.00     0.031 A 
ATOM     56  C   UNL     1      -4.321  -2.381  17.201  1.00  0.00     0.031 A 
ATOM     57  C   UNL     1     -10.022  -5.515  17.541  1.00  0.00     0.049 A 
ATOM     58  C   UNL     1      -5.437  -2.391  18.214  1.00  0.00     0.074 A 
ATOM     59  C   UNL     1     -10.923  -5.539  18.592  1.00  0.00     0.029 A 
ATOM     60  N   UNL     1      -8.998  -4.658  17.911  1.00  0.00    -0.354 N 
ATOM     61  N   UNL     1      -6.551  -3.083  18.211  1.00  0.00    -0.248 NA
ATOM     62  C   UNL     1      -5.279  -1.515  19.384  1.00  0.00     0.031 C 
ATOM     63  C   UNL     1     -10.479  -4.640  19.567  1.00  0.00     0.029 A 
ATOM     64  C   UNL     1      -9.266  -4.111  19.155  1.00  0.00     0.049 A 
ATOM     65  H   UNL     1      -8.197  -4.467  17.371  1.00  0.00     0.167 HD
ATOM     66  C   UNL     1      -7.215  -2.740  19.383  1.00  0.00     0.074 A 
ATOM     67  C   UNL     1      -6.368  -1.798  20.084  1.00  0.00     0.031 C 
ATOM     68  C   UNL     1      -8.421  -3.165  19.837  1.00  0.00     0.031 A 
BRANCH  55  69
ATOM     69  C   UNL     1     -11.322  -7.029  15.991  1.00  0.00    -0.014 A 
ATOM     70  C   UNL     1     -11.269  -8.431  15.923  1.00  0.00     0.009 A 
ATOM     71  C   UNL     1     -12.558  -6.388  15.813  1.00  0.00     0.009 A 
ATOM     72  C   UNL     1     -12.422  -9.169  15.648  1.00  0.00     0.001 A 
ATOM     73  C   UNL     1     -13.714  -7.130  15.569  1.00  0.00     0.001 A 
ATOM     74  C   UNL     1     -13.644  -8.519  15.477  1.00  0.00     0.000 A 
ENDBRANCH  55  69
BRANCH  56  75
ATOM     75  C   UNL     1      -3.124  -1.521  17.408  1.00  0.00    -0.014 A 
ATOM     76  C   UNL     1      -2.211  -1.796  18.438  1.00  0.00     0.009 A 
ATOM     77  C   UNL     1      -2.902  -0.403  16.588  1.00  0.00     0.009 A 
ATOM     78  C   UNL     1      -1.115  -0.957  18.655  1.00  0.00     0.001 A 
ATOM     79  C   UNL     1      -1.788   0.416  16.788  1.00  0.00     0.001 A 
ATOM     80  C   UNL     1      -0.901   0.143  17.827  1.00  0.00     0.000 A 
ENDBRANCH  56  75
BRANCH  68  81
ATOM     81  C   UNL     1      -8.891  -2.628  21.161  1.00  0.00    -0.014 A 
ATOM     82  C   UNL     1      -9.307  -1.294  21.299  1.00  0.00     0.009 A 
ATOM     83  C   UNL     1      -8.968  -3.481  22.273  1.00  0.00     0.009 A 
ATOM     84  C   UNL     1      -9.761  -0.819  22.532  1.00  0.00     0.001 A 
ATOM     85  C   UNL     1      -9.453  -3.012  23.496  1.00  0.00     0.001 A 
ATOM     86  C   UNL     1      -9.840  -1.680  23.627  1.00  0.00     0.000 A 
ENDBRANCH  68  81
ENDBRANCH  42  43
ENDBRANCH  35  37
ENDBRANCH  34  35
ENDBRANCH  33  34
ENDBRANCH  32  33
ENDBRANCH  31  32
ENDBRANCH  30  31
ENDBRANCH  29  30
ENDBRANCH   1  29
TORSDOF 23
