REMARK SMILES COc1cccc([C@@H]2CC(c3cccc(C)c3)=NN2C(=O)CCC(=O)OCCOCCOCCOCCOC(=O)c2ccc(-c3c4nc(c(-c5ccccc5)c5ccc([nH]5)c(-c5ccccc5)c5nc(c(-c6ccccc6)c6ccc3[nH]6)C=C5)C=C4)cc2)c1
REMARK SMILES IDX 30 1 29 2 28 3 27 4 26 5 24 6 25 7 23 8 22 9 20 10 21 11
REMARK SMILES IDX 19 12 8 13 9 14 10 15 18 16 7 17 3 18 4 19 89 20 5 21 6 22
REMARK SMILES IDX 2 23 1 24 11 25 12 26 17 27 13 28 15 29 14 30 16 31 31 32
REMARK SMILES IDX 32 33 33 34 34 35 35 36 36 37 37 38 38 39 39 40 40 41 41 42
REMARK SMILES IDX 42 43 88 44 43 45 87 46 44 47 45 48 46 49 81 50 47 51 86 52
REMARK SMILES IDX 80 53 82 54 48 55 85 56 79 57 78 58 49 60 71 61 56 62 70 63
REMARK SMILES IDX 57 64 60 65 69 66 83 67 58 68 59 69 68 71 84 72 61 73 50 74
REMARK SMILES IDX 51 75 55 76 52 77 54 78 53 79 72 80 73 81 77 82 74 83 76 84
REMARK SMILES IDX 75 85 62 86 63 87 67 88 64 89 66 90 65 91
REMARK H PARENT 82 59 60 70
REMARK Flexibility Score: inf
ROOT
ATOM      1  C   UNL     1       2.323   1.757  -5.351  1.00  0.00     0.188 C 
ENDROOT
BRANCH   1   2
ATOM      2  O   UNL     1       1.309   2.514  -4.563  1.00  0.00    -0.376 OA
BRANCH   2   3
ATOM      3  C   UNL     1       0.949   2.730  -3.149  1.00  0.00     0.202 C 
BRANCH   3   4
ATOM      4  C   UNL     1       0.989   1.626  -2.062  1.00  0.00     0.261 C 
BRANCH   4   5
ATOM      5  O   UNL     1       1.636   0.465  -2.541  1.00  0.00    -0.463 OA
BRANCH   5   6
ATOM      6  C   UNL     1       0.789  -0.385  -3.142  1.00  0.00     0.306 C 
ATOM      7  O   UNL     1      -0.430  -0.359  -3.015  1.00  0.00    -0.252 OA
BRANCH   6   8
ATOM      8  C   UNL     1       1.486  -1.377  -4.011  1.00  0.00     0.132 C 
BRANCH   8   9
ATOM      9  C   UNL     1       2.853  -1.092  -4.618  1.00  0.00     0.114 C 
BRANCH   9  10
ATOM     10  C   UNL     1       4.019  -0.507  -3.824  1.00  0.00     0.243 C 
ATOM     11  O   UNL     1       4.908  -1.376  -3.645  1.00  0.00    -0.273 OA
BRANCH  10  12
ATOM     12  N   UNL     1       4.221   0.787  -3.312  1.00  0.00    -0.225 N 
ATOM     13  C   UNL     1       3.902   2.502  -3.366  1.00  0.00     0.147 C 
ATOM     14  C   UNL     1       4.278   2.842  -1.857  1.00  0.00     0.091 C 
ATOM     15  C   UNL     1       5.090   1.626  -1.480  1.00  0.00     0.071 C 
ATOM     16  N   UNL     1       5.018   0.601  -2.237  1.00  0.00    -0.174 NA
BRANCH  13  17
ATOM     17  C   UNL     1       4.083   3.695  -4.839  1.00  0.00    -0.019 A 
ATOM     18  C   UNL     1       2.896   6.259  -6.040  1.00  0.00     0.119 A 
ATOM     19  C   UNL     1       4.446   6.910  -6.541  1.00  0.00     0.046 A 
ATOM     20  C   UNL     1       2.717   4.761  -5.167  1.00  0.00     0.052 A 
ATOM     21  C   UNL     1       5.917   5.964  -6.298  1.00  0.00     0.004 A 
ATOM     22  C   UNL     1       5.729   4.250  -5.598  1.00  0.00     0.006 A 
BRANCH  18  23
ATOM     23  O   UNL     1       1.794   6.879  -6.614  1.00  0.00    -0.497 OA
ATOM     24  C   UNL     1       0.575   6.137  -6.533  1.00  0.00     0.278 C 
ENDBRANCH  18  23
ENDBRANCH  13  17
BRANCH  15  25
ATOM     25  C   UNL     1       5.998   1.458  -0.347  1.00  0.00    -0.002 A 
ATOM     26  C   UNL     1       7.104   0.607  -0.564  1.00  0.00     0.010 A 
ATOM     27  C   UNL     1       5.622   1.846   0.923  1.00  0.00     0.013 A 
ATOM     28  C   UNL     1       7.761   0.042   0.511  1.00  0.00     0.001 A 
ATOM     29  C   UNL     1       6.320   1.313   2.008  1.00  0.00    -0.050 A 
ATOM     30  C   UNL     1       7.344   0.376   1.796  1.00  0.00     0.003 A 
ATOM     31  C   UNL     1       6.017   1.786   3.393  1.00  0.00     0.044 C 
ENDBRANCH  15  25
ENDBRANCH  10  12
ENDBRANCH   9  10
ENDBRANCH   8   9
ENDBRANCH   6   8
ENDBRANCH   5   6
ENDBRANCH   4   5
ENDBRANCH   3   4
ENDBRANCH   2   3
ENDBRANCH   1   2
BRANCH   1  32
ATOM     32  C   UNL     1       4.168   1.630  -5.698  1.00  0.00     0.188 C 
BRANCH  32  33
ATOM     33  O   UNL     1       5.593   1.924  -4.813  1.00  0.00    -0.377 OA
BRANCH  33  34
ATOM     34  C   UNL     1       6.159   3.183  -3.755  1.00  0.00     0.188 C 
BRANCH  34  35
ATOM     35  C   UNL     1       5.486   4.960  -3.686  1.00  0.00     0.188 C 
BRANCH  35  36
ATOM     36  O   UNL     1       4.534   5.533  -5.106  1.00  0.00    -0.376 OA
BRANCH  36  37
ATOM     37  C   UNL     1       4.415   4.667  -6.925  1.00  0.00     0.202 C 
BRANCH  37  38
ATOM     38  C   UNL     1       5.993   4.190  -7.926  1.00  0.00     0.261 C 
BRANCH  38  39
ATOM     39  O   UNL     1       7.464   3.833  -7.266  1.00  0.00    -0.460 OA
BRANCH  39  40
ATOM     40  C   UNL     1       8.483   4.662  -6.781  1.00  0.00     0.338 C 
ATOM     41  O   UNL     1       8.790   5.731  -7.294  1.00  0.00    -0.246 OA
BRANCH  40  42
ATOM     42  C   UNL     1       9.118   4.302  -5.394  1.00  0.00     0.060 A 
ATOM     43  C   UNL     1       8.951   5.149  -4.262  1.00  0.00     0.016 A 
ATOM     44  C   UNL     1       9.980   3.220  -5.194  1.00  0.00     0.016 A 
ATOM     45  C   UNL     1       9.565   4.900  -2.983  1.00  0.00     0.010 A 
ATOM     46  C   UNL     1      10.645   3.006  -3.935  1.00  0.00     0.010 A 
ATOM     47  C   UNL     1      10.467   3.843  -2.808  1.00  0.00    -0.014 A 
BRANCH  47  48
ATOM     48  C   UNL     1      11.419   3.743  -1.620  1.00  0.00     0.031 A 
ATOM     49  C   UNL     1      12.787   4.378  -1.740  1.00  0.00     0.074 A 
ATOM     50  C   UNL     1      11.176   3.156  -0.424  1.00  0.00     0.049 A 
ATOM     51  N   UNL     1      13.815   4.314  -0.927  1.00  0.00    -0.248 NA
ATOM     52  C   UNL     1      12.998   5.234  -2.912  1.00  0.00     0.031 C 
ATOM     53  C   UNL     1       9.877   2.720   0.053  1.00  0.00     0.029 A 
ATOM     54  N   UNL     1      12.033   2.827   0.626  1.00  0.00    -0.354 N 
ATOM     55  C   UNL     1      14.792   5.125  -1.485  1.00  0.00     0.074 A 
ATOM     56  C   UNL     1      14.243   5.643  -2.722  1.00  0.00     0.031 C 
ATOM     57  C   UNL     1      10.038   2.133   1.254  1.00  0.00     0.029 A 
ATOM     58  C   UNL     1      11.442   2.045   1.595  1.00  0.00     0.049 A 
ATOM     59  H   UNL     1      12.970   3.125   0.672  1.00  0.00     0.167 HD
ATOM     60  C   UNL     1      16.029   5.423  -1.016  1.00  0.00     0.031 A 
ATOM     61  C   UNL     1      11.923   1.309   2.624  1.00  0.00     0.031 A 
ATOM     62  C   UNL     1      16.613   4.904   0.196  1.00  0.00     0.049 A 
ATOM     63  C   UNL     1      13.360   1.456   3.018  1.00  0.00     0.074 A 
ATOM     64  C   UNL     1      17.866   5.170   0.726  1.00  0.00     0.029 A 
ATOM     65  N   UNL     1      16.006   4.004   1.057  1.00  0.00    -0.354 N 
ATOM     66  N   UNL     1      14.272   2.214   2.468  1.00  0.00    -0.248 NA
ATOM     67  C   UNL     1      13.815   0.731   4.216  1.00  0.00     0.031 C 
ATOM     68  C   UNL     1      18.049   4.368   1.858  1.00  0.00     0.029 A 
ATOM     69  C   UNL     1      16.881   3.662   2.081  1.00  0.00     0.049 A 
ATOM     70  H   UNL     1      15.090   3.657   0.957  1.00  0.00     0.167 HD
ATOM     71  C   UNL     1      15.386   2.113   3.284  1.00  0.00     0.074 A 
ATOM     72  C   UNL     1      15.039   1.218   4.368  1.00  0.00     0.031 C 
ATOM     73  C   UNL     1      16.576   2.744   3.148  1.00  0.00     0.031 A 
BRANCH  60  74
ATOM     74  C   UNL     1      16.875   6.318  -1.878  1.00  0.00    -0.014 A 
ATOM     75  C   UNL     1      16.596   7.686  -2.022  1.00  0.00     0.009 A 
ATOM     76  C   UNL     1      17.980   5.773  -2.551  1.00  0.00     0.009 A 
ATOM     77  C   UNL     1      17.387   8.482  -2.853  1.00  0.00     0.001 A 
ATOM     78  C   UNL     1      18.786   6.577  -3.355  1.00  0.00     0.001 A 
ATOM     79  C   UNL     1      18.483   7.928  -3.515  1.00  0.00     0.000 A 
ENDBRANCH  60  74
BRANCH  61  80
ATOM     80  C   UNL     1      11.055   0.333   3.358  1.00  0.00    -0.014 A 
ATOM     81  C   UNL     1      10.628   0.566   4.675  1.00  0.00     0.009 A 
ATOM     82  C   UNL     1      10.692  -0.881   2.747  1.00  0.00     0.009 A 
ATOM     83  C   UNL     1       9.858  -0.386   5.357  1.00  0.00     0.001 A 
ATOM     84  C   UNL     1       9.904  -1.822   3.423  1.00  0.00     0.001 A 
ATOM     85  C   UNL     1       9.486  -1.573   4.728  1.00  0.00     0.000 A 
ENDBRANCH  61  80
BRANCH  73  86
ATOM     86  C   UNL     1      17.596   2.503   4.224  1.00  0.00    -0.014 A 
ATOM     87  C   UNL     1      18.202   1.247   4.391  1.00  0.00     0.009 A 
ATOM     88  C   UNL     1      17.940   3.545   5.098  1.00  0.00     0.009 A 
ATOM     89  C   UNL     1      19.092   1.027   5.445  1.00  0.00     0.001 A 
ATOM     90  C   UNL     1      18.858   3.332   6.128  1.00  0.00     0.001 A 
ATOM     91  C   UNL     1      19.421   2.070   6.309  1.00  0.00     0.000 A 
ENDBRANCH  73  86
ENDBRANCH  47  48
ENDBRANCH  40  42
ENDBRANCH  39  40
ENDBRANCH  38  39
ENDBRANCH  37  38
ENDBRANCH  36  37
ENDBRANCH  35  36
ENDBRANCH  34  35
ENDBRANCH  33  34
ENDBRANCH  32  33
ENDBRANCH   1  32
TORSDOF 26
