REMARK SMILES O=C(N[C@@H](CS)C(=O)N[C@@H](CO)C(=O)OCCOCCOCCOCCOC(=O)c1ccc(-c2c3nc(c(-c4ccccc4)c4ccc([nH]4)c(-c4ccccc4)c4nc(c(-c5ccccc5)c5ccc2[nH]5)C=C4)C=C3)cc1)c1ccc(F)cc1
REMARK SMILES IDX 20 1 19 2 18 3 17 4 16 5 15 6 13 7 14 8 10 9 9 10 7 11 8 12
REMARK SMILES IDX 4 14 3 15 1 16 2 17 78 19 79 20 84 21 80 22 83 23 81 24
REMARK SMILES IDX 82 25 5 26 6 27 11 29 12 30 21 32 22 33 23 34 24 35 25 36
REMARK SMILES IDX 26 37 27 38 28 39 29 40 30 41 31 42 77 43 32 44 76 45 33 46
REMARK SMILES IDX 34 47 35 48 70 49 36 50 75 51 69 52 71 53 37 54 74 55 68 56
REMARK SMILES IDX 67 57 38 59 60 60 45 61 59 62 46 63 49 64 58 65 72 66 47 67
REMARK SMILES IDX 48 68 57 70 73 71 50 72 39 73 40 74 44 75 41 76 43 77 42 78
REMARK SMILES IDX 61 79 62 80 66 81 63 82 65 83 64 84 51 85 52 86 56 87 53 88
REMARK SMILES IDX 55 89 54 90
REMARK H PARENT 9 13 3 18 6 28 12 31 71 58 49 69
REMARK Flexibility Score: inf
ROOT
ATOM      1  C   UNL     1       6.571  -2.310   4.175  1.00  0.00     0.188 C 
ENDROOT
BRANCH   1   2
ATOM      2  C   UNL     1       6.082  -1.377   5.293  1.00  0.00     0.188 C 
BRANCH   2   3
ATOM      3  O   UNL     1       6.255  -1.745   6.651  1.00  0.00    -0.376 OA
BRANCH   3   4
ATOM      4  C   UNL     1       5.941  -3.069   7.059  1.00  0.00     0.202 C 
BRANCH   4   5
ATOM      5  C   UNL     1       4.656  -3.778   6.579  1.00  0.00     0.261 C 
BRANCH   5   6
ATOM      6  O   UNL     1       4.316  -3.639   5.183  1.00  0.00    -0.462 OA
BRANCH   6   7
ATOM      7  C   UNL     1       3.139  -3.021   4.901  1.00  0.00     0.331 C 
ATOM      8  O   UNL     1       2.354  -2.607   5.749  1.00  0.00    -0.250 OA
BRANCH   7   9
ATOM      9  C   UNL     1       2.822  -2.931   3.389  1.00  0.00     0.218 C 
BRANCH   9  10
ATOM     10  N   UNL     1       3.900  -3.159   2.410  1.00  0.00    -0.339 N 
ATOM     11  C   UNL     1       4.474  -2.372   1.459  1.00  0.00     0.244 C 
ATOM     12  O   UNL     1       5.457  -2.848   0.874  1.00  0.00    -0.273 OA
ATOM     13  H   UNL     1       4.282  -4.066   2.452  1.00  0.00     0.164 HD
BRANCH  11  14
ATOM     14  C   UNL     1       4.060  -0.918   1.140  1.00  0.00     0.181 C 
BRANCH  14  15
ATOM     15  N   UNL     1       2.643  -0.771   0.815  1.00  0.00    -0.339 N 
ATOM     16  O   UNL     1       0.818  -0.010  -0.230  1.00  0.00    -0.269 OA
ATOM     17  C   UNL     1       2.043  -0.098  -0.218  1.00  0.00     0.251 C 
ATOM     18  H   UNL     1       2.025  -1.226   1.431  1.00  0.00     0.164 HD
BRANCH  17  19
ATOM     19  C   UNL     1       2.832   0.565  -1.282  1.00  0.00     0.040 A 
ATOM     20  C   UNL     1       3.830  -0.104  -2.003  1.00  0.00     0.017 A 
ATOM     21  C   UNL     1       2.504   1.888  -1.610  1.00  0.00     0.017 A 
ATOM     22  C   UNL     1       4.556   0.577  -2.984  1.00  0.00     0.040 A 
ATOM     23  C   UNL     1       3.214   2.557  -2.609  1.00  0.00     0.040 A 
ATOM     24  C   UNL     1       4.243   1.901  -3.275  1.00  0.00     0.123 A 
ATOM     25  F   UNL     1       4.936   2.549  -4.220  1.00  0.00    -0.207 F 
ENDBRANCH  17  19
ENDBRANCH  14  15
BRANCH  14  26
ATOM     26  C   UNL     1       4.627   0.159   2.083  1.00  0.00     0.101 C 
BRANCH  26  27
ATOM     27  S   UNL     1       3.618   0.614   3.526  1.00  0.00    -0.177 SA
ATOM     28  H   UNL     1       2.455   1.179   3.106  1.00  0.00     0.102 HD
ENDBRANCH  26  27
ENDBRANCH  14  26
ENDBRANCH  11  14
ENDBRANCH   9  10
BRANCH   9  29
ATOM     29  C   UNL     1       1.688  -3.925   3.122  1.00  0.00     0.193 C 
BRANCH  29  30
ATOM     30  O   UNL     1       2.157  -5.273   3.188  1.00  0.00    -0.394 OA
ATOM     31  H   UNL     1       2.840  -5.410   2.514  1.00  0.00     0.210 HD
ENDBRANCH  29  30
ENDBRANCH   9  29
ENDBRANCH   7   9
ENDBRANCH   6   7
ENDBRANCH   5   6
ENDBRANCH   4   5
ENDBRANCH   3   4
ENDBRANCH   2   3
ENDBRANCH   1   2
BRANCH   1  32
ATOM     32  O   UNL     1       6.986  -3.592   4.591  1.00  0.00    -0.377 OA
BRANCH  32  33
ATOM     33  C   UNL     1       8.386  -3.761   4.755  1.00  0.00     0.188 C 
BRANCH  33  34
ATOM     34  C   UNL     1       9.184  -2.561   5.301  1.00  0.00     0.188 C 
BRANCH  34  35
ATOM     35  O   UNL     1       8.993  -1.356   4.567  1.00  0.00    -0.376 OA
BRANCH  35  36
ATOM     36  C   UNL     1       9.930  -1.006   3.558  1.00  0.00     0.202 C 
BRANCH  36  37
ATOM     37  C   UNL     1      10.012  -1.895   2.304  1.00  0.00     0.261 C 
BRANCH  37  38
ATOM     38  O   UNL     1      10.332  -3.279   2.511  1.00  0.00    -0.460 OA
BRANCH  38  39
ATOM     39  C   UNL     1      11.470  -3.579   3.175  1.00  0.00     0.338 C 
ATOM     40  O   UNL     1      12.321  -2.807   3.561  1.00  0.00    -0.246 OA
BRANCH  39  41
ATOM     41  C   UNL     1      11.398  -5.010   3.552  1.00  0.00     0.060 A 
ATOM     42  C   UNL     1      11.476  -5.352   4.909  1.00  0.00     0.016 A 
ATOM     43  C   UNL     1      11.234  -6.002   2.583  1.00  0.00     0.016 A 
ATOM     44  C   UNL     1      11.422  -6.690   5.298  1.00  0.00     0.010 A 
ATOM     45  C   UNL     1      11.209  -7.345   2.971  1.00  0.00     0.010 A 
ATOM     46  C   UNL     1      11.337  -7.696   4.327  1.00  0.00    -0.014 A 
BRANCH  46  47
ATOM     47  C   UNL     1      11.584  -9.104   4.717  1.00  0.00     0.031 A 
ATOM     48  C   UNL     1      12.964  -9.668   4.517  1.00  0.00     0.074 A 
ATOM     49  C   UNL     1      10.620  -9.859   5.272  1.00  0.00     0.049 A 
ATOM     50  N   UNL     1      13.416 -10.870   4.770  1.00  0.00    -0.248 NA
ATOM     51  C   UNL     1      13.970  -8.751   3.957  1.00  0.00     0.031 C 
ATOM     52  C   UNL     1       9.258  -9.416   5.567  1.00  0.00     0.029 A 
ATOM     53  N   UNL     1      10.647 -11.167   5.689  1.00  0.00    -0.354 N 
ATOM     54  C   UNL     1      14.754 -10.854   4.394  1.00  0.00     0.074 A 
ATOM     55  C   UNL     1      15.032  -9.536   3.866  1.00  0.00     0.031 C 
ATOM     56  C   UNL     1       8.577 -10.439   6.113  1.00  0.00     0.029 A 
ATOM     57  C   UNL     1       9.443 -11.615   6.174  1.00  0.00     0.049 A 
ATOM     58  H   UNL     1      11.454 -11.730   5.644  1.00  0.00     0.167 HD
ATOM     59  C   UNL     1      15.672 -11.845   4.484  1.00  0.00     0.031 A 
ATOM     60  C   UNL     1       9.079 -12.841   6.599  1.00  0.00     0.031 A 
ATOM     61  C   UNL     1      15.391 -13.162   4.988  1.00  0.00     0.049 A 
ATOM     62  C   UNL     1      10.096 -13.954   6.604  1.00  0.00     0.074 A 
ATOM     63  C   UNL     1      16.255 -14.234   5.129  1.00  0.00     0.029 A 
ATOM     64  N   UNL     1      14.146 -13.592   5.422  1.00  0.00    -0.354 N 
ATOM     65  N   UNL     1      11.364 -13.920   6.272  1.00  0.00    -0.248 NA
ATOM     66  C   UNL     1       9.628 -15.273   7.054  1.00  0.00     0.031 C 
ATOM     67  C   UNL     1      15.518 -15.332   5.584  1.00  0.00     0.029 A 
ATOM     68  C   UNL     1      14.212 -14.923   5.799  1.00  0.00     0.049 A 
ATOM     69  H   UNL     1      13.336 -13.034   5.457  1.00  0.00     0.167 HD
ATOM     70  C   UNL     1      11.852 -15.201   6.504  1.00  0.00     0.074 A 
ATOM     71  C   UNL     1      10.748 -15.982   7.022  1.00  0.00     0.031 C 
ATOM     72  C   UNL     1      13.103 -15.689   6.308  1.00  0.00     0.031 A 
BRANCH  59  73
ATOM     73  C   UNL     1      17.059 -11.550   3.983  1.00  0.00    -0.014 A 
ATOM     74  C   UNL     1      17.912 -10.663   4.660  1.00  0.00     0.009 A 
ATOM     75  C   UNL     1      17.529 -12.192   2.826  1.00  0.00     0.009 A 
ATOM     76  C   UNL     1      19.193 -10.400   4.169  1.00  0.00     0.001 A 
ATOM     77  C   UNL     1      18.821 -11.952   2.356  1.00  0.00     0.001 A 
ATOM     78  C   UNL     1      19.648 -11.049   3.022  1.00  0.00     0.000 A 
ENDBRANCH  59  73
BRANCH  60  79
ATOM     79  C   UNL     1       7.680 -13.097   7.036  1.00  0.00    -0.014 A 
ATOM     80  C   UNL     1       7.388 -13.406   8.373  1.00  0.00     0.009 A 
ATOM     81  C   UNL     1       6.629 -13.066   6.105  1.00  0.00     0.009 A 
ATOM     82  C   UNL     1       6.081 -13.707   8.763  1.00  0.00     0.001 A 
ATOM     83  C   UNL     1       5.318 -13.334   6.504  1.00  0.00     0.001 A 
ATOM     84  C   UNL     1       5.046 -13.665   7.830  1.00  0.00     0.000 A 
ENDBRANCH  60  79
BRANCH  72  85
ATOM     85  C   UNL     1      13.354 -17.122   6.694  1.00  0.00    -0.014 A 
ATOM     86  C   UNL     1      12.793 -18.188   5.973  1.00  0.00     0.009 A 
ATOM     87  C   UNL     1      14.192 -17.409   7.784  1.00  0.00     0.009 A 
ATOM     88  C   UNL     1      13.030 -19.509   6.363  1.00  0.00     0.001 A 
ATOM     89  C   UNL     1      14.457 -18.730   8.149  1.00  0.00     0.001 A 
ATOM     90  C   UNL     1      13.865 -19.778   7.447  1.00  0.00     0.000 A 
ENDBRANCH  72  85
ENDBRANCH  46  47
ENDBRANCH  39  41
ENDBRANCH  38  39
ENDBRANCH  37  38
ENDBRANCH  36  37
ENDBRANCH  35  36
ENDBRANCH  34  35
ENDBRANCH  33  34
ENDBRANCH  32  33
ENDBRANCH   1  32
TORSDOF 28
