REMARK SMILES O=C(N[C@]1(C(=O)OCCOCCOCCOCCOC(=O)c2ccc(-c3c4nc(c(-c5ccccc5)c5ccc([nH]5)c(-c5ccccc5)c5nc(c(-c6ccccc6)c6ccc3[nH]6)C=C5)C=C4)cc2)CC[C@H](c2ccccc2)CC1)OCC1c2ccccc2-c2ccccc21
REMARK SMILES IDX 12 1 11 2 10 3 9 4 8 5 7 6 5 7 6 8 4 9 70 10 80 11 71 12
REMARK SMILES IDX 79 13 72 14 3 15 1 16 2 17 81 19 82 20 83 21 84 22 95 23
REMARK SMILES IDX 85 24 89 25 90 26 94 27 86 28 88 29 91 30 93 31 87 32 92 33
REMARK SMILES IDX 73 34 74 35 78 36 75 37 77 38 76 39 13 40 14 41 15 42 16 43
REMARK SMILES IDX 17 44 18 45 19 46 20 47 21 48 22 49 23 50 69 51 24 52 68 53
REMARK SMILES IDX 25 54 26 55 27 56 62 57 28 58 67 59 61 60 63 61 29 62 66 63
REMARK SMILES IDX 60 64 59 65 30 67 52 68 37 69 51 70 38 71 41 72 50 73 64 74
REMARK SMILES IDX 39 75 40 76 49 78 65 79 42 80 31 81 32 82 36 83 33 84 35 85
REMARK SMILES IDX 34 86 53 87 54 88 58 89 55 90 57 91 56 92 43 93 44 94 48 95
REMARK SMILES IDX 45 96 47 97 46 98
REMARK H PARENT 3 18 63 66 41 77
REMARK Flexibility Score: inf
ROOT
ATOM      1  C   UNL     1       4.310  -2.231  -3.974  1.00  0.00     0.188 C 
ENDROOT
BRANCH   1   2
ATOM      2  C   UNL     1       3.923  -0.944  -4.714  1.00  0.00     0.188 C 
BRANCH   2   3
ATOM      3  O   UNL     1       4.993  -0.342  -5.403  1.00  0.00    -0.376 OA
BRANCH   3   4
ATOM      4  C   UNL     1       5.688   0.740  -4.824  1.00  0.00     0.202 C 
BRANCH   4   5
ATOM      5  C   UNL     1       6.110   0.799  -3.342  1.00  0.00     0.261 C 
BRANCH   5   6
ATOM      6  O   UNL     1       5.780  -0.279  -2.454  1.00  0.00    -0.461 OA
BRANCH   6   7
ATOM      7  C   UNL     1       4.636  -0.117  -1.736  1.00  0.00     0.332 C 
ATOM      8  O   UNL     1       3.804   0.748  -2.014  1.00  0.00    -0.249 OA
BRANCH   7   9
ATOM      9  C   UNL     1       4.561  -0.997  -0.434  1.00  0.00     0.141 C 
ATOM     10  C   UNL     1       5.799  -0.552   0.351  1.00  0.00     0.041 C 
ATOM     11  C   UNL     1       4.409  -2.540  -0.462  1.00  0.00     0.041 C 
ATOM     12  C   UNL     1       7.008  -1.470   0.241  1.00  0.00     0.011 C 
ATOM     13  C   UNL     1       5.674  -3.393  -0.482  1.00  0.00     0.011 C 
ATOM     14  C   UNL     1       6.708  -2.941   0.545  1.00  0.00     0.019 C 
BRANCH   9  15
ATOM     15  N   UNL     1       3.227  -0.539   0.079  1.00  0.00    -0.305 N 
ATOM     16  O   UNL     1       1.556   0.137   1.415  1.00  0.00    -0.225 OA
ATOM     17  C   UNL     1       2.750  -0.095   1.266  1.00  0.00     0.408 C 
ATOM     18  H   UNL     1       2.530  -0.569  -0.616  1.00  0.00     0.168 HD
BRANCH  17  19
ATOM     19  O   UNL     1       3.677   0.139   2.234  1.00  0.00    -0.449 OA
BRANCH  19  20
ATOM     20  C   UNL     1       4.093   1.492   2.115  1.00  0.00     0.248 C 
BRANCH  20  21
ATOM     21  C   UNL     1       5.309   1.966   2.970  1.00  0.00     0.088 C 
ATOM     22  C   UNL     1       6.686   1.308   2.813  1.00  0.00    -0.029 A 
ATOM     23  C   UNL     1       5.593   3.328   2.314  1.00  0.00    -0.029 A 
ATOM     24  C   UNL     1       7.218   0.197   3.456  1.00  0.00     0.005 A 
ATOM     25  C   UNL     1       7.497   2.065   1.933  1.00  0.00    -0.014 A 
ATOM     26  C   UNL     1       6.771   3.249   1.544  1.00  0.00    -0.014 A 
ATOM     27  C   UNL     1       4.711   4.391   2.200  1.00  0.00     0.005 A 
ATOM     28  C   UNL     1       8.544  -0.175   3.179  1.00  0.00     0.000 A 
ATOM     29  C   UNL     1       8.802   1.687   1.639  1.00  0.00     0.009 A 
ATOM     30  C   UNL     1       7.021   4.185   0.559  1.00  0.00     0.009 A 
ATOM     31  C   UNL     1       4.969   5.337   1.214  1.00  0.00     0.000 A 
ATOM     32  C   UNL     1       9.326   0.558   2.271  1.00  0.00     0.001 A 
ATOM     33  C   UNL     1       6.097   5.219   0.383  1.00  0.00     0.001 A 
ENDBRANCH  20  21
ENDBRANCH  19  20
ENDBRANCH  17  19
ENDBRANCH   9  15
BRANCH  14  34
ATOM     34  C   UNL     1       6.372  -3.353   1.984  1.00  0.00    -0.045 A 
ATOM     35  C   UNL     1       5.447  -2.707   2.817  1.00  0.00     0.004 A 
ATOM     36  C   UNL     1       6.994  -4.491   2.522  1.00  0.00     0.004 A 
ATOM     37  C   UNL     1       5.217  -3.102   4.141  1.00  0.00     0.000 A 
ATOM     38  C   UNL     1       6.745  -4.916   3.835  1.00  0.00     0.000 A 
ATOM     39  C   UNL     1       5.873  -4.207   4.654  1.00  0.00     0.000 A 
ENDBRANCH  14  34
ENDBRANCH   7   9
ENDBRANCH   6   7
ENDBRANCH   5   6
ENDBRANCH   4   5
ENDBRANCH   3   4
ENDBRANCH   2   3
ENDBRANCH   1   2
BRANCH   1  40
ATOM     40  O   UNL     1       5.678  -2.588  -3.815  1.00  0.00    -0.377 OA
BRANCH  40  41
ATOM     41  C   UNL     1       6.554  -2.527  -4.937  1.00  0.00     0.188 C 
BRANCH  41  42
ATOM     42  C   UNL     1       5.988  -2.810  -6.342  1.00  0.00     0.188 C 
BRANCH  42  43
ATOM     43  O   UNL     1       4.664  -3.312  -6.354  1.00  0.00    -0.376 OA
BRANCH  43  44
ATOM     44  C   UNL     1       4.482  -4.720  -6.371  1.00  0.00     0.202 C 
BRANCH  44  45
ATOM     45  C   UNL     1       5.146  -5.570  -5.274  1.00  0.00     0.261 C 
BRANCH  45  46
ATOM     46  O   UNL     1       6.575  -5.474  -5.155  1.00  0.00    -0.460 OA
BRANCH  46  47
ATOM     47  C   UNL     1       7.322  -5.765  -6.237  1.00  0.00     0.338 C 
ATOM     48  O   UNL     1       6.936  -6.144  -7.331  1.00  0.00    -0.246 OA
BRANCH  47  49
ATOM     49  C   UNL     1       8.710  -5.372  -5.934  1.00  0.00     0.060 A 
ATOM     50  C   UNL     1       9.297  -4.318  -6.649  1.00  0.00     0.016 A 
ATOM     51  C   UNL     1       9.429  -6.053  -4.951  1.00  0.00     0.016 A 
ATOM     52  C   UNL     1      10.621  -3.964  -6.404  1.00  0.00     0.010 A 
ATOM     53  C   UNL     1      10.766  -5.717  -4.728  1.00  0.00     0.010 A 
ATOM     54  C   UNL     1      11.375  -4.697  -5.481  1.00  0.00    -0.014 A 
BRANCH  54  55
ATOM     55  C   UNL     1      12.848  -4.553  -5.473  1.00  0.00     0.031 A 
ATOM     56  C   UNL     1      13.657  -5.540  -6.267  1.00  0.00     0.074 A 
ATOM     57  C   UNL     1      13.452  -3.553  -4.809  1.00  0.00     0.049 A 
ATOM     58  N   UNL     1      14.955  -5.651  -6.379  1.00  0.00    -0.248 NA
ATOM     59  C   UNL     1      12.896  -6.538  -7.038  1.00  0.00     0.031 C 
ATOM     60  C   UNL     1      12.773  -2.500  -4.057  1.00  0.00     0.029 A 
ATOM     61  N   UNL     1      14.786  -3.269  -4.661  1.00  0.00    -0.354 N 
ATOM     62  C   UNL     1      15.165  -6.734  -7.225  1.00  0.00     0.074 A 
ATOM     63  C   UNL     1      13.866  -7.265  -7.571  1.00  0.00     0.031 C 
ATOM     64  C   UNL     1      13.698  -1.689  -3.514  1.00  0.00     0.029 A 
ATOM     65  C   UNL     1      15.030  -2.190  -3.849  1.00  0.00     0.049 A 
ATOM     66  H   UNL     1      15.500  -3.790  -5.096  1.00  0.00     0.167 HD
ATOM     67  C   UNL     1      16.336  -7.238  -7.678  1.00  0.00     0.031 A 
ATOM     68  C   UNL     1      16.198  -1.684  -3.406  1.00  0.00     0.031 A 
ATOM     69  C   UNL     1      17.628  -6.722  -7.313  1.00  0.00     0.049 A 
ATOM     70  C   UNL     1      17.491  -2.324  -3.845  1.00  0.00     0.074 A 
ATOM     71  C   UNL     1      18.876  -7.162  -7.714  1.00  0.00     0.029 A 
ATOM     72  N   UNL     1      17.834  -5.657  -6.450  1.00  0.00    -0.354 N 
ATOM     73  N   UNL     1      17.680  -3.338  -4.655  1.00  0.00    -0.248 NA
ATOM     74  C   UNL     1      18.731  -1.743  -3.311  1.00  0.00     0.031 C 
ATOM     75  C   UNL     1      19.840  -6.404  -7.043  1.00  0.00     0.029 A 
ATOM     76  C   UNL     1      19.191  -5.443  -6.283  1.00  0.00     0.049 A 
ATOM     77  H   UNL     1      17.121  -5.130  -6.021  1.00  0.00     0.167 HD
ATOM     78  C   UNL     1      19.058  -3.494  -4.754  1.00  0.00     0.074 A 
ATOM     79  C   UNL     1      19.655  -2.461  -3.933  1.00  0.00     0.031 C 
ATOM     80  C   UNL     1      19.767  -4.409  -5.462  1.00  0.00     0.031 A 
BRANCH  67  81
ATOM     81  C   UNL     1      16.268  -8.437  -8.583  1.00  0.00    -0.014 A 
ATOM     82  C   UNL     1      15.769  -8.340  -9.893  1.00  0.00     0.009 A 
ATOM     83  C   UNL     1      16.728  -9.681  -8.123  1.00  0.00     0.009 A 
ATOM     84  C   UNL     1      15.700  -9.471 -10.709  1.00  0.00     0.001 A 
ATOM     85  C   UNL     1      16.688 -10.803  -8.952  1.00  0.00     0.001 A 
ATOM     86  C   UNL     1      16.165 -10.699 -10.240  1.00  0.00     0.000 A 
ENDBRANCH  67  81
BRANCH  68  87
ATOM     87  C   UNL     1      16.205  -0.529  -2.469  1.00  0.00    -0.014 A 
ATOM     88  C   UNL     1      16.717   0.716  -2.862  1.00  0.00     0.009 A 
ATOM     89  C   UNL     1      15.720  -0.678  -1.158  1.00  0.00     0.009 A 
ATOM     90  C   UNL     1      16.771   1.778  -1.955  1.00  0.00     0.001 A 
ATOM     91  C   UNL     1      15.745   0.395  -0.265  1.00  0.00     0.001 A 
ATOM     92  C   UNL     1      16.281   1.619  -0.660  1.00  0.00     0.000 A 
ENDBRANCH  68  87
BRANCH  80  93
ATOM     93  C   UNL     1      21.268  -4.306  -5.418  1.00  0.00    -0.014 A 
ATOM     94  C   UNL     1      21.994  -4.628  -4.261  1.00  0.00     0.009 A 
ATOM     95  C   UNL     1      21.969  -3.927  -6.575  1.00  0.00     0.009 A 
ATOM     96  C   UNL     1      23.388  -4.534  -4.253  1.00  0.00     0.001 A 
ATOM     97  C   UNL     1      23.363  -3.868  -6.575  1.00  0.00     0.001 A 
ATOM     98  C   UNL     1      24.070  -4.161  -5.411  1.00  0.00     0.000 A 
ENDBRANCH  80  93
ENDBRANCH  54  55
ENDBRANCH  47  49
ENDBRANCH  46  47
ENDBRANCH  45  46
ENDBRANCH  44  45
ENDBRANCH  43  44
ENDBRANCH  42  43
ENDBRANCH  41  42
ENDBRANCH  40  41
ENDBRANCH   1  40
TORSDOF 25
