REMARK SMILES O=C(OCCOCCOCCOCCOC(=O)c1ccc(-c2c3nc(c(-c4ccccc4)c4ccc([nH]4)c(-c4ccccc4)c4nc(c(-c5ccccc5)c5ccc2[nH]5)C=C4)C=C3)cc1)C1=Cc2ccc(Cl)c(Cl)c2O[C@@H]1C(F)(F)F
REMARK SMILES IDX 10 1 9 2 8 3 7 4 6 5 5 6 4 7 3 8 2 9 1 10 66 11 67 12 77 13
REMARK SMILES IDX 68 14 76 15 69 16 75 17 70 18 73 19 71 20 74 21 72 22 78 23
REMARK SMILES IDX 79 24 80 25 81 26 11 27 12 28 13 29 14 30 15 31 16 32 17 33
REMARK SMILES IDX 18 34 19 35 65 36 20 37 64 38 21 39 22 40 23 41 58 42 24 43
REMARK SMILES IDX 63 44 57 45 59 46 25 47 62 48 56 49 55 50 26 52 48 53 33 54
REMARK SMILES IDX 47 55 34 56 37 57 46 58 60 59 35 60 36 61 45 63 61 64 38 65
REMARK SMILES IDX 27 66 28 67 32 68 29 69 31 70 30 71 49 72 50 73 54 74 51 75
REMARK SMILES IDX 53 76 52 77 39 78 40 79 44 80 41 81 43 82 42 83
REMARK H PARENT 59 51 37 62
REMARK Flexibility Score: inf
ROOT
ATOM      1  C   UNL     1       4.407   3.165   1.800  1.00  0.00     0.188 C 
ENDROOT
BRANCH   1   2
ATOM      2  O   UNL     1       3.061   3.461   2.096  1.00  0.00    -0.377 OA
BRANCH   2   3
ATOM      3  C   UNL     1       2.163   2.533   1.527  1.00  0.00     0.188 C 
BRANCH   3   4
ATOM      4  C   UNL     1       2.310   1.093   2.031  1.00  0.00     0.188 C 
BRANCH   4   5
ATOM      5  O   UNL     1       3.557   0.350   1.960  1.00  0.00    -0.376 OA
BRANCH   5   6
ATOM      6  C   UNL     1       4.282  -0.542   0.831  1.00  0.00     0.202 C 
BRANCH   6   7
ATOM      7  C   UNL     1       3.585  -1.139  -1.145  1.00  0.00     0.261 C 
BRANCH   7   8
ATOM      8  O   UNL     1       2.856  -2.457  -1.493  1.00  0.00    -0.460 OA
BRANCH   8   9
ATOM      9  C   UNL     1       3.152  -3.461  -0.660  1.00  0.00     0.338 C 
ATOM     10  O   UNL     1       2.716  -4.580  -0.597  1.00  0.00    -0.246 OA
BRANCH   9  11
ATOM     11  C   UNL     1       3.871  -2.642   0.283  1.00  0.00     0.087 C 
ATOM     12  C   UNL     1       5.239  -2.338  -0.216  1.00  0.00     0.027 C 
ATOM     13  C   UNL     1       2.473  -1.329   0.553  1.00  0.00     0.316 C 
ATOM     14  C   UNL     1       5.748  -0.701  -0.806  1.00  0.00     0.019 A 
ATOM     15  O   UNL     1       2.978   0.398  -0.165  1.00  0.00    -0.474 OA
ATOM     16  C   UNL     1       7.008  -0.532  -1.313  1.00  0.00     0.013 A 
ATOM     17  C   UNL     1       4.642   0.635  -0.882  1.00  0.00     0.148 A 
ATOM     18  C   UNL     1       7.276   0.750  -1.832  1.00  0.00     0.023 A 
ATOM     19  C   UNL     1       4.982   1.839  -1.455  1.00  0.00     0.102 A 
ATOM     20  C   UNL     1       6.331   1.865  -1.902  1.00  0.00     0.063 A 
ATOM     21  Cl  UNL     1       3.893   3.133  -1.679  1.00  0.00    -0.079 Cl
ATOM     22  Cl  UNL     1       6.997   3.317  -2.606  1.00  0.00    -0.083 Cl
BRANCH  13  23
ATOM     23  C   UNL     1       2.014  -1.755   2.034  1.00  0.00     0.430 C 
ATOM     24  F   UNL     1       1.009  -1.049   2.582  1.00  0.00    -0.167 F 
ATOM     25  F   UNL     1       1.525  -3.029   1.939  1.00  0.00    -0.167 F 
ATOM     26  F   UNL     1       3.019  -1.845   2.935  1.00  0.00    -0.167 F 
ENDBRANCH  13  23
ENDBRANCH   9  11
ENDBRANCH   8   9
ENDBRANCH   7   8
ENDBRANCH   6   7
ENDBRANCH   5   6
ENDBRANCH   4   5
ENDBRANCH   3   4
ENDBRANCH   2   3
ENDBRANCH   1   2
BRANCH   1  27
ATOM     27  C   UNL     1       5.313   2.929   3.010  1.00  0.00     0.188 C 
BRANCH  27  28
ATOM     28  O   UNL     1       4.797   2.536   4.271  1.00  0.00    -0.376 OA
BRANCH  28  29
ATOM     29  C   UNL     1       3.600   3.101   4.786  1.00  0.00     0.202 C 
BRANCH  29  30
ATOM     30  C   UNL     1       3.477   4.617   5.010  1.00  0.00     0.261 C 
BRANCH  30  31
ATOM     31  O   UNL     1       3.655   5.423   3.838  1.00  0.00    -0.460 OA
BRANCH  31  32
ATOM     32  C   UNL     1       4.878   5.975   3.686  1.00  0.00     0.338 C 
ATOM     33  O   UNL     1       5.815   5.926   4.465  1.00  0.00    -0.246 OA
BRANCH  32  34
ATOM     34  C   UNL     1       5.002   6.529   2.321  1.00  0.00     0.060 A 
ATOM     35  C   UNL     1       6.155   6.222   1.580  1.00  0.00     0.016 A 
ATOM     36  C   UNL     1       4.022   7.367   1.789  1.00  0.00     0.016 A 
ATOM     37  C   UNL     1       6.353   6.780   0.319  1.00  0.00     0.010 A 
ATOM     38  C   UNL     1       4.239   7.961   0.547  1.00  0.00     0.010 A 
ATOM     39  C   UNL     1       5.425   7.704  -0.168  1.00  0.00    -0.014 A 
BRANCH  39  40
ATOM     40  C   UNL     1       5.805   8.625  -1.261  1.00  0.00     0.031 A 
ATOM     41  C   UNL     1       6.359   9.966  -0.871  1.00  0.00     0.074 A 
ATOM     42  C   UNL     1       5.623   8.310  -2.552  1.00  0.00     0.049 A 
ATOM     43  N   UNL     1       6.598  11.016  -1.611  1.00  0.00    -0.248 NA
ATOM     44  C   UNL     1       6.665  10.148   0.558  1.00  0.00     0.031 C 
ATOM     45  C   UNL     1       5.155   7.022  -3.053  1.00  0.00     0.029 A 
ATOM     46  N   UNL     1       5.783   9.080  -3.676  1.00  0.00    -0.354 N 
ATOM     47  C   UNL     1       7.049  11.993  -0.733  1.00  0.00     0.074 A 
ATOM     48  C   UNL     1       7.034  11.418   0.593  1.00  0.00     0.031 C 
ATOM     49  C   UNL     1       5.024   7.101  -4.388  1.00  0.00     0.029 A 
ATOM     50  C   UNL     1       5.354   8.460  -4.822  1.00  0.00     0.049 A 
ATOM     51  H   UNL     1       6.167   9.986  -3.662  1.00  0.00     0.167 HD
ATOM     52  C   UNL     1       7.428  13.263  -1.005  1.00  0.00     0.031 A 
ATOM     53  C   UNL     1       5.197   8.950  -6.067  1.00  0.00     0.031 A 
ATOM     54  C   UNL     1       7.407  13.836  -2.323  1.00  0.00     0.049 A 
ATOM     55  C   UNL     1       5.547  10.390  -6.343  1.00  0.00     0.074 A 
ATOM     56  C   UNL     1       7.788  15.105  -2.719  1.00  0.00     0.029 A 
ATOM     57  N   UNL     1       6.960  13.176  -3.459  1.00  0.00    -0.354 N 
ATOM     58  N   UNL     1       5.992  11.307  -5.516  1.00  0.00    -0.248 NA
ATOM     59  C   UNL     1       5.378  10.861  -7.725  1.00  0.00     0.031 C 
ATOM     60  C   UNL     1       7.502  15.237  -4.081  1.00  0.00     0.029 A 
ATOM     61  C   UNL     1       7.022  14.023  -4.551  1.00  0.00     0.049 A 
ATOM     62  H   UNL     1       6.646  12.243  -3.484  1.00  0.00     0.167 HD
ATOM     63  C   UNL     1       6.188  12.450  -6.282  1.00  0.00     0.074 A 
ATOM     64  C   UNL     1       5.815  12.111  -7.640  1.00  0.00     0.031 C 
ATOM     65  C   UNL     1       6.647  13.668  -5.897  1.00  0.00     0.031 A 
BRANCH  52  66
ATOM     66  C   UNL     1       7.819  14.126   0.164  1.00  0.00    -0.014 A 
ATOM     67  C   UNL     1       8.972  13.868   0.923  1.00  0.00     0.009 A 
ATOM     68  C   UNL     1       6.999  15.206   0.527  1.00  0.00     0.009 A 
ATOM     69  C   UNL     1       9.262  14.635   2.054  1.00  0.00     0.001 A 
ATOM     70  C   UNL     1       7.311  15.995   1.635  1.00  0.00     0.001 A 
ATOM     71  C   UNL     1       8.432  15.699   2.407  1.00  0.00     0.000 A 
ENDBRANCH  52  66
BRANCH  53  72
ATOM     72  C   UNL     1       4.649   8.073  -7.133  1.00  0.00    -0.014 A 
ATOM     73  C   UNL     1       5.466   7.611  -8.174  1.00  0.00     0.009 A 
ATOM     74  C   UNL     1       3.305   7.664  -7.093  1.00  0.00     0.009 A 
ATOM     75  C   UNL     1       4.948   6.765  -9.158  1.00  0.00     0.001 A 
ATOM     76  C   UNL     1       2.798   6.795  -8.061  1.00  0.00     0.001 A 
ATOM     77  C   UNL     1       3.618   6.350  -9.095  1.00  0.00     0.000 A 
ENDBRANCH  53  72
BRANCH  65  78
ATOM     78  C   UNL     1       6.829  14.716  -6.961  1.00  0.00    -0.014 A 
ATOM     79  C   UNL     1       5.736  15.357  -7.561  1.00  0.00     0.009 A 
ATOM     80  C   UNL     1       8.129  15.125  -7.305  1.00  0.00     0.009 A 
ATOM     81  C   UNL     1       5.941  16.371  -8.501  1.00  0.00     0.001 A 
ATOM     82  C   UNL     1       8.331  16.159  -8.220  1.00  0.00     0.001 A 
ATOM     83  C   UNL     1       7.237  16.776  -8.822  1.00  0.00     0.000 A 
ENDBRANCH  65  78
ENDBRANCH  39  40
ENDBRANCH  32  34
ENDBRANCH  31  32
ENDBRANCH  30  31
ENDBRANCH  29  30
ENDBRANCH  28  29
ENDBRANCH  27  28
ENDBRANCH   1  27
TORSDOF 21
