REMARK SMILES COc1cccc([C@H]2[NH2+][C@@](CC(C)C)(C(=O)OCCOCCOCCOCCOC(=O)c3ccc(-c4c5nc(c(-c6ccccc6)c6ccc([nH]6)c(-c6ccccc6)c6nc(c(-c7ccccc7)c7ccc4[nH]7)C=C6)C=C5)cc3)[C@H]3C(=O)N(C(C)C)C(=O)[C@H]23)c1O
REMARK SMILES IDX 23 1 22 2 21 3 20 4 19 5 18 6 17 7 15 8 16 9 10 10 8 11 9 12
REMARK SMILES IDX 89 13 80 16 87 17 81 18 83 19 88 20 82 21 7 22 3 23 4 24
REMARK SMILES IDX 90 25 5 26 6 27 2 28 1 29 91 30 11 32 12 33 13 34 14 35
REMARK SMILES IDX 84 36 85 37 86 38 24 39 25 40 26 41 27 42 28 43 29 44 30 45
REMARK SMILES IDX 31 46 32 47 33 48 79 49 34 50 78 51 35 52 36 53 37 54 72 55
REMARK SMILES IDX 38 56 77 57 71 58 73 59 39 60 76 61 70 62 69 63 40 65 62 66
REMARK SMILES IDX 47 67 61 68 48 69 51 70 60 71 74 72 49 73 50 74 59 76 75 77
REMARK SMILES IDX 52 78 41 79 42 80 46 81 43 82 45 83 44 84 63 85 64 86 68 87
REMARK SMILES IDX 65 88 67 89 66 90 53 91 54 92 58 93 55 94 57 95 56 96
REMARK H PARENT 9 14 9 15 91 31 73 64 51 75
REMARK Flexibility Score: inf
ROOT
ATOM      1  O   UNL     1      -3.050  -7.150   0.658  1.00  0.00    -0.377 OA
ENDROOT
BRANCH   1   2
ATOM      2  C   UNL     1      -2.595  -6.819   1.949  1.00  0.00     0.188 C 
BRANCH   2   3
ATOM      3  C   UNL     1      -3.065  -7.592   3.181  1.00  0.00     0.188 C 
BRANCH   3   4
ATOM      4  O   UNL     1      -4.463  -7.701   3.295  1.00  0.00    -0.376 OA
BRANCH   4   5
ATOM      5  C   UNL     1      -5.283  -6.727   3.900  1.00  0.00     0.202 C 
BRANCH   5   6
ATOM      6  C   UNL     1      -4.951  -5.240   4.126  1.00  0.00     0.261 C 
BRANCH   6   7
ATOM      7  O   UNL     1      -3.901  -4.621   3.377  1.00  0.00    -0.459 OA
BRANCH   7   8
ATOM      8  C   UNL     1      -2.728  -4.430   4.053  1.00  0.00     0.369 C 
ATOM      9  O   UNL     1      -2.510  -4.913   5.160  1.00  0.00    -0.245 OA
BRANCH   8  10
ATOM     10  C   UNL     1      -1.674  -3.558   3.257  1.00  0.00     0.207 C 
ATOM     11  C   UNL     1      -2.208  -1.261   4.003  1.00  0.00     0.232 C 
ATOM     12  N   UNL     1      -1.302  -2.450   4.231  1.00  0.00    -0.324 N 
ATOM     13  C   UNL     1      -3.103  -1.720   2.877  1.00  0.00     0.161 C 
ATOM     14  H   UNL     1      -1.413  -2.785   5.188  1.00  0.00     0.347 HD
ATOM     15  H   UNL     1      -0.331  -2.174   4.081  1.00  0.00     0.347 HD
ATOM     16  C   UNL     1      -2.184  -2.678   2.154  1.00  0.00     0.171 C 
ATOM     17  C   UNL     1      -3.534  -0.885   1.707  1.00  0.00     0.240 C 
ATOM     18  C   UNL     1      -3.009  -2.977   0.946  1.00  0.00     0.240 C 
ATOM     19  N   UNL     1      -3.638  -1.780   0.651  1.00  0.00    -0.279 N 
ATOM     20  O   UNL     1      -3.773   0.308   1.711  1.00  0.00    -0.274 OA
ATOM     21  O   UNL     1      -2.986  -3.987   0.272  1.00  0.00    -0.274 OA
BRANCH  11  22
ATOM     22  C   UNL     1      -2.801  -0.808   5.327  1.00  0.00     0.056 A 
ATOM     23  C   UNL     1      -4.608  -0.193   6.868  1.00  0.00     0.161 A 
ATOM     24  C   UNL     1      -3.668   0.089   7.861  1.00  0.00     0.050 A 
ATOM     25  C   UNL     1      -4.169  -0.673   5.620  1.00  0.00     0.166 A 
ATOM     26  C   UNL     1      -2.310  -0.073   7.614  1.00  0.00     0.005 A 
ATOM     27  C   UNL     1      -1.885  -0.501   6.358  1.00  0.00     0.014 A 
BRANCH  23  28
ATOM     28  O   UNL     1      -5.907  -0.033   7.274  1.00  0.00    -0.493 OA
ATOM     29  C   UNL     1      -6.875   0.367   6.310  1.00  0.00     0.278 C 
ENDBRANCH  23  28
BRANCH  25  30
ATOM     30  O   UNL     1      -5.089  -1.100   4.705  1.00  0.00    -0.504 OA
ATOM     31  H   UNL     1      -6.005  -1.017   4.886  1.00  0.00     0.293 HD
ENDBRANCH  25  30
ENDBRANCH  11  22
BRANCH  10  32
ATOM     32  C   UNL     1      -0.399  -4.420   2.945  1.00  0.00     0.085 C 
BRANCH  32  33
ATOM     33  C   UNL     1       0.026  -4.704   1.473  1.00  0.00    -0.011 C 
ATOM     34  C   UNL     1       0.711  -3.529   0.770  1.00  0.00     0.007 C 
ATOM     35  C   UNL     1       1.007  -5.892   1.424  1.00  0.00     0.007 C 
ENDBRANCH  32  33
ENDBRANCH  10  32
BRANCH  19  36
ATOM     36  C   UNL     1      -4.208  -1.504  -0.665  1.00  0.00     0.087 C 
ATOM     37  C   UNL     1      -5.691  -1.157  -0.574  1.00  0.00     0.031 C 
ATOM     38  C   UNL     1      -3.417  -0.426  -1.405  1.00  0.00     0.031 C 
ENDBRANCH  19  36
ENDBRANCH   8  10
ENDBRANCH   7   8
ENDBRANCH   6   7
ENDBRANCH   5   6
ENDBRANCH   4   5
ENDBRANCH   3   4
ENDBRANCH   2   3
ENDBRANCH   1   2
BRANCH   1  39
ATOM     39  C   UNL     1      -4.412  -7.468   0.513  1.00  0.00     0.188 C 
BRANCH  39  40
ATOM     40  C   UNL     1      -4.665  -8.983   0.581  1.00  0.00     0.188 C 
BRANCH  40  41
ATOM     41  O   UNL     1      -3.648  -9.950   0.311  1.00  0.00    -0.376 OA
BRANCH  41  42
ATOM     42  C   UNL     1      -2.351  -9.574  -0.121  1.00  0.00     0.202 C 
BRANCH  42  43
ATOM     43  C   UNL     1      -2.188  -9.036  -1.553  1.00  0.00     0.261 C 
BRANCH  43  44
ATOM     44  O   UNL     1      -3.248  -8.215  -2.055  1.00  0.00    -0.460 OA
BRANCH  44  45
ATOM     45  C   UNL     1      -4.281  -8.872  -2.627  1.00  0.00     0.338 C 
ATOM     46  O   UNL     1      -4.411 -10.074  -2.787  1.00  0.00    -0.246 OA
BRANCH  45  47
ATOM     47  C   UNL     1      -5.330  -7.889  -2.960  1.00  0.00     0.060 A 
ATOM     48  C   UNL     1      -6.611  -8.050  -2.413  1.00  0.00     0.016 A 
ATOM     49  C   UNL     1      -5.059  -6.833  -3.832  1.00  0.00     0.016 A 
ATOM     50  C   UNL     1      -7.632  -7.164  -2.745  1.00  0.00     0.010 A 
ATOM     51  C   UNL     1      -6.092  -5.971  -4.200  1.00  0.00     0.010 A 
ATOM     52  C   UNL     1      -7.387  -6.154  -3.681  1.00  0.00    -0.014 A 
BRANCH  52  53
ATOM     53  C   UNL     1      -8.520  -5.447  -4.314  1.00  0.00     0.031 A 
ATOM     54  C   UNL     1      -9.045  -5.996  -5.611  1.00  0.00     0.074 A 
ATOM     55  C   UNL     1      -9.048  -4.337  -3.771  1.00  0.00     0.049 A 
ATOM     56  N   UNL     1      -9.913  -5.480  -6.440  1.00  0.00    -0.248 NA
ATOM     57  C   UNL     1      -8.507  -7.302  -6.033  1.00  0.00     0.031 C 
ATOM     58  C   UNL     1      -8.665  -3.754  -2.487  1.00  0.00     0.029 A 
ATOM     59  N   UNL     1     -10.011  -3.489  -4.256  1.00  0.00    -0.354 N 
ATOM     60  C   UNL     1     -10.002  -6.383  -7.492  1.00  0.00     0.074 A 
ATOM     61  C   UNL     1      -9.100  -7.473  -7.204  1.00  0.00     0.031 C 
ATOM     62  C   UNL     1      -9.366  -2.621  -2.300  1.00  0.00     0.029 A 
ATOM     63  C   UNL     1     -10.207  -2.380  -3.471  1.00  0.00     0.049 A 
ATOM     64  H   UNL     1     -10.512  -3.659  -5.086  1.00  0.00     0.167 HD
ATOM     65  C   UNL     1     -10.764  -6.301  -8.607  1.00  0.00     0.031 A 
ATOM     66  C   UNL     1     -10.948  -1.278  -3.701  1.00  0.00     0.031 A 
ATOM     67  C   UNL     1     -11.647  -5.205  -8.891  1.00  0.00     0.049 A 
ATOM     68  C   UNL     1     -11.725  -1.171  -4.990  1.00  0.00     0.074 A 
ATOM     69  C   UNL     1     -12.474  -5.028  -9.986  1.00  0.00     0.029 A 
ATOM     70  N   UNL     1     -11.809  -4.096  -8.076  1.00  0.00    -0.354 N 
ATOM     71  N   UNL     1     -11.819  -2.035  -5.973  1.00  0.00    -0.248 NA
ATOM     72  C   UNL     1     -12.498   0.062  -5.202  1.00  0.00     0.031 C 
ATOM     73  C   UNL     1     -13.091  -3.781  -9.863  1.00  0.00     0.029 A 
ATOM     74  C   UNL     1     -12.702  -3.216  -8.658  1.00  0.00     0.049 A 
ATOM     75  H   UNL     1     -11.357  -3.956  -7.213  1.00  0.00     0.167 HD
ATOM     76  C   UNL     1     -12.688  -1.466  -6.898  1.00  0.00     0.074 A 
ATOM     77  C   UNL     1     -13.097  -0.188  -6.357  1.00  0.00     0.031 C 
ATOM     78  C   UNL     1     -13.111  -1.958  -8.088  1.00  0.00     0.031 A 
BRANCH  65  79
ATOM     79  C   UNL     1     -10.633  -7.397  -9.624  1.00  0.00    -0.014 A 
ATOM     80  C   UNL     1     -11.144  -8.683  -9.388  1.00  0.00     0.009 A 
ATOM     81  C   UNL     1     -10.021  -7.124 -10.858  1.00  0.00     0.009 A 
ATOM     82  C   UNL     1     -11.023  -9.679 -10.360  1.00  0.00     0.001 A 
ATOM     83  C   UNL     1      -9.928  -8.112 -11.838  1.00  0.00     0.001 A 
ATOM     84  C   UNL     1     -10.422  -9.391 -11.586  1.00  0.00     0.000 A 
ENDBRANCH  65  79
BRANCH  66  85
ATOM     85  C   UNL     1     -10.954  -0.158  -2.721  1.00  0.00    -0.014 A 
ATOM     86  C   UNL     1     -12.121   0.175  -2.017  1.00  0.00     0.009 A 
ATOM     87  C   UNL     1      -9.798   0.611  -2.513  1.00  0.00     0.009 A 
ATOM     88  C   UNL     1     -12.139   1.273  -1.153  1.00  0.00     0.001 A 
ATOM     89  C   UNL     1      -9.809   1.688  -1.624  1.00  0.00     0.001 A 
ATOM     90  C   UNL     1     -10.983   2.026  -0.955  1.00  0.00     0.000 A 
ENDBRANCH  66  85
BRANCH  78  91
ATOM     91  C   UNL     1     -14.115  -1.151  -8.863  1.00  0.00    -0.014 A 
ATOM     92  C   UNL     1     -13.748   0.019  -9.542  1.00  0.00     0.009 A 
ATOM     93  C   UNL     1     -15.431  -1.629  -8.986  1.00  0.00     0.009 A 
ATOM     94  C   UNL     1     -14.687   0.707 -10.315  1.00  0.00     0.001 A 
ATOM     95  C   UNL     1     -16.357  -0.957  -9.783  1.00  0.00     0.001 A 
ATOM     96  C   UNL     1     -15.986   0.214 -10.442  1.00  0.00     0.000 A 
ENDBRANCH  78  91
ENDBRANCH  52  53
ENDBRANCH  45  47
ENDBRANCH  44  45
ENDBRANCH  43  44
ENDBRANCH  42  43
ENDBRANCH  41  42
ENDBRANCH  40  41
ENDBRANCH  39  40
ENDBRANCH   1  39
TORSDOF 26
