REMARK SMILES Cc1ccnc(C(=O)c2[nH]c3ccc(F)cc3c2CC(=O)OCCOCCOCCOCCOC(=O)c2ccc(-c3c4nc(c(-c5ccccc5)c5ccc([nH]5)c(-c5ccccc5)c5nc(c(-c6ccccc6)c6ccc3[nH]6)C=C5)C=C4)cc2)c1
REMARK SMILES IDX 27 1 26 2 25 3 24 4 23 5 22 6 20 7 21 8 19 9 18 10 9 11
REMARK SMILES IDX 10 12 11 13 17 15 12 16 16 17 13 18 14 19 15 20 7 21 8 22
REMARK SMILES IDX 6 23 1 24 2 25 3 26 85 27 4 28 5 29 28 30 29 31 30 32 31 33
REMARK SMILES IDX 32 34 33 35 34 36 35 37 36 38 37 39 38 40 84 41 39 42 83 43
REMARK SMILES IDX 40 44 41 45 42 46 77 47 43 48 82 49 76 50 78 51 44 52 81 53
REMARK SMILES IDX 75 54 74 55 45 57 67 58 52 59 66 60 53 61 56 62 65 63 79 64
REMARK SMILES IDX 54 65 55 66 64 68 80 69 57 70 46 71 47 72 51 73 48 74 50 75
REMARK SMILES IDX 49 76 68 77 69 78 73 79 70 80 72 81 71 82 58 83 59 84 63 85
REMARK SMILES IDX 60 86 62 87 61 88
REMARK H PARENT 10 14 78 56 56 67
REMARK Flexibility Score: inf
ROOT
ATOM      1  C   UNL     1      -1.624  -2.037  -0.114  1.00  0.00     0.188 C 
ENDROOT
BRANCH   1   2
ATOM      2  C   UNL     1      -1.420  -1.140  -1.349  1.00  0.00     0.188 C 
BRANCH   2   3
ATOM      3  O   UNL     1      -2.543  -0.338  -1.616  1.00  0.00    -0.376 OA
BRANCH   3   4
ATOM      4  C   UNL     1      -3.196  -0.763  -2.801  1.00  0.00     0.202 C 
BRANCH   4   5
ATOM      5  C   UNL     1      -3.616  -2.249  -2.724  1.00  0.00     0.261 C 
BRANCH   5   6
ATOM      6  O   UNL     1      -2.493  -3.196  -2.575  1.00  0.00    -0.463 OA
BRANCH   6   7
ATOM      7  C   UNL     1      -1.626  -3.344  -3.611  1.00  0.00     0.310 C 
ATOM      8  O   UNL     1      -1.978  -3.154  -4.773  1.00  0.00    -0.252 OA
BRANCH   7   9
ATOM      9  C   UNL     1      -0.134  -3.616  -3.243  1.00  0.00     0.161 C 
BRANCH   9  10
ATOM     10  C   UNL     1       0.368  -3.804  -1.791  1.00  0.00     0.000 A 
ATOM     11  C   UNL     1       1.315  -3.091  -0.963  1.00  0.00     0.093 A 
ATOM     12  N   UNL     1       1.630  -4.025   0.034  1.00  0.00    -0.352 N 
ATOM     13  C   UNL     1       0.797  -5.115   0.056  1.00  0.00     0.046 A 
ATOM     14  H   UNL     1       2.380  -3.909   0.661  1.00  0.00     0.167 HD
ATOM     15  C   UNL     1      -0.009  -5.018  -1.069  1.00  0.00     0.007 A 
ATOM     16  C   UNL     1       0.741  -6.202   0.950  1.00  0.00     0.030 A 
ATOM     17  C   UNL     1      -0.922  -6.074  -1.319  1.00  0.00     0.049 A 
ATOM     18  C   UNL     1      -0.191  -7.214   0.697  1.00  0.00     0.041 A 
ATOM     19  C   UNL     1      -1.005  -7.143  -0.422  1.00  0.00     0.123 A 
ATOM     20  F   UNL     1      -1.887  -8.127  -0.654  1.00  0.00    -0.207 F 
BRANCH  11  21
ATOM     21  C   UNL     1       2.222  -1.868  -1.002  1.00  0.00     0.227 C 
ATOM     22  O   UNL     1       3.430  -2.098  -1.122  1.00  0.00    -0.285 OA
BRANCH  21  23
ATOM     23  C   UNL     1       1.888  -0.369  -0.646  1.00  0.00     0.113 A 
ATOM     24  C   UNL     1      -0.974   1.854   0.638  1.00  0.00     0.044 C 
ATOM     25  C   UNL     1       0.399   1.434   0.164  1.00  0.00    -0.047 A 
ATOM     26  C   UNL     1       1.317   2.370  -0.252  1.00  0.00     0.023 A 
ATOM     27  C   UNL     1       0.796   0.078   0.083  1.00  0.00     0.036 A 
ATOM     28  C   UNL     1       2.499   1.888  -0.794  1.00  0.00     0.112 A 
ATOM     29  N   UNL     1       2.783   0.569  -1.046  1.00  0.00    -0.253 NA
ENDBRANCH  21  23
ENDBRANCH  11  21
ENDBRANCH   9  10
ENDBRANCH   7   9
ENDBRANCH   6   7
ENDBRANCH   5   6
ENDBRANCH   4   5
ENDBRANCH   3   4
ENDBRANCH   2   3
ENDBRANCH   1   2
BRANCH   1  30
ATOM     30  O   UNL     1      -2.005  -1.274   1.022  1.00  0.00    -0.377 OA
BRANCH  30  31
ATOM     31  C   UNL     1      -1.568  -1.861   2.241  1.00  0.00     0.188 C 
BRANCH  31  32
ATOM     32  C   UNL     1      -0.667  -0.896   3.010  1.00  0.00     0.188 C 
BRANCH  32  33
ATOM     33  O   UNL     1       0.695  -0.680   2.652  1.00  0.00    -0.376 OA
BRANCH  33  34
ATOM     34  C   UNL     1       1.637  -1.738   2.766  1.00  0.00     0.202 C 
BRANCH  34  35
ATOM     35  C   UNL     1       2.333  -1.828   4.126  1.00  0.00     0.261 C 
BRANCH  35  36
ATOM     36  O   UNL     1       1.371  -2.108   5.145  1.00  0.00    -0.460 OA
BRANCH  36  37
ATOM     37  C   UNL     1       0.960  -1.018   5.859  1.00  0.00     0.338 C 
ATOM     38  O   UNL     1       1.500   0.050   5.953  1.00  0.00    -0.246 OA
BRANCH  37  39
ATOM     39  C   UNL     1      -0.455  -1.284   6.245  1.00  0.00     0.060 A 
ATOM     40  C   UNL     1      -1.372  -0.229   6.073  1.00  0.00     0.016 A 
ATOM     41  C   UNL     1      -0.905  -2.583   6.504  1.00  0.00     0.016 A 
ATOM     42  C   UNL     1      -2.738  -0.468   6.194  1.00  0.00     0.010 A 
ATOM     43  C   UNL     1      -2.267  -2.817   6.660  1.00  0.00     0.010 A 
ATOM     44  C   UNL     1      -3.174  -1.747   6.558  1.00  0.00    -0.014 A 
BRANCH  44  45
ATOM     45  C   UNL     1      -4.476  -1.881   7.239  1.00  0.00     0.031 A 
ATOM     46  C   UNL     1      -4.448  -1.702   8.732  1.00  0.00     0.074 A 
ATOM     47  C   UNL     1      -5.611  -2.165   6.584  1.00  0.00     0.049 A 
ATOM     48  N   UNL     1      -5.402  -1.856   9.609  1.00  0.00    -0.248 NA
ATOM     49  C   UNL     1      -3.150  -1.312   9.317  1.00  0.00     0.031 C 
ATOM     50  C   UNL     1      -5.753  -2.309   5.137  1.00  0.00     0.029 A 
ATOM     51  N   UNL     1      -6.869  -2.396   7.076  1.00  0.00    -0.354 N 
ATOM     52  C   UNL     1      -4.813  -1.594  10.840  1.00  0.00     0.074 A 
ATOM     53  C   UNL     1      -3.419  -1.310  10.608  1.00  0.00     0.031 C 
ATOM     54  C   UNL     1      -7.033  -2.622   4.858  1.00  0.00     0.029 A 
ATOM     55  C   UNL     1      -7.782  -2.732   6.109  1.00  0.00     0.049 A 
ATOM     56  H   UNL     1      -7.096  -2.327   8.031  1.00  0.00     0.167 HD
ATOM     57  C   UNL     1      -5.386  -1.589  12.063  1.00  0.00     0.031 A 
ATOM     58  C   UNL     1      -9.069  -3.109   6.238  1.00  0.00     0.031 A 
ATOM     59  C   UNL     1      -6.765  -1.906  12.284  1.00  0.00     0.049 A 
ATOM     60  C   UNL     1      -9.670  -3.177   7.620  1.00  0.00     0.074 A 
ATOM     61  C   UNL     1      -7.464  -1.933  13.475  1.00  0.00     0.029 A 
ATOM     62  N   UNL     1      -7.653  -2.266  11.281  1.00  0.00    -0.354 N 
ATOM     63  N   UNL     1      -9.117  -2.903   8.780  1.00  0.00    -0.248 NA
ATOM     64  C   UNL     1     -11.074  -3.598   7.710  1.00  0.00     0.031 C 
ATOM     65  C   UNL     1      -8.762  -2.373  13.199  1.00  0.00     0.029 A 
ATOM     66  C   UNL     1      -8.890  -2.547  11.829  1.00  0.00     0.049 A 
ATOM     67  H   UNL     1      -7.434  -2.314  10.322  1.00  0.00     0.167 HD
ATOM     68  C   UNL     1     -10.114  -3.088   9.731  1.00  0.00     0.074 A 
ATOM     69  C   UNL     1     -11.307  -3.484   9.010  1.00  0.00     0.031 C 
ATOM     70  C   UNL     1     -10.055  -2.940  11.079  1.00  0.00     0.031 A 
BRANCH  57  71
ATOM     71  C   UNL     1      -4.494  -1.286  13.233  1.00  0.00    -0.014 A 
ATOM     72  C   UNL     1      -3.939  -0.010  13.424  1.00  0.00     0.009 A 
ATOM     73  C   UNL     1      -4.184  -2.304  14.147  1.00  0.00     0.009 A 
ATOM     74  C   UNL     1      -3.060   0.229  14.482  1.00  0.00     0.001 A 
ATOM     75  C   UNL     1      -3.333  -2.054  15.225  1.00  0.00     0.001 A 
ATOM     76  C   UNL     1      -2.763  -0.792  15.385  1.00  0.00     0.000 A 
ENDBRANCH  57  71
BRANCH  58  77
ATOM     77  C   UNL     1      -9.870  -3.466   5.037  1.00  0.00    -0.014 A 
ATOM     78  C   UNL     1     -10.940  -2.658   4.622  1.00  0.00     0.009 A 
ATOM     79  C   UNL     1      -9.576  -4.626   4.302  1.00  0.00     0.009 A 
ATOM     80  C   UNL     1     -11.712  -3.016   3.513  1.00  0.00     0.001 A 
ATOM     81  C   UNL     1     -10.331  -4.966   3.176  1.00  0.00     0.001 A 
ATOM     82  C   UNL     1     -11.403  -4.165   2.788  1.00  0.00     0.000 A 
ENDBRANCH  58  77
BRANCH  70  83
ATOM     83  C   UNL     1     -11.325  -3.164  11.852  1.00  0.00    -0.014 A 
ATOM     84  C   UNL     1     -11.866  -4.448  12.019  1.00  0.00     0.009 A 
ATOM     85  C   UNL     1     -11.953  -2.073  12.474  1.00  0.00     0.009 A 
ATOM     86  C   UNL     1     -13.034  -4.627  12.762  1.00  0.00     0.001 A 
ATOM     87  C   UNL     1     -13.100  -2.260  13.245  1.00  0.00     0.001 A 
ATOM     88  C   UNL     1     -13.645  -3.536  13.379  1.00  0.00     0.000 A 
ENDBRANCH  70  83
ENDBRANCH  44  45
ENDBRANCH  37  39
ENDBRANCH  36  37
ENDBRANCH  35  36
ENDBRANCH  34  35
ENDBRANCH  33  34
ENDBRANCH  32  33
ENDBRANCH  31  32
ENDBRANCH  30  31
ENDBRANCH   1  30
TORSDOF 23
