REMARK SMILES CC(C)CN(C)c1cc2c(cc1Cl)C=C(C(=O)OCCOCCOCCOCCOC(=O)c1ccc(-c3c4nc(c(-c5ccccc5)c5ccc([nH]5)c(-c5ccccc5)c5nc(c(-c6ccccc6)c6ccc3[nH]6)C=C5)C=C4)cc1)[C@H](C(F)(F)F)O2
REMARK SMILES IDX 23 1 22 2 21 3 20 4 19 5 18 6 16 7 17 8 15 9 7 10 8 11 12 12
REMARK SMILES IDX 9 13 11 14 13 15 10 16 86 17 14 18 81 19 5 20 6 21 4 22 2 23
REMARK SMILES IDX 1 24 3 25 82 26 83 27 84 28 85 29 24 30 25 31 26 32 27 33
REMARK SMILES IDX 28 34 29 35 30 36 31 37 32 38 33 39 34 40 80 41 35 42 79 43
REMARK SMILES IDX 36 44 37 45 38 46 73 47 39 48 78 49 72 50 74 51 40 52 77 53
REMARK SMILES IDX 71 54 70 55 41 57 63 58 48 59 62 60 49 61 52 62 61 63 75 64
REMARK SMILES IDX 50 65 51 66 60 68 76 69 53 70 42 71 43 72 47 73 44 74 46 75
REMARK SMILES IDX 45 76 64 77 65 78 69 79 66 80 68 81 67 82 54 83 55 84 59 85
REMARK SMILES IDX 56 86 58 87 57 88
REMARK H PARENT 74 56 52 67
REMARK Flexibility Score: inf
ROOT
ATOM      1  C   UNL     1      -0.243   6.620   3.660  1.00  0.00     0.188 C 
ENDROOT
BRANCH   1   2
ATOM      2  C   UNL     1       0.546   7.763   3.009  1.00  0.00     0.188 C 
BRANCH   2   3
ATOM      3  O   UNL     1       0.319   9.063   3.516  1.00  0.00    -0.376 OA
BRANCH   3   4
ATOM      4  C   UNL     1      -0.713   9.881   2.974  1.00  0.00     0.202 C 
BRANCH   4   5
ATOM      5  C   UNL     1      -1.409   9.580   1.634  1.00  0.00     0.261 C 
BRANCH   5   6
ATOM      6  O   UNL     1      -1.854   8.223   1.478  1.00  0.00    -0.460 OA
BRANCH   6   7
ATOM      7  C   UNL     1      -1.499   7.634   0.316  1.00  0.00     0.338 C 
ATOM      8  O   UNL     1      -0.929   8.181  -0.619  1.00  0.00    -0.246 OA
BRANCH   7   9
ATOM      9  C   UNL     1      -1.727   6.177   0.327  1.00  0.00     0.087 C 
ATOM     10  C   UNL     1      -1.029   1.440  -1.305  1.00  0.00     0.059 A 
ATOM     11  C   UNL     1      -2.146   2.194  -0.885  1.00  0.00     0.074 A 
ATOM     12  C   UNL     1       0.218   2.101  -1.304  1.00  0.00     0.065 A 
ATOM     13  C   UNL     1      -2.018   3.522  -0.451  1.00  0.00     0.130 A 
ATOM     14  C   UNL     1       0.361   3.381  -0.761  1.00  0.00     0.034 A 
ATOM     15  Cl  UNL     1       1.624   1.441  -2.071  1.00  0.00    -0.082 Cl
ATOM     16  C   UNL     1      -0.757   4.092  -0.331  1.00  0.00     0.019 A 
ATOM     17  O   UNL     1      -3.177   4.207  -0.209  1.00  0.00    -0.475 OA
ATOM     18  C   UNL     1      -0.612   5.466   0.107  1.00  0.00     0.027 C 
ATOM     19  C   UNL     1      -3.115   5.613   0.202  1.00  0.00     0.316 C 
BRANCH  10  20
ATOM     20  N   UNL     1      -1.172   0.110  -1.726  1.00  0.00    -0.373 N 
ATOM     21  C   UNL     1      -2.163  -0.127  -2.774  1.00  0.00     0.143 C 
BRANCH  20  22
ATOM     22  C   UNL     1      -0.995  -0.963  -0.720  1.00  0.00     0.119 C 
BRANCH  22  23
ATOM     23  C   UNL     1       0.486  -1.326  -0.474  1.00  0.00     0.002 C 
ATOM     24  C   UNL     1       1.073  -0.573   0.725  1.00  0.00     0.009 C 
ATOM     25  C   UNL     1       0.674  -2.828  -0.234  1.00  0.00     0.009 C 
ENDBRANCH  22  23
ENDBRANCH  20  22
ENDBRANCH  10  20
BRANCH  19  26
ATOM     26  C   UNL     1      -4.020   5.747   1.438  1.00  0.00     0.430 C 
ATOM     27  F   UNL     1      -3.682   4.886   2.423  1.00  0.00    -0.167 F 
ATOM     28  F   UNL     1      -4.044   6.994   1.954  1.00  0.00    -0.167 F 
ATOM     29  F   UNL     1      -5.307   5.467   1.093  1.00  0.00    -0.167 F 
ENDBRANCH  19  26
ENDBRANCH   7   9
ENDBRANCH   6   7
ENDBRANCH   5   6
ENDBRANCH   4   5
ENDBRANCH   3   4
ENDBRANCH   2   3
ENDBRANCH   1   2
BRANCH   1  30
ATOM     30  O   UNL     1      -1.648   6.775   3.775  1.00  0.00    -0.377 OA
BRANCH  30  31
ATOM     31  C   UNL     1      -2.176   7.528   4.867  1.00  0.00     0.188 C 
BRANCH  31  32
ATOM     32  C   UNL     1      -1.283   7.840   6.079  1.00  0.00     0.188 C 
BRANCH  32  33
ATOM     33  O   UNL     1      -0.611   6.761   6.728  1.00  0.00    -0.376 OA
BRANCH  33  34
ATOM     34  C   UNL     1      -1.235   5.481   6.754  1.00  0.00     0.202 C 
BRANCH  34  35
ATOM     35  C   UNL     1      -2.228   5.291   7.893  1.00  0.00     0.261 C 
BRANCH  35  36
ATOM     36  O   UNL     1      -3.432   6.029   7.643  1.00  0.00    -0.460 OA
BRANCH  36  37
ATOM     37  C   UNL     1      -3.575   7.178   8.340  1.00  0.00     0.338 C 
ATOM     38  O   UNL     1      -2.829   7.632   9.193  1.00  0.00    -0.246 OA
BRANCH  37  39
ATOM     39  C   UNL     1      -4.733   7.912   7.798  1.00  0.00     0.060 A 
ATOM     40  C   UNL     1      -5.921   7.245   7.492  1.00  0.00     0.016 A 
ATOM     41  C   UNL     1      -4.629   9.299   7.631  1.00  0.00     0.016 A 
ATOM     42  C   UNL     1      -7.024   7.977   7.058  1.00  0.00     0.010 A 
ATOM     43  C   UNL     1      -5.736  10.032   7.204  1.00  0.00     0.010 A 
ATOM     44  C   UNL     1      -6.949   9.377   6.948  1.00  0.00    -0.014 A 
BRANCH  44  45
ATOM     45  C   UNL     1      -8.193  10.156   6.755  1.00  0.00     0.031 A 
ATOM     46  C   UNL     1      -8.529  10.796   5.446  1.00  0.00     0.074 A 
ATOM     47  C   UNL     1      -9.026  10.267   7.807  1.00  0.00     0.049 A 
ATOM     48  N   UNL     1      -9.627  11.420   5.105  1.00  0.00    -0.248 NA
ATOM     49  C   UNL     1      -7.513  10.735   4.385  1.00  0.00     0.031 C 
ATOM     50  C   UNL     1      -8.773   9.702   9.135  1.00  0.00     0.029 A 
ATOM     51  N   UNL     1     -10.252  10.868   7.929  1.00  0.00    -0.354 N 
ATOM     52  C   UNL     1      -9.448  11.809   3.786  1.00  0.00     0.074 A 
ATOM     53  C   UNL     1      -8.116  11.393   3.401  1.00  0.00     0.031 C 
ATOM     54  C   UNL     1      -9.829   9.944   9.923  1.00  0.00     0.029 A 
ATOM     55  C   UNL     1     -10.815  10.716   9.174  1.00  0.00     0.049 A 
ATOM     56  H   UNL     1     -10.688  11.360   7.196  1.00  0.00     0.167 HD
ATOM     57  C   UNL     1     -10.330  12.438   2.974  1.00  0.00     0.031 A 
ATOM     58  C   UNL     1     -11.995  11.144   9.661  1.00  0.00     0.031 A 
ATOM     59  C   UNL     1     -11.646  12.859   3.384  1.00  0.00     0.049 A 
ATOM     60  C   UNL     1     -12.934  11.880   8.747  1.00  0.00     0.074 A 
ATOM     61  C   UNL     1     -12.624  13.470   2.617  1.00  0.00     0.029 A 
ATOM     62  N   UNL     1     -12.166  12.728   4.663  1.00  0.00    -0.354 N 
ATOM     63  N   UNL     1     -12.787  12.163   7.475  1.00  0.00    -0.248 NA
ATOM     64  C   UNL     1     -14.205  12.339   9.323  1.00  0.00     0.031 C 
ATOM     65  C   UNL     1     -13.699  13.782   3.450  1.00  0.00     0.029 A 
ATOM     66  C   UNL     1     -13.434  13.283   4.715  1.00  0.00     0.049 A 
ATOM     67  H   UNL     1     -11.702  12.303   5.421  1.00  0.00     0.167 HD
ATOM     68  C   UNL     1     -13.953  12.812   7.093  1.00  0.00     0.074 A 
ATOM     69  C   UNL     1     -14.808  12.859   8.261  1.00  0.00     0.031 C 
ATOM     70  C   UNL     1     -14.280  13.325   5.882  1.00  0.00     0.031 A 
BRANCH  57  71
ATOM     71  C   UNL     1      -9.930  12.709   1.549  1.00  0.00    -0.014 A 
ATOM     72  C   UNL     1      -9.807  14.033   1.096  1.00  0.00     0.009 A 
ATOM     73  C   UNL     1      -9.828  11.662   0.619  1.00  0.00     0.009 A 
ATOM     74  C   UNL     1      -9.623  14.305  -0.261  1.00  0.00     0.001 A 
ATOM     75  C   UNL     1      -9.613  11.936  -0.734  1.00  0.00     0.001 A 
ATOM     76  C   UNL     1      -9.526  13.256  -1.175  1.00  0.00     0.000 A 
ENDBRANCH  57  71
BRANCH  58  77
ATOM     77  C   UNL     1     -12.352  10.849  11.075  1.00  0.00    -0.014 A 
ATOM     78  C   UNL     1     -11.606  11.403  12.130  1.00  0.00     0.009 A 
ATOM     79  C   UNL     1     -13.401   9.970  11.383  1.00  0.00     0.009 A 
ATOM     80  C   UNL     1     -11.883  11.062  13.455  1.00  0.00     0.001 A 
ATOM     81  C   UNL     1     -13.701   9.660  12.712  1.00  0.00     0.001 A 
ATOM     82  C   UNL     1     -12.934  10.196  13.746  1.00  0.00     0.000 A 
ENDBRANCH  58  77
BRANCH  70  83
ATOM     83  C   UNL     1     -15.627  13.981   5.730  1.00  0.00    -0.014 A 
ATOM     84  C   UNL     1     -16.583  13.418   4.868  1.00  0.00     0.009 A 
ATOM     85  C   UNL     1     -15.905  15.216   6.335  1.00  0.00     0.009 A 
ATOM     86  C   UNL     1     -17.775  14.090   4.592  1.00  0.00     0.001 A 
ATOM     87  C   UNL     1     -17.115  15.868   6.087  1.00  0.00     0.001 A 
ATOM     88  C   UNL     1     -18.041  15.312   5.205  1.00  0.00     0.000 A 
ENDBRANCH  70  83
ENDBRANCH  44  45
ENDBRANCH  37  39
ENDBRANCH  36  37
ENDBRANCH  35  36
ENDBRANCH  34  35
ENDBRANCH  33  34
ENDBRANCH  32  33
ENDBRANCH  31  32
ENDBRANCH  30  31
ENDBRANCH   1  30
TORSDOF 24
