REMARK SMILES Cc1nc(C[NH2+][C@@H](C(=O)OCCOCCOCCOCCOC(=O)c2ccc(-c3c4nc(c(-c5ccccc5)c5ccc([nH]5)c(-c5ccccc5)c5nc(c(-c6ccccc6)c6ccc3[nH]6)C=C5)C=C4)cc2)c2ccccc2)sc1C
REMARK SMILES IDX 15 1 14 2 13 3 12 4 11 5 10 6 8 7 9 8 7 9 6 10 5 13 4 14
REMARK SMILES IDX 1 15 2 16 3 17 80 18 79 19 81 20 73 21 74 22 78 23 75 24
REMARK SMILES IDX 77 25 76 26 16 27 17 28 18 29 19 30 20 31 21 32 22 33 23 34
REMARK SMILES IDX 24 35 25 36 26 37 72 38 27 39 71 40 28 41 29 42 30 43 65 44
REMARK SMILES IDX 31 45 70 46 64 47 66 48 32 49 69 50 63 51 62 52 33 54 55 55
REMARK SMILES IDX 40 56 54 57 41 58 44 59 53 60 67 61 42 62 43 63 52 65 68 66
REMARK SMILES IDX 45 67 34 68 35 69 39 70 36 71 38 72 37 73 56 74 57 75 61 76
REMARK SMILES IDX 58 77 60 78 59 79 46 80 47 81 51 82 48 83 50 84 49 85
REMARK H PARENT 6 11 6 12 66 53 44 64
REMARK Flexibility Score: inf
ROOT
ATOM      1  C   UNL     1      -3.896   2.130   2.524  1.00  0.00     0.188 C 
ENDROOT
BRANCH   1   2
ATOM      2  C   UNL     1      -4.941   3.132   3.034  1.00  0.00     0.188 C 
BRANCH   2   3
ATOM      3  O   UNL     1      -6.264   2.887   2.607  1.00  0.00    -0.376 OA
BRANCH   3   4
ATOM      4  C   UNL     1      -6.651   3.175   1.272  1.00  0.00     0.202 C 
BRANCH   4   5
ATOM      5  C   UNL     1      -5.734   3.716   0.147  1.00  0.00     0.261 C 
BRANCH   5   6
ATOM      6  O   UNL     1      -4.326   3.817   0.405  1.00  0.00    -0.459 OA
BRANCH   6   7
ATOM      7  C   UNL     1      -3.765   5.048   0.438  1.00  0.00     0.369 C 
ATOM      8  O   UNL     1      -4.415   6.077   0.261  1.00  0.00    -0.245 OA
BRANCH   7   9
ATOM      9  C   UNL     1      -2.240   5.074   0.781  1.00  0.00     0.325 C 
BRANCH   9  10
ATOM     10  N   UNL     1      -1.424   3.844   0.682  1.00  0.00    -0.325 N 
ATOM     11  H   UNL     1      -0.448   4.141   0.646  1.00  0.00     0.347 HD
ATOM     12  H   UNL     1      -1.720   3.301   1.492  1.00  0.00     0.347 HD
BRANCH  10  13
ATOM     13  C   UNL     1      -1.625   2.920  -0.433  1.00  0.00     0.330 C 
BRANCH  13  14
ATOM     14  C   UNL     1      -0.704   1.708  -0.311  1.00  0.00     0.148 A 
ATOM     15  C   UNL     1       2.624   0.370   0.061  1.00  0.00     0.068 C 
ATOM     16  C   UNL     1       1.149   0.491  -0.083  1.00  0.00     0.052 A 
ATOM     17  N   UNL     1       0.607   1.765  -0.172  1.00  0.00    -0.240 NA
ATOM     18  C   UNL     1       0.228  -0.540  -0.149  1.00  0.00     0.025 A 
ATOM     19  S   UNL     1      -1.350   0.107  -0.331  1.00  0.00    -0.118 S 
ATOM     20  C   UNL     1       0.464  -2.010  -0.091  1.00  0.00     0.058 C 
ENDBRANCH  13  14
ENDBRANCH  10  13
ENDBRANCH   9  10
BRANCH   9  21
ATOM     21  C   UNL     1      -2.069   5.766   2.150  1.00  0.00     0.021 A 
ATOM     22  C   UNL     1      -2.016   5.071   3.374  1.00  0.00     0.010 A 
ATOM     23  C   UNL     1      -2.102   7.169   2.206  1.00  0.00     0.010 A 
ATOM     24  C   UNL     1      -2.058   5.745   4.599  1.00  0.00     0.001 A 
ATOM     25  C   UNL     1      -2.120   7.844   3.430  1.00  0.00     0.001 A 
ATOM     26  C   UNL     1      -2.116   7.133   4.626  1.00  0.00     0.000 A 
ENDBRANCH   9  21
ENDBRANCH   7   9
ENDBRANCH   6   7
ENDBRANCH   5   6
ENDBRANCH   4   5
ENDBRANCH   3   4
ENDBRANCH   2   3
ENDBRANCH   1   2
BRANCH   1  27
ATOM     27  O   UNL     1      -4.308   1.353   1.420  1.00  0.00    -0.377 OA
BRANCH  27  28
ATOM     28  C   UNL     1      -5.040   0.167   1.676  1.00  0.00     0.188 C 
BRANCH  28  29
ATOM     29  C   UNL     1      -5.715  -0.081   3.040  1.00  0.00     0.188 C 
BRANCH  29  30
ATOM     30  O   UNL     1      -4.977   0.362   4.172  1.00  0.00    -0.376 OA
BRANCH  30  31
ATOM     31  C   UNL     1      -4.241  -0.595   4.918  1.00  0.00     0.202 C 
BRANCH  31  32
ATOM     32  C   UNL     1      -2.978  -1.163   4.254  1.00  0.00     0.261 C 
BRANCH  32  33
ATOM     33  O   UNL     1      -3.174  -1.844   3.008  1.00  0.00    -0.460 OA
BRANCH  33  34
ATOM     34  C   UNL     1      -3.989  -2.920   2.998  1.00  0.00     0.338 C 
ATOM     35  O   UNL     1      -4.578  -3.417   3.940  1.00  0.00    -0.246 OA
BRANCH  34  36
ATOM     36  C   UNL     1      -4.179  -3.307   1.587  1.00  0.00     0.060 A 
ATOM     37  C   UNL     1      -5.455  -3.229   1.014  1.00  0.00     0.016 A 
ATOM     38  C   UNL     1      -3.080  -3.704   0.824  1.00  0.00     0.016 A 
ATOM     39  C   UNL     1      -5.638  -3.568  -0.328  1.00  0.00     0.010 A 
ATOM     40  C   UNL     1      -3.267  -4.062  -0.510  1.00  0.00     0.010 A 
ATOM     41  C   UNL     1      -4.550  -4.022  -1.084  1.00  0.00    -0.014 A 
BRANCH  41  42
ATOM     42  C   UNL     1      -4.764  -4.660  -2.404  1.00  0.00     0.031 A 
ATOM     43  C   UNL     1      -4.819  -6.162  -2.457  1.00  0.00     0.074 A 
ATOM     44  C   UNL     1      -4.877  -3.937  -3.530  1.00  0.00     0.049 A 
ATOM     45  N   UNL     1      -4.873  -6.956  -3.494  1.00  0.00    -0.248 NA
ATOM     46  C   UNL     1      -4.801  -6.860  -1.160  1.00  0.00     0.031 C 
ATOM     47  C   UNL     1      -4.891  -2.478  -3.607  1.00  0.00     0.029 A 
ATOM     48  N   UNL     1      -4.986  -4.346  -4.837  1.00  0.00    -0.354 N 
ATOM     49  C   UNL     1      -4.878  -8.245  -2.976  1.00  0.00     0.074 A 
ATOM     50  C   UNL     1      -4.795  -8.129  -1.537  1.00  0.00     0.031 C 
ATOM     51  C   UNL     1      -4.987  -2.113  -4.899  1.00  0.00     0.029 A 
ATOM     52  C   UNL     1      -4.996  -3.310  -5.738  1.00  0.00     0.049 A 
ATOM     53  H   UNL     1      -5.050  -5.292  -5.101  1.00  0.00     0.167 HD
ATOM     54  C   UNL     1      -4.944  -9.423  -3.639  1.00  0.00     0.031 A 
ATOM     55  C   UNL     1      -4.981  -3.331  -7.085  1.00  0.00     0.031 A 
ATOM     56  C   UNL     1      -5.004  -9.539  -5.071  1.00  0.00     0.049 A 
ATOM     57  C   UNL     1      -4.961  -4.656  -7.805  1.00  0.00     0.074 A 
ATOM     58  C   UNL     1      -5.082 -10.686  -5.840  1.00  0.00     0.029 A 
ATOM     59  N   UNL     1      -4.982  -8.466  -5.949  1.00  0.00    -0.354 N 
ATOM     60  N   UNL     1      -4.983  -5.870  -7.308  1.00  0.00    -0.248 NA
ATOM     61  C   UNL     1      -4.917  -4.612  -9.274  1.00  0.00     0.031 C 
ATOM     62  C   UNL     1      -5.043 -10.310  -7.186  1.00  0.00     0.029 A 
ATOM     63  C   UNL     1      -5.016  -8.926  -7.254  1.00  0.00     0.049 A 
ATOM     64  H   UNL     1      -4.947  -7.519  -5.684  1.00  0.00     0.167 HD
ATOM     65  C   UNL     1      -4.995  -6.730  -8.402  1.00  0.00     0.074 A 
ATOM     66  C   UNL     1      -4.987  -5.898  -9.587  1.00  0.00     0.031 C 
ATOM     67  C   UNL     1      -5.015  -8.085  -8.423  1.00  0.00     0.031 A 
BRANCH  54  68
ATOM     68  C   UNL     1      -4.908 -10.681  -2.817  1.00  0.00    -0.014 A 
ATOM     69  C   UNL     1      -5.985 -11.051  -1.996  1.00  0.00     0.009 A 
ATOM     70  C   UNL     1      -3.785 -11.520  -2.882  1.00  0.00     0.009 A 
ATOM     71  C   UNL     1      -5.921 -12.217  -1.229  1.00  0.00     0.001 A 
ATOM     72  C   UNL     1      -3.737 -12.700  -2.140  1.00  0.00     0.001 A 
ATOM     73  C   UNL     1      -4.801 -13.043  -1.306  1.00  0.00     0.000 A 
ENDBRANCH  54  68
BRANCH  55  74
ATOM     74  C   UNL     1      -4.957  -2.058  -7.856  1.00  0.00    -0.014 A 
ATOM     75  C   UNL     1      -6.053  -1.679  -8.646  1.00  0.00     0.009 A 
ATOM     76  C   UNL     1      -3.823  -1.230  -7.832  1.00  0.00     0.009 A 
ATOM     77  C   UNL     1      -6.003  -0.515  -9.418  1.00  0.00     0.001 A 
ATOM     78  C   UNL     1      -3.788  -0.051  -8.579  1.00  0.00     0.001 A 
ATOM     79  C   UNL     1      -4.873   0.301  -9.379  1.00  0.00     0.000 A 
ENDBRANCH  55  74
BRANCH  67  80
ATOM     80  C   UNL     1      -5.089  -8.759  -9.767  1.00  0.00    -0.014 A 
ATOM     81  C   UNL     1      -3.998  -8.770 -10.648  1.00  0.00     0.009 A 
ATOM     82  C   UNL     1      -6.261  -9.444 -10.130  1.00  0.00     0.009 A 
ATOM     83  C   UNL     1      -4.091  -9.424 -11.879  1.00  0.00     0.001 A 
ATOM     84  C   UNL     1      -6.339 -10.125 -11.345  1.00  0.00     0.001 A 
ATOM     85  C   UNL     1      -5.258 -10.105 -12.224  1.00  0.00     0.000 A 
ENDBRANCH  67  80
ENDBRANCH  41  42
ENDBRANCH  34  36
ENDBRANCH  33  34
ENDBRANCH  32  33
ENDBRANCH  31  32
ENDBRANCH  30  31
ENDBRANCH  29  30
ENDBRANCH  28  29
ENDBRANCH  27  28
ENDBRANCH   1  27
TORSDOF 24
