REMARK SMILES COC(=O)c1ccc([C@H]2CC(=O)Nc3c(C(=O)OCCOCCOCCOCCOC(=O)c4ccc(-c5c6nc(c(-c7ccccc7)c7ccc([nH]7)c(-c7ccccc7)c7nc(c(-c8ccccc8)c8ccc5[nH]8)C=C7)C=C6)cc4)cn(-c4ccccc4)c32)cc1
REMARK SMILES IDX 23 1 22 2 21 3 20 4 19 5 18 6 16 7 17 8 15 9 9 10 10 11
REMARK SMILES IDX 89 12 11 13 14 14 82 15 12 16 13 17 81 18 8 20 5 21 6 22
REMARK SMILES IDX 91 23 7 24 90 25 3 26 4 27 2 28 1 29 83 30 84 31 88 32 85 33
REMARK SMILES IDX 87 34 86 35 24 36 25 37 26 38 27 39 28 40 29 41 30 42 31 43
REMARK SMILES IDX 32 44 33 45 34 46 80 47 35 48 79 49 36 50 37 51 38 52 73 53
REMARK SMILES IDX 39 54 78 55 72 56 74 57 40 58 77 59 71 60 70 61 41 63 63 64
REMARK SMILES IDX 48 65 62 66 49 67 52 68 61 69 75 70 50 71 51 72 60 74 76 75
REMARK SMILES IDX 53 76 42 77 43 78 47 79 44 80 46 81 45 82 64 83 65 84 69 85
REMARK SMILES IDX 66 86 68 87 67 88 54 89 55 90 59 91 56 92 58 93 57 94
REMARK H PARENT 13 19 74 62 52 73
REMARK Flexibility Score: inf
ROOT
ATOM      1  C   UNL     1      -4.261   0.087 -10.935  1.00  0.00     0.188 C 
ENDROOT
BRANCH   1   2
ATOM      2  C   UNL     1      -4.348  -1.434 -10.683  1.00  0.00     0.188 C 
BRANCH   2   3
ATOM      3  O   UNL     1      -5.678  -1.912 -10.616  1.00  0.00    -0.376 OA
BRANCH   3   4
ATOM      4  C   UNL     1      -6.210  -2.364  -9.393  1.00  0.00     0.202 C 
BRANCH   4   5
ATOM      5  C   UNL     1      -6.260  -1.394  -8.204  1.00  0.00     0.261 C 
BRANCH   5   6
ATOM      6  O   UNL     1      -5.099  -0.588  -7.970  1.00  0.00    -0.460 OA
BRANCH   6   7
ATOM      7  C   UNL     1      -3.960  -1.235  -7.585  1.00  0.00     0.341 C 
ATOM      8  O   UNL     1      -3.884  -2.423  -7.355  1.00  0.00    -0.246 OA
BRANCH   7   9
ATOM      9  C   UNL     1      -2.812  -0.334  -7.653  1.00  0.00     0.102 A 
ATOM     10  C   UNL     1      -1.005   2.907  -7.335  1.00  0.00     0.078 C 
ATOM     11  C   UNL     1      -2.225   3.846  -7.342  1.00  0.00     0.115 C 
ATOM     12  C   UNL     1      -1.447   1.487  -7.584  1.00  0.00     0.055 A 
ATOM     13  C   UNL     1      -3.509   3.253  -6.790  1.00  0.00     0.225 C 
ATOM     14  C   UNL     1      -2.741   1.055  -7.400  1.00  0.00     0.078 A 
ATOM     15  N   UNL     1      -0.689   0.382  -7.932  1.00  0.00    -0.317 N 
ATOM     16  O   UNL     1      -4.380   3.962  -6.286  1.00  0.00    -0.275 OA
ATOM     17  N   UNL     1      -3.724   1.915  -6.976  1.00  0.00    -0.324 N 
ATOM     18  C   UNL     1      -1.539  -0.698  -8.068  1.00  0.00     0.109 A 
ATOM     19  H   UNL     1      -4.622   1.552  -6.797  1.00  0.00     0.170 HD
BRANCH  10  20
ATOM     20  C   UNL     1       0.064   3.509  -8.248  1.00  0.00    -0.038 A 
ATOM     21  C   UNL     1       2.166   4.609  -9.789  1.00  0.00     0.060 A 
ATOM     22  C   UNL     1       1.931   5.064  -8.488  1.00  0.00     0.016 A 
ATOM     23  C   UNL     1       1.311   3.649 -10.340  1.00  0.00     0.016 A 
ATOM     24  C   UNL     1       0.894   4.518  -7.727  1.00  0.00     0.005 A 
ATOM     25  C   UNL     1       0.248   3.130  -9.586  1.00  0.00     0.005 A 
BRANCH  21  26
ATOM     26  C   UNL     1       3.345   5.159 -10.518  1.00  0.00     0.337 C 
ATOM     27  O   UNL     1       4.195   5.846  -9.994  1.00  0.00    -0.246 OA
BRANCH  26  28
ATOM     28  O   UNL     1       3.313   4.786 -11.826  1.00  0.00    -0.465 OA
ATOM     29  C   UNL     1       4.415   5.279 -12.591  1.00  0.00     0.282 C 
ENDBRANCH  26  28
ENDBRANCH  21  26
ENDBRANCH  10  20
BRANCH  15  30
ATOM     30  C   UNL     1       0.709   0.311  -8.102  1.00  0.00     0.045 A 
ATOM     31  C   UNL     1       1.544   0.760  -7.076  1.00  0.00     0.026 A 
ATOM     32  C   UNL     1       1.239  -0.149  -9.314  1.00  0.00     0.026 A 
ATOM     33  C   UNL     1       2.922   0.778  -7.276  1.00  0.00     0.002 A 
ATOM     34  C   UNL     1       2.618  -0.084  -9.519  1.00  0.00     0.002 A 
ATOM     35  C   UNL     1       3.456   0.378  -8.502  1.00  0.00     0.000 A 
ENDBRANCH  15  30
ENDBRANCH   7   9
ENDBRANCH   6   7
ENDBRANCH   5   6
ENDBRANCH   4   5
ENDBRANCH   3   4
ENDBRANCH   2   3
ENDBRANCH   1   2
BRANCH   1  36
ATOM     36  O   UNL     1      -5.446   0.873 -10.929  1.00  0.00    -0.377 OA
BRANCH  36  37
ATOM     37  C   UNL     1      -6.614   0.418 -11.608  1.00  0.00     0.188 C 
BRANCH  37  38
ATOM     38  C   UNL     1      -6.558  -0.559 -12.818  1.00  0.00     0.188 C 
BRANCH  38  39
ATOM     39  O   UNL     1      -5.271  -1.064 -13.136  1.00  0.00    -0.376 OA
BRANCH  39  40
ATOM     40  C   UNL     1      -4.612  -0.764 -14.348  1.00  0.00     0.202 C 
BRANCH  40  41
ATOM     41  C   UNL     1      -4.177   0.681 -14.565  1.00  0.00     0.261 C 
BRANCH  41  42
ATOM     42  O   UNL     1      -5.129   1.617 -14.107  1.00  0.00    -0.460 OA
BRANCH  42  43
ATOM     43  C   UNL     1      -6.267   1.645 -14.823  1.00  0.00     0.338 C 
ATOM     44  O   UNL     1      -6.569   0.928 -15.761  1.00  0.00    -0.246 OA
BRANCH  43  45
ATOM     45  C   UNL     1      -7.070   2.771 -14.342  1.00  0.00     0.060 A 
ATOM     46  C   UNL     1      -8.284   2.949 -15.001  1.00  0.00     0.016 A 
ATOM     47  C   UNL     1      -6.402   3.807 -13.673  1.00  0.00     0.016 A 
ATOM     48  C   UNL     1      -8.624   4.234 -15.325  1.00  0.00     0.010 A 
ATOM     49  C   UNL     1      -6.723   5.086 -14.022  1.00  0.00     0.010 A 
ATOM     50  C   UNL     1      -7.747   5.255 -14.946  1.00  0.00    -0.014 A 
BRANCH  50  51
ATOM     51  C   UNL     1      -7.909   6.530 -15.588  1.00  0.00     0.031 A 
ATOM     52  C   UNL     1      -8.991   7.326 -14.998  1.00  0.00     0.074 A 
ATOM     53  C   UNL     1      -7.091   6.932 -16.574  1.00  0.00     0.049 A 
ATOM     54  N   UNL     1     -10.134   7.604 -15.523  1.00  0.00    -0.248 NA
ATOM     55  C   UNL     1      -8.854   7.689 -13.579  1.00  0.00     0.031 C 
ATOM     56  C   UNL     1      -5.824   6.341 -17.016  1.00  0.00     0.029 A 
ATOM     57  N   UNL     1      -7.181   8.060 -17.317  1.00  0.00    -0.354 N 
ATOM     58  C   UNL     1     -10.799   8.348 -14.559  1.00  0.00     0.074 A 
ATOM     59  C   UNL     1     -10.063   8.185 -13.331  1.00  0.00     0.031 C 
ATOM     60  C   UNL     1      -5.154   7.252 -17.762  1.00  0.00     0.029 A 
ATOM     61  C   UNL     1      -6.004   8.416 -17.952  1.00  0.00     0.049 A 
ATOM     62  H   UNL     1      -8.012   8.582 -17.399  1.00  0.00     0.167 HD
ATOM     63  C   UNL     1     -11.733   9.271 -14.904  1.00  0.00     0.031 A 
ATOM     64  C   UNL     1      -5.738   9.630 -18.492  1.00  0.00     0.031 A 
ATOM     65  C   UNL     1     -12.201   9.086 -16.252  1.00  0.00     0.049 A 
ATOM     66  C   UNL     1      -7.035  10.328 -18.688  1.00  0.00     0.074 A 
ATOM     67  C   UNL     1     -12.848   8.067 -16.922  1.00  0.00     0.029 A 
ATOM     68  N   UNL     1     -11.656   9.895 -17.222  1.00  0.00    -0.354 N 
ATOM     69  N   UNL     1      -7.936   9.941 -19.547  1.00  0.00    -0.248 NA
ATOM     70  C   UNL     1      -7.533  11.169 -17.608  1.00  0.00     0.031 C 
ATOM     71  C   UNL     1     -12.279   8.062 -18.228  1.00  0.00     0.029 A 
ATOM     72  C   UNL     1     -11.354   9.107 -18.302  1.00  0.00     0.049 A 
ATOM     73  H   UNL     1     -11.509  10.866 -17.153  1.00  0.00     0.167 HD
ATOM     74  C   UNL     1      -9.151  10.120 -18.900  1.00  0.00     0.074 A 
ATOM     75  C   UNL     1      -8.848  10.973 -17.753  1.00  0.00     0.031 C 
ATOM     76  C   UNL     1     -10.228   9.327 -19.184  1.00  0.00     0.031 A 
BRANCH  63  77
ATOM     77  C   UNL     1     -11.875  10.575 -14.168  1.00  0.00    -0.014 A 
ATOM     78  C   UNL     1     -12.911  11.445 -14.539  1.00  0.00     0.009 A 
ATOM     79  C   UNL     1     -10.876  11.099 -13.323  1.00  0.00     0.009 A 
ATOM     80  C   UNL     1     -12.908  12.784 -14.134  1.00  0.00     0.001 A 
ATOM     81  C   UNL     1     -10.893  12.421 -12.880  1.00  0.00     0.001 A 
ATOM     82  C   UNL     1     -11.897  13.272 -13.310  1.00  0.00     0.000 A 
ENDBRANCH  63  77
BRANCH  64  83
ATOM     83  C   UNL     1      -4.438  10.335 -18.508  1.00  0.00    -0.014 A 
ATOM     84  C   UNL     1      -4.213  11.418 -19.370  1.00  0.00     0.009 A 
ATOM     85  C   UNL     1      -3.494  10.103 -17.488  1.00  0.00     0.009 A 
ATOM     86  C   UNL     1      -3.097  12.251 -19.201  1.00  0.00     0.001 A 
ATOM     87  C   UNL     1      -2.380  10.931 -17.322  1.00  0.00     0.001 A 
ATOM     88  C   UNL     1      -2.189  12.014 -18.171  1.00  0.00     0.000 A 
ENDBRANCH  64  83
BRANCH  76  89
ATOM     89  C   UNL     1     -10.125   8.398 -20.369  1.00  0.00    -0.014 A 
ATOM     90  C   UNL     1      -9.202   7.337 -20.425  1.00  0.00     0.009 A 
ATOM     91  C   UNL     1     -11.105   8.480 -21.368  1.00  0.00     0.009 A 
ATOM     92  C   UNL     1      -9.252   6.399 -21.462  1.00  0.00     0.001 A 
ATOM     93  C   UNL     1     -11.166   7.532 -22.392  1.00  0.00     0.001 A 
ATOM     94  C   UNL     1     -10.239   6.494 -22.440  1.00  0.00     0.000 A 
ENDBRANCH  76  89
ENDBRANCH  50  51
ENDBRANCH  43  45
ENDBRANCH  42  43
ENDBRANCH  41  42
ENDBRANCH  40  41
ENDBRANCH  39  40
ENDBRANCH  38  39
ENDBRANCH  37  38
ENDBRANCH  36  37
ENDBRANCH   1  36
TORSDOF 24
