REMARK SMILES CC(=O)Nc1ccc(/C=C2/CCc3oc(C(=O)OCCOCCOCCOCCOC(=O)c4ccc(-c5c6nc(c(-c7ccccc7)c7ccc([nH]7)c(-c7ccccc7)c7nc(c(-c8ccccc8)c8ccc5[nH]8)C=C7)C=C6)cc4)c(C)c3C2=O)cc1
REMARK SMILES IDX 24 1 23 2 22 3 21 4 20 5 19 6 18 7 16 8 17 9 15 10 9 11
REMARK SMILES IDX 10 12 11 13 84 14 12 15 83 16 85 17 13 18 81 19 14 20 82 21
REMARK SMILES IDX 8 22 5 23 6 24 87 25 7 26 86 27 4 28 1 29 2 30 3 31 25 33
REMARK SMILES IDX 26 34 27 35 28 36 29 37 30 38 31 39 32 40 33 41 34 42 80 43
REMARK SMILES IDX 35 44 79 45 36 46 37 47 38 48 73 49 39 50 78 51 72 52 74 53
REMARK SMILES IDX 40 54 77 55 71 56 70 57 41 59 63 60 48 61 62 62 49 63 52 64
REMARK SMILES IDX 61 65 75 66 50 67 51 68 60 70 76 71 53 72 42 73 43 74 47 75
REMARK SMILES IDX 44 76 46 77 45 78 64 79 65 80 69 81 66 82 68 83 67 84 54 85
REMARK SMILES IDX 55 86 59 87 56 88 58 89 57 90
REMARK H PARENT 4 32 74 58 52 69
REMARK Flexibility Score: inf
ROOT
ATOM      1  O   UNL     1       1.038  -1.374 -13.883  1.00  0.00    -0.377 OA
ENDROOT
BRANCH   1   2
ATOM      2  C   UNL     1       0.488  -1.587 -12.583  1.00  0.00     0.188 C 
BRANCH   2   3
ATOM      3  C   UNL     1      -1.035  -1.574 -12.308  1.00  0.00     0.188 C 
BRANCH   3   4
ATOM      4  O   UNL     1      -1.770  -0.740 -13.184  1.00  0.00    -0.376 OA
BRANCH   4   5
ATOM      5  C   UNL     1      -2.419   0.408 -12.690  1.00  0.00     0.202 C 
BRANCH   5   6
ATOM      6  C   UNL     1      -1.510   1.546 -12.213  1.00  0.00     0.261 C 
BRANCH   6   7
ATOM      7  O   UNL     1      -0.460   1.172 -11.313  1.00  0.00    -0.457 OA
BRANCH   7   8
ATOM      8  C   UNL     1      -0.820   0.715 -10.086  1.00  0.00     0.374 C 
ATOM      9  O   UNL     1      -1.978   0.645  -9.680  1.00  0.00    -0.242 OA
BRANCH   8  10
ATOM     10  C   UNL     1       0.344   0.165  -9.432  1.00  0.00     0.215 A 
ATOM     11  C   UNL     1       3.971  -0.925  -5.483  1.00  0.00     0.016 C 
ATOM     12  C   UNL     1       3.797  -1.101  -6.809  1.00  0.00     0.001 C 
ATOM     13  C   UNL     1       4.653  -0.396  -7.855  1.00  0.00     0.048 C 
ATOM     14  C   UNL     1       2.659  -1.859  -7.423  1.00  0.00     0.192 C 
ATOM     15  C   UNL     1       3.833   0.635  -8.673  1.00  0.00     0.081 C 
ATOM     16  C   UNL     1       1.882  -0.986  -8.273  1.00  0.00     0.067 A 
ATOM     17  O   UNL     1       2.443  -3.050  -7.256  1.00  0.00    -0.289 OA
ATOM     18  C   UNL     1       2.444   0.139  -8.828  1.00  0.00     0.116 A 
ATOM     19  C   UNL     1       0.527  -1.012  -8.704  1.00  0.00     0.014 A 
ATOM     20  O   UNL     1       1.538   0.842  -9.540  1.00  0.00    -0.453 OA
ATOM     21  C   UNL     1      -0.463  -2.080  -8.412  1.00  0.00     0.049 C 
BRANCH  11  22
ATOM     22  C   UNL     1       3.151  -1.309  -4.308  1.00  0.00    -0.025 A 
ATOM     23  C   UNL     1       1.618  -1.791  -1.961  1.00  0.00     0.041 A 
ATOM     24  C   UNL     1       1.231  -2.322  -3.187  1.00  0.00     0.027 A 
ATOM     25  C   UNL     1       2.805  -1.069  -1.891  1.00  0.00     0.027 A 
ATOM     26  C   UNL     1       1.972  -2.058  -4.346  1.00  0.00     0.010 A 
ATOM     27  C   UNL     1       3.565  -0.840  -3.049  1.00  0.00     0.010 A 
BRANCH  23  28
ATOM     28  N   UNL     1       0.797  -2.058  -0.858  1.00  0.00    -0.326 N 
ATOM     29  C   UNL     1       0.959   0.129   0.307  1.00  0.00     0.114 C 
ATOM     30  C   UNL     1       0.545  -1.317   0.262  1.00  0.00     0.221 C 
ATOM     31  O   UNL     1      -0.094  -1.822   1.186  1.00  0.00    -0.275 OA
ATOM     32  H   UNL     1       0.324  -2.921  -0.896  1.00  0.00     0.169 HD
ENDBRANCH  23  28
ENDBRANCH  11  22
ENDBRANCH   8  10
ENDBRANCH   7   8
ENDBRANCH   6   7
ENDBRANCH   5   6
ENDBRANCH   4   5
ENDBRANCH   3   4
ENDBRANCH   2   3
ENDBRANCH   1   2
BRANCH   1  33
ATOM     33  C   UNL     1       0.196  -0.897 -14.919  1.00  0.00     0.188 C 
BRANCH  33  34
ATOM     34  C   UNL     1      -0.804  -1.929 -15.497  1.00  0.00     0.188 C 
BRANCH  34  35
ATOM     35  O   UNL     1      -1.173  -3.002 -14.650  1.00  0.00    -0.376 OA
BRANCH  35  36
ATOM     36  C   UNL     1      -0.500  -4.242 -14.511  1.00  0.00     0.202 C 
BRANCH  36  37
ATOM     37  C   UNL     1       0.985  -4.495 -14.754  1.00  0.00     0.261 C 
BRANCH  37  38
ATOM     38  O   UNL     1       1.652  -3.480 -15.452  1.00  0.00    -0.460 OA
BRANCH  38  39
ATOM     39  C   UNL     1       1.393  -3.434 -16.763  1.00  0.00     0.338 C 
ATOM     40  O   UNL     1       0.645  -4.167 -17.400  1.00  0.00    -0.246 OA
BRANCH  39  41
ATOM     41  C   UNL     1       2.235  -2.377 -17.340  1.00  0.00     0.060 A 
ATOM     42  C   UNL     1       2.128  -2.253 -18.722  1.00  0.00     0.016 A 
ATOM     43  C   UNL     1       3.402  -2.059 -16.633  1.00  0.00     0.016 A 
ATOM     44  C   UNL     1       3.301  -2.263 -19.427  1.00  0.00     0.010 A 
ATOM     45  C   UNL     1       4.571  -2.126 -17.329  1.00  0.00     0.010 A 
ATOM     46  C   UNL     1       4.491  -2.357 -18.700  1.00  0.00    -0.014 A 
BRANCH  46  47
ATOM     47  C   UNL     1       5.682  -2.739 -19.407  1.00  0.00     0.031 A 
ATOM     48  C   UNL     1       6.416  -1.578 -19.925  1.00  0.00     0.074 A 
ATOM     49  C   UNL     1       6.104  -4.013 -19.451  1.00  0.00     0.049 A 
ATOM     50  N   UNL     1       6.429  -1.129 -21.134  1.00  0.00    -0.248 NA
ATOM     51  C   UNL     1       7.004  -0.674 -18.923  1.00  0.00     0.031 C 
ATOM     52  C   UNL     1       5.646  -5.166 -18.670  1.00  0.00     0.029 A 
ATOM     53  N   UNL     1       7.146  -4.514 -20.155  1.00  0.00    -0.354 N 
ATOM     54  C   UNL     1       7.195   0.025 -21.067  1.00  0.00     0.074 A 
ATOM     55  C   UNL     1       7.261   0.391 -19.678  1.00  0.00     0.031 C 
ATOM     56  C   UNL     1       6.562  -6.160 -18.775  1.00  0.00     0.029 A 
ATOM     57  C   UNL     1       7.581  -5.758 -19.731  1.00  0.00     0.049 A 
ATOM     58  H   UNL     1       7.561  -4.033 -20.907  1.00  0.00     0.167 HD
ATOM     59  C   UNL     1       7.996   0.411 -22.095  1.00  0.00     0.031 A 
ATOM     60  C   UNL     1       8.754  -6.336 -20.089  1.00  0.00     0.031 A 
ATOM     61  C   UNL     1       7.687  -0.304 -23.305  1.00  0.00     0.049 A 
ATOM     62  C   UNL     1       9.254  -5.616 -21.290  1.00  0.00     0.074 A 
ATOM     63  C   UNL     1       6.598  -0.378 -24.148  1.00  0.00     0.029 A 
ATOM     64  N   UNL     1       8.459  -1.412 -23.568  1.00  0.00    -0.354 N 
ATOM     65  N   UNL     1       8.661  -5.639 -22.449  1.00  0.00    -0.248 NA
ATOM     66  C   UNL     1      10.174  -4.506 -21.088  1.00  0.00     0.031 C 
ATOM     67  C   UNL     1       6.557  -1.733 -24.589  1.00  0.00     0.029 A 
ATOM     68  C   UNL     1       7.645  -2.412 -24.033  1.00  0.00     0.049 A 
ATOM     69  H   UNL     1       9.433  -1.476 -23.443  1.00  0.00     0.167 HD
ATOM     70  C   UNL     1       8.806  -4.353 -22.956  1.00  0.00     0.074 A 
ATOM     71  C   UNL     1       9.837  -3.736 -22.127  1.00  0.00     0.031 C 
ATOM     72  C   UNL     1       7.878  -3.826 -23.809  1.00  0.00     0.031 A 
BRANCH  59  73
ATOM     73  C   UNL     1       9.322   1.096 -21.877  1.00  0.00    -0.014 A 
ATOM     74  C   UNL     1      10.046   1.524 -22.999  1.00  0.00     0.009 A 
ATOM     75  C   UNL     1      10.002   1.122 -20.641  1.00  0.00     0.009 A 
ATOM     76  C   UNL     1      11.388   1.909 -22.892  1.00  0.00     0.001 A 
ATOM     77  C   UNL     1      11.324   1.550 -20.521  1.00  0.00     0.001 A 
ATOM     78  C   UNL     1      12.027   1.920 -21.655  1.00  0.00     0.000 A 
ENDBRANCH  59  73
BRANCH  60  79
ATOM     79  C   UNL     1       9.641  -7.180 -19.259  1.00  0.00    -0.014 A 
ATOM     80  C   UNL     1      10.639  -7.969 -19.852  1.00  0.00     0.009 A 
ATOM     81  C   UNL     1       9.696  -6.991 -17.866  1.00  0.00     0.009 A 
ATOM     82  C   UNL     1      11.675  -8.516 -19.082  1.00  0.00     0.001 A 
ATOM     83  C   UNL     1      10.729  -7.538 -17.097  1.00  0.00     0.001 A 
ATOM     84  C   UNL     1      11.728  -8.288 -17.708  1.00  0.00     0.000 A 
ENDBRANCH  60  79
BRANCH  72  85
ATOM     85  C   UNL     1       6.851  -4.769 -24.390  1.00  0.00    -0.014 A 
ATOM     86  C   UNL     1       5.873  -5.415 -23.612  1.00  0.00     0.009 A 
ATOM     87  C   UNL     1       6.771  -4.879 -25.786  1.00  0.00     0.009 A 
ATOM     88  C   UNL     1       4.856  -6.162 -24.219  1.00  0.00     0.001 A 
ATOM     89  C   UNL     1       5.745  -5.607 -26.390  1.00  0.00     0.001 A 
ATOM     90  C   UNL     1       4.789  -6.251 -25.608  1.00  0.00     0.000 A 
ENDBRANCH  72  85
ENDBRANCH  46  47
ENDBRANCH  39  41
ENDBRANCH  38  39
ENDBRANCH  37  38
ENDBRANCH  36  37
ENDBRANCH  35  36
ENDBRANCH  34  35
ENDBRANCH  33  34
ENDBRANCH   1  33
TORSDOF 22
