REMARK SMILES COc1ccc(-c2ccc(/C=C3\SC(=S)N([C@H](Cc4ccccc4)C(=O)OCCOCCOCCOCCOC(=O)c4ccc(-c5c6nc(c(-c7ccccc7)c7ccc([nH]7)c(-c7ccccc7)c7nc(c(-c8ccccc8)c8ccc5[nH]8)C=C7)C=C6)cc4)C3=O)o2)cc1
REMARK SMILES IDX 32 1 31 2 30 3 29 4 28 5 27 6 25 7 26 8 17 9 16 10 11 11
REMARK SMILES IDX 12 12 13 13 90 14 14 15 91 16 15 17 10 18 7 19 8 20 92 21
REMARK SMILES IDX 9 22 6 23 3 24 4 25 94 26 5 27 93 28 2 29 1 30 18 31 19 32
REMARK SMILES IDX 20 33 24 34 21 35 23 36 22 37 33 38 34 39 35 40 36 41 37 42
REMARK SMILES IDX 38 43 39 44 40 45 41 46 42 47 43 48 89 49 44 50 88 51 45 52
REMARK SMILES IDX 46 53 47 54 82 55 48 56 87 57 81 58 83 59 49 60 86 61 80 62
REMARK SMILES IDX 79 63 50 65 72 66 57 67 71 68 58 69 61 70 70 71 84 72 59 73
REMARK SMILES IDX 60 74 69 76 85 77 62 78 51 79 52 80 56 81 53 82 55 83 54 84
REMARK SMILES IDX 73 85 74 86 78 87 75 88 77 89 76 90 63 91 64 92 68 93 65 94
REMARK SMILES IDX 67 95 66 96
REMARK H PARENT 83 64 61 75
REMARK Flexibility Score: inf
ROOT
ATOM      1  C   UNL     1       2.661 -10.990  10.223  1.00  0.00     0.188 C 
ENDROOT
BRANCH   1   2
ATOM      2  C   UNL     1       2.664 -12.456  10.681  1.00  0.00     0.188 C 
BRANCH   2   3
ATOM      3  O   UNL     1       3.538 -13.262   9.922  1.00  0.00    -0.376 OA
BRANCH   3   4
ATOM      4  C   UNL     1       3.004 -14.229   9.037  1.00  0.00     0.202 C 
BRANCH   4   5
ATOM      5  C   UNL     1       1.877 -13.899   8.038  1.00  0.00     0.261 C 
BRANCH   5   6
ATOM      6  O   UNL     1       1.225 -12.632   8.175  1.00  0.00    -0.462 OA
BRANCH   6   7
ATOM      7  C   UNL     1       0.049 -12.660   8.835  1.00  0.00     0.329 C 
ATOM      8  O   UNL     1      -0.388 -13.660   9.405  1.00  0.00    -0.250 OA
BRANCH   7   9
ATOM      9  C   UNL     1      -0.738 -11.346   8.821  1.00  0.00     0.206 C 
BRANCH   9  10
ATOM     10  N   UNL     1      -2.056 -11.722   8.312  1.00  0.00    -0.278 N 
ATOM     11  C   UNL     1      -3.764 -12.216   5.272  1.00  0.00     0.068 C 
ATOM     12  C   UNL     1      -3.515 -12.214   6.579  1.00  0.00     0.084 C 
ATOM     13  S   UNL     1      -4.540 -12.258   7.948  1.00  0.00    -0.054 SA
ATOM     14  C   UNL     1      -2.116 -12.156   7.004  1.00  0.00     0.267 C 
ATOM     15  C   UNL     1      -3.218 -11.837   9.037  1.00  0.00     0.149 C 
ATOM     16  O   UNL     1      -1.181 -12.531   6.312  1.00  0.00    -0.268 OA
ATOM     17  S   UNL     1      -3.450 -11.589  10.668  1.00  0.00    -0.052 S 
BRANCH  11  18
ATOM     18  C   UNL     1      -5.043 -12.401   4.724  1.00  0.00     0.128 A 
ATOM     19  C   UNL     1      -6.532 -13.408   3.450  1.00  0.00     0.134 A 
ATOM     20  C   UNL     1      -7.235 -12.486   4.188  1.00  0.00     0.051 A 
ATOM     21  O   UNL     1      -5.214 -13.318   3.731  1.00  0.00    -0.457 OA
ATOM     22  C   UNL     1      -6.279 -11.838   5.008  1.00  0.00     0.051 A 
BRANCH  19  23
ATOM     23  C   UNL     1      -6.856 -14.428   2.483  1.00  0.00     0.017 A 
ATOM     24  C   UNL     1      -7.460 -16.427   0.618  1.00  0.00     0.118 A 
ATOM     25  C   UNL     1      -6.567 -16.688   1.656  1.00  0.00     0.047 A 
ATOM     26  C   UNL     1      -8.051 -15.165   0.514  1.00  0.00     0.047 A 
ATOM     27  C   UNL     1      -6.255 -15.691   2.576  1.00  0.00     0.016 A 
ATOM     28  C   UNL     1      -7.755 -14.170   1.449  1.00  0.00     0.016 A 
BRANCH  24  29
ATOM     29  O   UNL     1      -7.700 -17.487  -0.210  1.00  0.00    -0.497 OA
ATOM     30  C   UNL     1      -8.213 -17.167  -1.496  1.00  0.00     0.278 C 
ENDBRANCH  24  29
ENDBRANCH  19  23
ENDBRANCH  11  18
ENDBRANCH   9  10
BRANCH   9  31
ATOM     31  C   UNL     1      -0.218 -10.008   8.239  1.00  0.00     0.073 C 
BRANCH  31  32
ATOM     32  C   UNL     1      -0.322  -9.721   6.759  1.00  0.00    -0.045 A 
ATOM     33  C   UNL     1       0.696 -10.123   5.886  1.00  0.00     0.004 A 
ATOM     34  C   UNL     1      -1.441  -9.052   6.234  1.00  0.00     0.004 A 
ATOM     35  C   UNL     1       0.580  -9.902   4.513  1.00  0.00     0.000 A 
ATOM     36  C   UNL     1      -1.556  -8.833   4.859  1.00  0.00     0.000 A 
ATOM     37  C   UNL     1      -0.549  -9.265   3.999  1.00  0.00     0.000 A 
ENDBRANCH  31  32
ENDBRANCH   9  31
ENDBRANCH   7   9
ENDBRANCH   6   7
ENDBRANCH   5   6
ENDBRANCH   4   5
ENDBRANCH   3   4
ENDBRANCH   2   3
ENDBRANCH   1   2
BRANCH   1  38
ATOM     38  O   UNL     1       2.961 -10.700   8.863  1.00  0.00    -0.377 OA
BRANCH  38  39
ATOM     39  C   UNL     1       4.197 -11.123   8.289  1.00  0.00     0.188 C 
BRANCH  39  40
ATOM     40  C   UNL     1       5.439 -11.325   9.179  1.00  0.00     0.188 C 
BRANCH  40  41
ATOM     41  O   UNL     1       5.384 -10.645  10.421  1.00  0.00    -0.376 OA
BRANCH  41  42
ATOM     42  C   UNL     1       6.040  -9.389  10.502  1.00  0.00     0.202 C 
BRANCH  42  43
ATOM     43  C   UNL     1       5.514  -8.284   9.576  1.00  0.00     0.261 C 
BRANCH  43  44
ATOM     44  O   UNL     1       5.686  -8.496   8.164  1.00  0.00    -0.460 OA
BRANCH  44  45
ATOM     45  C   UNL     1       6.915  -8.789   7.694  1.00  0.00     0.338 C 
ATOM     46  O   UNL     1       7.960  -8.860   8.316  1.00  0.00    -0.246 OA
BRANCH  45  47
ATOM     47  C   UNL     1       6.764  -9.173   6.279  1.00  0.00     0.060 A 
ATOM     48  C   UNL     1       7.099 -10.471   5.870  1.00  0.00     0.016 A 
ATOM     49  C   UNL     1       6.311  -8.229   5.359  1.00  0.00     0.016 A 
ATOM     50  C   UNL     1       7.015 -10.818   4.520  1.00  0.00     0.010 A 
ATOM     51  C   UNL     1       6.247  -8.570   4.010  1.00  0.00     0.010 A 
ATOM     52  C   UNL     1       6.633  -9.852   3.580  1.00  0.00    -0.014 A 
BRANCH  52  53
ATOM     53  C   UNL     1       6.837 -10.077   2.130  1.00  0.00     0.031 A 
ATOM     54  C   UNL     1       8.081  -9.511   1.502  1.00  0.00     0.074 A 
ATOM     55  C   UNL     1       5.922 -10.709   1.376  1.00  0.00     0.049 A 
ATOM     56  N   UNL     1       8.400  -9.407   0.239  1.00  0.00    -0.248 NA
ATOM     57  C   UNL     1       9.094  -8.978   2.429  1.00  0.00     0.031 C 
ATOM     58  C   UNL     1       4.705 -11.349   1.871  1.00  0.00     0.029 A 
ATOM     59  N   UNL     1       5.870 -10.887   0.016  1.00  0.00    -0.354 N 
ATOM     60  C   UNL     1       9.637  -8.774   0.218  1.00  0.00     0.074 A 
ATOM     61  C   UNL     1      10.004  -8.505   1.590  1.00  0.00     0.031 C 
ATOM     62  C   UNL     1       4.011 -11.829   0.823  1.00  0.00     0.029 A 
ATOM     63  C   UNL     1       4.711 -11.485  -0.414  1.00  0.00     0.049 A 
ATOM     64  H   UNL     1       6.594 -10.613  -0.593  1.00  0.00     0.167 HD
ATOM     65  C   UNL     1      10.396  -8.440  -0.851  1.00  0.00     0.031 A 
ATOM     66  C   UNL     1       4.252 -11.690  -1.665  1.00  0.00     0.031 A 
ATOM     67  C   UNL     1      10.024  -8.696  -2.214  1.00  0.00     0.049 A 
ATOM     68  C   UNL     1       5.076 -11.232  -2.842  1.00  0.00     0.074 A 
ATOM     69  C   UNL     1      10.731  -8.408  -3.368  1.00  0.00     0.029 A 
ATOM     70  N   UNL     1       8.836  -9.293  -2.606  1.00  0.00    -0.354 N 
ATOM     71  N   UNL     1       6.251 -10.648  -2.854  1.00  0.00    -0.248 NA
ATOM     72  C   UNL     1       4.508 -11.459  -4.181  1.00  0.00     0.031 C 
ATOM     73  C   UNL     1       9.944  -8.778  -4.462  1.00  0.00     0.029 A 
ATOM     74  C   UNL     1       8.778  -9.358  -3.986  1.00  0.00     0.049 A 
ATOM     75  H   UNL     1       8.139  -9.621  -1.994  1.00  0.00     0.167 HD
ATOM     76  C   UNL     1       6.577 -10.476  -4.195  1.00  0.00     0.074 A 
ATOM     77  C   UNL     1       5.481 -11.020  -4.968  1.00  0.00     0.031 C 
ATOM     78  C   UNL     1       7.688  -9.921  -4.739  1.00  0.00     0.031 A 
BRANCH  65  79
ATOM     79  C   UNL     1      11.687  -7.718  -0.587  1.00  0.00    -0.014 A 
ATOM     80  C   UNL     1      12.789  -8.374  -0.016  1.00  0.00     0.009 A 
ATOM     81  C   UNL     1      11.812  -6.369  -0.953  1.00  0.00     0.009 A 
ATOM     82  C   UNL     1      13.981  -7.682   0.210  1.00  0.00     0.001 A 
ATOM     83  C   UNL     1      13.014  -5.689  -0.753  1.00  0.00     0.001 A 
ATOM     84  C   UNL     1      14.094  -6.344  -0.164  1.00  0.00     0.000 A 
ENDBRANCH  65  79
BRANCH  66  85
ATOM     85  C   UNL     1       2.923 -12.324  -1.882  1.00  0.00    -0.014 A 
ATOM     86  C   UNL     1       2.824 -13.594  -2.472  1.00  0.00     0.009 A 
ATOM     87  C   UNL     1       1.744 -11.646  -1.535  1.00  0.00     0.009 A 
ATOM     88  C   UNL     1       1.573 -14.156  -2.737  1.00  0.00     0.001 A 
ATOM     89  C   UNL     1       0.495 -12.224  -1.772  1.00  0.00     0.001 A 
ATOM     90  C   UNL     1       0.410 -13.473  -2.383  1.00  0.00     0.000 A 
ENDBRANCH  66  85
BRANCH  78  91
ATOM     91  C   UNL     1       7.814  -9.926  -6.237  1.00  0.00    -0.014 A 
ATOM     92  C   UNL     1       7.056  -9.062  -7.041  1.00  0.00     0.009 A 
ATOM     93  C   UNL     1       8.774 -10.753  -6.843  1.00  0.00     0.009 A 
ATOM     94  C   UNL     1       7.244  -9.042  -8.425  1.00  0.00     0.001 A 
ATOM     95  C   UNL     1       8.979 -10.710  -8.222  1.00  0.00     0.001 A 
ATOM     96  C   UNL     1       8.210  -9.859  -9.013  1.00  0.00     0.000 A 
ENDBRANCH  78  91
ENDBRANCH  52  53
ENDBRANCH  45  47
ENDBRANCH  44  45
ENDBRANCH  43  44
ENDBRANCH  42  43
ENDBRANCH  41  42
ENDBRANCH  40  41
ENDBRANCH  39  40
ENDBRANCH  38  39
ENDBRANCH   1  38
TORSDOF 26
