REMARK SMILES CSc1ncc(Cl)c(C(=O)Nc2ccsc2C(=O)OCCOCCOCCOCCOC(=O)c2ccc(-c3c4nc(c(-c5ccccc5)c5ccc([nH]5)c(-c5ccccc5)c5nc(c(-c6ccccc6)c6ccc3[nH]6)C=C5)C=C4)cc2)n1
REMARK SMILES IDX 24 1 23 2 22 3 21 4 20 5 19 6 17 7 18 8 16 9 12 10 13 11
REMARK SMILES IDX 14 12 15 13 11 14 9 15 10 16 8 18 3 19 4 20 82 21 5 22 6 23
REMARK SMILES IDX 7 24 2 25 1 26 25 27 26 28 27 29 28 30 29 31 30 32 31 33
REMARK SMILES IDX 32 34 33 35 34 36 35 37 81 38 36 39 80 40 37 41 38 42 39 43
REMARK SMILES IDX 74 44 40 45 79 46 73 47 75 48 41 49 78 50 72 51 71 52 42 54
REMARK SMILES IDX 64 55 49 56 63 57 50 58 53 59 62 60 76 61 51 62 52 63 61 65
REMARK SMILES IDX 77 66 54 67 43 68 44 69 48 70 45 71 47 72 46 73 65 74 66 75
REMARK SMILES IDX 70 76 67 77 69 78 68 79 55 80 56 81 60 82 57 83 59 84 58 85
REMARK H PARENT 11 17 75 53 53 64
REMARK Flexibility Score: inf
ROOT
ATOM      1  C   UNL     1       4.111  -7.108   3.170  1.00  0.00     0.188 C 
ENDROOT
BRANCH   1   2
ATOM      2  C   UNL     1       4.573  -8.326   3.974  1.00  0.00     0.188 C 
BRANCH   2   3
ATOM      3  O   UNL     1       4.587  -9.506   3.187  1.00  0.00    -0.376 OA
BRANCH   3   4
ATOM      4  C   UNL     1       3.415 -10.308   3.126  1.00  0.00     0.202 C 
BRANCH   4   5
ATOM      5  C   UNL     1       1.996  -9.725   2.941  1.00  0.00     0.261 C 
BRANCH   5   6
ATOM      6  O   UNL     1       1.643  -8.534   3.664  1.00  0.00    -0.459 OA
BRANCH   6   7
ATOM      7  C   UNL     1       1.385  -8.627   4.994  1.00  0.00     0.350 C 
ATOM      8  O   UNL     1       1.442  -9.683   5.616  1.00  0.00    -0.245 OA
BRANCH   7   9
ATOM      9  C   UNL     1       1.101  -7.298   5.539  1.00  0.00     0.136 A 
ATOM     10  C   UNL     1       0.866  -6.062   4.924  1.00  0.00     0.067 A 
ATOM     11  C   UNL     1       0.579  -5.052   5.894  1.00  0.00     0.039 A 
ATOM     12  C   UNL     1       0.753  -5.488   7.187  1.00  0.00     0.068 A 
ATOM     13  S   UNL     1       1.127  -7.145   7.254  1.00  0.00    -0.135 S 
BRANCH  10  14
ATOM     14  N   UNL     1       0.902  -5.902   3.541  1.00  0.00    -0.319 N 
ATOM     15  C   UNL     1       0.933  -4.801   2.711  1.00  0.00     0.276 C 
ATOM     16  O   UNL     1       0.838  -4.993   1.494  1.00  0.00    -0.267 OA
ATOM     17  H   UNL     1       0.906  -6.756   3.052  1.00  0.00     0.170 HD
BRANCH  15  18
ATOM     18  C   UNL     1       1.121  -3.393   3.159  1.00  0.00     0.151 A 
ATOM     19  C   UNL     1       0.449  -1.225   2.767  1.00  0.00     0.188 A 
ATOM     20  N   UNL     1       1.416  -0.715   3.542  1.00  0.00    -0.230 NA
ATOM     21  N   UNL     1       0.239  -2.531   2.577  1.00  0.00    -0.216 NA
ATOM     22  C   UNL     1       2.266  -1.599   4.098  1.00  0.00     0.137 A 
ATOM     23  C   UNL     1       2.202  -2.962   3.904  1.00  0.00     0.090 A 
ATOM     24  Cl  UNL     1       3.485  -3.923   4.504  1.00  0.00    -0.080 Cl
BRANCH  19  25
ATOM     25  S   UNL     1      -0.461  -0.085   1.768  1.00  0.00    -0.090 SA
ATOM     26  C   UNL     1       0.642  -0.123   0.333  1.00  0.00     0.094 C 
ENDBRANCH  19  25
ENDBRANCH  15  18
ENDBRANCH  10  14
ENDBRANCH   7   9
ENDBRANCH   6   7
ENDBRANCH   5   6
ENDBRANCH   4   5
ENDBRANCH   3   4
ENDBRANCH   2   3
ENDBRANCH   1   2
BRANCH   1  27
ATOM     27  O   UNL     1       3.555  -7.473   1.913  1.00  0.00    -0.377 OA
BRANCH  27  28
ATOM     28  C   UNL     1       4.436  -7.364   0.797  1.00  0.00     0.188 C 
BRANCH  28  29
ATOM     29  C   UNL     1       5.879  -7.880   0.956  1.00  0.00     0.188 C 
BRANCH  29  30
ATOM     30  O   UNL     1       6.625  -7.152   1.935  1.00  0.00    -0.376 OA
BRANCH  30  31
ATOM     31  C   UNL     1       7.585  -6.226   1.432  1.00  0.00     0.202 C 
BRANCH  31  32
ATOM     32  C   UNL     1       6.984  -4.888   0.979  1.00  0.00     0.261 C 
BRANCH  32  33
ATOM     33  O   UNL     1       6.123  -4.965  -0.170  1.00  0.00    -0.460 OA
BRANCH  33  34
ATOM     34  C   UNL     1       6.652  -5.463  -1.308  1.00  0.00     0.338 C 
ATOM     35  O   UNL     1       7.810  -5.780  -1.507  1.00  0.00    -0.246 OA
BRANCH  34  36
ATOM     36  C   UNL     1       5.545  -5.739  -2.244  1.00  0.00     0.060 A 
ATOM     37  C   UNL     1       5.434  -7.022  -2.793  1.00  0.00     0.016 A 
ATOM     38  C   UNL     1       4.636  -4.736  -2.592  1.00  0.00     0.016 A 
ATOM     39  C   UNL     1       4.436  -7.294  -3.729  1.00  0.00     0.010 A 
ATOM     40  C   UNL     1       3.648  -5.005  -3.540  1.00  0.00     0.010 A 
ATOM     41  C   UNL     1       3.566  -6.274  -4.138  1.00  0.00    -0.014 A 
BRANCH  41  42
ATOM     42  C   UNL     1       2.695  -6.473  -5.319  1.00  0.00     0.031 A 
ATOM     43  C   UNL     1       3.198  -6.021  -6.662  1.00  0.00     0.074 A 
ATOM     44  C   UNL     1       1.480  -7.037  -5.206  1.00  0.00     0.049 A 
ATOM     45  N   UNL     1       2.602  -6.055  -7.826  1.00  0.00    -0.248 NA
ATOM     46  C   UNL     1       4.555  -5.449  -6.695  1.00  0.00     0.031 C 
ATOM     47  C   UNL     1       0.888  -7.538  -3.968  1.00  0.00     0.029 A 
ATOM     48  N   UNL     1       0.521  -7.269  -6.160  1.00  0.00    -0.354 N 
ATOM     49  C   UNL     1       3.507  -5.508  -8.727  1.00  0.00     0.074 A 
ATOM     50  C   UNL     1       4.682  -5.127  -7.974  1.00  0.00     0.031 C 
ATOM     51  C   UNL     1      -0.343  -8.010  -4.237  1.00  0.00     0.029 A 
ATOM     52  C   UNL     1      -0.633  -7.817  -5.657  1.00  0.00     0.049 A 
ATOM     53  H   UNL     1       0.648  -7.063  -7.114  1.00  0.00     0.167 HD
ATOM     54  C   UNL     1       3.375  -5.339 -10.063  1.00  0.00     0.031 A 
ATOM     55  C   UNL     1      -1.796  -8.109  -6.271  1.00  0.00     0.031 A 
ATOM     56  C   UNL     1       2.203  -5.696 -10.814  1.00  0.00     0.049 A 
ATOM     57  C   UNL     1      -1.943  -7.847  -7.747  1.00  0.00     0.074 A 
ATOM     58  C   UNL     1       1.983  -5.580 -12.175  1.00  0.00     0.029 A 
ATOM     59  N   UNL     1       1.049  -6.228 -10.263  1.00  0.00    -0.354 N 
ATOM     60  N   UNL     1      -1.064  -7.371  -8.596  1.00  0.00    -0.248 NA
ATOM     61  C   UNL     1      -3.245  -8.169  -8.350  1.00  0.00     0.031 C 
ATOM     62  C   UNL     1       0.675  -5.997 -12.441  1.00  0.00     0.029 A 
ATOM     63  C   UNL     1       0.102  -6.421 -11.253  1.00  0.00     0.049 A 
ATOM     64  H   UNL     1       0.922  -6.439  -9.310  1.00  0.00     0.167 HD
ATOM     65  C   UNL     1      -1.696  -7.363  -9.834  1.00  0.00     0.074 A 
ATOM     66  C   UNL     1      -3.028  -7.893  -9.629  1.00  0.00     0.031 C 
ATOM     67  C   UNL     1      -1.217  -6.954 -11.034  1.00  0.00     0.031 A 
BRANCH  54  68
ATOM     68  C   UNL     1       4.525  -4.707 -10.792  1.00  0.00    -0.014 A 
ATOM     69  C   UNL     1       5.710  -5.419 -11.034  1.00  0.00     0.009 A 
ATOM     70  C   UNL     1       4.409  -3.393 -11.269  1.00  0.00     0.009 A 
ATOM     71  C   UNL     1       6.769  -4.814 -11.715  1.00  0.00     0.001 A 
ATOM     72  C   UNL     1       5.460  -2.800 -11.970  1.00  0.00     0.001 A 
ATOM     73  C   UNL     1       6.641  -3.508 -12.186  1.00  0.00     0.000 A 
ENDBRANCH  54  68
BRANCH  55  74
ATOM     74  C   UNL     1      -2.934  -8.663  -5.493  1.00  0.00    -0.014 A 
ATOM     75  C   UNL     1      -3.351  -9.990  -5.679  1.00  0.00     0.009 A 
ATOM     76  C   UNL     1      -3.634  -7.853  -4.585  1.00  0.00     0.009 A 
ATOM     77  C   UNL     1      -4.463 -10.485  -4.993  1.00  0.00     0.001 A 
ATOM     78  C   UNL     1      -4.728  -8.358  -3.881  1.00  0.00     0.001 A 
ATOM     79  C   UNL     1      -5.149  -9.670  -4.093  1.00  0.00     0.000 A 
ENDBRANCH  55  74
BRANCH  67  80
ATOM     80  C   UNL     1      -2.120  -7.098 -12.225  1.00  0.00    -0.014 A 
ATOM     81  C   UNL     1      -3.211  -6.238 -12.421  1.00  0.00     0.009 A 
ATOM     82  C   UNL     1      -1.842  -8.078 -13.192  1.00  0.00     0.009 A 
ATOM     83  C   UNL     1      -4.023  -6.375 -13.549  1.00  0.00     0.001 A 
ATOM     84  C   UNL     1      -2.640  -8.195 -14.331  1.00  0.00     0.001 A 
ATOM     85  C   UNL     1      -3.734  -7.349 -14.505  1.00  0.00     0.000 A 
ENDBRANCH  67  80
ENDBRANCH  41  42
ENDBRANCH  34  36
ENDBRANCH  33  34
ENDBRANCH  32  33
ENDBRANCH  31  32
ENDBRANCH  30  31
ENDBRANCH  29  30
ENDBRANCH  28  29
ENDBRANCH  27  28
ENDBRANCH   1  27
TORSDOF 23
