REMARK SMILES Nc1ccc([C@H]([NH3+])C(=O)OCCOCCOCCOCCOC(=O)c2ccc(-c3c4nc(c(-c5ccccc5)c5ccc([nH]5)c(-c5ccccc5)c5nc(c(-c6ccccc6)c6ccc3[nH]6)C=C5)C=C4)cc2)cc1C(F)(F)F
REMARK SMILES IDX 16 1 15 2 14 3 13 4 12 5 11 6 10 7 8 8 9 9 6 10 5 11 2 12
REMARK SMILES IDX 3 13 74 14 4 15 73 16 1 17 75 20 76 21 77 22 78 23 7 24
REMARK SMILES IDX 17 28 18 29 19 30 20 31 21 32 22 33 23 34 24 35 25 36 26 37
REMARK SMILES IDX 72 38 27 39 71 40 28 41 29 42 30 43 65 44 31 45 70 46 64 47
REMARK SMILES IDX 66 48 32 49 69 50 63 51 62 52 33 54 55 55 40 56 54 57 41 58
REMARK SMILES IDX 44 59 53 60 67 61 42 62 43 63 52 65 68 66 45 67 34 68 35 69
REMARK SMILES IDX 39 70 36 71 38 72 37 73 56 74 57 75 61 76 58 77 60 78 59 79
REMARK SMILES IDX 46 80 47 81 51 82 48 83 50 84 49 85
REMARK H PARENT 1 18 1 19 7 25 7 26 7 27 66 53 44 64
REMARK Flexibility Score: inf
ROOT
ATOM      1  O   UNL     1      -2.068  -1.502   2.904  1.00  0.00    -0.377 OA
ENDROOT
BRANCH   1   2
ATOM      2  C   UNL     1      -2.240  -0.105   2.772  1.00  0.00     0.188 C 
BRANCH   2   3
ATOM      3  C   UNL     1      -3.649   0.402   3.120  1.00  0.00     0.188 C 
BRANCH   3   4
ATOM      4  O   UNL     1      -4.572  -0.402   3.847  1.00  0.00    -0.376 OA
BRANCH   4   5
ATOM      5  C   UNL     1      -4.729  -1.790   3.594  1.00  0.00     0.202 C 
BRANCH   5   6
ATOM      6  C   UNL     1      -4.870  -2.363   2.176  1.00  0.00     0.261 C 
BRANCH   6   7
ATOM      7  O   UNL     1      -4.116  -1.712   1.150  1.00  0.00    -0.459 OA
BRANCH   7   8
ATOM      8  C   UNL     1      -4.800  -0.773   0.440  1.00  0.00     0.369 C 
ATOM      9  O   UNL     1      -5.987  -0.508   0.609  1.00  0.00    -0.245 OA
BRANCH   8  10
ATOM     10  C   UNL     1      -3.953  -0.131  -0.678  1.00  0.00     0.323 C 
BRANCH  10  11
ATOM     11  C   UNL     1      -4.155  -0.890  -1.958  1.00  0.00     0.021 A 
ATOM     12  C   UNL     1      -4.673  -2.354  -4.298  1.00  0.00     0.044 A 
ATOM     13  C   UNL     1      -4.931  -0.975  -4.228  1.00  0.00     0.026 A 
ATOM     14  C   UNL     1      -4.091  -2.998  -3.198  1.00  0.00     0.079 A 
ATOM     15  C   UNL     1      -4.687  -0.248  -3.069  1.00  0.00     0.013 A 
ATOM     16  C   UNL     1      -3.832  -2.252  -2.038  1.00  0.00     0.025 A 
BRANCH  12  17
ATOM     17  N   UNL     1      -4.913  -2.998  -5.500  1.00  0.00    -0.398 N 
ATOM     18  H   UNL     1      -5.324  -2.508  -6.248  1.00  0.00     0.156 HD
ATOM     19  H   UNL     1      -4.672  -3.947  -5.607  1.00  0.00     0.156 HD
ENDBRANCH  12  17
BRANCH  14  20
ATOM     20  C   UNL     1      -3.755  -4.465  -3.152  1.00  0.00     0.418 C 
ATOM     21  F   UNL     1      -2.430  -4.689  -2.911  1.00  0.00    -0.166 F 
ATOM     22  F   UNL     1      -4.417  -5.112  -2.148  1.00  0.00    -0.166 F 
ATOM     23  F   UNL     1      -4.048  -5.162  -4.287  1.00  0.00    -0.166 F 
ENDBRANCH  14  20
ENDBRANCH  10  11
BRANCH  10  24
ATOM     24  N   UNL     1      -2.511  -0.001  -0.410  1.00  0.00    -0.342 N 
ATOM     25  H   UNL     1      -2.095  -0.929  -0.333  1.00  0.00     0.345 HD
ATOM     26  H   UNL     1      -2.372   0.507   0.463  1.00  0.00     0.345 HD
ATOM     27  H   UNL     1      -2.067   0.508  -1.174  1.00  0.00     0.345 HD
ENDBRANCH  10  24
ENDBRANCH   8  10
ENDBRANCH   7   8
ENDBRANCH   6   7
ENDBRANCH   5   6
ENDBRANCH   4   5
ENDBRANCH   3   4
ENDBRANCH   2   3
ENDBRANCH   1   2
BRANCH   1  28
ATOM     28  C   UNL     1      -1.387  -1.927   4.077  1.00  0.00     0.188 C 
BRANCH  28  29
ATOM     29  C   UNL     1      -1.714  -1.204   5.406  1.00  0.00     0.188 C 
BRANCH  29  30
ATOM     30  O   UNL     1      -1.685   0.214   5.337  1.00  0.00    -0.376 OA
BRANCH  30  31
ATOM     31  C   UNL     1      -0.513   0.912   5.735  1.00  0.00     0.202 C 
BRANCH  31  32
ATOM     32  C   UNL     1       0.783   0.692   4.934  1.00  0.00     0.261 C 
BRANCH  32  33
ATOM     33  O   UNL     1       1.240  -0.662   4.811  1.00  0.00    -0.460 OA
BRANCH  33  34
ATOM     34  C   UNL     1       1.508  -1.339   5.946  1.00  0.00     0.338 C 
ATOM     35  O   UNL     1       1.468  -0.911   7.087  1.00  0.00    -0.246 OA
BRANCH  34  36
ATOM     36  C   UNL     1       1.663  -2.766   5.594  1.00  0.00     0.060 A 
ATOM     37  C   UNL     1       0.807  -3.705   6.185  1.00  0.00     0.016 A 
ATOM     38  C   UNL     1       2.640  -3.174   4.683  1.00  0.00     0.016 A 
ATOM     39  C   UNL     1       0.955  -5.062   5.902  1.00  0.00     0.010 A 
ATOM     40  C   UNL     1       2.805  -4.536   4.420  1.00  0.00     0.010 A 
ATOM     41  C   UNL     1       1.990  -5.487   5.060  1.00  0.00    -0.014 A 
BRANCH  41  42
ATOM     42  C   UNL     1       2.360  -6.921   5.025  1.00  0.00     0.031 A 
ATOM     43  C   UNL     1       3.499  -7.380   5.894  1.00  0.00     0.074 A 
ATOM     44  C   UNL     1       1.691  -7.804   4.264  1.00  0.00     0.049 A 
ATOM     45  N   UNL     1       4.040  -8.566   6.000  1.00  0.00    -0.248 NA
ATOM     46  C   UNL     1       4.114  -6.357   6.757  1.00  0.00     0.031 C 
ATOM     47  C   UNL     1       0.535  -7.498   3.425  1.00  0.00     0.029 A 
ATOM     48  N   UNL     1       1.902  -9.148   4.075  1.00  0.00    -0.354 N 
ATOM     49  C   UNL     1       5.064  -8.429   6.928  1.00  0.00     0.074 A 
ATOM     50  C   UNL     1       5.090  -7.041   7.333  1.00  0.00     0.031 C 
ATOM     51  C   UNL     1       0.144  -8.623   2.800  1.00  0.00     0.029 A 
ATOM     52  C   UNL     1       1.044  -9.715   3.165  1.00  0.00     0.049 A 
ATOM     53  H   UNL     1       2.601  -9.655   4.546  1.00  0.00     0.167 HD
ATOM     54  C   UNL     1       5.907  -9.375   7.405  1.00  0.00     0.031 A 
ATOM     55  C   UNL     1       1.010 -10.966   2.667  1.00  0.00     0.031 A 
ATOM     56  C   UNL     1       5.894 -10.750   6.987  1.00  0.00     0.049 A 
ATOM     57  C   UNL     1       2.018 -11.980   3.143  1.00  0.00     0.074 A 
ATOM     58  C   UNL     1       6.698 -11.790   7.419  1.00  0.00     0.029 A 
ATOM     59  N   UNL     1       5.038 -11.275   6.031  1.00  0.00    -0.354 N 
ATOM     60  N   UNL     1       2.968 -11.848   4.038  1.00  0.00    -0.248 NA
ATOM     61  C   UNL     1       1.942 -13.321   2.545  1.00  0.00     0.031 C 
ATOM     62  C   UNL     1       6.376 -12.928   6.673  1.00  0.00     0.029 A 
ATOM     63  C   UNL     1       5.317 -12.616   5.834  1.00  0.00     0.049 A 
ATOM     64  H   UNL     1       4.335 -10.769   5.562  1.00  0.00     0.167 HD
ATOM     65  C   UNL     1       3.577 -13.094   4.135  1.00  0.00     0.074 A 
ATOM     66  C   UNL     1       2.882 -13.971   3.216  1.00  0.00     0.031 C 
ATOM     67  C   UNL     1       4.616 -13.479   4.917  1.00  0.00     0.031 A 
BRANCH  54  68
ATOM     68  C   UNL     1       6.949  -8.934   8.397  1.00  0.00    -0.014 A 
ATOM     69  C   UNL     1       6.605  -8.537   9.699  1.00  0.00     0.009 A 
ATOM     70  C   UNL     1       8.303  -8.935   8.024  1.00  0.00     0.009 A 
ATOM     71  C   UNL     1       7.591  -8.113  10.593  1.00  0.00     0.001 A 
ATOM     72  C   UNL     1       9.289  -8.544   8.931  1.00  0.00     0.001 A 
ATOM     73  C   UNL     1       8.931  -8.122  10.210  1.00  0.00     0.000 A 
ENDBRANCH  54  68
BRANCH  55  74
ATOM     74  C   UNL     1      -0.001 -11.331   1.638  1.00  0.00    -0.014 A 
ATOM     75  C   UNL     1      -1.025 -12.245   1.929  1.00  0.00     0.009 A 
ATOM     76  C   UNL     1       0.067 -10.779   0.348  1.00  0.00     0.009 A 
ATOM     77  C   UNL     1      -1.943 -12.618   0.944  1.00  0.00     0.001 A 
ATOM     78  C   UNL     1      -0.872 -11.129  -0.625  1.00  0.00     0.001 A 
ATOM     79  C   UNL     1      -1.869 -12.055  -0.330  1.00  0.00     0.000 A 
ENDBRANCH  55  74
BRANCH  67  80
ATOM     80  C   UNL     1       5.035 -14.923   4.856  1.00  0.00    -0.014 A 
ATOM     81  C   UNL     1       5.681 -15.456   3.731  1.00  0.00     0.009 A 
ATOM     82  C   UNL     1       4.824 -15.750   5.972  1.00  0.00     0.009 A 
ATOM     83  C   UNL     1       6.074 -16.797   3.711  1.00  0.00     0.001 A 
ATOM     84  C   UNL     1       5.249 -17.079   5.963  1.00  0.00     0.001 A 
ATOM     85  C   UNL     1       5.864 -17.604   4.828  1.00  0.00     0.000 A 
ENDBRANCH  67  80
ENDBRANCH  41  42
ENDBRANCH  34  36
ENDBRANCH  33  34
ENDBRANCH  32  33
ENDBRANCH  31  32
ENDBRANCH  30  31
ENDBRANCH  29  30
ENDBRANCH  28  29
ENDBRANCH   1  28
TORSDOF 24
