REMARK SMILES Cc1cc([C@H]([NH3+])C(=O)OCCOCCOCCOCCOC(=O)c2ccc(-c3c4nc(c(-c5ccccc5)c5ccc([nH]5)c(-c5ccccc5)c5nc(c(-c6ccccc6)c6ccc3[nH]6)C=C5)C=C4)cc2)ccc1F
REMARK SMILES IDX 16 1 15 2 14 3 13 4 12 5 11 6 10 7 9 8 7 9 8 10 5 11 4 12
REMARK SMILES IDX 1 13 2 14 3 15 74 16 73 17 75 18 72 19 6 20 17 24 18 25
REMARK SMILES IDX 19 26 20 27 21 28 22 29 23 30 24 31 25 32 71 33 26 34 70 35
REMARK SMILES IDX 27 36 28 37 29 38 64 39 30 40 69 41 63 42 65 43 31 44 68 45
REMARK SMILES IDX 62 46 61 47 32 49 54 50 39 51 53 52 40 53 43 54 52 55 66 56
REMARK SMILES IDX 41 57 42 58 51 60 67 61 44 62 33 63 34 64 38 65 35 66 37 67
REMARK SMILES IDX 36 68 55 69 56 70 60 71 57 72 59 73 58 74 45 75 46 76 50 77
REMARK SMILES IDX 47 78 49 79 48 80
REMARK H PARENT 6 21 6 22 6 23 65 48 43 59
REMARK Flexibility Score: inf
ROOT
ATOM      1  C   UNL     1      -2.445  -1.358   4.075  1.00  0.00     0.188 C 
ENDROOT
BRANCH   1   2
ATOM      2  O   UNL     1      -2.871  -0.744   2.867  1.00  0.00    -0.377 OA
BRANCH   2   3
ATOM      3  C   UNL     1      -2.519   0.616   2.712  1.00  0.00     0.188 C 
BRANCH   3   4
ATOM      4  C   UNL     1      -3.667   1.599   2.991  1.00  0.00     0.188 C 
BRANCH   4   5
ATOM      5  O   UNL     1      -4.832   1.196   3.701  1.00  0.00    -0.376 OA
BRANCH   5   6
ATOM      6  C   UNL     1      -5.483  -0.040   3.453  1.00  0.00     0.202 C 
BRANCH   6   7
ATOM      7  C   UNL     1      -5.747  -0.593   2.042  1.00  0.00     0.261 C 
BRANCH   7   8
ATOM      8  O   UNL     1      -4.793  -0.264   1.029  1.00  0.00    -0.459 OA
BRANCH   8   9
ATOM      9  C   UNL     1      -5.107   0.829   0.284  1.00  0.00     0.369 C 
ATOM     10  O   UNL     1      -6.142   1.479   0.414  1.00  0.00    -0.245 OA
BRANCH   9  11
ATOM     11  C   UNL     1      -4.063   1.141  -0.804  1.00  0.00     0.323 C 
BRANCH  11  12
ATOM     12  C   UNL     1      -4.495   0.515  -2.102  1.00  0.00     0.021 A 
ATOM     13  C   UNL     1      -4.829  -2.938  -3.676  1.00  0.00     0.047 C 
ATOM     14  C   UNL     1      -4.893  -1.457  -3.472  1.00  0.00    -0.015 A 
ATOM     15  C   UNL     1      -4.423  -0.878  -2.293  1.00  0.00     0.017 A 
ATOM     16  C   UNL     1      -5.449  -0.625  -4.445  1.00  0.00     0.126 A 
ATOM     17  C   UNL     1      -5.530   0.753  -4.268  1.00  0.00     0.040 A 
ATOM     18  F   UNL     1      -5.933  -1.157  -5.575  1.00  0.00    -0.207 F 
ATOM     19  C   UNL     1      -5.049   1.326  -3.097  1.00  0.00     0.013 A 
ENDBRANCH  11  12
BRANCH  11  20
ATOM     20  N   UNL     1      -2.668   0.782  -0.493  1.00  0.00    -0.342 N 
ATOM     21  H   UNL     1      -2.589  -0.232  -0.407  1.00  0.00     0.345 HD
ATOM     22  H   UNL     1      -2.392   1.220   0.386  1.00  0.00     0.345 HD
ATOM     23  H   UNL     1      -2.057   1.108  -1.242  1.00  0.00     0.345 HD
ENDBRANCH  11  20
ENDBRANCH   9  11
ENDBRANCH   8   9
ENDBRANCH   7   8
ENDBRANCH   6   7
ENDBRANCH   5   6
ENDBRANCH   4   5
ENDBRANCH   3   4
ENDBRANCH   2   3
ENDBRANCH   1   2
BRANCH   1  24
ATOM     24  C   UNL     1      -2.519  -0.533   5.380  1.00  0.00     0.188 C 
BRANCH  24  25
ATOM     25  O   UNL     1      -1.931   0.758   5.303  1.00  0.00    -0.376 OA
BRANCH  25  26
ATOM     26  C   UNL     1      -0.600   0.941   5.766  1.00  0.00     0.202 C 
BRANCH  26  27
ATOM     27  C   UNL     1       0.535   0.233   5.005  1.00  0.00     0.261 C 
BRANCH  27  28
ATOM     28  O   UNL     1       0.445  -1.196   4.902  1.00  0.00    -0.460 OA
BRANCH  28  29
ATOM     29  C   UNL     1       0.387  -1.913   6.043  1.00  0.00     0.338 C 
ATOM     30  O   UNL     1       0.470  -1.492   7.184  1.00  0.00    -0.246 OA
BRANCH  29  31
ATOM     31  C   UNL     1      -0.007  -3.292   5.683  1.00  0.00     0.060 A 
ATOM     32  C   UNL     1      -1.189  -3.821   6.219  1.00  0.00     0.016 A 
ATOM     33  C   UNL     1       0.771  -4.049   4.805  1.00  0.00     0.016 A 
ATOM     34  C   UNL     1      -1.580  -5.123   5.904  1.00  0.00     0.010 A 
ATOM     35  C   UNL     1       0.394  -5.363   4.512  1.00  0.00     0.010 A 
ATOM     36  C   UNL     1      -0.765  -5.915   5.086  1.00  0.00    -0.014 A 
BRANCH  36  37
ATOM     37  C   UNL     1      -1.002  -7.377   5.006  1.00  0.00     0.031 A 
ATOM     38  C   UNL     1      -0.198  -8.274   5.906  1.00  0.00     0.074 A 
ATOM     39  C   UNL     1      -1.915  -7.901   4.170  1.00  0.00     0.049 A 
ATOM     40  N   UNL     1      -0.179  -9.580   5.978  1.00  0.00    -0.248 NA
ATOM     41  C   UNL     1       0.712  -7.604   6.851  1.00  0.00     0.031 C 
ATOM     42  C   UNL     1      -2.796  -7.140   3.288  1.00  0.00     0.029 A 
ATOM     43  N   UNL     1      -2.240  -9.212   3.925  1.00  0.00    -0.354 N 
ATOM     44  C   UNL     1       0.749  -9.887   6.965  1.00  0.00     0.074 A 
ATOM     45  C   UNL     1       1.294  -8.636   7.442  1.00  0.00     0.031 C 
ATOM     46  C   UNL     1      -3.558  -8.000   2.588  1.00  0.00     0.029 A 
ATOM     47  C   UNL     1      -3.189  -9.370   2.945  1.00  0.00     0.049 A 
ATOM     48  H   UNL     1      -1.832  -9.968   4.407  1.00  0.00     0.167 HD
ATOM     49  C   UNL     1       1.115 -11.102   7.436  1.00  0.00     0.031 A 
ATOM     50  C   UNL     1      -3.682 -10.492   2.384  1.00  0.00     0.031 A 
ATOM     51  C   UNL     1       0.590 -12.348   6.948  1.00  0.00     0.049 A 
ATOM     52  C   UNL     1      -3.186 -11.835   2.856  1.00  0.00     0.074 A 
ATOM     53  C   UNL     1       0.888 -13.632   7.368  1.00  0.00     0.029 A 
ATOM     54  N   UNL     1      -0.334 -12.466   5.921  1.00  0.00    -0.354 N 
ATOM     55  N   UNL     1      -2.328 -12.115   3.808  1.00  0.00    -0.248 NA
ATOM     56  C   UNL     1      -3.732 -13.019   2.174  1.00  0.00     0.031 C 
ATOM     57  C   UNL     1       0.196 -14.530   6.549  1.00  0.00     0.029 A 
ATOM     58  C   UNL     1      -0.589 -13.803   5.668  1.00  0.00     0.049 A 
ATOM     59  H   UNL     1      -0.747 -11.711   5.443  1.00  0.00     0.167 HD
ATOM     60  C   UNL     1      -2.254 -13.503   3.858  1.00  0.00     0.074 A 
ATOM     61  C   UNL     1      -3.168 -14.007   2.854  1.00  0.00     0.031 C 
ATOM     62  C   UNL     1      -1.498 -14.290   4.663  1.00  0.00     0.031 A 
BRANCH  49  63
ATOM     63  C   UNL     1       2.172 -11.138   8.505  1.00  0.00    -0.014 A 
ATOM     64  C   UNL     1       1.912 -10.683   9.808  1.00  0.00     0.009 A 
ATOM     65  C   UNL     1       3.442 -11.655   8.208  1.00  0.00     0.009 A 
ATOM     66  C   UNL     1       2.916 -10.712  10.780  1.00  0.00     0.001 A 
ATOM     67  C   UNL     1       4.433 -11.713   9.189  1.00  0.00     0.001 A 
ATOM     68  C   UNL     1       4.172 -11.231  10.471  1.00  0.00     0.000 A 
ENDBRANCH  49  63
BRANCH  50  69
ATOM     69  C   UNL     1      -4.682 -10.404   1.286  1.00  0.00    -0.014 A 
ATOM     70  C   UNL     1      -5.997 -10.858   1.474  1.00  0.00     0.009 A 
ATOM     71  C   UNL     1      -4.316  -9.896   0.029  1.00  0.00     0.009 A 
ATOM     72  C   UNL     1      -6.914 -10.831   0.420  1.00  0.00     0.001 A 
ATOM     73  C   UNL     1      -5.244  -9.841  -1.014  1.00  0.00     0.001 A 
ATOM     74  C   UNL     1      -6.539 -10.319  -0.820  1.00  0.00     0.000 A 
ENDBRANCH  50  69
BRANCH  62  75
ATOM     75  C   UNL     1      -1.650 -15.781   4.518  1.00  0.00    -0.014 A 
ATOM     76  C   UNL     1      -1.168 -16.460   3.388  1.00  0.00     0.009 A 
ATOM     77  C   UNL     1      -2.243 -16.522   5.553  1.00  0.00     0.009 A 
ATOM     78  C   UNL     1      -1.309 -17.846   3.282  1.00  0.00     0.001 A 
ATOM     79  C   UNL     1      -2.351 -17.911   5.460  1.00  0.00     0.001 A 
ATOM     80  C   UNL     1      -1.894 -18.570   4.321  1.00  0.00     0.000 A 
ENDBRANCH  62  75
ENDBRANCH  36  37
ENDBRANCH  29  31
ENDBRANCH  28  29
ENDBRANCH  27  28
ENDBRANCH  26  27
ENDBRANCH  25  26
ENDBRANCH  24  25
ENDBRANCH   1  24
TORSDOF 22
