REMARK SMILES Cc1cccc([C@@H](CC(F)(F)F)C(=O)OCCOCCOCCOCCOC(=O)c2ccc(-c3c4nc(c(-c5ccccc5)c5ccc([nH]5)c(-c5ccccc5)c5nc(c(-c6ccccc6)c6ccc3[nH]6)C=C5)C=C4)cc2)c1
REMARK SMILES IDX 21 1 20 2 19 3 18 4 17 5 16 6 15 7 13 8 14 9 7 10 6 11 1 12
REMARK SMILES IDX 2 13 3 14 78 15 4 16 5 17 8 18 9 19 10 20 11 21 12 22 22 23
REMARK SMILES IDX 23 24 24 25 25 26 26 27 27 28 28 29 29 30 30 31 31 32 77 33
REMARK SMILES IDX 32 34 76 35 33 36 34 37 35 38 70 39 36 40 75 41 69 42 71 43
REMARK SMILES IDX 37 44 74 45 68 46 67 47 38 49 60 50 45 51 59 52 46 53 49 54
REMARK SMILES IDX 58 55 72 56 47 57 48 58 57 60 73 61 50 62 39 63 40 64 44 65
REMARK SMILES IDX 41 66 43 67 42 68 61 69 62 70 66 71 63 72 65 73 64 74 51 75
REMARK SMILES IDX 52 76 56 77 53 78 55 79 54 80
REMARK H PARENT 71 48 49 59
REMARK Flexibility Score: inf
ROOT
ATOM      1  O   UNL     1      -0.636   1.040   2.429  1.00  0.00    -0.377 OA
ENDROOT
BRANCH   1   2
ATOM      2  C   UNL     1      -0.425   2.115   3.366  1.00  0.00     0.188 C 
BRANCH   2   3
ATOM      3  C   UNL     1      -1.325   2.531   4.743  1.00  0.00     0.188 C 
BRANCH   3   4
ATOM      4  O   UNL     1      -2.900   3.297   5.003  1.00  0.00    -0.376 OA
BRANCH   4   5
ATOM      5  C   UNL     1      -4.473   3.290   4.170  1.00  0.00     0.202 C 
BRANCH   5   6
ATOM      6  C   UNL     1      -4.938   3.250   2.306  1.00  0.00     0.261 C 
BRANCH   6   7
ATOM      7  O   UNL     1      -3.848   3.394   0.858  1.00  0.00    -0.463 OA
BRANCH   7   8
ATOM      8  C   UNL     1      -2.764   4.113   0.248  1.00  0.00     0.313 C 
ATOM      9  O   UNL     1      -2.488   5.306   0.473  1.00  0.00    -0.252 OA
BRANCH   8  10
ATOM     10  C   UNL     1      -1.660   3.548  -0.826  1.00  0.00     0.138 C 
BRANCH  10  11
ATOM     11  C   UNL     1      -0.740   2.259  -0.890  1.00  0.00    -0.033 A 
ATOM     12  C   UNL     1       2.802   1.016   0.095  1.00  0.00     0.044 C 
ATOM     13  C   UNL     1       1.372   1.050  -0.371  1.00  0.00    -0.051 A 
ATOM     14  C   UNL     1       0.808  -0.150  -0.806  1.00  0.00     0.003 A 
ATOM     15  C   UNL     1       0.586   2.234  -0.374  1.00  0.00     0.008 A 
ATOM     16  C   UNL     1      -0.459  -0.145  -1.363  1.00  0.00     0.001 A 
ATOM     17  C   UNL     1      -1.176   1.054  -1.474  1.00  0.00     0.004 A 
ENDBRANCH  10  11
BRANCH  10  18
ATOM     18  C   UNL     1      -1.872   4.184  -2.203  1.00  0.00     0.135 C 
BRANCH  18  19
ATOM     19  C   UNL     1      -2.997   3.582  -2.989  1.00  0.00     0.390 C 
ATOM     20  F   UNL     1      -4.124   3.470  -2.269  1.00  0.00    -0.171 F 
ATOM     21  F   UNL     1      -3.269   4.356  -4.065  1.00  0.00    -0.171 F 
ATOM     22  F   UNL     1      -2.690   2.359  -3.467  1.00  0.00    -0.171 F 
ENDBRANCH  18  19
ENDBRANCH  10  18
ENDBRANCH   8  10
ENDBRANCH   7   8
ENDBRANCH   6   7
ENDBRANCH   5   6
ENDBRANCH   4   5
ENDBRANCH   3   4
ENDBRANCH   2   3
ENDBRANCH   1   2
BRANCH   1  23
ATOM     23  C   UNL     1      -0.749  -0.354   2.707  1.00  0.00     0.188 C 
BRANCH  23  24
ATOM     24  C   UNL     1       0.281  -0.953   3.626  1.00  0.00     0.188 C 
BRANCH  24  25
ATOM     25  O   UNL     1       0.290  -0.146   4.787  1.00  0.00    -0.376 OA
BRANCH  25  26
ATOM     26  C   UNL     1       1.393  -0.361   5.644  1.00  0.00     0.202 C 
BRANCH  26  27
ATOM     27  C   UNL     1       1.143  -1.570   6.542  1.00  0.00     0.261 C 
BRANCH  27  28
ATOM     28  O   UNL     1      -0.116  -1.366   7.228  1.00  0.00    -0.460 OA
BRANCH  28  29
ATOM     29  C   UNL     1      -1.157  -2.092   6.756  1.00  0.00     0.338 C 
ATOM     30  O   UNL     1      -1.102  -3.289   6.431  1.00  0.00    -0.246 OA
BRANCH  29  31
ATOM     31  C   UNL     1      -2.266  -1.193   6.356  1.00  0.00     0.060 A 
ATOM     32  C   UNL     1      -3.107  -1.543   5.320  1.00  0.00     0.016 A 
ATOM     33  C   UNL     1      -2.397   0.097   6.817  1.00  0.00     0.016 A 
ATOM     34  C   UNL     1      -3.675  -0.527   4.515  1.00  0.00     0.010 A 
ATOM     35  C   UNL     1      -3.070   1.055   6.013  1.00  0.00     0.010 A 
ATOM     36  C   UNL     1      -3.343   0.839   4.623  1.00  0.00    -0.014 A 
BRANCH  36  37
ATOM     37  C   UNL     1      -3.015   1.884   3.150  1.00  0.00     0.031 A 
ATOM     38  C   UNL     1      -2.592   3.825   2.996  1.00  0.00     0.074 A 
ATOM     39  C   UNL     1      -3.367   1.060   2.092  1.00  0.00     0.049 A 
ATOM     40  N   UNL     1      -3.507   4.739   2.562  1.00  0.00    -0.248 NA
ATOM     41  C   UNL     1      -1.727   4.933   3.788  1.00  0.00     0.031 C 
ATOM     42  C   UNL     1      -3.024   1.256   0.736  1.00  0.00     0.029 A 
ATOM     43  N   UNL     1      -4.340   0.060   1.928  1.00  0.00    -0.354 N 
ATOM     44  C   UNL     1      -3.475   6.065   2.883  1.00  0.00     0.074 A 
ATOM     45  C   UNL     1      -2.375   6.122   3.768  1.00  0.00     0.031 C 
ATOM     46  C   UNL     1      -4.030   0.963  -0.095  1.00  0.00     0.029 A 
ATOM     47  C   UNL     1      -4.987   0.280   0.708  1.00  0.00     0.049 A 
ATOM     48  H   UNL     1      -4.532  -0.669   2.561  1.00  0.00     0.167 HD
ATOM     49  C   UNL     1      -4.377   6.993   2.409  1.00  0.00     0.031 A 
ATOM     50  C   UNL     1      -6.208  -0.073   0.283  1.00  0.00     0.031 A 
ATOM     51  C   UNL     1      -5.139   6.596   1.213  1.00  0.00     0.049 A 
ATOM     52  C   UNL     1      -6.953   1.098  -0.295  1.00  0.00     0.074 A 
ATOM     53  C   UNL     1      -4.783   6.685  -0.125  1.00  0.00     0.029 A 
ATOM     54  N   UNL     1      -6.353   5.910   1.224  1.00  0.00    -0.354 N 
ATOM     55  N   UNL     1      -6.674   2.355  -0.015  1.00  0.00    -0.248 NA
ATOM     56  C   UNL     1      -8.065   0.961  -1.227  1.00  0.00     0.031 C 
ATOM     57  C   UNL     1      -5.613   5.816  -0.868  1.00  0.00     0.029 A 
ATOM     58  C   UNL     1      -6.579   5.301  -0.020  1.00  0.00     0.049 A 
ATOM     59  H   UNL     1      -6.965   5.861   1.994  1.00  0.00     0.167 HD
ATOM     60  C   UNL     1      -7.622   3.168  -0.599  1.00  0.00     0.074 A 
ATOM     61  C   UNL     1      -8.416   2.246  -1.401  1.00  0.00     0.031 C 
ATOM     62  C   UNL     1      -7.770   4.513  -0.355  1.00  0.00     0.031 A 
BRANCH  49  63
ATOM     63  C   UNL     1      -4.285   8.440   2.847  1.00  0.00    -0.014 A 
ATOM     64  C   UNL     1      -4.173   9.472   1.896  1.00  0.00     0.009 A 
ATOM     65  C   UNL     1      -4.282   8.823   4.201  1.00  0.00     0.009 A 
ATOM     66  C   UNL     1      -3.959  10.806   2.274  1.00  0.00     0.001 A 
ATOM     67  C   UNL     1      -4.058  10.158   4.583  1.00  0.00     0.001 A 
ATOM     68  C   UNL     1      -3.873  11.145   3.619  1.00  0.00     0.000 A 
ENDBRANCH  49  63
BRANCH  50  69
ATOM     69  C   UNL     1      -6.547  -1.448   0.724  1.00  0.00    -0.014 A 
ATOM     70  C   UNL     1      -5.782  -2.445   0.062  1.00  0.00     0.009 A 
ATOM     71  C   UNL     1      -6.908  -1.679   2.060  1.00  0.00     0.009 A 
ATOM     72  C   UNL     1      -5.183  -3.486   0.779  1.00  0.00     0.001 A 
ATOM     73  C   UNL     1      -6.326  -2.746   2.767  1.00  0.00     0.001 A 
ATOM     74  C   UNL     1      -5.420  -3.608   2.144  1.00  0.00     0.000 A 
ENDBRANCH  50  69
BRANCH  62  75
ATOM     75  C   UNL     1      -9.070   5.272  -0.572  1.00  0.00    -0.014 A 
ATOM     76  C   UNL     1     -10.320   4.667  -0.770  1.00  0.00     0.009 A 
ATOM     77  C   UNL     1      -9.082   6.677  -0.412  1.00  0.00     0.009 A 
ATOM     78  C   UNL     1     -11.502   5.416  -0.842  1.00  0.00     0.001 A 
ATOM     79  C   UNL     1     -10.264   7.424  -0.425  1.00  0.00     0.001 A 
ATOM     80  C   UNL     1     -11.476   6.792  -0.651  1.00  0.00     0.000 A 
ENDBRANCH  62  75
ENDBRANCH  36  37
ENDBRANCH  29  31
ENDBRANCH  28  29
ENDBRANCH  27  28
ENDBRANCH  26  27
ENDBRANCH  25  26
ENDBRANCH  24  25
ENDBRANCH  23  24
ENDBRANCH   1  23
TORSDOF 23
