REMARK SMILES C[C@H]1[C@@H](C(=O)OCCOCCOCCOCCOC(=O)c2ccc(-c3c4nc(c(-c5ccccc5)c5ccc([nH]5)c(-c5ccccc5)c5nc(c(-c6ccccc6)c6ccc3[nH]6)C=C5)C=C4)cc2)CCN1C(=O)c1cc2cc(F)ccc2s1
REMARK SMILES IDX 12 1 11 2 10 3 9 4 8 5 7 6 6 7 4 8 5 9 3 10 1 11 2 12 71 13
REMARK SMILES IDX 69 14 70 15 72 16 73 17 74 18 75 19 83 20 76 21 82 22 77 23
REMARK SMILES IDX 81 24 78 25 80 26 79 27 13 28 14 29 15 30 16 31 17 32 18 33
REMARK SMILES IDX 19 34 20 35 21 36 22 37 68 38 23 39 67 40 24 41 25 42 26 43
REMARK SMILES IDX 61 44 27 45 66 46 60 47 62 48 28 49 65 50 59 51 58 52 29 54
REMARK SMILES IDX 51 55 36 56 50 57 37 58 40 59 49 60 63 61 38 62 39 63 48 65
REMARK SMILES IDX 64 66 41 67 30 68 31 69 35 70 32 71 34 72 33 73 52 74 53 75
REMARK SMILES IDX 57 76 54 77 56 78 55 79 42 80 43 81 47 82 44 83 46 84 45 85
REMARK H PARENT 62 53 40 64
REMARK Flexibility Score: inf
ROOT
ATOM      1  O   UNL     1       0.965  -0.429  -3.178  1.00  0.00    -0.377 OA
ENDROOT
BRANCH   1   2
ATOM      2  C   UNL     1      -0.151   0.257  -2.624  1.00  0.00     0.188 C 
BRANCH   2   3
ATOM      3  C   UNL     1      -0.596   1.669  -3.062  1.00  0.00     0.188 C 
BRANCH   3   4
ATOM      4  O   UNL     1       0.322   2.329  -3.905  1.00  0.00    -0.376 OA
BRANCH   4   5
ATOM      5  C   UNL     1       1.145   3.349  -3.387  1.00  0.00     0.202 C 
BRANCH   5   6
ATOM      6  C   UNL     1       1.961   3.143  -2.101  1.00  0.00     0.261 C 
BRANCH   6   7
ATOM      7  O   UNL     1       1.488   2.164  -1.164  1.00  0.00    -0.463 OA
BRANCH   7   8
ATOM      8  C   UNL     1       0.745   2.606  -0.129  1.00  0.00     0.311 C 
ATOM      9  O   UNL     1       0.349   3.763  -0.028  1.00  0.00    -0.252 OA
BRANCH   8  10
ATOM     10  C   UNL     1       0.346   1.536   0.884  1.00  0.00     0.123 C 
ATOM     11  C   UNL     1       2.322  -0.085   0.250  1.00  0.00     0.032 C 
ATOM     12  C   UNL     1       1.028   0.148   1.020  1.00  0.00     0.096 C 
ATOM     13  N   UNL     1      -0.043  -0.837   0.817  1.00  0.00    -0.334 N 
ATOM     14  C   UNL     1      -1.160   1.268   0.756  1.00  0.00     0.039 C 
ATOM     15  C   UNL     1      -1.340  -0.224   0.647  1.00  0.00     0.121 C 
BRANCH  13  16
ATOM     16  C   UNL     1      -0.060  -2.204   1.054  1.00  0.00     0.264 C 
ATOM     17  O   UNL     1      -1.138  -2.767   1.271  1.00  0.00    -0.268 OA
BRANCH  16  18
ATOM     18  C   UNL     1       1.151  -2.999   0.984  1.00  0.00     0.093 A 
ATOM     19  C   UNL     1       1.641  -3.817   1.995  1.00  0.00     0.034 A 
ATOM     20  S   UNL     1       1.377  -3.870  -0.501  1.00  0.00    -0.130 S 
ATOM     21  C   UNL     1       1.184  -5.164   1.703  1.00  0.00    -0.004 A 
ATOM     22  C   UNL     1       0.883  -5.305   0.340  1.00  0.00     0.035 A 
ATOM     23  C   UNL     1       0.887  -6.243   2.567  1.00  0.00     0.048 A 
ATOM     24  C   UNL     1       0.250  -6.448  -0.178  1.00  0.00     0.022 A 
ATOM     25  C   UNL     1       0.198  -7.346   2.062  1.00  0.00     0.123 A 
ATOM     26  C   UNL     1      -0.134  -7.446   0.720  1.00  0.00     0.041 A 
ATOM     27  F   UNL     1      -0.192  -8.310   2.906  1.00  0.00    -0.207 F 
ENDBRANCH  16  18
ENDBRANCH  13  16
ENDBRANCH   8  10
ENDBRANCH   7   8
ENDBRANCH   6   7
ENDBRANCH   5   6
ENDBRANCH   4   5
ENDBRANCH   3   4
ENDBRANCH   2   3
ENDBRANCH   1   2
BRANCH   1  28
ATOM     28  C   UNL     1       1.514   0.002  -4.410  1.00  0.00     0.188 C 
BRANCH  28  29
ATOM     29  C   UNL     1       0.549   0.090  -5.606  1.00  0.00     0.188 C 
BRANCH  29  30
ATOM     30  O   UNL     1      -0.813  -0.120  -5.259  1.00  0.00    -0.376 OA
BRANCH  30  31
ATOM     31  C   UNL     1      -1.354  -1.408  -5.520  1.00  0.00     0.202 C 
BRANCH  31  32
ATOM     32  C   UNL     1      -0.759  -2.603  -4.755  1.00  0.00     0.261 C 
BRANCH  32  33
ATOM     33  O   UNL     1       0.649  -2.832  -4.925  1.00  0.00    -0.460 OA
BRANCH  33  34
ATOM     34  C   UNL     1       1.096  -3.066  -6.172  1.00  0.00     0.338 C 
ATOM     35  O   UNL     1       0.435  -3.151  -7.197  1.00  0.00    -0.246 OA
BRANCH  34  36
ATOM     36  C   UNL     1       2.568  -3.011  -6.141  1.00  0.00     0.060 A 
ATOM     37  C   UNL     1       3.221  -2.066  -6.944  1.00  0.00     0.016 A 
ATOM     38  C   UNL     1       3.299  -3.887  -5.335  1.00  0.00     0.016 A 
ATOM     39  C   UNL     1       4.611  -2.030  -6.983  1.00  0.00     0.010 A 
ATOM     40  C   UNL     1       4.695  -3.869  -5.396  1.00  0.00     0.010 A 
ATOM     41  C   UNL     1       5.351  -2.974  -6.258  1.00  0.00    -0.014 A 
BRANCH  41  42
ATOM     42  C   UNL     1       6.774  -3.174  -6.618  1.00  0.00     0.031 A 
ATOM     43  C   UNL     1       7.103  -4.261  -7.607  1.00  0.00     0.074 A 
ATOM     44  C   UNL     1       7.739  -2.362  -6.154  1.00  0.00     0.049 A 
ATOM     45  N   UNL     1       8.257  -4.587  -8.131  1.00  0.00    -0.248 NA
ATOM     46  C   UNL     1       5.975  -5.086  -8.072  1.00  0.00     0.031 C 
ATOM     47  C   UNL     1       7.538  -1.243  -5.236  1.00  0.00     0.029 A 
ATOM     48  N   UNL     1       9.086  -2.352  -6.412  1.00  0.00    -0.354 N 
ATOM     49  C   UNL     1       7.992  -5.652  -8.983  1.00  0.00     0.074 A 
ATOM     50  C   UNL     1       6.580  -5.944  -8.877  1.00  0.00     0.031 C 
ATOM     51  C   UNL     1       8.724  -0.649  -5.011  1.00  0.00     0.029 A 
ATOM     52  C   UNL     1       9.766  -1.362  -5.747  1.00  0.00     0.049 A 
ATOM     53  H   UNL     1       9.524  -2.994  -7.017  1.00  0.00     0.167 HD
ATOM     54  C   UNL     1       8.844  -6.323  -9.793  1.00  0.00     0.031 A 
ATOM     55  C   UNL     1      11.082  -1.074  -5.732  1.00  0.00     0.031 A 
ATOM     56  C   UNL     1      10.252  -6.047  -9.883  1.00  0.00     0.049 A 
ATOM     57  C   UNL     1      12.025  -1.891  -6.577  1.00  0.00     0.074 A 
ATOM     58  C   UNL     1      11.203  -6.667 -10.674  1.00  0.00     0.029 A 
ATOM     59  N   UNL     1      10.913  -5.077  -9.146  1.00  0.00    -0.354 N 
ATOM     60  N   UNL     1      11.760  -2.877  -7.401  1.00  0.00    -0.248 NA
ATOM     61  C   UNL     1      13.451  -1.540  -6.500  1.00  0.00     0.031 C 
ATOM     62  C   UNL     1      12.451  -6.115 -10.366  1.00  0.00     0.029 A 
ATOM     63  C   UNL     1      12.265  -5.099  -9.442  1.00  0.00     0.049 A 
ATOM     64  H   UNL     1      10.484  -4.462  -8.507  1.00  0.00     0.167 HD
ATOM     65  C   UNL     1      12.978  -3.239  -7.965  1.00  0.00     0.074 A 
ATOM     66  C   UNL     1      13.977  -2.353  -7.404  1.00  0.00     0.031 C 
ATOM     67  C   UNL     1      13.248  -4.214  -8.870  1.00  0.00     0.031 A 
BRANCH  54  68
ATOM     68  C   UNL     1       8.275  -7.449 -10.611  1.00  0.00    -0.014 A 
ATOM     69  C   UNL     1       7.395  -7.211 -11.679  1.00  0.00     0.009 A 
ATOM     70  C   UNL     1       8.638  -8.772 -10.315  1.00  0.00     0.009 A 
ATOM     71  C   UNL     1       6.862  -8.276 -12.409  1.00  0.00     0.001 A 
ATOM     72  C   UNL     1       8.131  -9.833 -11.067  1.00  0.00     0.001 A 
ATOM     73  C   UNL     1       7.235  -9.585 -12.106  1.00  0.00     0.000 A 
ENDBRANCH  54  68
BRANCH  55  74
ATOM     74  C   UNL     1      11.597   0.031  -4.879  1.00  0.00    -0.014 A 
ATOM     75  C   UNL     1      12.153   1.185  -5.452  1.00  0.00     0.009 A 
ATOM     76  C   UNL     1      11.567  -0.081  -3.480  1.00  0.00     0.009 A 
ATOM     77  C   UNL     1      12.697   2.187  -4.643  1.00  0.00     0.001 A 
ATOM     78  C   UNL     1      12.080   0.936  -2.673  1.00  0.00     0.001 A 
ATOM     79  C   UNL     1      12.656   2.064  -3.255  1.00  0.00     0.000 A 
ENDBRANCH  55  74
BRANCH  67  80
ATOM     80  C   UNL     1      14.671  -4.340  -9.345  1.00  0.00    -0.014 A 
ATOM     81  C   UNL     1      15.694  -4.790  -8.497  1.00  0.00     0.009 A 
ATOM     82  C   UNL     1      14.986  -4.022 -10.677  1.00  0.00     0.009 A 
ATOM     83  C   UNL     1      17.011  -4.870  -8.958  1.00  0.00     0.001 A 
ATOM     84  C   UNL     1      16.295  -4.139 -11.145  1.00  0.00     0.001 A 
ATOM     85  C   UNL     1      17.309  -4.548 -10.281  1.00  0.00     0.000 A 
ENDBRANCH  67  80
ENDBRANCH  41  42
ENDBRANCH  34  36
ENDBRANCH  33  34
ENDBRANCH  32  33
ENDBRANCH  31  32
ENDBRANCH  30  31
ENDBRANCH  29  30
ENDBRANCH  28  29
ENDBRANCH   1  28
TORSDOF 22
