REMARK SMILES O=C(OCCOCCOCCOCCOC(=O)[C@H]1CCCCN1c1cc(-c2ccccc2)nc(-c2cccc(Cl)c2)n1)c1ccc(-c2c3nc(c(-c4ccccc4)c4ccc([nH]4)c(-c4ccccc4)c4nc(c(-c5ccccc5)c5ccc2[nH]5)C=C4)C=C3)cc1
REMARK SMILES IDX 9 1 8 2 7 3 6 4 5 5 4 6 3 7 2 8 1 9 43 10 44 11 90 12 45 13
REMARK SMILES IDX 89 14 46 15 47 16 48 17 83 18 49 19 88 20 82 21 84 22 50 23
REMARK SMILES IDX 87 24 81 25 80 26 51 28 73 29 58 30 72 31 59 32 62 33 71 34
REMARK SMILES IDX 85 35 60 36 61 37 70 39 86 40 63 41 52 42 53 43 57 44 54 45
REMARK SMILES IDX 56 46 55 47 74 48 75 49 79 50 76 51 78 52 77 53 64 54 65 55
REMARK SMILES IDX 69 56 66 57 68 58 67 59 10 60 11 61 12 62 13 63 14 64 15 65
REMARK SMILES IDX 16 66 17 67 18 68 19 69 23 70 20 71 22 72 21 73 24 74 25 75
REMARK SMILES IDX 42 76 26 77 34 78 33 79 27 80 28 81 32 82 29 83 31 84 30 85
REMARK SMILES IDX 35 86 36 87 41 88 37 89 39 90 38 91 40 92
REMARK H PARENT 84 27 62 38
REMARK Flexibility Score: inf
ROOT
ATOM      1  O   UNL     1       7.122   0.349  -7.684  1.00  0.00    -0.377 OA
ENDROOT
BRANCH   1   2
ATOM      2  C   UNL     1       8.257   0.378  -8.537  1.00  0.00     0.188 C 
BRANCH   2   3
ATOM      3  C   UNL     1       9.565   0.086  -7.806  1.00  0.00     0.188 C 
BRANCH   3   4
ATOM      4  O   UNL     1       9.669  -1.305  -7.472  1.00  0.00    -0.376 OA
BRANCH   4   5
ATOM      5  C   UNL     1      10.189  -1.602  -6.175  1.00  0.00     0.202 C 
BRANCH   5   6
ATOM      6  C   UNL     1      11.712  -1.616  -6.060  1.00  0.00     0.261 C 
BRANCH   6   7
ATOM      7  O   UNL     1      12.330  -0.587  -6.838  1.00  0.00    -0.460 OA
BRANCH   7   8
ATOM      8  C   UNL     1      12.616  -0.599  -8.162  1.00  0.00     0.338 C 
ATOM      9  O   UNL     1      13.144   0.406  -8.636  1.00  0.00    -0.246 OA
BRANCH   8  10
ATOM     10  C   UNL     1      12.299  -1.730  -9.105  1.00  0.00     0.060 A 
ATOM     11  C   UNL     1      11.557  -2.879  -8.810  1.00  0.00     0.016 A 
ATOM     12  C   UNL     1      12.783  -1.597 -10.421  1.00  0.00     0.016 A 
ATOM     13  C   UNL     1      11.335  -3.874  -9.745  1.00  0.00     0.010 A 
ATOM     14  C   UNL     1      12.599  -2.609 -11.367  1.00  0.00     0.010 A 
ATOM     15  C   UNL     1      11.912  -3.769 -11.002  1.00  0.00    -0.014 A 
BRANCH  15  16
ATOM     16  C   UNL     1      12.045  -5.024 -11.749  1.00  0.00     0.031 A 
ATOM     17  C   UNL     1      13.313  -5.798 -11.540  1.00  0.00     0.074 A 
ATOM     18  C   UNL     1      10.989  -5.543 -12.393  1.00  0.00     0.049 A 
ATOM     19  N   UNL     1      13.689  -6.934 -12.056  1.00  0.00    -0.248 NA
ATOM     20  C   UNL     1      14.279  -5.221 -10.584  1.00  0.00     0.031 C 
ATOM     21  C   UNL     1       9.656  -4.940 -12.455  1.00  0.00     0.029 A 
ATOM     22  N   UNL     1      10.862  -6.720 -13.074  1.00  0.00    -0.354 N 
ATOM     23  C   UNL     1      14.946  -7.185 -11.519  1.00  0.00     0.074 A 
ATOM     24  C   UNL     1      15.266  -6.097 -10.627  1.00  0.00     0.031 C 
ATOM     25  C   UNL     1       8.839  -5.765 -13.132  1.00  0.00     0.029 A 
ATOM     26  C   UNL     1       9.610  -6.912 -13.600  1.00  0.00     0.049 A 
ATOM     27  H   UNL     1      11.597  -7.367 -13.177  1.00  0.00     0.167 HD
ATOM     28  C   UNL     1      15.768  -8.227 -11.772  1.00  0.00     0.031 A 
ATOM     29  C   UNL     1       9.167  -7.896 -14.403  1.00  0.00     0.031 A 
ATOM     30  C   UNL     1      15.425  -9.273 -12.692  1.00  0.00     0.049 A 
ATOM     31  C   UNL     1      10.147  -8.969 -14.793  1.00  0.00     0.074 A 
ATOM     32  C   UNL     1      16.192 -10.333 -13.131  1.00  0.00     0.029 A 
ATOM     33  N   UNL     1      14.190  -9.374 -13.320  1.00  0.00    -0.354 N 
ATOM     34  N   UNL     1      11.379  -9.153 -14.376  1.00  0.00    -0.248 NA
ATOM     35  C   UNL     1       9.688  -9.957 -15.776  1.00  0.00     0.031 C 
ATOM     36  C   UNL     1      15.435 -11.047 -14.068  1.00  0.00     0.029 A 
ATOM     37  C   UNL     1      14.177 -10.467 -14.163  1.00  0.00     0.049 A 
ATOM     38  H   UNL     1      13.435  -8.757 -13.184  1.00  0.00     0.167 HD
ATOM     39  C   UNL     1      11.840 -10.285 -15.033  1.00  0.00     0.074 A 
ATOM     40  C   UNL     1      10.744 -10.754 -15.862  1.00  0.00     0.031 C 
ATOM     41  C   UNL     1      13.055 -10.886 -14.966  1.00  0.00     0.031 A 
BRANCH  28  42
ATOM     42  C   UNL     1      17.129  -8.177 -11.139  1.00  0.00    -0.014 A 
ATOM     43  C   UNL     1      17.315  -8.367  -9.760  1.00  0.00     0.009 A 
ATOM     44  C   UNL     1      18.235  -7.832 -11.931  1.00  0.00     0.009 A 
ATOM     45  C   UNL     1      18.571  -8.160  -9.181  1.00  0.00     0.001 A 
ATOM     46  C   UNL     1      19.494  -7.653 -11.354  1.00  0.00     0.001 A 
ATOM     47  C   UNL     1      19.658  -7.801  -9.979  1.00  0.00     0.000 A 
ENDBRANCH  28  42
BRANCH  29  48
ATOM     48  C   UNL     1       7.778  -7.867 -14.932  1.00  0.00    -0.014 A 
ATOM     49  C   UNL     1       6.844  -8.851 -14.576  1.00  0.00     0.009 A 
ATOM     50  C   UNL     1       7.373  -6.839 -15.803  1.00  0.00     0.009 A 
ATOM     51  C   UNL     1       5.543  -8.813 -15.089  1.00  0.00     0.001 A 
ATOM     52  C   UNL     1       6.066  -6.787 -16.290  1.00  0.00     0.001 A 
ATOM     53  C   UNL     1       5.154  -7.779 -15.939  1.00  0.00     0.000 A 
ENDBRANCH  29  48
BRANCH  41  54
ATOM     54  C   UNL     1      13.235 -12.131 -15.783  1.00  0.00    -0.014 A 
ATOM     55  C   UNL     1      13.387 -12.072 -17.176  1.00  0.00     0.009 A 
ATOM     56  C   UNL     1      13.312 -13.373 -15.134  1.00  0.00     0.009 A 
ATOM     57  C   UNL     1      13.584 -13.242 -17.908  1.00  0.00     0.001 A 
ATOM     58  C   UNL     1      13.540 -14.536 -15.866  1.00  0.00     0.001 A 
ATOM     59  C   UNL     1      13.667 -14.471 -17.252  1.00  0.00     0.000 A 
ENDBRANCH  41  54
ENDBRANCH  15  16
ENDBRANCH   8  10
ENDBRANCH   7   8
ENDBRANCH   6   7
ENDBRANCH   5   6
ENDBRANCH   4   5
ENDBRANCH   3   4
ENDBRANCH   2   3
ENDBRANCH   1   2
BRANCH   1  60
ATOM     60  C   UNL     1       6.925  -0.870  -6.985  1.00  0.00     0.188 C 
BRANCH  60  61
ATOM     61  C   UNL     1       6.787  -2.153  -7.820  1.00  0.00     0.188 C 
BRANCH  61  62
ATOM     62  O   UNL     1       6.352  -1.909  -9.148  1.00  0.00    -0.376 OA
BRANCH  62  63
ATOM     63  C   UNL     1       4.950  -2.035  -9.348  1.00  0.00     0.202 C 
BRANCH  63  64
ATOM     64  C   UNL     1       4.077  -1.018  -8.591  1.00  0.00     0.261 C 
BRANCH  64  65
ATOM     65  O   UNL     1       4.098  -1.070  -7.140  1.00  0.00    -0.462 OA
BRANCH  65  66
ATOM     66  C   UNL     1       3.797  -2.235  -6.506  1.00  0.00     0.328 C 
ATOM     67  O   UNL     1       3.405  -3.224  -7.109  1.00  0.00    -0.250 OA
BRANCH  66  68
ATOM     68  C   UNL     1       3.992  -2.139  -4.949  1.00  0.00     0.193 C 
ATOM     69  C   UNL     1       3.154  -3.254  -4.305  1.00  0.00     0.037 C 
ATOM     70  N   UNL     1       5.415  -2.230  -4.463  1.00  0.00    -0.343 N 
ATOM     71  C   UNL     1       3.804  -4.629  -4.473  1.00  0.00     0.005 C 
ATOM     72  C   UNL     1       6.078  -3.539  -4.448  1.00  0.00     0.119 C 
ATOM     73  C   UNL     1       5.192  -4.629  -3.856  1.00  0.00     0.022 C 
BRANCH  70  74
ATOM     74  C   UNL     1       5.915  -1.255  -3.585  1.00  0.00     0.134 A 
ATOM     75  C   UNL     1       7.274  -0.940  -3.580  1.00  0.00     0.076 A 
ATOM     76  N   UNL     1       5.088  -0.594  -2.767  1.00  0.00    -0.211 NA
ATOM     77  C   UNL     1       7.724   0.130  -2.819  1.00  0.00     0.076 A 
ATOM     78  C   UNL     1       5.628   0.369  -1.982  1.00  0.00     0.162 A 
ATOM     79  N   UNL     1       6.906   0.780  -1.988  1.00  0.00    -0.228 NA
BRANCH  77  80
ATOM     80  C   UNL     1       9.087   0.681  -2.930  1.00  0.00     0.000 A 
ATOM     81  C   UNL     1       9.984   0.691  -1.850  1.00  0.00     0.010 A 
ATOM     82  C   UNL     1       9.520   1.268  -4.132  1.00  0.00     0.010 A 
ATOM     83  C   UNL     1      11.276   1.219  -1.987  1.00  0.00     0.001 A 
ATOM     84  C   UNL     1      10.817   1.773  -4.281  1.00  0.00     0.001 A 
ATOM     85  C   UNL     1      11.697   1.745  -3.207  1.00  0.00     0.000 A 
ENDBRANCH  77  80
BRANCH  78  86
ATOM     86  C   UNL     1       4.779   0.973  -0.960  1.00  0.00     0.021 A 
ATOM     87  C   UNL     1       4.172   0.173   0.023  1.00  0.00     0.012 A 
ATOM     88  C   UNL     1       4.599   2.365  -0.899  1.00  0.00     0.032 A 
ATOM     89  C   UNL     1       3.394   0.742   1.032  1.00  0.00     0.002 A 
ATOM     90  C   UNL     1       3.804   2.928   0.099  1.00  0.00     0.041 A 
ATOM     91  C   UNL     1       3.202   2.122   1.063  1.00  0.00     0.020 A 
ATOM     92  Cl  UNL     1       3.564   4.631   0.140  1.00  0.00    -0.084 Cl
ENDBRANCH  78  86
ENDBRANCH  70  74
ENDBRANCH  66  68
ENDBRANCH  65  66
ENDBRANCH  64  65
ENDBRANCH  63  64
ENDBRANCH  62  63
ENDBRANCH  61  62
ENDBRANCH  60  61
ENDBRANCH   1  60
TORSDOF 23
