REMARK SMILES O=C(OCCOCCOCCOCCOC(=O)c1ccc(-c2c3nc(c(-c4ccccc4)c4ccc([nH]4)c(-c4ccccc4)c4nc(c(-c5ccccc5)c5ccc2[nH]5)C=C4)C=C3)cc1)C1=Cc2cc(S(F)(F)(F)(F)F)cc(Br)c2O[C@@H]1C(F)(F)F
REMARK SMILES IDX 10 1 9 2 8 3 7 4 6 5 5 6 4 7 3 8 2 9 1 10 66 11 67 12 82 13
REMARK SMILES IDX 68 14 81 15 69 16 80 17 70 18 78 19 77 20 79 21 83 22 84 23
REMARK SMILES IDX 85 24 86 25 71 26 72 27 73 28 74 29 75 30 76 31 11 32 12 33
REMARK SMILES IDX 13 34 14 35 15 36 16 37 17 38 18 39 19 40 65 41 20 42 64 43
REMARK SMILES IDX 21 44 22 45 23 46 58 47 24 48 63 49 57 50 59 51 25 52 62 53
REMARK SMILES IDX 56 54 55 55 26 57 48 58 33 59 47 60 34 61 37 62 46 63 60 64
REMARK SMILES IDX 35 65 36 66 45 68 61 69 38 70 27 71 28 72 32 73 29 74 31 75
REMARK SMILES IDX 30 76 49 77 50 78 54 79 51 80 53 81 52 82 39 83 40 84 44 85
REMARK SMILES IDX 41 86 43 87 42 88
REMARK H PARENT 59 56 37 67
REMARK Flexibility Score: inf
ROOT
ATOM      1  C   UNL     1       4.455  -2.759  -0.080  1.00  0.00     0.188 C 
ENDROOT
BRANCH   1   2
ATOM      2  O   UNL     1       3.035  -2.759  -0.080  1.00  0.00    -0.377 OA
BRANCH   2   3
ATOM      3  C   UNL     1       2.562  -2.095  -1.242  1.00  0.00     0.188 C 
BRANCH   3   4
ATOM      4  C   UNL     1       3.068  -0.662  -1.248  1.00  0.00     0.188 C 
BRANCH   4   5
ATOM      5  O   UNL     1       4.488  -0.662  -1.248  1.00  0.00    -0.376 OA
BRANCH   5   6
ATOM      6  C   UNL     1       4.961  -1.326  -0.086  1.00  0.00     0.202 C 
BRANCH   6   7
ATOM      7  C   UNL     1       4.455  -0.604   1.152  1.00  0.00     0.261 C 
BRANCH   7   8
ATOM      8  O   UNL     1       3.035  -0.604   1.152  1.00  0.00    -0.460 OA
BRANCH   8   9
ATOM      9  C   UNL     1       2.325   0.006   0.084  1.00  0.00     0.338 C 
ATOM     10  O   UNL     1       1.054   0.006   0.084  1.00  0.00    -0.246 OA
BRANCH   9  11
ATOM     11  C   UNL     1       3.085   0.659  -1.059  1.00  0.00     0.087 C 
ATOM     12  C   UNL     1       4.445   0.659  -1.059  1.00  0.00     0.027 C 
ATOM     13  C   UNL     1       2.325   1.312  -2.202  1.00  0.00     0.316 C 
ATOM     14  C   UNL     1       5.205   0.006   0.084  1.00  0.00     0.020 A 
ATOM     15  O   UNL     1       3.590  -1.735   0.169  1.00  0.00    -0.474 OA
ATOM     16  C   UNL     1       6.346   0.639   0.547  1.00  0.00     0.036 A 
ATOM     17  C   UNL     1       4.845  -1.187   0.544  1.00  0.00     0.142 A 
ATOM     18  C   UNL     1       7.206  -0.201   1.293  1.00  0.00     0.109 A 
ATOM     19  C   UNL     1       5.675  -1.895   1.378  1.00  0.00     0.062 A 
ATOM     20  C   UNL     1       6.847  -1.354   1.829  1.00  0.00     0.044 A 
ATOM     21  Br  UNL     1       5.172  -3.707   1.932  1.00  0.00    -0.047 Br
BRANCH  13  22
ATOM     22  C   UNL     1       2.692   0.630  -3.510  1.00  0.00     0.430 C 
ATOM     23  F   UNL     1       2.371  -0.659  -3.443  1.00  0.00    -0.167 F 
ATOM     24  F   UNL     1       2.027   1.201  -4.510  1.00  0.00    -0.167 F 
ATOM     25  F   UNL     1       4.000   0.750  -3.721  1.00  0.00    -0.167 F 
ENDBRANCH  13  22
BRANCH  18  26
ATOM     26  S   UNL     1       8.917   0.341   1.529  1.00  0.00     0.310 S 
ATOM     27  F   UNL     1       8.764   0.340   3.108  1.00  0.00    -0.094 F 
ATOM     28  F   UNL     1       8.408   1.832   1.550  1.00  0.00    -0.094 F 
ATOM     29  F   UNL     1      10.385   0.809   1.734  1.00  0.00    -0.094 F 
ATOM     30  F   UNL     1       9.389  -1.162   1.647  1.00  0.00    -0.094 F 
ATOM     31  F   UNL     1       7.418  -0.152   1.435  1.00  0.00    -0.094 F 
ENDBRANCH  18  26
ENDBRANCH   9  11
ENDBRANCH   8   9
ENDBRANCH   7   8
ENDBRANCH   6   7
ENDBRANCH   5   6
ENDBRANCH   4   5
ENDBRANCH   3   4
ENDBRANCH   2   3
ENDBRANCH   1   2
BRANCH   1  32
ATOM     32  C   UNL     1       4.961  -3.482  -1.317  1.00  0.00     0.188 C 
BRANCH  32  33
ATOM     33  O   UNL     1       4.488  -2.817  -2.480  1.00  0.00    -0.376 OA
BRANCH  33  34
ATOM     34  C   UNL     1       3.068  -2.817  -2.480  1.00  0.00     0.202 C 
BRANCH  34  35
ATOM     35  C   UNL     1       2.562  -4.250  -2.474  1.00  0.00     0.261 C 
BRANCH  35  36
ATOM     36  O   UNL     1       3.035  -4.915  -1.311  1.00  0.00    -0.460 OA
BRANCH  36  37
ATOM     37  C   UNL     1       4.431  -5.043  -1.086  1.00  0.00     0.338 C 
ATOM     38  O   UNL     1       5.257  -4.564  -1.925  1.00  0.00    -0.246 OA
BRANCH  37  39
ATOM     39  C   UNL     1       4.938  -5.754   0.159  1.00  0.00     0.060 A 
ATOM     40  C   UNL     1       6.068  -5.255   0.784  1.00  0.00     0.016 A 
ATOM     41  C   UNL     1       4.394  -6.905   0.536  1.00  0.00     0.016 A 
ATOM     42  C   UNL     1       6.725  -6.193   1.615  1.00  0.00     0.010 A 
ATOM     43  C   UNL     1       5.024  -7.710   1.454  1.00  0.00     0.010 A 
ATOM     44  C   UNL     1       6.177  -7.305   2.068  1.00  0.00    -0.014 A 
BRANCH  44  45
ATOM     45  C   UNL     1       6.793  -8.093   3.213  1.00  0.00     0.031 A 
ATOM     46  C   UNL     1       7.195  -9.417   3.028  1.00  0.00     0.074 A 
ATOM     47  C   UNL     1       7.048  -7.360   4.359  1.00  0.00     0.049 A 
ATOM     48  N   UNL     1       7.897 -10.179   3.869  1.00  0.00    -0.248 NA
ATOM     49  C   UNL     1       6.897 -10.209   1.825  1.00  0.00     0.031 C 
ATOM     50  C   UNL     1       6.653  -6.021   4.549  1.00  0.00     0.029 A 
ATOM     51  N   UNL     1       7.707  -7.771   5.496  1.00  0.00    -0.354 N 
ATOM     52  C   UNL     1       8.104 -11.385   3.334  1.00  0.00     0.074 A 
ATOM     53  C   UNL     1       7.458 -11.423   2.015  1.00  0.00     0.031 C 
ATOM     54  C   UNL     1       7.058  -5.634   5.787  1.00  0.00     0.029 A 
ATOM     55  C   UNL     1       7.714  -6.724   6.391  1.00  0.00     0.049 A 
ATOM     56  H   UNL     1       8.105  -8.659   5.644  1.00  0.00     0.167 HD
ATOM     57  C   UNL     1       8.808 -12.452   3.894  1.00  0.00     0.031 A 
ATOM     58  C   UNL     1       8.253  -6.702   7.668  1.00  0.00     0.031 A 
ATOM     59  C   UNL     1       9.385 -12.415   5.154  1.00  0.00     0.049 A 
ATOM     60  C   UNL     1       8.907  -7.790   8.252  1.00  0.00     0.074 A 
ATOM     61  C   UNL     1      10.104 -13.480   5.730  1.00  0.00     0.029 A 
ATOM     62  N   UNL     1       9.370 -11.377   6.059  1.00  0.00    -0.354 N 
ATOM     63  N   UNL     1       9.148  -8.981   7.702  1.00  0.00    -0.248 NA
ATOM     64  C   UNL     1       9.454  -7.789   9.615  1.00  0.00     0.031 C 
ATOM     65  C   UNL     1      10.510 -13.093   6.969  1.00  0.00     0.029 A 
ATOM     66  C   UNL     1      10.050 -11.780   7.187  1.00  0.00     0.049 A 
ATOM     67  H   UNL     1       8.947 -10.498   5.922  1.00  0.00     0.167 HD
ATOM     68  C   UNL     1       9.814  -9.757   8.559  1.00  0.00     0.074 A 
ATOM     69  C   UNL     1      10.014  -9.003   9.805  1.00  0.00     0.031 C 
ATOM     70  C   UNL     1      10.267 -11.061   8.352  1.00  0.00     0.031 A 
BRANCH  57  71
ATOM     71  C   UNL     1       8.948 -13.726   3.078  1.00  0.00    -0.014 A 
ATOM     72  C   UNL     1       9.638 -13.613   1.882  1.00  0.00     0.009 A 
ATOM     73  C   UNL     1       8.485 -14.898   3.497  1.00  0.00     0.009 A 
ATOM     74  C   UNL     1       9.537 -14.754   1.052  1.00  0.00     0.001 A 
ATOM     75  C   UNL     1       8.541 -16.004   2.684  1.00  0.00     0.001 A 
ATOM     76  C   UNL     1       9.156 -15.949   1.464  1.00  0.00     0.000 A 
ENDBRANCH  57  71
BRANCH  58  77
ATOM     77  C   UNL     1       8.127  -5.422   8.478  1.00  0.00    -0.014 A 
ATOM     78  C   UNL     1       9.240  -4.770   8.982  1.00  0.00     0.009 A 
ATOM     79  C   UNL     1       6.899  -4.987   8.733  1.00  0.00     0.009 A 
ATOM     80  C   UNL     1       8.942  -3.826   9.994  1.00  0.00     0.001 A 
ATOM     81  C   UNL     1       6.691  -3.969   9.632  1.00  0.00     0.001 A 
ATOM     82  C   UNL     1       7.743  -3.318  10.214  1.00  0.00     0.000 A 
ENDBRANCH  58  77
BRANCH  70  83
ATOM     83  C   UNL     1      11.044 -11.733   9.472  1.00  0.00    -0.014 A 
ATOM     84  C   UNL     1      10.453 -11.789  10.723  1.00  0.00     0.009 A 
ATOM     85  C   UNL     1      12.289 -12.151   9.278  1.00  0.00     0.009 A 
ATOM     86  C   UNL     1      11.365 -12.037  11.777  1.00  0.00     0.001 A 
ATOM     87  C   UNL     1      13.081 -12.508  10.344  1.00  0.00     0.001 A 
ATOM     88  C   UNL     1      12.580 -12.529  11.616  1.00  0.00     0.000 A 
ENDBRANCH  70  83
ENDBRANCH  44  45
ENDBRANCH  37  39
ENDBRANCH  36  37
ENDBRANCH  35  36
ENDBRANCH  34  35
ENDBRANCH  33  34
ENDBRANCH  32  33
ENDBRANCH   1  32
TORSDOF 22
