REMARK SMILES CC[C@H](Oc1cccc(/C=C2\SC(=S)N(NC(=O)c3cccc(O)c3)C2=O)c1)C(=O)OCCOCCOCCOCCOC(=O)c1ccc(-c2c3nc(c(-c4ccccc4)c4ccc([nH]4)c(-c4ccccc4)c4nc(c(-c5ccccc5)c5ccc2[nH]5)C=C4)C=C3)cc1
REMARK SMILES IDX 35 1 34 2 33 3 32 4 31 5 29 6 30 7 3 8 2 9 1 10 4 11 5 12
REMARK SMILES IDX 6 13 28 14 7 15 9 16 8 17 10 18 11 19 12 20 26 21 13 22
REMARK SMILES IDX 15 23 27 24 14 25 16 26 17 27 18 29 19 30 20 31 25 32 21 33
REMARK SMILES IDX 23 34 22 35 24 36 36 38 37 39 38 40 39 41 40 42 41 43 42 44
REMARK SMILES IDX 43 45 44 46 45 47 46 48 47 49 93 50 48 51 92 52 49 53 50 54
REMARK SMILES IDX 51 55 86 56 52 57 91 58 85 59 87 60 53 61 90 62 84 63 83 64
REMARK SMILES IDX 54 66 76 67 61 68 75 69 62 70 65 71 74 72 88 73 63 74 64 75
REMARK SMILES IDX 73 77 89 78 66 79 55 80 56 81 60 82 57 83 59 84 58 85 77 86
REMARK SMILES IDX 78 87 82 88 79 89 81 90 80 91 67 92 68 93 72 94 69 95 71 96
REMARK SMILES IDX 70 97
REMARK H PARENT 16 28 24 37 87 65 65 76
REMARK Flexibility Score: inf
ROOT
ATOM      1  C   UNL     1       1.408   4.726  -0.289  1.00  0.00     0.188 C 
ENDROOT
BRANCH   1   2
ATOM      2  O   UNL     1       0.940   5.899  -0.941  1.00  0.00    -0.376 OA
BRANCH   2   3
ATOM      3  C   UNL     1      -0.300   5.967  -1.624  1.00  0.00     0.202 C 
BRANCH   3   4
ATOM      4  C   UNL     1      -0.845   4.860  -2.538  1.00  0.00     0.261 C 
BRANCH   4   5
ATOM      5  O   UNL     1      -0.591   3.507  -2.167  1.00  0.00    -0.461 OA
BRANCH   5   6
ATOM      6  C   UNL     1       0.521   2.950  -2.708  1.00  0.00     0.347 C 
ATOM      7  O   UNL     1       1.320   3.545  -3.425  1.00  0.00    -0.248 OA
BRANCH   6   8
ATOM      8  C   UNL     1       0.621   1.445  -2.413  1.00  0.00     0.282 C 
BRANCH   8   9
ATOM      9  C   UNL     1       0.145   0.787  -3.731  1.00  0.00     0.054 C 
ATOM     10  C   UNL     1      -1.144  -0.016  -3.704  1.00  0.00     0.008 C 
ENDBRANCH   8   9
BRANCH   8  11
ATOM     11  O   UNL     1      -0.063   1.106  -1.201  1.00  0.00    -0.479 OA
BRANCH  11  12
ATOM     12  C   UNL     1      -0.071  -0.174  -0.718  1.00  0.00     0.121 A 
ATOM     13  C   UNL     1       0.532  -1.254  -1.351  1.00  0.00     0.046 A 
ATOM     14  C   UNL     1      -0.859  -0.390   0.433  1.00  0.00     0.054 A 
ATOM     15  C   UNL     1       0.184  -2.549  -0.988  1.00  0.00     0.004 A 
ATOM     16  C   UNL     1      -1.177  -1.692   0.843  1.00  0.00    -0.021 A 
ATOM     17  C   UNL     1      -0.680  -2.761   0.080  1.00  0.00     0.008 A 
BRANCH  16  18
ATOM     18  C   UNL     1      -1.978  -2.092   2.014  1.00  0.00     0.029 C 
ATOM     19  C   UNL     1      -2.948  -1.508   2.726  1.00  0.00     0.082 C 
ATOM     20  S   UNL     1      -3.632   0.060   2.637  1.00  0.00    -0.052 SA
ATOM     21  C   UNL     1      -3.605  -2.285   3.820  1.00  0.00     0.285 C 
ATOM     22  C   UNL     1      -4.562  -0.187   4.113  1.00  0.00     0.168 C 
ATOM     23  N   UNL     1      -4.234  -1.403   4.672  1.00  0.00    -0.198 N 
ATOM     24  O   UNL     1      -3.635  -3.506   3.855  1.00  0.00    -0.266 OA
ATOM     25  S   UNL     1      -5.708   0.867   4.695  1.00  0.00    -0.050 S 
BRANCH  23  26
ATOM     26  N   UNL     1      -4.796  -1.782   5.907  1.00  0.00    -0.255 N 
ATOM     27  C   UNL     1      -4.192  -2.494   6.923  1.00  0.00     0.270 C 
ATOM     28  H   UNL     1      -5.728  -1.507   6.064  1.00  0.00     0.192 HD
ATOM     29  O   UNL     1      -4.707  -2.534   8.038  1.00  0.00    -0.267 OA
BRANCH  27  30
ATOM     30  C   UNL     1      -2.987  -3.305   6.675  1.00  0.00     0.045 A 
ATOM     31  C   UNL     1      -3.132  -4.694   6.796  1.00  0.00     0.014 A 
ATOM     32  C   UNL     1      -1.776  -2.743   6.260  1.00  0.00     0.060 A 
ATOM     33  C   UNL     1      -2.085  -5.534   6.426  1.00  0.00     0.005 A 
ATOM     34  C   UNL     1      -0.750  -3.600   5.870  1.00  0.00     0.116 A 
ATOM     35  C   UNL     1      -0.898  -4.984   5.944  1.00  0.00     0.046 A 
BRANCH  34  36
ATOM     36  O   UNL     1       0.423  -3.124   5.362  1.00  0.00    -0.508 OA
ATOM     37  H   UNL     1       1.099  -3.721   5.105  1.00  0.00     0.293 HD
ENDBRANCH  34  36
ENDBRANCH  27  30
ENDBRANCH  23  26
ENDBRANCH  16  18
ENDBRANCH  11  12
ENDBRANCH   8  11
ENDBRANCH   6   8
ENDBRANCH   5   6
ENDBRANCH   4   5
ENDBRANCH   3   4
ENDBRANCH   2   3
ENDBRANCH   1   2
BRANCH   1  38
ATOM     38  C   UNL     1       0.478   3.845   0.566  1.00  0.00     0.188 C 
BRANCH  38  39
ATOM     39  O   UNL     1      -0.897   4.139   0.420  1.00  0.00    -0.377 OA
BRANCH  39  40
ATOM     40  C   UNL     1      -1.469   5.025   1.373  1.00  0.00     0.188 C 
BRANCH  40  41
ATOM     41  C   UNL     1      -0.621   6.214   1.874  1.00  0.00     0.188 C 
BRANCH  41  42
ATOM     42  O   UNL     1       0.677   5.848   2.323  1.00  0.00    -0.376 OA
BRANCH  42  43
ATOM     43  C   UNL     1       0.901   5.731   3.719  1.00  0.00     0.202 C 
BRANCH  43  44
ATOM     44  C   UNL     1       0.194   4.571   4.435  1.00  0.00     0.261 C 
BRANCH  44  45
ATOM     45  O   UNL     1      -1.241   4.563   4.360  1.00  0.00    -0.460 OA
BRANCH  45  46
ATOM     46  C   UNL     1      -1.902   5.641   4.832  1.00  0.00     0.338 C 
ATOM     47  O   UNL     1      -1.425   6.612   5.395  1.00  0.00    -0.246 OA
BRANCH  46  48
ATOM     48  C   UNL     1      -3.306   5.535   4.392  1.00  0.00     0.060 A 
ATOM     49  C   UNL     1      -3.856   6.524   3.562  1.00  0.00     0.016 A 
ATOM     50  C   UNL     1      -4.083   4.462   4.816  1.00  0.00     0.016 A 
ATOM     51  C   UNL     1      -5.196   6.449   3.168  1.00  0.00     0.010 A 
ATOM     52  C   UNL     1      -5.428   4.416   4.449  1.00  0.00     0.010 A 
ATOM     53  C   UNL     1      -6.001   5.411   3.642  1.00  0.00    -0.014 A 
BRANCH  53  54
ATOM     54  C   UNL     1      -7.477   5.442   3.493  1.00  0.00     0.031 A 
ATOM     55  C   UNL     1      -8.301   5.813   4.698  1.00  0.00     0.074 A 
ATOM     56  C   UNL     1      -8.083   5.114   2.337  1.00  0.00     0.049 A 
ATOM     57  N   UNL     1      -9.601   5.844   4.841  1.00  0.00    -0.248 NA
ATOM     58  C   UNL     1      -7.553   6.186   5.911  1.00  0.00     0.031 C 
ATOM     59  C   UNL     1      -7.407   4.744   1.096  1.00  0.00     0.029 A 
ATOM     60  N   UNL     1      -9.420   5.032   2.030  1.00  0.00    -0.354 N 
ATOM     61  C   UNL     1      -9.823   6.219   6.160  1.00  0.00     0.074 A 
ATOM     62  C   UNL     1      -8.528   6.363   6.787  1.00  0.00     0.031 C 
ATOM     63  C   UNL     1      -8.334   4.481   0.157  1.00  0.00     0.029 A 
ATOM     64  C   UNL     1      -9.666   4.625   0.741  1.00  0.00     0.049 A 
ATOM     65  H   UNL     1     -10.134   5.245   2.674  1.00  0.00     0.167 HD
ATOM     66  C   UNL     1     -10.997   6.437   6.796  1.00  0.00     0.031 A 
ATOM     67  C   UNL     1     -10.834   4.383   0.113  1.00  0.00     0.031 A 
ATOM     68  C   UNL     1     -12.287   6.286   6.179  1.00  0.00     0.049 A 
ATOM     69  C   UNL     1     -12.131   4.570   0.861  1.00  0.00     0.074 A 
ATOM     70  C   UNL     1     -13.535   6.518   6.728  1.00  0.00     0.029 A 
ATOM     71  N   UNL     1     -12.492   5.851   4.880  1.00  0.00    -0.354 N 
ATOM     72  N   UNL     1     -12.329   4.979   2.091  1.00  0.00    -0.248 NA
ATOM     73  C   UNL     1     -13.369   4.268   0.125  1.00  0.00     0.031 C 
ATOM     74  C   UNL     1     -14.499   6.161   5.780  1.00  0.00     0.029 A 
ATOM     75  C   UNL     1     -13.849   5.777   4.618  1.00  0.00     0.049 A 
ATOM     76  H   UNL     1     -11.778   5.628   4.239  1.00  0.00     0.167 HD
ATOM     77  C   UNL     1     -13.708   5.017   2.264  1.00  0.00     0.074 A 
ATOM     78  C   UNL     1     -14.299   4.603   1.008  1.00  0.00     0.031 C 
ATOM     79  C   UNL     1     -14.422   5.367   3.362  1.00  0.00     0.031 A 
BRANCH  66  80
ATOM     80  C   UNL     1     -10.934   6.832   8.245  1.00  0.00    -0.014 A 
ATOM     81  C   UNL     1     -10.435   8.083   8.644  1.00  0.00     0.009 A 
ATOM     82  C   UNL     1     -11.399   5.943   9.227  1.00  0.00     0.009 A 
ATOM     83  C   UNL     1     -10.366   8.418   9.998  1.00  0.00     0.001 A 
ATOM     84  C   UNL     1     -11.360   6.294  10.577  1.00  0.00     0.001 A 
ATOM     85  C   UNL     1     -10.834   7.526  10.962  1.00  0.00     0.000 A 
ENDBRANCH  66  80
BRANCH  67  86
ATOM     86  C   UNL     1     -10.846   3.931  -1.305  1.00  0.00    -0.014 A 
ATOM     87  C   UNL     1     -11.353   4.763  -2.316  1.00  0.00     0.009 A 
ATOM     88  C   UNL     1     -10.382   2.653  -1.653  1.00  0.00     0.009 A 
ATOM     89  C   UNL     1     -11.422   4.314  -3.638  1.00  0.00     0.001 A 
ATOM     90  C   UNL     1     -10.422   2.219  -2.980  1.00  0.00     0.001 A 
ATOM     91  C   UNL     1     -10.952   3.045  -3.970  1.00  0.00     0.000 A 
ENDBRANCH  67  86
BRANCH  79  92
ATOM     92  C   UNL     1     -15.923   5.367   3.246  1.00  0.00    -0.014 A 
ATOM     93  C   UNL     1     -16.654   4.173   3.147  1.00  0.00     0.009 A 
ATOM     94  C   UNL     1     -16.619   6.586   3.289  1.00  0.00     0.009 A 
ATOM     95  C   UNL     1     -18.048   4.204   3.058  1.00  0.00     0.001 A 
ATOM     96  C   UNL     1     -18.013   6.612   3.235  1.00  0.00     0.001 A 
ATOM     97  C   UNL     1     -18.726   5.421   3.108  1.00  0.00     0.000 A 
ENDBRANCH  79  92
ENDBRANCH  53  54
ENDBRANCH  46  48
ENDBRANCH  45  46
ENDBRANCH  44  45
ENDBRANCH  43  44
ENDBRANCH  42  43
ENDBRANCH  41  42
ENDBRANCH  40  41
ENDBRANCH  39  40
ENDBRANCH  38  39
ENDBRANCH   1  38
TORSDOF 27
