REMARK SMILES NC(=O)N[C@@H]1CCCCC[C@H]1C(=O)OCCOCCOCCOCCOC(=O)c1ccc(-c2c3nc(c(-c4ccccc4)c4ccc([nH]4)c(-c4ccccc4)c4nc(c(-c5ccccc5)c5ccc2[nH]5)C=C4)C=C3)cc1
REMARK SMILES IDX 19 1 18 2 17 3 16 4 15 5 14 6 12 7 13 8 11 9 5 10 4 11 1 12
REMARK SMILES IDX 2 13 3 16 6 18 10 20 9 21 8 22 7 23 20 25 21 26 22 27 23 28
REMARK SMILES IDX 24 29 25 30 26 31 27 32 28 33 29 34 30 35 76 36 31 37 75 38
REMARK SMILES IDX 32 39 33 40 34 41 69 42 35 43 74 44 68 45 70 46 36 47 73 48
REMARK SMILES IDX 67 49 66 50 37 52 59 53 44 54 58 55 45 56 48 57 57 58 71 59
REMARK SMILES IDX 46 60 47 61 56 63 72 64 49 65 38 66 39 67 43 68 40 69 42 70
REMARK SMILES IDX 41 71 60 72 61 73 65 74 62 75 64 76 63 77 50 78 51 79 55 80
REMARK SMILES IDX 52 81 54 82 53 83
REMARK H PARENT 1 14 1 15 4 17 70 51 48 62
REMARK Flexibility Score: 90.00
ROOT
ATOM      1  C   UNL     1       4.020  -0.230  -3.207  1.00  0.00     0.188 C 
ENDROOT
BRANCH   1   2
ATOM      2  C   UNL     1       4.735   1.032  -2.714  1.00  0.00     0.188 C 
BRANCH   2   3
ATOM      3  O   UNL     1       6.141   1.149  -2.815  1.00  0.00    -0.376 OA
BRANCH   3   4
ATOM      4  C   UNL     1       7.023   0.228  -2.191  1.00  0.00     0.202 C 
BRANCH   4   5
ATOM      5  C   UNL     1       6.733  -0.482  -0.859  1.00  0.00     0.261 C 
BRANCH   5   6
ATOM      6  O   UNL     1       5.484  -1.190  -0.754  1.00  0.00    -0.463 OA
BRANCH   6   7
ATOM      7  C   UNL     1       4.574  -0.629   0.065  1.00  0.00     0.311 C 
ATOM      8  O   UNL     1       4.769   0.424   0.672  1.00  0.00    -0.252 OA
BRANCH   7   9
ATOM      9  C   UNL     1       3.281  -1.407   0.297  1.00  0.00     0.121 C 
BRANCH   9  10
ATOM     10  C   UNL     1       2.631  -2.353  -0.730  1.00  0.00     0.098 C 
BRANCH  10  11
ATOM     11  N   UNL     1       1.134  -2.274  -0.844  1.00  0.00    -0.335 N 
ATOM     12  N   UNL     1       0.376  -0.276   0.080  1.00  0.00    -0.352 N 
ATOM     13  C   UNL     1       0.173  -1.348  -0.690  1.00  0.00     0.312 C 
ATOM     14  H   UNL     1      -0.336   0.396   0.186  1.00  0.00     0.161 HD
ATOM     15  H   UNL     1       1.237  -0.158   0.542  1.00  0.00     0.161 HD
ATOM     16  O   UNL     1      -0.910  -1.496  -1.249  1.00  0.00    -0.249 OA
ATOM     17  H   UNL     1       0.752  -3.143  -1.103  1.00  0.00     0.165 HD
ENDBRANCH  10  11
BRANCH  10  18
ATOM     18  C   UNL     1       2.941  -3.852  -0.552  1.00  0.00     0.026 CG0
ATOM     19  G   UNL     1       4.399  -4.180  -0.287  1.00  0.00     0.000 G0
ENDBRANCH  10  18
ENDBRANCH   9  10
BRANCH   9  20
ATOM     20  C   UNL     1       3.322  -2.009   1.701  1.00  0.00     0.017 C 
BRANCH  20  21
ATOM     21  C   UNL     1       4.571  -2.849   1.978  1.00  0.00     0.001 C 
BRANCH  21  22
ATOM     22  C   UNL     1       4.756  -4.150   1.196  1.00  0.00     0.000 C 
BRANCH  22  23
ATOM     23  C   UNL     1       4.399  -4.180  -0.287  1.00  0.00     0.002 CG0
ATOM     24  G   UNL     1       2.941  -3.852  -0.552  1.00  0.00     0.000 G0
ENDBRANCH  22  23
ENDBRANCH  21  22
ENDBRANCH  20  21
ENDBRANCH   9  20
ENDBRANCH   7   9
ENDBRANCH   6   7
ENDBRANCH   5   6
ENDBRANCH   4   5
ENDBRANCH   3   4
ENDBRANCH   2   3
ENDBRANCH   1   2
BRANCH   1  25
ATOM     25  O   UNL     1       4.793  -1.415  -3.199  1.00  0.00    -0.377 OA
BRANCH  25  26
ATOM     26  C   UNL     1       5.560  -1.751  -4.350  1.00  0.00     0.188 C 
BRANCH  26  27
ATOM     27  C   UNL     1       5.858  -0.675  -5.412  1.00  0.00     0.188 C 
BRANCH  27  28
ATOM     28  O   UNL     1       4.737   0.109  -5.777  1.00  0.00    -0.376 OA
BRANCH  28  29
ATOM     29  C   UNL     1       3.937  -0.297  -6.878  1.00  0.00     0.202 C 
BRANCH  29  30
ATOM     30  C   UNL     1       3.282  -1.688  -6.839  1.00  0.00     0.261 C 
BRANCH  30  31
ATOM     31  O   UNL     1       4.160  -2.826  -6.768  1.00  0.00    -0.460 OA
BRANCH  31  32
ATOM     32  C   UNL     1       5.150  -2.943  -7.672  1.00  0.00     0.338 C 
ATOM     33  O   UNL     1       5.371  -2.219  -8.630  1.00  0.00    -0.246 OA
BRANCH  32  34
ATOM     34  C   UNL     1       6.064  -4.006  -7.206  1.00  0.00     0.060 A 
ATOM     35  C   UNL     1       7.401  -3.688  -6.932  1.00  0.00     0.016 A 
ATOM     36  C   UNL     1       5.606  -5.318  -7.067  1.00  0.00     0.016 A 
ATOM     37  C   UNL     1       8.298  -4.692  -6.565  1.00  0.00     0.010 A 
ATOM     38  C   UNL     1       6.510  -6.326  -6.719  1.00  0.00     0.010 A 
ATOM     39  C   UNL     1       7.867  -6.024  -6.507  1.00  0.00    -0.014 A 
BRANCH  39  40
ATOM     40  C   UNL     1       8.863  -7.120  -6.431  1.00  0.00     0.031 A 
ATOM     41  C   UNL     1       9.245  -7.829  -7.704  1.00  0.00     0.074 A 
ATOM     42  C   UNL     1       9.431  -7.476  -5.265  1.00  0.00     0.049 A 
ATOM     43  N   UNL     1      10.038  -8.854  -7.879  1.00  0.00    -0.248 NA
ATOM     44  C   UNL     1       8.647  -7.309  -8.946  1.00  0.00     0.031 C 
ATOM     45  C   UNL     1       9.192  -6.836  -3.974  1.00  0.00     0.029 A 
ATOM     46  N   UNL     1      10.327  -8.479  -4.985  1.00  0.00    -0.354 N 
ATOM     47  C   UNL     1      10.022  -9.111  -9.245  1.00  0.00     0.074 A 
ATOM     48  C   UNL     1       9.121  -8.155  -9.848  1.00  0.00     0.031 C 
ATOM     49  C   UNL     1       9.916  -7.470  -3.034  1.00  0.00     0.029 A 
ATOM     50  C   UNL     1      10.636  -8.583  -3.651  1.00  0.00     0.049 A 
ATOM     51  H   UNL     1      10.711  -9.067  -5.675  1.00  0.00     0.167 HD
ATOM     52  C   UNL     1      10.699 -10.057  -9.937  1.00  0.00     0.031 A 
ATOM     53  C   UNL     1      11.390  -9.491  -3.001  1.00  0.00     0.031 A 
ATOM     54  C   UNL     1      11.584 -11.019  -9.336  1.00  0.00     0.049 A 
ATOM     55  C   UNL     1      12.061 -10.592  -3.783  1.00  0.00     0.074 A 
ATOM     56  C   UNL     1      12.327 -12.010  -9.955  1.00  0.00     0.029 A 
ATOM     57  N   UNL     1      11.838 -11.116  -7.978  1.00  0.00    -0.354 N 
ATOM     58  N   UNL     1      12.058 -10.812  -5.076  1.00  0.00    -0.248 NA
ATOM     59  C   UNL     1      12.847 -11.568  -3.012  1.00  0.00     0.031 C 
ATOM     60  C   UNL     1      12.976 -12.750  -8.963  1.00  0.00     0.029 A 
ATOM     61  C   UNL     1      12.700 -12.171  -7.734  1.00  0.00     0.049 A 
ATOM     62  H   UNL     1      11.460 -10.523  -7.288  1.00  0.00     0.167 HD
ATOM     63  C   UNL     1      12.868 -11.924  -5.275  1.00  0.00     0.074 A 
ATOM     64  C   UNL     1      13.357 -12.325  -3.972  1.00  0.00     0.031 C 
ATOM     65  C   UNL     1      13.183 -12.556  -6.433  1.00  0.00     0.031 A 
BRANCH  52  66
ATOM     66  C   UNL     1      10.475 -10.125 -11.423  1.00  0.00    -0.014 A 
ATOM     67  C   UNL     1      10.955  -9.126 -12.285  1.00  0.00     0.009 A 
ATOM     68  C   UNL     1       9.805 -11.230 -11.973  1.00  0.00     0.009 A 
ATOM     69  C   UNL     1      10.740  -9.216 -13.662  1.00  0.00     0.001 A 
ATOM     70  C   UNL     1       9.619 -11.333 -13.352  1.00  0.00     0.001 A 
ATOM     71  C   UNL     1      10.078 -10.322 -14.194  1.00  0.00     0.000 A 
ENDBRANCH  52  66
BRANCH  53  72
ATOM     72  C   UNL     1      11.536  -9.424  -1.521  1.00  0.00    -0.014 A 
ATOM     73  C   UNL     1      12.780  -9.143  -0.933  1.00  0.00     0.009 A 
ATOM     74  C   UNL     1      10.438  -9.683  -0.686  1.00  0.00     0.009 A 
ATOM     75  C   UNL     1      12.926  -9.155   0.456  1.00  0.00     0.001 A 
ATOM     76  C   UNL     1      10.579  -9.660   0.703  1.00  0.00     0.001 A 
ATOM     77  C   UNL     1      11.826  -9.409   1.273  1.00  0.00     0.000 A 
ENDBRANCH  53  72
BRANCH  65  78
ATOM     78  C   UNL     1      14.142 -13.714  -6.356  1.00  0.00    -0.014 A 
ATOM     79  C   UNL     1      13.773 -14.938  -5.778  1.00  0.00     0.009 A 
ATOM     80  C   UNL     1      15.424 -13.587  -6.916  1.00  0.00     0.009 A 
ATOM     81  C   UNL     1      14.681 -15.999  -5.731  1.00  0.00     0.001 A 
ATOM     82  C   UNL     1      16.316 -14.660  -6.899  1.00  0.00     0.001 A 
ATOM     83  C   UNL     1      15.949 -15.861  -6.297  1.00  0.00     0.000 A 
ENDBRANCH  65  78
ENDBRANCH  39  40
ENDBRANCH  32  34
ENDBRANCH  31  32
ENDBRANCH  30  31
ENDBRANCH  29  30
ENDBRANCH  28  29
ENDBRANCH  27  28
ENDBRANCH  26  27
ENDBRANCH  25  26
ENDBRANCH   1  25
TORSDOF 21
