REMARK SMILES COc1cc2c(cc1OC)[C@H](C(=O)OCCOCCOCCOCCOC(=O)c1ccc(-c3c4nc(c(-c5ccccc5)c5ccc([nH]5)c(-c5ccccc5)c5nc(c(-c6ccccc6)c6ccc3[nH]6)C=C5)C=C4)cc1)[C@@H](c1ccc(SC)cc1)N(C)C2=O
REMARK SMILES IDX 20 1 19 2 18 3 17 4 16 5 15 6 14 7 12 8 13 9 11 10 3 11 4 12
REMARK SMILES IDX 8 13 5 14 7 15 6 16 88 17 86 18 89 19 77 20 87 21 2 22 1 23
REMARK SMILES IDX 9 24 10 25 78 26 79 27 85 28 80 29 84 30 81 31 82 32 83 33
REMARK SMILES IDX 21 34 22 35 23 36 24 37 25 38 26 39 27 40 28 41 29 42 30 43
REMARK SMILES IDX 76 44 31 45 75 46 32 47 33 48 34 49 69 50 35 51 74 52 68 53
REMARK SMILES IDX 70 54 36 55 73 56 67 57 66 58 37 60 59 61 44 62 58 63 45 64
REMARK SMILES IDX 48 65 57 66 71 67 46 68 47 69 56 71 72 72 49 73 38 74 39 75
REMARK SMILES IDX 43 76 40 77 42 78 41 79 60 80 61 81 65 82 62 83 64 84 63 85
REMARK SMILES IDX 50 86 51 87 55 88 52 89 54 90 53 91
REMARK H PARENT 70 59 48 70
REMARK Flexibility Score: inf
ROOT
ATOM      1  O   UNL     1      -1.125   8.758   0.280  1.00  0.00    -0.377 OA
ENDROOT
BRANCH   1   2
ATOM      2  C   UNL     1       0.280   8.931   0.282  1.00  0.00     0.188 C 
BRANCH   2   3
ATOM      3  C   UNL     1       0.861   9.531  -1.027  1.00  0.00     0.188 C 
BRANCH   3   4
ATOM      4  O   UNL     1       0.012   9.825  -2.132  1.00  0.00    -0.376 OA
BRANCH   4   5
ATOM      5  C   UNL     1      -1.032   8.928  -2.478  1.00  0.00     0.202 C 
BRANCH   5   6
ATOM      6  C   UNL     1      -0.715   7.437  -2.632  1.00  0.00     0.261 C 
BRANCH   6   7
ATOM      7  O   UNL     1       0.193   6.924  -1.649  1.00  0.00    -0.463 OA
BRANCH   7   8
ATOM      8  C   UNL     1       1.463   6.588  -2.022  1.00  0.00     0.316 C 
ATOM      9  O   UNL     1       1.917   6.702  -3.150  1.00  0.00    -0.251 OA
BRANCH   8  10
ATOM     10  C   UNL     1       2.199   5.981  -0.816  1.00  0.00     0.157 C 
ATOM     11  C   UNL     1       1.037   1.815  -0.755  1.00  0.00     0.161 A 
ATOM     12  C   UNL     1       2.373   2.190  -0.526  1.00  0.00     0.064 A 
ATOM     13  C   UNL     1       0.053   2.797  -0.854  1.00  0.00     0.161 A 
ATOM     14  C   UNL     1       2.746   3.541  -0.457  1.00  0.00     0.048 A 
ATOM     15  C   UNL     1       0.444   4.135  -0.778  1.00  0.00     0.056 A 
ATOM     16  C   UNL     1       1.794   4.525  -0.683  1.00  0.00    -0.015 A 
ATOM     17  C   UNL     1       4.125   3.909  -0.036  1.00  0.00     0.254 C 
ATOM     18  N   UNL     1       4.478   5.261  -0.073  1.00  0.00    -0.333 N 
ATOM     19  O   UNL     1       4.868   3.028   0.386  1.00  0.00    -0.269 OA
ATOM     20  C   UNL     1       3.740   6.195  -0.960  1.00  0.00     0.134 C 
ATOM     21  C   UNL     1       5.797   5.610   0.442  1.00  0.00     0.147 C 
BRANCH  11  22
ATOM     22  O   UNL     1       0.715   0.500  -0.954  1.00  0.00    -0.493 OA
ATOM     23  C   UNL     1       1.093  -0.341   0.131  1.00  0.00     0.278 C 
ENDBRANCH  11  22
BRANCH  13  24
ATOM     24  O   UNL     1      -1.298   2.667  -1.015  1.00  0.00    -0.493 OA
ATOM     25  C   UNL     1      -1.831   1.393  -1.335  1.00  0.00     0.278 C 
ENDBRANCH  13  24
BRANCH  20  26
ATOM     26  C   UNL     1       4.217   7.656  -0.792  1.00  0.00    -0.024 A 
ATOM     27  C   UNL     1       3.761   8.495   0.234  1.00  0.00     0.007 A 
ATOM     28  C   UNL     1       5.217   8.173  -1.640  1.00  0.00     0.007 A 
ATOM     29  C   UNL     1       4.198   9.827   0.333  1.00  0.00     0.015 A 
ATOM     30  C   UNL     1       5.691   9.493  -1.510  1.00  0.00     0.015 A 
ATOM     31  C   UNL     1       5.163  10.343  -0.538  1.00  0.00     0.007 A 
BRANCH  31  32
ATOM     32  S   UNL     1       5.561  12.080  -0.386  1.00  0.00    -0.130 SA
ATOM     33  C   UNL     1       7.342  12.128  -0.725  1.00  0.00     0.091 C 
ENDBRANCH  31  32
ENDBRANCH  20  26
ENDBRANCH   8  10
ENDBRANCH   7   8
ENDBRANCH   6   7
ENDBRANCH   5   6
ENDBRANCH   4   5
ENDBRANCH   3   4
ENDBRANCH   2   3
ENDBRANCH   1   2
BRANCH   1  34
ATOM     34  C   UNL     1      -1.849   9.813   0.899  1.00  0.00     0.188 C 
BRANCH  34  35
ATOM     35  C   UNL     1      -1.445  11.249   0.504  1.00  0.00     0.188 C 
BRANCH  35  36
ATOM     36  O   UNL     1      -0.054  11.505   0.652  1.00  0.00    -0.376 OA
BRANCH  36  37
ATOM     37  C   UNL     1       0.426  12.274   1.739  1.00  0.00     0.202 C 
BRANCH  37  38
ATOM     38  C   UNL     1       0.428  11.596   3.117  1.00  0.00     0.261 C 
BRANCH  38  39
ATOM     39  O   UNL     1      -0.828  11.056   3.541  1.00  0.00    -0.460 OA
BRANCH  39  40
ATOM     40  C   UNL     1      -1.843  11.939   3.696  1.00  0.00     0.338 C 
ATOM     41  O   UNL     1      -1.799  13.141   3.572  1.00  0.00    -0.246 OA
BRANCH  40  42
ATOM     42  C   UNL     1      -3.085  11.149   3.827  1.00  0.00     0.060 A 
ATOM     43  C   UNL     1      -4.110  11.371   2.900  1.00  0.00     0.016 A 
ATOM     44  C   UNL     1      -3.215  10.171   4.816  1.00  0.00     0.016 A 
ATOM     45  C   UNL     1      -5.282  10.628   2.972  1.00  0.00     0.010 A 
ATOM     46  C   UNL     1      -4.406   9.449   4.911  1.00  0.00     0.010 A 
ATOM     47  C   UNL     1      -5.452   9.700   4.007  1.00  0.00    -0.014 A 
BRANCH  47  48
ATOM     48  C   UNL     1      -6.808   9.168   4.257  1.00  0.00     0.031 A 
ATOM     49  C   UNL     1      -7.670   9.882   5.260  1.00  0.00     0.074 A 
ATOM     50  C   UNL     1      -7.285   8.128   3.554  1.00  0.00     0.049 A 
ATOM     51  N   UNL     1      -8.908   9.646   5.607  1.00  0.00    -0.248 NA
ATOM     52  C   UNL     1      -7.053  11.022   5.959  1.00  0.00     0.031 C 
ATOM     53  C   UNL     1      -6.554   7.395   2.522  1.00  0.00     0.029 A 
ATOM     54  N   UNL     1      -8.511   7.518   3.601  1.00  0.00    -0.354 N 
ATOM     55  C   UNL     1      -9.217  10.607   6.561  1.00  0.00     0.074 A 
ATOM     56  C   UNL     1      -8.029  11.406   6.766  1.00  0.00     0.031 C 
ATOM     57  C   UNL     1      -7.353   6.433   2.027  1.00  0.00     0.029 A 
ATOM     58  C   UNL     1      -8.634   6.466   2.728  1.00  0.00     0.049 A 
ATOM     59  H   UNL     1      -9.235   7.807   4.203  1.00  0.00     0.167 HD
ATOM     60  C   UNL     1     -10.390  10.813   7.204  1.00  0.00     0.031 A 
ATOM     61  C   UNL     1      -9.665   5.623   2.530  1.00  0.00     0.031 A 
ATOM     62  C   UNL     1     -11.558   9.995   7.018  1.00  0.00     0.049 A 
ATOM     63  C   UNL     1     -10.930   5.818   3.326  1.00  0.00     0.074 A 
ATOM     64  C   UNL     1     -12.798  10.113   7.620  1.00  0.00     0.029 A 
ATOM     65  N   UNL     1     -11.624   8.897   6.174  1.00  0.00    -0.354 N 
ATOM     66  N   UNL     1     -11.223   6.746   4.206  1.00  0.00    -0.248 NA
ATOM     67  C   UNL     1     -12.011   4.852   3.087  1.00  0.00     0.031 C 
ATOM     68  C   UNL     1     -13.593   9.046   7.190  1.00  0.00     0.029 A 
ATOM     69  C   UNL     1     -12.874   8.308   6.262  1.00  0.00     0.049 A 
ATOM     70  H   UNL     1     -10.891   8.584   5.596  1.00  0.00     0.167 HD
ATOM     71  C   UNL     1     -12.530   6.493   4.605  1.00  0.00     0.074 A 
ATOM     72  C   UNL     1     -12.979   5.341   3.849  1.00  0.00     0.031 C 
ATOM     73  C   UNL     1     -13.294   7.151   5.513  1.00  0.00     0.031 A 
BRANCH  60  74
ATOM     74  C   UNL     1     -10.441  11.937   8.201  1.00  0.00    -0.014 A 
ATOM     75  C   UNL     1     -10.391  13.281   7.796  1.00  0.00     0.009 A 
ATOM     76  C   UNL     1     -10.555  11.646   9.569  1.00  0.00     0.009 A 
ATOM     77  C   UNL     1     -10.419  14.307   8.743  1.00  0.00     0.001 A 
ATOM     78  C   UNL     1     -10.615  12.674  10.511  1.00  0.00     0.001 A 
ATOM     79  C   UNL     1     -10.537  14.003  10.098  1.00  0.00     0.000 A 
ENDBRANCH  60  74
BRANCH  61  80
ATOM     80  C   UNL     1      -9.546   4.509   1.553  1.00  0.00    -0.014 A 
ATOM     81  C   UNL     1     -10.330   4.483   0.389  1.00  0.00     0.009 A 
ATOM     82  C   UNL     1      -8.664   3.444   1.797  1.00  0.00     0.009 A 
ATOM     83  C   UNL     1     -10.256   3.401  -0.491  1.00  0.00     0.001 A 
ATOM     84  C   UNL     1      -8.567   2.380   0.898  1.00  0.00     0.001 A 
ATOM     85  C   UNL     1      -9.372   2.353  -0.239  1.00  0.00     0.000 A 
ENDBRANCH  61  80
BRANCH  73  86
ATOM     86  C   UNL     1     -14.702   6.654   5.708  1.00  0.00    -0.014 A 
ATOM     87  C   UNL     1     -14.965   5.411   6.306  1.00  0.00     0.009 A 
ATOM     88  C   UNL     1     -15.782   7.449   5.295  1.00  0.00     0.009 A 
ATOM     89  C   UNL     1     -16.277   4.951   6.432  1.00  0.00     0.001 A 
ATOM     90  C   UNL     1     -17.095   7.005   5.459  1.00  0.00     0.001 A 
ATOM     91  C   UNL     1     -17.340   5.749   6.012  1.00  0.00     0.000 A 
ENDBRANCH  73  86
ENDBRANCH  47  48
ENDBRANCH  40  42
ENDBRANCH  39  40
ENDBRANCH  38  39
ENDBRANCH  37  38
ENDBRANCH  36  37
ENDBRANCH  35  36
ENDBRANCH  34  35
ENDBRANCH   1  34
TORSDOF 24
