REMARK SMILES NS(=O)(=O)c1ccc(-n2nc(C(F)(F)F)cc2-c2ccc(C(=O)OCCOCCOCCOCCOC(=O)c3ccc(-c4c5nc(c(-c6ccccc6)c6ccc([nH]6)c(-c6ccccc6)c6nc(c(-c7ccccc7)c7ccc4[nH]7)C=C6)C=C5)cc3)cc2)cc1
REMARK SMILES IDX 29 1 28 2 27 3 26 4 25 5 24 6 22 7 23 8 21 9 18 10 19 11
REMARK SMILES IDX 88 12 20 13 87 14 17 15 9 16 10 17 11 18 16 19 8 20 5 21
REMARK SMILES IDX 6 22 90 23 7 24 89 25 2 26 3 27 4 28 1 29 12 32 13 33 14 34
REMARK SMILES IDX 15 35 30 36 31 37 32 38 33 39 34 40 35 41 36 42 37 43 38 44
REMARK SMILES IDX 39 45 40 46 86 47 41 48 85 49 42 50 43 51 44 52 79 53 45 54
REMARK SMILES IDX 84 55 78 56 80 57 46 58 83 59 77 60 76 61 47 63 69 64 54 65
REMARK SMILES IDX 68 66 55 67 58 68 67 69 81 70 56 71 57 72 66 74 82 75 59 76
REMARK SMILES IDX 48 77 49 78 53 79 50 80 52 81 51 82 70 83 71 84 75 85 72 86
REMARK SMILES IDX 74 87 73 88 60 89 61 90 65 91 62 92 64 93 63 94
REMARK H PARENT 1 30 1 31 80 62 58 73
REMARK Flexibility Score: inf
ROOT
ATOM      1  C   UNL     1       6.570   1.884  -4.132  1.00  0.00     0.188 C 
ENDROOT
BRANCH   1   2
ATOM      2  C   UNL     1       6.407   2.021  -5.664  1.00  0.00     0.188 C 
BRANCH   2   3
ATOM      3  O   UNL     1       7.535   1.600  -6.402  1.00  0.00    -0.376 OA
BRANCH   3   4
ATOM      4  C   UNL     1       8.332   2.526  -7.099  1.00  0.00     0.202 C 
BRANCH   4   5
ATOM      5  C   UNL     1       8.950   3.701  -6.332  1.00  0.00     0.261 C 
BRANCH   5   6
ATOM      6  O   UNL     1       8.127   4.300  -5.326  1.00  0.00    -0.460 OA
BRANCH   6   7
ATOM      7  C   UNL     1       7.148   5.118  -5.770  1.00  0.00     0.338 C 
ATOM      8  O   UNL     1       6.909   5.405  -6.929  1.00  0.00    -0.246 OA
BRANCH   7   9
ATOM      9  C   UNL     1       6.268   5.462  -4.628  1.00  0.00     0.060 A 
ATOM     10  C   UNL     1       4.538   6.234  -2.568  1.00  0.00     0.000 A 
ATOM     11  C   UNL     1       4.023   5.817  -3.804  1.00  0.00     0.011 A 
ATOM     12  C   UNL     1       5.920   6.183  -2.346  1.00  0.00     0.011 A 
ATOM     13  C   UNL     1       4.885   5.444  -4.835  1.00  0.00     0.016 A 
ATOM     14  C   UNL     1       6.786   5.785  -3.369  1.00  0.00     0.016 A 
BRANCH  10  15
ATOM     15  C   UNL     1       3.658   6.894  -1.604  1.00  0.00     0.075 A 
ATOM     16  N   UNL     1       2.442   6.423  -1.126  1.00  0.00    -0.233 N 
ATOM     17  N   UNL     1       1.681   7.425  -0.611  1.00  0.00    -0.163 NA
ATOM     18  C   UNL     1       2.495   8.498  -0.574  1.00  0.00     0.167 A 
ATOM     19  C   UNL     1       3.735   8.208  -1.188  1.00  0.00     0.064 A 
BRANCH  16  20
ATOM     20  C   UNL     1       1.969   5.086  -1.130  1.00  0.00     0.065 A 
ATOM     21  C   UNL     1       1.085   2.454  -1.299  1.00  0.00     0.082 A 
ATOM     22  C   UNL     1       2.420   2.713  -0.980  1.00  0.00     0.024 A 
ATOM     23  C   UNL     1       0.175   3.501  -1.486  1.00  0.00     0.024 A 
ATOM     24  C   UNL     1       2.866   4.032  -0.908  1.00  0.00     0.030 A 
ATOM     25  C   UNL     1       0.613   4.824  -1.374  1.00  0.00     0.030 A 
BRANCH  21  26
ATOM     26  S   UNL     1       0.578   0.775  -1.520  1.00  0.00     0.238 S 
ATOM     27  O   UNL     1       1.353   0.207  -2.593  1.00  0.00    -0.207 OA
ATOM     28  O   UNL     1      -0.867   0.699  -1.465  1.00  0.00    -0.207 OA
BRANCH  26  29
ATOM     29  N   UNL     1       1.116   0.029  -0.113  1.00  0.00    -0.225 NA
ATOM     30  H   UNL     1       0.871  -0.961  -0.137  1.00  0.00     0.137 HD
ATOM     31  H   UNL     1       0.674   0.469   0.695  1.00  0.00     0.137 HD
ENDBRANCH  26  29
ENDBRANCH  21  26
ENDBRANCH  16  20
BRANCH  18  32
ATOM     32  C   UNL     1       2.100   9.832   0.003  1.00  0.00     0.435 C 
ATOM     33  F   UNL     1       0.874  10.249  -0.404  1.00  0.00    -0.164 F 
ATOM     34  F   UNL     1       2.094   9.817   1.362  1.00  0.00    -0.164 F 
ATOM     35  F   UNL     1       2.979  10.809  -0.361  1.00  0.00    -0.164 F 
ENDBRANCH  18  32
ENDBRANCH  10  15
ENDBRANCH   7   9
ENDBRANCH   6   7
ENDBRANCH   5   6
ENDBRANCH   4   5
ENDBRANCH   3   4
ENDBRANCH   2   3
ENDBRANCH   1   2
BRANCH   1  36
ATOM     36  O   UNL     1       7.794   1.472  -3.534  1.00  0.00    -0.377 OA
BRANCH  36  37
ATOM     37  C   UNL     1       8.663   0.566  -4.202  1.00  0.00     0.188 C 
BRANCH  37  38
ATOM     38  C   UNL     1       8.121  -0.643  -5.011  1.00  0.00     0.188 C 
BRANCH  38  39
ATOM     39  O   UNL     1       6.739  -0.631  -5.307  1.00  0.00    -0.376 OA
BRANCH  39  40
ATOM     40  C   UNL     1       5.749  -1.365  -4.617  1.00  0.00     0.202 C 
BRANCH  40  41
ATOM     41  C   UNL     1       5.722  -1.457  -3.098  1.00  0.00     0.261 C 
BRANCH  41  42
ATOM     42  O   UNL     1       6.982  -1.303  -2.491  1.00  0.00    -0.460 OA
BRANCH  42  43
ATOM     43  C   UNL     1       7.788  -2.371  -2.624  1.00  0.00     0.338 C 
ATOM     44  O   UNL     1       7.593  -3.370  -3.293  1.00  0.00    -0.246 OA
BRANCH  43  45
ATOM     45  C   UNL     1       8.921  -2.180  -1.717  1.00  0.00     0.060 A 
ATOM     46  C   UNL     1       9.883  -3.187  -1.760  1.00  0.00     0.016 A 
ATOM     47  C   UNL     1       8.694  -1.384  -0.586  1.00  0.00     0.016 A 
ATOM     48  C   UNL     1      10.349  -3.646  -0.557  1.00  0.00     0.010 A 
ATOM     49  C   UNL     1       9.120  -1.872   0.615  1.00  0.00     0.010 A 
ATOM     50  C   UNL     1       9.843  -3.060   0.608  1.00  0.00    -0.014 A 
BRANCH  50  51
ATOM     51  C   UNL     1      10.160  -3.680   1.866  1.00  0.00     0.031 A 
ATOM     52  C   UNL     1      11.515  -3.310   2.306  1.00  0.00     0.074 A 
ATOM     53  C   UNL     1       9.261  -4.406   2.552  1.00  0.00     0.049 A 
ATOM     54  N   UNL     1      12.575  -4.043   2.263  1.00  0.00    -0.248 NA
ATOM     55  C   UNL     1      11.769  -1.883   2.574  1.00  0.00     0.031 C 
ATOM     56  C   UNL     1       7.824  -4.557   2.303  1.00  0.00     0.029 A 
ATOM     57  N   UNL     1       9.439  -5.086   3.711  1.00  0.00    -0.354 N 
ATOM     58  C   UNL     1      13.589  -3.221   2.733  1.00  0.00     0.074 A 
ATOM     59  C   UNL     1      13.098  -1.873   2.634  1.00  0.00     0.031 C 
ATOM     60  C   UNL     1       7.233  -5.068   3.410  1.00  0.00     0.029 A 
ATOM     61  C   UNL     1       8.265  -5.399   4.380  1.00  0.00     0.049 A 
ATOM     62  H   UNL     1      10.328  -5.337   4.050  1.00  0.00     0.167 HD
ATOM     63  C   UNL     1      14.583  -3.728   3.510  1.00  0.00     0.031 A 
ATOM     64  C   UNL     1       8.171  -5.823   5.665  1.00  0.00     0.031 A 
ATOM     65  C   UNL     1      14.651  -5.165   3.397  1.00  0.00     0.049 A 
ATOM     66  C   UNL     1       9.519  -6.284   6.081  1.00  0.00     0.074 A 
ATOM     67  C   UNL     1      14.880  -6.055   2.369  1.00  0.00     0.029 A 
ATOM     68  N   UNL     1      14.048  -5.881   4.404  1.00  0.00    -0.354 N 
ATOM     69  N   UNL     1      10.098  -7.342   5.590  1.00  0.00    -0.248 NA
ATOM     70  C   UNL     1      10.415  -5.310   6.687  1.00  0.00     0.031 C 
ATOM     71  C   UNL     1      14.030  -7.167   2.641  1.00  0.00     0.029 A 
ATOM     72  C   UNL     1      13.374  -6.937   3.853  1.00  0.00     0.049 A 
ATOM     73  H   UNL     1      14.093  -5.670   5.365  1.00  0.00     0.167 HD
ATOM     74  C   UNL     1      11.427  -6.975   5.423  1.00  0.00     0.074 A 
ATOM     75  C   UNL     1      11.583  -5.754   6.212  1.00  0.00     0.031 C 
ATOM     76  C   UNL     1      12.185  -7.528   4.430  1.00  0.00     0.031 A 
BRANCH  63  77
ATOM     77  C   UNL     1      15.105  -2.995   4.726  1.00  0.00    -0.014 A 
ATOM     78  C   UNL     1      16.086  -3.629   5.506  1.00  0.00     0.009 A 
ATOM     79  C   UNL     1      14.482  -1.867   5.297  1.00  0.00     0.009 A 
ATOM     80  C   UNL     1      16.352  -3.216   6.816  1.00  0.00     0.001 A 
ATOM     81  C   UNL     1      14.773  -1.425   6.588  1.00  0.00     0.001 A 
ATOM     82  C   UNL     1      15.687  -2.122   7.361  1.00  0.00     0.000 A 
ENDBRANCH  63  77
BRANCH  64  83
ATOM     83  C   UNL     1       7.099  -5.554   6.650  1.00  0.00    -0.014 A 
ATOM     84  C   UNL     1       6.952  -6.353   7.796  1.00  0.00     0.009 A 
ATOM     85  C   UNL     1       6.387  -4.341   6.603  1.00  0.00     0.009 A 
ATOM     86  C   UNL     1       6.142  -5.939   8.864  1.00  0.00     0.001 A 
ATOM     87  C   UNL     1       5.580  -3.928   7.669  1.00  0.00     0.001 A 
ATOM     88  C   UNL     1       5.467  -4.721   8.805  1.00  0.00     0.000 A 
ENDBRANCH  64  83
BRANCH  76  89
ATOM     89  C   UNL     1      11.635  -8.739   3.718  1.00  0.00    -0.014 A 
ATOM     90  C   UNL     1      10.469  -8.717   2.931  1.00  0.00     0.009 A 
ATOM     91  C   UNL     1      12.418  -9.903   3.716  1.00  0.00     0.009 A 
ATOM     92  C   UNL     1      10.094  -9.838   2.181  1.00  0.00     0.001 A 
ATOM     93  C   UNL     1      12.055 -11.012   2.952  1.00  0.00     0.001 A 
ATOM     94  C   UNL     1      10.891 -10.981   2.187  1.00  0.00     0.000 A 
ENDBRANCH  76  89
ENDBRANCH  50  51
ENDBRANCH  43  45
ENDBRANCH  42  43
ENDBRANCH  41  42
ENDBRANCH  40  41
ENDBRANCH  39  40
ENDBRANCH  38  39
ENDBRANCH  37  38
ENDBRANCH  36  37
ENDBRANCH   1  36
TORSDOF 25
