REMARK SMILES Cc1ccccc1NC(=O)C[NH+]1CCC(CC(=O)OCCOCCOCCOCCOC(=O)c2ccc(-c3c4nc(c(-c5ccccc5)c5ccc([nH]5)c(-c5ccccc5)c5nc(c(-c6ccccc6)c6ccc3[nH]6)C=C5)C=C4)cc2)CC1
REMARK SMILES IDX 24 1 23 2 22 3 21 4 20 5 19 6 17 7 18 8 16 9 15 10 12 11
REMARK SMILES IDX 13 12 83 13 14 15 82 16 11 17 9 18 8 19 10 21 7 22 1 23 2 24
REMARK SMILES IDX 3 25 4 26 6 27 5 28 25 29 26 30 27 31 28 32 29 33 30 34
REMARK SMILES IDX 31 35 32 36 33 37 34 38 35 39 81 40 36 41 80 42 37 43 38 44
REMARK SMILES IDX 39 45 74 46 40 47 79 48 73 49 75 50 41 51 78 52 72 53 71 54
REMARK SMILES IDX 42 56 64 57 49 58 63 59 50 60 53 61 62 62 76 63 51 64 52 65
REMARK SMILES IDX 61 67 77 68 54 69 43 70 44 71 48 72 45 73 47 74 46 75 65 76
REMARK SMILES IDX 66 77 70 78 67 79 69 80 68 81 55 82 56 83 60 84 57 85 59 86
REMARK SMILES IDX 58 87
REMARK H PARENT 12 14 8 20 75 55 53 66
REMARK Flexibility Score: inf
ROOT
ATOM      1  C   UNL     1       1.674   3.293  -3.775  1.00  0.00     0.188 C 
ENDROOT
BRANCH   1   2
ATOM      2  C   UNL     1       1.503   3.318  -5.314  1.00  0.00     0.188 C 
BRANCH   2   3
ATOM      3  O   UNL     1       0.666   4.219  -6.233  1.00  0.00    -0.376 OA
BRANCH   3   4
ATOM      4  C   UNL     1      -0.155   3.862  -7.681  1.00  0.00     0.202 C 
BRANCH   4   5
ATOM      5  C   UNL     1      -1.200   2.462  -8.391  1.00  0.00     0.261 C 
BRANCH   5   6
ATOM      6  O   UNL     1      -1.403   0.685  -7.910  1.00  0.00    -0.463 OA
BRANCH   6   7
ATOM      7  C   UNL     1      -0.956  -0.440  -6.866  1.00  0.00     0.306 C 
ATOM      8  O   UNL     1      -0.317  -1.412  -7.298  1.00  0.00    -0.252 OA
BRANCH   7   9
ATOM      9  C   UNL     1      -1.494  -0.578  -5.132  1.00  0.00     0.126 C 
BRANCH   9  10
ATOM     10  C   UNL     1      -1.275   0.165  -3.596  1.00  0.00     0.011 C 
ATOM     11  N   UNL     1      -2.074   1.818  -1.048  1.00  0.00    -0.327 N 
ATOM     12  C   UNL     1      -1.090   2.277  -1.996  1.00  0.00     0.262 C 
ATOM     13  C   UNL     1      -2.121   0.350  -1.093  1.00  0.00     0.262 C 
ATOM     14  H   UNL     1      -3.028   2.091  -1.284  1.00  0.00     0.348 HD
ATOM     15  C   UNL     1      -1.381   1.672  -3.357  1.00  0.00     0.066 C 
ATOM     16  C   UNL     1      -2.313  -0.311  -2.522  1.00  0.00     0.066 C 
BRANCH  11  17
ATOM     17  C   UNL     1      -1.891   2.506   0.268  1.00  0.00     0.363 C 
BRANCH  17  18
ATOM     18  C   UNL     1      -0.436   2.900   0.676  1.00  0.00     0.279 C 
ATOM     19  N   UNL     1       0.504   1.968   1.038  1.00  0.00    -0.321 N 
ATOM     20  H   UNL     1       1.421   2.302   1.169  1.00  0.00     0.170 HD
ATOM     21  O   UNL     1      -0.060   4.078   0.613  1.00  0.00    -0.268 OA
BRANCH  19  22
ATOM     22  C   UNL     1       0.308   0.601   1.242  1.00  0.00     0.044 A 
ATOM     23  C   UNL     1       2.482   0.003  -0.003  1.00  0.00     0.046 C 
ATOM     24  C   UNL     1       1.174  -0.338   0.658  1.00  0.00    -0.027 A 
ATOM     25  C   UNL     1       0.764  -1.684   0.634  1.00  0.00     0.005 A 
ATOM     26  C   UNL     1      -0.442  -2.083   1.218  1.00  0.00     0.000 A 
ATOM     27  C   UNL     1      -0.822   0.171   1.947  1.00  0.00     0.026 A 
ATOM     28  C   UNL     1      -1.215  -1.162   1.912  1.00  0.00     0.002 A 
ENDBRANCH  19  22
ENDBRANCH  17  18
ENDBRANCH  11  17
ENDBRANCH   9  10
ENDBRANCH   7   9
ENDBRANCH   6   7
ENDBRANCH   5   6
ENDBRANCH   4   5
ENDBRANCH   3   4
ENDBRANCH   2   3
ENDBRANCH   1   2
BRANCH   1  29
ATOM     29  O   UNL     1       1.858   4.520  -3.150  1.00  0.00    -0.377 OA
BRANCH  29  30
ATOM     30  C   UNL     1       3.173   5.043  -3.185  1.00  0.00     0.188 C 
BRANCH  30  31
ATOM     31  C   UNL     1       4.176   4.566  -4.240  1.00  0.00     0.188 C 
BRANCH  31  32
ATOM     32  O   UNL     1       4.484   3.171  -4.182  1.00  0.00    -0.376 OA
BRANCH  32  33
ATOM     33  C   UNL     1       5.814   2.787  -3.835  1.00  0.00     0.202 C 
BRANCH  33  34
ATOM     34  C   UNL     1       6.926   3.462  -4.654  1.00  0.00     0.261 C 
BRANCH  34  35
ATOM     35  O   UNL     1       6.778   3.096  -6.040  1.00  0.00    -0.460 OA
BRANCH  35  36
ATOM     36  C   UNL     1       6.032   3.954  -6.787  1.00  0.00     0.338 C 
ATOM     37  O   UNL     1       6.141   5.165  -6.791  1.00  0.00    -0.246 OA
BRANCH  36  38
ATOM     38  C   UNL     1       4.866   3.208  -7.363  1.00  0.00     0.060 A 
ATOM     39  C   UNL     1       3.880   3.904  -8.046  1.00  0.00     0.016 A 
ATOM     40  C   UNL     1       4.592   1.892  -6.977  1.00  0.00     0.016 A 
ATOM     41  C   UNL     1       2.604   3.320  -8.201  1.00  0.00     0.010 A 
ATOM     42  C   UNL     1       3.270   1.411  -6.957  1.00  0.00     0.010 A 
ATOM     43  C   UNL     1       2.197   2.163  -7.471  1.00  0.00    -0.014 A 
BRANCH  43  44
ATOM     44  C   UNL     1       0.645   1.567  -7.205  1.00  0.00     0.031 A 
ATOM     45  C   UNL     1       0.768   0.604  -8.691  1.00  0.00     0.074 A 
ATOM     46  C   UNL     1      -0.692   1.981  -6.263  1.00  0.00     0.049 A 
ATOM     47  N   UNL     1      -0.068   0.644  -9.702  1.00  0.00    -0.248 NA
ATOM     48  C   UNL     1       1.944  -0.197  -9.122  1.00  0.00     0.031 C 
ATOM     49  C   UNL     1      -2.307   1.447  -6.142  1.00  0.00     0.029 A 
ATOM     50  N   UNL     1      -1.195   3.245  -5.573  1.00  0.00    -0.354 N 
ATOM     51  C   UNL     1       0.115  -0.478 -10.442  1.00  0.00     0.074 A 
ATOM     52  C   UNL     1       1.512  -0.771 -10.256  1.00  0.00     0.031 C 
ATOM     53  C   UNL     1      -3.221   2.259  -5.645  1.00  0.00     0.029 A 
ATOM     54  C   UNL     1      -2.596   3.506  -5.660  1.00  0.00     0.049 A 
ATOM     55  H   UNL     1      -0.585   3.849  -5.092  1.00  0.00     0.167 HD
ATOM     56  C   UNL     1      -0.936  -1.226 -10.898  1.00  0.00     0.031 A 
ATOM     57  C   UNL     1      -3.283   4.575  -6.155  1.00  0.00     0.031 A 
ATOM     58  C   UNL     1      -2.265  -0.845 -10.338  1.00  0.00     0.049 A 
ATOM     59  C   UNL     1      -4.162   4.148  -7.380  1.00  0.00     0.074 A 
ATOM     60  C   UNL     1      -3.110  -1.473  -9.429  1.00  0.00     0.029 A 
ATOM     61  N   UNL     1      -2.800   0.443 -10.472  1.00  0.00    -0.354 N 
ATOM     62  N   UNL     1      -4.168   2.931  -7.893  1.00  0.00    -0.248 NA
ATOM     63  C   UNL     1      -5.023   5.026  -8.166  1.00  0.00     0.031 C 
ATOM     64  C   UNL     1      -4.165  -0.580  -9.062  1.00  0.00     0.029 A 
ATOM     65  C   UNL     1      -3.985   0.617  -9.735  1.00  0.00     0.049 A 
ATOM     66  H   UNL     1      -2.392   1.149 -11.023  1.00  0.00     0.167 HD
ATOM     67  C   UNL     1      -4.841   2.877  -9.079  1.00  0.00     0.074 A 
ATOM     68  C   UNL     1      -5.426   4.212  -9.165  1.00  0.00     0.031 C 
ATOM     69  C   UNL     1      -4.843   1.802  -9.940  1.00  0.00     0.031 A 
BRANCH  56  70
ATOM     70  C   UNL     1      -0.625  -2.557 -11.564  1.00  0.00    -0.014 A 
ATOM     71  C   UNL     1      -1.409  -3.700 -11.348  1.00  0.00     0.009 A 
ATOM     72  C   UNL     1       0.490  -2.726 -12.413  1.00  0.00     0.009 A 
ATOM     73  C   UNL     1      -1.034  -4.960 -11.843  1.00  0.00     0.001 A 
ATOM     74  C   UNL     1       0.898  -3.987 -12.871  1.00  0.00     0.001 A 
ATOM     75  C   UNL     1       0.140  -5.110 -12.572  1.00  0.00     0.000 A 
ENDBRANCH  56  70
BRANCH  57  76
ATOM     76  C   UNL     1      -2.630   5.861  -5.814  1.00  0.00    -0.014 A 
ATOM     77  C   UNL     1      -2.308   6.031  -4.441  1.00  0.00     0.009 A 
ATOM     78  C   UNL     1      -1.988   6.673  -6.748  1.00  0.00     0.009 A 
ATOM     79  C   UNL     1      -1.218   6.803  -4.044  1.00  0.00     0.001 A 
ATOM     80  C   UNL     1      -0.899   7.461  -6.341  1.00  0.00     0.001 A 
ATOM     81  C   UNL     1      -0.487   7.486  -5.005  1.00  0.00     0.000 A 
ENDBRANCH  57  76
BRANCH  69  82
ATOM     82  C   UNL     1      -5.767   1.751 -11.133  1.00  0.00    -0.014 A 
ATOM     83  C   UNL     1      -7.084   2.228 -11.083  1.00  0.00     0.009 A 
ATOM     84  C   UNL     1      -5.378   1.066 -12.302  1.00  0.00     0.009 A 
ATOM     85  C   UNL     1      -7.932   2.126 -12.192  1.00  0.00     0.001 A 
ATOM     86  C   UNL     1      -6.231   0.932 -13.397  1.00  0.00     0.001 A 
ATOM     87  C   UNL     1      -7.502   1.487 -13.351  1.00  0.00     0.000 A 
ENDBRANCH  69  82
ENDBRANCH  43  44
ENDBRANCH  36  38
ENDBRANCH  35  36
ENDBRANCH  34  35
ENDBRANCH  33  34
ENDBRANCH  32  33
ENDBRANCH  31  32
ENDBRANCH  30  31
ENDBRANCH  29  30
ENDBRANCH   1  29
TORSDOF 24
