REMARK SMILES CC[C@H](C)CN(CC)C(=O)Nc1ccc(C(=O)OCCOCCOCCOCCOC(=O)c2ccc(-c3c4nc(c(-c5ccccc5)c5ccc([nH]5)c(-c5ccccc5)c5nc(c(-c6ccccc6)c6ccc3[nH]6)C=C5)C=C4)cc2)cc1Cl
REMARK SMILES IDX 22 1 21 2 20 3 19 4 18 5 16 6 17 7 15 8 12 9 13 10 82 11
REMARK SMILES IDX 14 12 81 13 83 14 11 15 9 16 10 17 6 19 5 20 3 21 4 22 2 23
REMARK SMILES IDX 1 24 7 25 8 26 23 27 24 28 25 29 26 30 27 31 28 32 29 33
REMARK SMILES IDX 30 34 31 35 32 36 33 37 34 38 80 39 35 40 79 41 36 42 37 43
REMARK SMILES IDX 38 44 73 45 39 46 78 47 72 48 74 49 40 50 77 51 71 52 70 53
REMARK SMILES IDX 41 55 63 56 48 57 62 58 49 59 52 60 61 61 75 62 50 63 51 64
REMARK SMILES IDX 60 66 76 67 53 68 42 69 43 70 47 71 44 72 46 73 45 74 64 75
REMARK SMILES IDX 65 76 69 77 66 78 68 79 67 80 54 81 55 82 59 83 56 84 58 85
REMARK SMILES IDX 57 86
REMARK H PARENT 11 18 74 54 52 65
REMARK Flexibility Score: inf
ROOT
ATOM      1  C   UNL     1       4.844  -1.143  10.684  1.00  0.00     0.188 C 
ENDROOT
BRANCH   1   2
ATOM      2  O   UNL     1       5.640  -0.394  11.581  1.00  0.00    -0.376 OA
BRANCH   2   3
ATOM      3  C   UNL     1       5.981   0.969  11.383  1.00  0.00     0.202 C 
BRANCH   3   4
ATOM      4  C   UNL     1       5.336   1.962  10.397  1.00  0.00     0.261 C 
BRANCH   4   5
ATOM      5  O   UNL     1       4.423   1.434   9.448  1.00  0.00    -0.460 OA
BRANCH   5   6
ATOM      6  C   UNL     1       4.944   0.960   8.305  1.00  0.00     0.338 C 
ATOM      7  O   UNL     1       6.106   1.022   7.945  1.00  0.00    -0.246 OA
BRANCH   6   8
ATOM      8  C   UNL     1       3.890   0.192   7.602  1.00  0.00     0.061 A 
ATOM      9  C   UNL     1       2.015  -1.056   6.017  1.00  0.00     0.061 A 
ATOM     10  C   UNL     1       3.352  -1.441   5.907  1.00  0.00     0.028 A 
ATOM     11  C   UNL     1       1.584  -0.295   7.107  1.00  0.00     0.065 A 
ATOM     12  C   UNL     1       4.297  -0.799   6.700  1.00  0.00     0.018 A 
ATOM     13  C   UNL     1       2.524   0.388   7.863  1.00  0.00     0.038 A 
ATOM     14  Cl  UNL     1      -0.085  -0.218   7.548  1.00  0.00    -0.082 Cl
BRANCH   9  15
ATOM     15  N   UNL     1       1.198  -1.283   4.914  1.00  0.00    -0.306 N 
ATOM     16  C   UNL     1       0.419  -0.412   4.210  1.00  0.00     0.321 C 
ATOM     17  O   UNL     1      -0.506  -0.924   3.572  1.00  0.00    -0.248 OA
ATOM     18  H   UNL     1       1.180  -2.214   4.592  1.00  0.00     0.171 HD
BRANCH  16  19
ATOM     19  N   UNL     1       0.759   0.929   4.057  1.00  0.00    -0.325 N 
BRANCH  19  20
ATOM     20  C   UNL     1       0.067   1.658   2.987  1.00  0.00     0.124 C 
BRANCH  20  21
ATOM     21  C   UNL     1       0.726   1.468   1.592  1.00  0.00     0.005 C 
ATOM     22  C   UNL     1       0.318   0.132   0.963  1.00  0.00     0.009 C 
BRANCH  21  23
ATOM     23  C   UNL     1       0.366   2.678   0.704  1.00  0.00     0.002 C 
ATOM     24  C   UNL     1       0.767   2.546  -0.758  1.00  0.00     0.004 C 
ENDBRANCH  21  23
ENDBRANCH  20  21
ENDBRANCH  19  20
BRANCH  19  25
ATOM     25  C   UNL     1       1.774   1.744   4.744  1.00  0.00     0.118 C 
ATOM     26  C   UNL     1       1.153   2.676   5.788  1.00  0.00     0.027 C 
ENDBRANCH  19  25
ENDBRANCH  16  19
ENDBRANCH   9  15
ENDBRANCH   6   8
ENDBRANCH   5   6
ENDBRANCH   4   5
ENDBRANCH   3   4
ENDBRANCH   2   3
ENDBRANCH   1   2
BRANCH   1  27
ATOM     27  C   UNL     1       3.325  -0.947  10.818  1.00  0.00     0.188 C 
BRANCH  27  28
ATOM     28  O   UNL     1       2.960   0.284  11.416  1.00  0.00    -0.377 OA
BRANCH  28  29
ATOM     29  C   UNL     1       2.916   0.330  12.841  1.00  0.00     0.188 C 
BRANCH  29  30
ATOM     30  C   UNL     1       3.693  -0.695  13.705  1.00  0.00     0.188 C 
BRANCH  30  31
ATOM     31  O   UNL     1       3.714  -2.023  13.204  1.00  0.00    -0.376 OA
BRANCH  31  32
ATOM     32  C   UNL     1       2.814  -2.984  13.733  1.00  0.00     0.202 C 
BRANCH  32  33
ATOM     33  C   UNL     1       1.310  -2.742  13.525  1.00  0.00     0.261 C 
BRANCH  33  34
ATOM     34  O   UNL     1       0.804  -1.501  14.038  1.00  0.00    -0.460 OA
BRANCH  34  35
ATOM     35  C   UNL     1       0.903  -1.307  15.368  1.00  0.00     0.338 C 
ATOM     36  O   UNL     1       1.328  -2.095  16.200  1.00  0.00    -0.246 OA
BRANCH  35  37
ATOM     37  C   UNL     1       0.602   0.110  15.648  1.00  0.00     0.060 A 
ATOM     38  C   UNL     1       1.584   0.889  16.269  1.00  0.00     0.016 A 
ATOM     39  C   UNL     1      -0.635   0.664  15.308  1.00  0.00     0.016 A 
ATOM     40  C   UNL     1       1.316   2.216  16.595  1.00  0.00     0.010 A 
ATOM     41  C   UNL     1      -0.909   1.991  15.653  1.00  0.00     0.010 A 
ATOM     42  C   UNL     1       0.052   2.759  16.333  1.00  0.00    -0.014 A 
BRANCH  42  43
ATOM     43  C   UNL     1      -0.295   4.073  16.925  1.00  0.00     0.031 A 
ATOM     44  C   UNL     1      -1.100   4.110  18.194  1.00  0.00     0.074 A 
ATOM     45  C   UNL     1       0.157   5.215  16.381  1.00  0.00     0.049 A 
ATOM     46  N   UNL     1      -1.449   5.137  18.926  1.00  0.00    -0.248 NA
ATOM     47  C   UNL     1      -1.573   2.815  18.707  1.00  0.00     0.031 C 
ATOM     48  C   UNL     1       0.970   5.311  15.170  1.00  0.00     0.029 A 
ATOM     49  N   UNL     1       0.001   6.516  16.790  1.00  0.00    -0.354 N 
ATOM     50  C   UNL     1      -2.188   4.614  19.980  1.00  0.00     0.074 A 
ATOM     51  C   UNL     1      -2.267   3.184  19.772  1.00  0.00     0.031 C 
ATOM     52  C   UNL     1       1.246   6.605  14.936  1.00  0.00     0.029 A 
ATOM     53  C   UNL     1       0.607   7.427  15.963  1.00  0.00     0.049 A 
ATOM     54  H   UNL     1      -0.499   6.770  17.599  1.00  0.00     0.167 HD
ATOM     55  C   UNL     1      -2.747   5.263  21.030  1.00  0.00     0.031 A 
ATOM     56  C   UNL     1       0.636   8.772  16.020  1.00  0.00     0.031 A 
ATOM     57  C   UNL     1      -2.691   6.689  21.222  1.00  0.00     0.049 A 
ATOM     58  C   UNL     1      -0.039   9.478  17.164  1.00  0.00     0.074 A 
ATOM     59  C   UNL     1      -3.202   7.439  22.266  1.00  0.00     0.029 A 
ATOM     60  N   UNL     1      -2.106   7.583  20.337  1.00  0.00    -0.354 N 
ATOM     61  N   UNL     1      -0.693   8.970  18.182  1.00  0.00    -0.248 NA
ATOM     62  C   UNL     1       0.048  10.945  17.176  1.00  0.00     0.031 C 
ATOM     63  C   UNL     1      -2.993   8.793  21.976  1.00  0.00     0.029 A 
ATOM     64  C   UNL     1      -2.278   8.881  20.792  1.00  0.00     0.049 A 
ATOM     65  H   UNL     1      -1.638   7.332  19.509  1.00  0.00     0.167 HD
ATOM     66  C   UNL     1      -1.074  10.052  18.968  1.00  0.00     0.074 A 
ATOM     67  C   UNL     1      -0.557  11.240  18.318  1.00  0.00     0.031 C 
ATOM     68  C   UNL     1      -1.782  10.060  20.125  1.00  0.00     0.031 A 
BRANCH  55  69
ATOM     69  C   UNL     1      -3.520   4.430  22.019  1.00  0.00    -0.014 A 
ATOM     70  C   UNL     1      -2.886   3.496  22.855  1.00  0.00     0.009 A 
ATOM     71  C   UNL     1      -4.912   4.585  22.112  1.00  0.00     0.009 A 
ATOM     72  C   UNL     1      -3.637   2.700  23.725  1.00  0.00     0.001 A 
ATOM     73  C   UNL     1      -5.655   3.814  23.008  1.00  0.00     0.001 A 
ATOM     74  C   UNL     1      -5.019   2.862  23.803  1.00  0.00     0.000 A 
ENDBRANCH  55  69
BRANCH  56  75
ATOM     75  C   UNL     1       1.327   9.536  14.949  1.00  0.00    -0.014 A 
ATOM     76  C   UNL     1       2.521  10.226  15.207  1.00  0.00     0.009 A 
ATOM     77  C   UNL     1       0.795   9.563  13.649  1.00  0.00     0.009 A 
ATOM     78  C   UNL     1       3.159  10.939  14.189  1.00  0.00     0.001 A 
ATOM     79  C   UNL     1       1.452  10.250  12.627  1.00  0.00     0.001 A 
ATOM     80  C   UNL     1       2.630  10.943  12.899  1.00  0.00     0.000 A 
ENDBRANCH  56  75
BRANCH  68  81
ATOM     81  C   UNL     1      -2.013  11.399  20.779  1.00  0.00    -0.014 A 
ATOM     82  C   UNL     1      -2.842  12.371  20.196  1.00  0.00     0.009 A 
ATOM     83  C   UNL     1      -1.394  11.687  22.006  1.00  0.00     0.009 A 
ATOM     84  C   UNL     1      -3.000  13.621  20.800  1.00  0.00     0.001 A 
ATOM     85  C   UNL     1      -1.584  12.922  22.627  1.00  0.00     0.001 A 
ATOM     86  C   UNL     1      -2.374  13.894  22.015  1.00  0.00     0.000 A 
ENDBRANCH  68  81
ENDBRANCH  42  43
ENDBRANCH  35  37
ENDBRANCH  34  35
ENDBRANCH  33  34
ENDBRANCH  32  33
ENDBRANCH  31  32
ENDBRANCH  30  31
ENDBRANCH  29  30
ENDBRANCH  28  29
ENDBRANCH  27  28
ENDBRANCH   1  27
TORSDOF 26
