REMARK SMILES CCc1cc(C)c2c(c1)C=C(C(=O)OCCOCCOCCOCCOC(=O)c1ccc(-c3c4nc(c(-c5ccccc5)c5ccc([nH]5)c(-c5ccccc5)c5nc(c(-c6ccccc6)c6ccc3[nH]6)C=C5)C=C4)cc1)[C@@H](C(F)(F)F)O2
REMARK SMILES IDX 21 1 20 2 19 3 18 4 17 5 16 6 15 7 14 8 12 9 13 10 11 11
REMARK SMILES IDX 3 12 4 13 9 14 5 15 8 16 6 17 7 18 10 19 82 20 77 21 2 22
REMARK SMILES IDX 1 23 78 24 79 25 80 26 81 27 22 28 23 29 24 30 25 31 26 32
REMARK SMILES IDX 27 33 28 34 29 35 30 36 76 37 31 38 75 39 32 40 33 41 34 42
REMARK SMILES IDX 69 43 35 44 74 45 68 46 70 47 36 48 73 49 67 50 66 51 37 53
REMARK SMILES IDX 59 54 44 55 58 56 45 57 48 58 57 59 71 60 46 61 47 62 56 64
REMARK SMILES IDX 72 65 49 66 38 67 39 68 43 69 40 70 42 71 41 72 60 73 61 74
REMARK SMILES IDX 65 75 62 76 64 77 63 78 50 79 51 80 55 81 52 82 54 83 53 84
REMARK H PARENT 70 52 48 63
REMARK Flexibility Score: inf
ROOT
ATOM      1  C   UNL     1       3.292  -8.912  -3.859  1.00  0.00     0.188 C 
ENDROOT
BRANCH   1   2
ATOM      2  O   UNL     1       2.589  -7.702  -4.142  1.00  0.00    -0.377 OA
BRANCH   2   3
ATOM      3  C   UNL     1       2.371  -6.804  -3.064  1.00  0.00     0.188 C 
BRANCH   3   4
ATOM      4  C   UNL     1       1.105  -7.136  -2.249  1.00  0.00     0.188 C 
BRANCH   4   5
ATOM      5  O   UNL     1       0.632  -8.462  -2.390  1.00  0.00    -0.376 OA
BRANCH   5   6
ATOM      6  C   UNL     1      -0.168  -8.883  -3.482  1.00  0.00     0.202 C 
BRANCH   6   7
ATOM      7  C   UNL     1      -0.298  -8.188  -4.852  1.00  0.00     0.261 C 
BRANCH   7   8
ATOM      8  O   UNL     1       0.169  -6.848  -4.971  1.00  0.00    -0.460 OA
BRANCH   8   9
ATOM      9  C   UNL     1      -0.676  -5.874  -4.590  1.00  0.00     0.338 C 
ATOM     10  O   UNL     1      -1.816  -6.011  -4.185  1.00  0.00    -0.246 OA
BRANCH   9  11
ATOM     11  C   UNL     1       0.083  -4.606  -4.573  1.00  0.00     0.087 C 
ATOM     12  C   UNL     1       0.952  -0.412  -2.387  1.00  0.00    -0.047 A 
ATOM     13  C   UNL     1       1.696  -0.001  -3.502  1.00  0.00     0.011 A 
ATOM     14  C   UNL     1       0.435  -1.712  -2.366  1.00  0.00     0.015 A 
ATOM     15  C   UNL     1       1.935  -0.873  -4.578  1.00  0.00    -0.008 A 
ATOM     16  C   UNL     1       0.635  -2.576  -3.447  1.00  0.00     0.018 A 
ATOM     17  C   UNL     1       2.693  -0.390  -5.783  1.00  0.00     0.048 C 
ATOM     18  C   UNL     1       1.411  -2.173  -4.535  1.00  0.00     0.130 A 
ATOM     19  C   UNL     1      -0.059  -3.848  -3.480  1.00  0.00     0.027 C 
ATOM     20  O   UNL     1       1.676  -2.983  -5.605  1.00  0.00    -0.475 OA
ATOM     21  C   UNL     1       1.003  -4.267  -5.715  1.00  0.00     0.316 C 
BRANCH  12  22
ATOM     22  C   UNL     1       0.614   0.558  -1.281  1.00  0.00     0.032 C 
ATOM     23  C   UNL     1       1.133   0.136   0.086  1.00  0.00     0.009 C 
ENDBRANCH  12  22
BRANCH  21  24
ATOM     24  C   UNL     1       0.285  -4.317  -7.069  1.00  0.00     0.430 C 
ATOM     25  F   UNL     1       1.105  -3.933  -8.078  1.00  0.00    -0.167 F 
ATOM     26  F   UNL     1      -0.139  -5.566  -7.372  1.00  0.00    -0.167 F 
ATOM     27  F   UNL     1      -0.797  -3.506  -7.095  1.00  0.00    -0.167 F 
ENDBRANCH  21  24
ENDBRANCH   9  11
ENDBRANCH   8   9
ENDBRANCH   7   8
ENDBRANCH   6   7
ENDBRANCH   5   6
ENDBRANCH   4   5
ENDBRANCH   3   4
ENDBRANCH   2   3
ENDBRANCH   1   2
BRANCH   1  28
ATOM     28  C   UNL     1       3.263  -9.546  -2.446  1.00  0.00     0.188 C 
BRANCH  28  29
ATOM     29  O   UNL     1       3.380  -8.609  -1.386  1.00  0.00    -0.376 OA
BRANCH  29  30
ATOM     30  C   UNL     1       4.605  -8.507  -0.684  1.00  0.00     0.202 C 
BRANCH  30  31
ATOM     31  C   UNL     1       5.812  -7.973  -1.466  1.00  0.00     0.261 C 
BRANCH  31  32
ATOM     32  O   UNL     1       6.117  -8.649  -2.692  1.00  0.00    -0.460 OA
BRANCH  32  33
ATOM     33  C   UNL     1       6.491  -9.941  -2.612  1.00  0.00     0.338 C 
ATOM     34  O   UNL     1       6.615 -10.619  -1.604  1.00  0.00    -0.246 OA
BRANCH  33  35
ATOM     35  C   UNL     1       6.576 -10.460  -3.989  1.00  0.00     0.060 A 
ATOM     36  C   UNL     1       5.694 -11.466  -4.409  1.00  0.00     0.016 A 
ATOM     37  C   UNL     1       7.541  -9.948  -4.857  1.00  0.00     0.016 A 
ATOM     38  C   UNL     1       5.801 -11.992  -5.695  1.00  0.00     0.010 A 
ATOM     39  C   UNL     1       7.672 -10.500  -6.130  1.00  0.00     0.010 A 
ATOM     40  C   UNL     1       6.828 -11.549  -6.537  1.00  0.00    -0.014 A 
BRANCH  40  41
ATOM     41  C   UNL     1       7.188 -12.317  -7.746  1.00  0.00     0.031 A 
ATOM     42  C   UNL     1       8.239 -13.383  -7.613  1.00  0.00     0.074 A 
ATOM     43  C   UNL     1       6.634 -12.047  -8.940  1.00  0.00     0.049 A 
ATOM     44  N   UNL     1       8.842 -14.068  -8.548  1.00  0.00    -0.248 NA
ATOM     45  C   UNL     1       8.673 -13.717  -6.244  1.00  0.00     0.031 C 
ATOM     46  C   UNL     1       5.563 -11.083  -9.180  1.00  0.00     0.029 A 
ATOM     47  N   UNL     1       6.924 -12.552 -10.182  1.00  0.00    -0.354 N 
ATOM     48  C   UNL     1       9.732 -14.900  -7.883  1.00  0.00     0.074 A 
ATOM     49  C   UNL     1       9.599 -14.637  -6.469  1.00  0.00     0.031 C 
ATOM     50  C   UNL     1       5.304 -11.044 -10.499  1.00  0.00     0.029 A 
ATOM     51  C   UNL     1       6.221 -11.947 -11.194  1.00  0.00     0.049 A 
ATOM     52  H   UNL     1       7.573 -13.277 -10.333  1.00  0.00     0.167 HD
ATOM     53  C   UNL     1      10.588 -15.801  -8.412  1.00  0.00     0.031 A 
ATOM     54  C   UNL     1       6.333 -12.080 -12.531  1.00  0.00     0.031 A 
ATOM     55  C   UNL     1      10.724 -16.053  -9.819  1.00  0.00     0.049 A 
ATOM     56  C   UNL     1       7.350 -13.032 -13.099  1.00  0.00     0.074 A 
ATOM     57  C   UNL     1      11.564 -16.955 -10.447  1.00  0.00     0.029 A 
ATOM     58  N   UNL     1      10.009 -15.405 -10.810  1.00  0.00    -0.354 N 
ATOM     59  N   UNL     1       8.198 -13.806 -12.466  1.00  0.00    -0.248 NA
ATOM     60  C   UNL     1       7.426 -13.132 -14.565  1.00  0.00     0.031 C 
ATOM     61  C   UNL     1      11.396 -16.814 -11.825  1.00  0.00     0.029 A 
ATOM     62  C   UNL     1      10.403 -15.873 -12.049  1.00  0.00     0.049 A 
ATOM     63  H   UNL     1       9.324 -14.714 -10.656  1.00  0.00     0.167 HD
ATOM     64  C   UNL     1       8.885 -14.506 -13.450  1.00  0.00     0.074 A 
ATOM     65  C   UNL     1       8.355 -14.067 -14.724  1.00  0.00     0.031 C 
ATOM     66  C   UNL     1       9.861 -15.434 -13.308  1.00  0.00     0.031 A 
BRANCH  53  67
ATOM     67  C   UNL     1      11.469 -16.580  -7.482  1.00  0.00    -0.014 A 
ATOM     68  C   UNL     1      10.967 -17.671  -6.760  1.00  0.00     0.009 A 
ATOM     69  C   UNL     1      12.845 -16.304  -7.441  1.00  0.00     0.009 A 
ATOM     70  C   UNL     1      11.832 -18.484  -6.025  1.00  0.00     0.001 A 
ATOM     71  C   UNL     1      13.709 -17.130  -6.723  1.00  0.00     0.001 A 
ATOM     72  C   UNL     1      13.203 -18.221  -6.019  1.00  0.00     0.000 A 
ENDBRANCH  53  67
BRANCH  54  73
ATOM     73  C   UNL     1       5.463 -11.269 -13.421  1.00  0.00    -0.014 A 
ATOM     74  C   UNL     1       4.410 -11.868 -14.127  1.00  0.00     0.009 A 
ATOM     75  C   UNL     1       5.660  -9.884 -13.540  1.00  0.00     0.009 A 
ATOM     76  C   UNL     1       3.572 -11.096 -14.936  1.00  0.00     0.001 A 
ATOM     77  C   UNL     1       4.806  -9.111 -14.330  1.00  0.00     0.001 A 
ATOM     78  C   UNL     1       3.765  -9.719 -15.029  1.00  0.00     0.000 A 
ENDBRANCH  54  73
BRANCH  66  79
ATOM     79  C   UNL     1      10.406 -16.085 -14.546  1.00  0.00    -0.014 A 
ATOM     80  C   UNL     1      11.289 -15.407 -15.398  1.00  0.00     0.009 A 
ATOM     81  C   UNL     1      10.122 -17.439 -14.793  1.00  0.00     0.009 A 
ATOM     82  C   UNL     1      11.866 -16.070 -16.484  1.00  0.00     0.001 A 
ATOM     83  C   UNL     1      10.722 -18.105 -15.862  1.00  0.00     0.001 A 
ATOM     84  C   UNL     1      11.590 -17.419 -16.709  1.00  0.00     0.000 A 
ENDBRANCH  66  79
ENDBRANCH  40  41
ENDBRANCH  33  35
ENDBRANCH  32  33
ENDBRANCH  31  32
ENDBRANCH  30  31
ENDBRANCH  29  30
ENDBRANCH  28  29
ENDBRANCH   1  28
TORSDOF 22
