REMARK SMILES O=C(OCCOCCOCCOCCOC(=O)[C@@H]1[C@@H](C(=O)Nc2ccc(F)c(F)c2)[C@H]2CC[C@@H]1O2)c1ccc(-c2c3nc(c(-c4ccccc4)c4ccc([nH]4)c(-c4ccccc4)c4nc(c(-c5ccccc5)c5ccc2[nH]5)C=C4)C=C3)cc1
REMARK SMILES IDX 9 1 8 2 7 3 6 4 5 5 4 6 3 7 2 8 1 9 36 10 37 11 83 12 38 13
REMARK SMILES IDX 82 14 39 15 40 16 41 17 76 18 42 19 81 20 75 21 77 22 43 23
REMARK SMILES IDX 80 24 74 25 73 26 44 28 66 29 51 30 65 31 52 32 55 33 64 34
REMARK SMILES IDX 78 35 53 36 54 37 63 39 79 40 56 41 45 42 46 43 50 44 47 45
REMARK SMILES IDX 49 46 48 47 67 48 68 49 72 50 69 51 71 52 70 53 57 54 58 55
REMARK SMILES IDX 62 56 59 57 61 58 60 59 10 60 11 61 12 62 13 63 14 64 15 65
REMARK SMILES IDX 16 66 17 67 18 68 19 69 34 70 31 71 33 72 35 73 32 74 20 75
REMARK SMILES IDX 21 76 22 77 23 79 24 80 30 81 25 82 28 83 26 84 29 85 27 86
REMARK H PARENT 77 27 55 38 22 78
REMARK Flexibility Score: inf
ROOT
ATOM      1  O   UNL     1       2.549  -3.034  -2.620  1.00  0.00    -0.377 OA
ENDROOT
BRANCH   1   2
ATOM      2  C   UNL     1       1.832  -1.904  -2.119  1.00  0.00     0.188 C 
BRANCH   2   3
ATOM      3  C   UNL     1       2.319  -1.323  -0.783  1.00  0.00     0.188 C 
BRANCH   3   4
ATOM      4  O   UNL     1       3.637  -0.779  -0.869  1.00  0.00    -0.376 OA
BRANCH   4   5
ATOM      5  C   UNL     1       4.581  -1.071   0.162  1.00  0.00     0.202 C 
BRANCH   5   6
ATOM      6  C   UNL     1       4.246  -0.545   1.551  1.00  0.00     0.261 C 
BRANCH   6   7
ATOM      7  O   UNL     1       2.890  -0.111   1.722  1.00  0.00    -0.460 OA
BRANCH   7   8
ATOM      8  C   UNL     1       2.271   1.012   1.297  1.00  0.00     0.338 C 
ATOM      9  O   UNL     1       1.068   1.135   1.528  1.00  0.00    -0.246 OA
BRANCH   8  10
ATOM     10  C   UNL     1       2.945   2.132   0.580  1.00  0.00     0.060 A 
ATOM     11  C   UNL     1       4.031   2.011  -0.282  1.00  0.00     0.016 A 
ATOM     12  C   UNL     1       2.368   3.403   0.723  1.00  0.00     0.016 A 
ATOM     13  C   UNL     1       4.595   3.095  -0.918  1.00  0.00     0.010 A 
ATOM     14  C   UNL     1       2.909   4.511   0.070  1.00  0.00     0.010 A 
ATOM     15  C   UNL     1       4.051   4.352  -0.721  1.00  0.00    -0.014 A 
BRANCH  15  16
ATOM     16  C   UNL     1       4.870   5.484  -1.154  1.00  0.00     0.031 A 
ATOM     17  C   UNL     1       5.647   6.195  -0.093  1.00  0.00     0.074 A 
ATOM     18  C   UNL     1       5.055   5.714  -2.464  1.00  0.00     0.049 A 
ATOM     19  N   UNL     1       6.370   7.273  -0.179  1.00  0.00    -0.248 NA
ATOM     20  C   UNL     1       5.612   5.595   1.256  1.00  0.00     0.031 C 
ATOM     21  C   UNL     1       4.494   4.909  -3.555  1.00  0.00     0.029 A 
ATOM     22  N   UNL     1       5.796   6.668  -3.098  1.00  0.00    -0.354 N 
ATOM     23  C   UNL     1       6.824   7.514   1.111  1.00  0.00     0.074 A 
ATOM     24  C   UNL     1       6.307   6.470   1.961  1.00  0.00     0.031 C 
ATOM     25  C   UNL     1       4.920   5.406  -4.727  1.00  0.00     0.029 A 
ATOM     26  C   UNL     1       5.701   6.608  -4.465  1.00  0.00     0.049 A 
ATOM     27  H   UNL     1       6.344   7.333  -2.622  1.00  0.00     0.167 HD
ATOM     28  C   UNL     1       7.589   8.542   1.536  1.00  0.00     0.031 A 
ATOM     29  C   UNL     1       6.152   7.477  -5.385  1.00  0.00     0.031 A 
ATOM     30  C   UNL     1       8.065   9.559   0.642  1.00  0.00     0.049 A 
ATOM     31  C   UNL     1       6.881   8.691  -4.878  1.00  0.00     0.074 A 
ATOM     32  C   UNL     1       8.775  10.707   0.928  1.00  0.00     0.029 A 
ATOM     33  N   UNL     1       7.865   9.534  -0.734  1.00  0.00    -0.354 N 
ATOM     34  N   UNL     1       7.216   8.995  -3.644  1.00  0.00    -0.248 NA
ATOM     35  C   UNL     1       7.278   9.687  -5.877  1.00  0.00     0.031 C 
ATOM     36  C   UNL     1       8.952  11.406  -0.271  1.00  0.00     0.029 A 
ATOM     37  C   UNL     1       8.418  10.657  -1.313  1.00  0.00     0.049 A 
ATOM     38  H   UNL     1       7.398   8.819  -1.223  1.00  0.00     0.167 HD
ATOM     39  C   UNL     1       7.885  10.207  -3.718  1.00  0.00     0.074 A 
ATOM     40  C   UNL     1       7.920  10.570  -5.124  1.00  0.00     0.031 C 
ATOM     41  C   UNL     1       8.424  10.958  -2.724  1.00  0.00     0.031 A 
BRANCH  28  42
ATOM     42  C   UNL     1       7.822   8.648   3.015  1.00  0.00    -0.014 A 
ATOM     43  C   UNL     1       8.623   7.730   3.714  1.00  0.00     0.009 A 
ATOM     44  C   UNL     1       7.153   9.649   3.738  1.00  0.00     0.009 A 
ATOM     45  C   UNL     1       8.707   7.782   5.109  1.00  0.00     0.001 A 
ATOM     46  C   UNL     1       7.264   9.719   5.127  1.00  0.00     0.001 A 
ATOM     47  C   UNL     1       8.029   8.777   5.813  1.00  0.00     0.000 A 
ENDBRANCH  28  42
BRANCH  29  48
ATOM     48  C   UNL     1       5.849   7.276  -6.827  1.00  0.00    -0.014 A 
ATOM     49  C   UNL     1       6.874   7.053  -7.758  1.00  0.00     0.009 A 
ATOM     50  C   UNL     1       4.520   7.304  -7.284  1.00  0.00     0.009 A 
ATOM     51  C   UNL     1       6.575   6.886  -9.114  1.00  0.00     0.001 A 
ATOM     52  C   UNL     1       4.222   7.105  -8.634  1.00  0.00     0.001 A 
ATOM     53  C   UNL     1       5.251   6.907  -9.550  1.00  0.00     0.000 A 
ENDBRANCH  29  48
BRANCH  41  54
ATOM     54  C   UNL     1       9.137  12.209  -3.141  1.00  0.00    -0.014 A 
ATOM     55  C   UNL     1       8.435  13.337  -3.588  1.00  0.00     0.009 A 
ATOM     56  C   UNL     1      10.534  12.270  -3.018  1.00  0.00     0.009 A 
ATOM     57  C   UNL     1       9.126  14.498  -3.934  1.00  0.00     0.001 A 
ATOM     58  C   UNL     1      11.217  13.443  -3.329  1.00  0.00     0.001 A 
ATOM     59  C   UNL     1      10.514  14.552  -3.796  1.00  0.00     0.000 A 
ENDBRANCH  41  54
ENDBRANCH  15  16
ENDBRANCH   8  10
ENDBRANCH   7   8
ENDBRANCH   6   7
ENDBRANCH   5   6
ENDBRANCH   4   5
ENDBRANCH   3   4
ENDBRANCH   2   3
ENDBRANCH   1   2
BRANCH   1  60
ATOM     60  C   UNL     1       3.955  -2.972  -2.436  1.00  0.00     0.188 C 
BRANCH  60  61
ATOM     61  C   UNL     1       4.736  -1.906  -3.241  1.00  0.00     0.188 C 
BRANCH  61  62
ATOM     62  O   UNL     1       3.998  -0.736  -3.552  1.00  0.00    -0.376 OA
BRANCH  62  63
ATOM     63  C   UNL     1       3.518  -0.525  -4.875  1.00  0.00     0.202 C 
BRANCH  63  64
ATOM     64  C   UNL     1       2.872  -1.648  -5.720  1.00  0.00     0.261 C 
BRANCH  64  65
ATOM     65  O   UNL     1       3.289  -2.983  -5.415  1.00  0.00    -0.463 OA
BRANCH  65  66
ATOM     66  C   UNL     1       4.370  -3.485  -6.065  1.00  0.00     0.312 C 
ATOM     67  O   UNL     1       4.917  -2.946  -7.025  1.00  0.00    -0.252 OA
BRANCH  66  68
ATOM     68  C   UNL     1       4.915  -4.658  -5.277  1.00  0.00     0.143 C 
ATOM     69  C   UNL     1       6.452  -4.686  -5.261  1.00  0.00     0.124 C 
ATOM     70  C   UNL     1       4.539  -6.016  -5.831  1.00  0.00     0.133 C 
ATOM     71  C   UNL     1       6.711  -6.103  -5.804  1.00  0.00     0.132 C 
ATOM     72  C   UNL     1       4.816  -7.080  -4.753  1.00  0.00     0.036 C 
ATOM     73  O   UNL     1       5.622  -6.245  -6.757  1.00  0.00    -0.373 OA
ATOM     74  C   UNL     1       6.336  -7.230  -4.842  1.00  0.00     0.035 C 
BRANCH  69  75
ATOM     75  C   UNL     1       7.095  -4.496  -3.888  1.00  0.00     0.231 C 
ATOM     76  O   UNL     1       6.595  -4.950  -2.858  1.00  0.00    -0.274 OA
ATOM     77  N   UNL     1       8.345  -3.942  -3.812  1.00  0.00    -0.326 N 
ATOM     78  H   UNL     1       8.936  -4.326  -3.124  1.00  0.00     0.169 HD
BRANCH  77  79
ATOM     79  C   UNL     1       8.903  -2.905  -4.575  1.00  0.00     0.044 A 
ATOM     80  C   UNL     1       8.123  -1.875  -5.114  1.00  0.00     0.029 A 
ATOM     81  C   UNL     1      10.291  -2.852  -4.705  1.00  0.00     0.068 A 
ATOM     82  C   UNL     1       8.716  -0.820  -5.811  1.00  0.00     0.044 A 
ATOM     83  C   UNL     1      10.873  -1.820  -5.439  1.00  0.00     0.160 A 
ATOM     84  C   UNL     1      10.092  -0.810  -5.987  1.00  0.00     0.158 A 
ATOM     85  F   UNL     1      12.202  -1.811  -5.613  1.00  0.00    -0.204 F 
ATOM     86  F   UNL     1      10.659   0.186  -6.681  1.00  0.00    -0.204 F 
ENDBRANCH  77  79
ENDBRANCH  69  75
ENDBRANCH  66  68
ENDBRANCH  65  66
ENDBRANCH  64  65
ENDBRANCH  63  64
ENDBRANCH  62  63
ENDBRANCH  61  62
ENDBRANCH  60  61
ENDBRANCH   1  60
TORSDOF 22
