REMARK SMILES CC1(C(=O)N[C@H](C(=O)OCCOCCOCCOCCOC(=O)c2ccc(-c3c4nc(c(-c5ccccc5)c5ccc([nH]5)c(-c5ccccc5)c5nc(c(-c6ccccc6)c6ccc3[nH]6)C=C5)C=C4)cc2)C2CC2)CCCC1
REMARK SMILES IDX 15 1 14 2 13 3 12 4 11 5 10 6 9 7 7 8 8 9 6 10 5 11 3 12
REMARK SMILES IDX 4 13 2 15 1 16 75 17 78 18 76 19 77 20 72 21 73 22 74 23
REMARK SMILES IDX 16 24 17 25 18 26 19 27 20 28 21 29 22 30 23 31 24 32 25 33
REMARK SMILES IDX 71 34 26 35 70 36 27 37 28 38 29 39 64 40 30 41 69 42 63 43
REMARK SMILES IDX 65 44 31 45 68 46 62 47 61 48 32 50 54 51 39 52 53 53 40 54
REMARK SMILES IDX 43 55 52 56 66 57 41 58 42 59 51 61 67 62 44 63 33 64 34 65
REMARK SMILES IDX 38 66 35 67 37 68 36 69 55 70 56 71 60 72 57 73 59 74 58 75
REMARK SMILES IDX 45 76 46 77 50 78 47 79 49 80 48 81
REMARK H PARENT 5 14 65 49 43 60
REMARK Flexibility Score: inf
ROOT
ATOM      1  O   UNL     1       4.425   1.410   2.349  1.00  0.00    -0.377 OA
ENDROOT
BRANCH   1   2
ATOM      2  C   UNL     1       3.208   1.276   1.648  1.00  0.00     0.188 C 
BRANCH   2   3
ATOM      3  C   UNL     1       1.932   1.177   2.493  1.00  0.00     0.188 C 
BRANCH   3   4
ATOM      4  O   UNL     1       2.008   1.318   3.898  1.00  0.00    -0.376 OA
BRANCH   4   5
ATOM      5  C   UNL     1       3.137   0.770   4.564  1.00  0.00     0.202 C 
BRANCH   5   6
ATOM      6  C   UNL     1       3.472  -0.721   4.334  1.00  0.00     0.261 C 
BRANCH   6   7
ATOM      7  O   UNL     1       3.579  -1.183   2.957  1.00  0.00    -0.462 OA
BRANCH   7   8
ATOM      8  C   UNL     1       2.534  -1.919   2.490  1.00  0.00     0.329 C 
ATOM      9  O   UNL     1       1.554  -2.209   3.175  1.00  0.00    -0.250 OA
BRANCH   8  10
ATOM     10  C   UNL     1       2.674  -2.457   1.011  1.00  0.00     0.195 C 
BRANCH  10  11
ATOM     11  N   UNL     1       3.790  -2.015   0.156  1.00  0.00    -0.342 N 
ATOM     12  C   UNL     1       3.904  -1.420  -1.070  1.00  0.00     0.226 C 
ATOM     13  O   UNL     1       5.058  -1.391  -1.520  1.00  0.00    -0.274 OA
ATOM     14  H   UNL     1       4.667  -2.190   0.568  1.00  0.00     0.164 HD
BRANCH  12  15
ATOM     15  C   UNL     1       2.741  -0.803  -1.915  1.00  0.00     0.046 C 
ATOM     16  C   UNL     1       1.813  -1.869  -2.493  1.00  0.00     0.022 C 
ATOM     17  C   UNL     1       3.315   0.056  -3.088  1.00  0.00     0.016 C 
ATOM     18  C   UNL     1       1.972   0.287  -1.176  1.00  0.00     0.016 C 
ATOM     19  C   UNL     1       2.298   1.166  -3.389  1.00  0.00     0.001 C 
ATOM     20  C   UNL     1       1.325   1.182  -2.219  1.00  0.00     0.001 C 
ENDBRANCH  12  15
ENDBRANCH  10  11
BRANCH  10  21
ATOM     21  C   UNL     1       2.702  -3.983   1.140  1.00  0.00     0.023 C 
ATOM     22  C   UNL     1       1.888  -4.829   0.194  1.00  0.00     0.007 C 
ATOM     23  C   UNL     1       3.384  -4.947   0.195  1.00  0.00     0.007 C 
ENDBRANCH  10  21
ENDBRANCH   8  10
ENDBRANCH   7   8
ENDBRANCH   6   7
ENDBRANCH   5   6
ENDBRANCH   4   5
ENDBRANCH   3   4
ENDBRANCH   2   3
ENDBRANCH   1   2
BRANCH   1  24
ATOM     24  C   UNL     1       5.412   2.233   1.751  1.00  0.00     0.188 C 
BRANCH  24  25
ATOM     25  C   UNL     1       4.874   3.643   1.490  1.00  0.00     0.188 C 
BRANCH  25  26
ATOM     26  O   UNL     1       4.103   3.869   0.307  1.00  0.00    -0.376 OA
BRANCH  26  27
ATOM     27  C   UNL     1       4.463   3.219  -0.910  1.00  0.00     0.202 C 
BRANCH  27  28
ATOM     28  C   UNL     1       5.446   3.991  -1.778  1.00  0.00     0.261 C 
BRANCH  28  29
ATOM     29  O   UNL     1       6.762   3.841  -1.242  1.00  0.00    -0.460 OA
BRANCH  29  30
ATOM     30  C   UNL     1       7.177   4.840  -0.437  1.00  0.00     0.338 C 
ATOM     31  O   UNL     1       6.659   5.933  -0.265  1.00  0.00    -0.246 OA
BRANCH  30  32
ATOM     32  C   UNL     1       8.245   4.292   0.413  1.00  0.00     0.060 A 
ATOM     33  C   UNL     1       8.248   4.630   1.775  1.00  0.00     0.016 A 
ATOM     34  C   UNL     1       9.207   3.428  -0.117  1.00  0.00     0.016 A 
ATOM     35  C   UNL     1       9.231   4.128   2.610  1.00  0.00     0.010 A 
ATOM     36  C   UNL     1      10.218   2.957   0.707  1.00  0.00     0.010 A 
ATOM     37  C   UNL     1      10.251   3.350   2.055  1.00  0.00    -0.014 A 
BRANCH  37  38
ATOM     38  C   UNL     1      11.519   3.233   2.787  1.00  0.00     0.031 A 
ATOM     39  C   UNL     1      12.562   4.271   2.496  1.00  0.00     0.074 A 
ATOM     40  C   UNL     1      11.717   2.239   3.662  1.00  0.00     0.049 A 
ATOM     41  N   UNL     1      13.795   4.348   2.915  1.00  0.00    -0.248 NA
ATOM     42  C   UNL     1      12.161   5.367   1.593  1.00  0.00     0.031 C 
ATOM     43  C   UNL     1      10.730   1.228   4.038  1.00  0.00     0.029 A 
ATOM     44  N   UNL     1      12.834   1.912   4.379  1.00  0.00    -0.354 N 
ATOM     45  C   UNL     1      14.318   5.485   2.312  1.00  0.00     0.074 A 
ATOM     46  C   UNL     1      13.286   6.053   1.479  1.00  0.00     0.031 C 
ATOM     47  C   UNL     1      11.297   0.374   4.906  1.00  0.00     0.029 A 
ATOM     48  C   UNL     1      12.692   0.760   5.108  1.00  0.00     0.049 A 
ATOM     49  H   UNL     1      13.658   2.450   4.372  1.00  0.00     0.167 HD
ATOM     50  C   UNL     1      15.558   6.005   2.445  1.00  0.00     0.031 A 
ATOM     51  C   UNL     1      13.609   0.086   5.825  1.00  0.00     0.031 A 
ATOM     52  C   UNL     1      16.575   5.399   3.257  1.00  0.00     0.049 A 
ATOM     53  C   UNL     1      15.007   0.641   5.897  1.00  0.00     0.074 A 
ATOM     54  C   UNL     1      17.869   5.824   3.482  1.00  0.00     0.029 A 
ATOM     55  N   UNL     1      16.402   4.220   3.970  1.00  0.00    -0.354 N 
ATOM     56  N   UNL     1      15.496   1.726   5.343  1.00  0.00    -0.248 NA
ATOM     57  C   UNL     1      15.975  -0.115   6.700  1.00  0.00     0.031 C 
ATOM     58  C   UNL     1      18.501   4.866   4.281  1.00  0.00     0.029 A 
ATOM     59  C   UNL     1      17.577   3.886   4.617  1.00  0.00     0.049 A 
ATOM     60  H   UNL     1      15.568   3.700   4.010  1.00  0.00     0.167 HD
ATOM     61  C   UNL     1      16.819   1.804   5.758  1.00  0.00     0.074 A 
ATOM     62  C   UNL     1      17.049   0.659   6.619  1.00  0.00     0.031 C 
ATOM     63  C   UNL     1      17.761   2.735   5.465  1.00  0.00     0.031 A 
BRANCH  50  64
ATOM     64  C   UNL     1      15.879   7.240   1.650  1.00  0.00    -0.014 A 
ATOM     65  C   UNL     1      15.270   8.475   1.929  1.00  0.00     0.009 A 
ATOM     66  C   UNL     1      16.801   7.164   0.595  1.00  0.00     0.009 A 
ATOM     67  C   UNL     1      15.547   9.596   1.142  1.00  0.00     0.001 A 
ATOM     68  C   UNL     1      17.102   8.293  -0.168  1.00  0.00     0.001 A 
ATOM     69  C   UNL     1      16.467   9.505   0.099  1.00  0.00     0.000 A 
ENDBRANCH  50  64
BRANCH  51  70
ATOM     70  C   UNL     1      13.235  -1.178   6.507  1.00  0.00    -0.014 A 
ATOM     71  C   UNL     1      13.175  -1.246   7.907  1.00  0.00     0.009 A 
ATOM     72  C   UNL     1      12.918  -2.325   5.760  1.00  0.00     0.009 A 
ATOM     73  C   UNL     1      12.828  -2.441   8.544  1.00  0.00     0.001 A 
ATOM     74  C   UNL     1      12.543  -3.509   6.399  1.00  0.00     0.001 A 
ATOM     75  C   UNL     1      12.507  -3.568   7.790  1.00  0.00     0.000 A 
ENDBRANCH  51  70
BRANCH  63  76
ATOM     76  C   UNL     1      19.104   2.580   6.122  1.00  0.00    -0.014 A 
ATOM     77  C   UNL     1      19.995   1.567   5.741  1.00  0.00     0.009 A 
ATOM     78  C   UNL     1      19.500   3.507   7.099  1.00  0.00     0.009 A 
ATOM     79  C   UNL     1      21.244   1.464   6.354  1.00  0.00     0.001 A 
ATOM     80  C   UNL     1      20.762   3.424   7.683  1.00  0.00     0.001 A 
ATOM     81  C   UNL     1      21.629   2.396   7.318  1.00  0.00     0.000 A 
ENDBRANCH  63  76
ENDBRANCH  37  38
ENDBRANCH  30  32
ENDBRANCH  29  30
ENDBRANCH  28  29
ENDBRANCH  27  28
ENDBRANCH  26  27
ENDBRANCH  25  26
ENDBRANCH  24  25
ENDBRANCH   1  24
TORSDOF 23
