REMARK SMILES CC(C)C[C@@H](C[NH3+])C(=O)N1CCC(CC(=O)OCCOCCOCCOCCOC(=O)c2ccc(-c3c4nc(c(-c5ccccc5)c5ccc([nH]5)c(-c5ccccc5)c5nc(c(-c6ccccc6)c6ccc3[nH]6)C=C5)C=C4)cc2)CC1
REMARK SMILES IDX 22 1 21 2 20 3 19 4 18 5 17 6 15 7 16 8 14 9 13 10 8 11 9 12
REMARK SMILES IDX 10 13 11 14 81 15 12 16 80 17 5 18 4 19 2 20 1 21 3 22 6 23
REMARK SMILES IDX 7 24 23 28 24 29 25 30 26 31 27 32 28 33 29 34 30 35 31 36
REMARK SMILES IDX 32 37 33 38 79 39 34 40 78 41 35 42 36 43 37 44 72 45 38 46
REMARK SMILES IDX 77 47 71 48 73 49 39 50 76 51 70 52 69 53 40 55 62 56 47 57
REMARK SMILES IDX 61 58 48 59 51 60 60 61 74 62 49 63 50 64 59 66 75 67 52 68
REMARK SMILES IDX 41 69 42 70 46 71 43 72 45 73 44 74 63 75 64 76 68 77 65 78
REMARK SMILES IDX 67 79 66 80 53 81 54 82 58 83 55 84 57 85 56 86
REMARK H PARENT 7 25 7 26 7 27 73 54 51 65
REMARK Flexibility Score: inf
ROOT
ATOM      1  C   UNL     1      -7.666   2.463  -5.544  1.00  0.00     0.188 C 
ENDROOT
BRANCH   1   2
ATOM      2  C   UNL     1      -8.993   1.825  -5.970  1.00  0.00     0.188 C 
BRANCH   2   3
ATOM      3  O   UNL     1     -10.197   2.489  -5.654  1.00  0.00    -0.376 OA
BRANCH   3   4
ATOM      4  C   UNL     1     -10.717   2.475  -4.332  1.00  0.00     0.202 C 
BRANCH   4   5
ATOM      5  C   UNL     1     -10.308   1.475  -3.236  1.00  0.00     0.261 C 
BRANCH   5   6
ATOM      6  O   UNL     1      -8.922   1.111  -3.171  1.00  0.00    -0.463 OA
BRANCH   6   7
ATOM      7  C   UNL     1      -8.658  -0.213  -3.258  1.00  0.00     0.306 C 
ATOM      8  O   UNL     1      -9.512  -1.079  -3.429  1.00  0.00    -0.252 OA
BRANCH   7   9
ATOM      9  C   UNL     1      -7.192  -0.582  -3.192  1.00  0.00     0.126 C 
BRANCH   9  10
ATOM     10  C   UNL     1      -6.106   0.472  -2.950  1.00  0.00     0.003 C 
ATOM     11  C   UNL     1      -2.895   1.460  -0.520  1.00  0.00     0.231 C 
ATOM     12  O   UNL     1      -3.342   1.586   0.629  1.00  0.00    -0.274 OA
ATOM     13  N   UNL     1      -3.751   1.489  -1.603  1.00  0.00    -0.342 N 
ATOM     14  C   UNL     1      -5.033   2.176  -1.461  1.00  0.00     0.120 C 
ATOM     15  C   UNL     1      -3.583   0.790  -2.866  1.00  0.00     0.120 C 
ATOM     16  C   UNL     1      -6.204   1.206  -1.608  1.00  0.00     0.026 C 
ATOM     17  C   UNL     1      -4.727  -0.202  -3.079  1.00  0.00     0.026 C 
BRANCH  11  18
ATOM     18  C   UNL     1      -1.363   1.481  -0.697  1.00  0.00     0.133 C 
BRANCH  18  19
ATOM     19  C   UNL     1      -0.693   0.348  -1.487  1.00  0.00     0.022 C 
BRANCH  19  20
ATOM     20  C   UNL     1       0.838   0.223  -1.329  1.00  0.00    -0.016 C 
ATOM     21  C   UNL     1       1.280  -0.062   0.105  1.00  0.00     0.007 C 
ATOM     22  C   UNL     1       1.346  -0.888  -2.255  1.00  0.00     0.007 C 
ENDBRANCH  19  20
ENDBRANCH  18  19
BRANCH  18  23
ATOM     23  C   UNL     1      -0.927   2.902  -1.101  1.00  0.00     0.272 C 
BRANCH  23  24
ATOM     24  N   UNL     1      -1.063   3.212  -2.525  1.00  0.00    -0.357 N 
ATOM     25  H   UNL     1      -0.455   2.597  -3.066  1.00  0.00     0.344 HD
ATOM     26  H   UNL     1      -0.797   4.183  -2.689  1.00  0.00     0.344 HD
ATOM     27  H   UNL     1      -2.032   3.071  -2.813  1.00  0.00     0.344 HD
ENDBRANCH  23  24
ENDBRANCH  18  23
ENDBRANCH  11  18
ENDBRANCH   9  10
ENDBRANCH   7   9
ENDBRANCH   6   7
ENDBRANCH   5   6
ENDBRANCH   4   5
ENDBRANCH   3   4
ENDBRANCH   2   3
ENDBRANCH   1   2
BRANCH   1  28
ATOM     28  O   UNL     1      -7.657   3.166  -4.316  1.00  0.00    -0.377 OA
BRANCH  28  29
ATOM     29  C   UNL     1      -8.128   4.510  -4.264  1.00  0.00     0.188 C 
BRANCH  29  30
ATOM     30  C   UNL     1      -8.702   5.210  -5.513  1.00  0.00     0.188 C 
BRANCH  30  31
ATOM     31  O   UNL     1      -8.071   4.879  -6.737  1.00  0.00    -0.376 OA
BRANCH  31  32
ATOM     32  C   UNL     1      -7.010   5.703  -7.201  1.00  0.00     0.202 C 
BRANCH  32  33
ATOM     33  C   UNL     1      -5.765   5.809  -6.306  1.00  0.00     0.261 C 
BRANCH  33  34
ATOM     34  O   UNL     1      -5.965   6.456  -5.037  1.00  0.00    -0.460 OA
BRANCH  34  35
ATOM     35  C   UNL     1      -6.474   7.705  -5.052  1.00  0.00     0.338 C 
ATOM     36  O   UNL     1      -6.710   8.399  -6.021  1.00  0.00    -0.246 OA
BRANCH  35  37
ATOM     37  C   UNL     1      -6.880   8.051  -3.676  1.00  0.00     0.060 A 
ATOM     38  C   UNL     1      -8.224   8.361  -3.438  1.00  0.00     0.016 A 
ATOM     39  C   UNL     1      -5.937   8.127  -2.649  1.00  0.00     0.016 A 
ATOM     40  C   UNL     1      -8.617   8.815  -2.181  1.00  0.00     0.010 A 
ATOM     41  C   UNL     1      -6.331   8.597  -1.393  1.00  0.00     0.010 A 
ATOM     42  C   UNL     1      -7.663   8.990  -1.170  1.00  0.00    -0.014 A 
BRANCH  42  43
ATOM     43  C   UNL     1      -8.034   9.775   0.032  1.00  0.00     0.031 A 
ATOM     44  C   UNL     1      -7.662  11.233   0.082  1.00  0.00     0.074 A 
ATOM     45  C   UNL     1      -8.747   9.224   1.030  1.00  0.00     0.049 A 
ATOM     46  N   UNL     1      -7.924  12.126   1.002  1.00  0.00    -0.248 NA
ATOM     47  C   UNL     1      -6.892  11.757  -1.060  1.00  0.00     0.031 C 
ATOM     48  C   UNL     1      -9.197   7.834   1.085  1.00  0.00     0.029 A 
ATOM     49  N   UNL     1      -9.222   9.779   2.192  1.00  0.00    -0.354 N 
ATOM     50  C   UNL     1      -7.344  13.308   0.557  1.00  0.00     0.074 A 
ATOM     51  C   UNL     1      -6.694  13.016  -0.701  1.00  0.00     0.031 C 
ATOM     52  C   UNL     1      -9.881   7.644   2.227  1.00  0.00     0.029 A 
ATOM     53  C   UNL     1      -9.895   8.889   2.991  1.00  0.00     0.049 A 
ATOM     54  H   UNL     1      -9.092  10.726   2.429  1.00  0.00     0.167 HD
ATOM     55  C   UNL     1      -7.355  14.530   1.141  1.00  0.00     0.031 A 
ATOM     56  C   UNL     1     -10.447   9.059   4.209  1.00  0.00     0.031 A 
ATOM     57  C   UNL     1      -7.998  14.822   2.394  1.00  0.00     0.049 A 
ATOM     58  C   UNL     1     -10.405  10.420   4.855  1.00  0.00     0.074 A 
ATOM     59  C   UNL     1      -8.092  16.037   3.050  1.00  0.00     0.029 A 
ATOM     60  N   UNL     1      -8.647  13.888   3.185  1.00  0.00    -0.354 N 
ATOM     61  N   UNL     1      -9.899  11.541   4.399  1.00  0.00    -0.248 NA
ATOM     62  C   UNL     1     -11.033  10.541   6.178  1.00  0.00     0.031 C 
ATOM     63  C   UNL     1      -8.740  15.825   4.270  1.00  0.00     0.029 A 
ATOM     64  C   UNL     1      -9.116  14.493   4.339  1.00  0.00     0.049 A 
ATOM     65  H   UNL     1      -8.758  12.936   2.960  1.00  0.00     0.167 HD
ATOM     66  C   UNL     1     -10.176  12.503   5.363  1.00  0.00     0.074 A 
ATOM     67  C   UNL     1     -10.917  11.839   6.415  1.00  0.00     0.031 C 
ATOM     68  C   UNL     1      -9.850  13.820   5.378  1.00  0.00     0.031 A 
BRANCH  55  69
ATOM     69  C   UNL     1      -6.611  15.640   0.451  1.00  0.00    -0.014 A 
ATOM     70  C   UNL     1      -7.087  16.219  -0.736  1.00  0.00     0.009 A 
ATOM     71  C   UNL     1      -5.441  16.151   1.035  1.00  0.00     0.009 A 
ATOM     72  C   UNL     1      -6.391  17.271  -1.336  1.00  0.00     0.001 A 
ATOM     73  C   UNL     1      -4.764  17.221   0.449  1.00  0.00     0.001 A 
ATOM     74  C   UNL     1      -5.236  17.776  -0.740  1.00  0.00     0.000 A 
ENDBRANCH  55  69
BRANCH  56  75
ATOM     75  C   UNL     1     -11.068   7.909   4.920  1.00  0.00    -0.014 A 
ATOM     76  C   UNL     1     -12.446   7.877   5.185  1.00  0.00     0.009 A 
ATOM     77  C   UNL     1     -10.265   6.856   5.388  1.00  0.00     0.009 A 
ATOM     78  C   UNL     1     -12.999   6.837   5.937  1.00  0.00     0.001 A 
ATOM     79  C   UNL     1     -10.826   5.800   6.109  1.00  0.00     0.001 A 
ATOM     80  C   UNL     1     -12.190   5.799   6.396  1.00  0.00     0.000 A 
ENDBRANCH  56  75
BRANCH  68  81
ATOM     81  C   UNL     1     -10.335  14.635   6.547  1.00  0.00    -0.014 A 
ATOM     82  C   UNL     1      -9.825  14.446   7.841  1.00  0.00     0.009 A 
ATOM     83  C   UNL     1     -11.318  15.617   6.344  1.00  0.00     0.009 A 
ATOM     84  C   UNL     1     -10.330  15.183   8.915  1.00  0.00     0.001 A 
ATOM     85  C   UNL     1     -11.793  16.379   7.412  1.00  0.00     0.001 A 
ATOM     86  C   UNL     1     -11.311  16.150   8.699  1.00  0.00     0.000 A 
ENDBRANCH  68  81
ENDBRANCH  42  43
ENDBRANCH  35  37
ENDBRANCH  34  35
ENDBRANCH  33  34
ENDBRANCH  32  33
ENDBRANCH  31  32
ENDBRANCH  30  31
ENDBRANCH  29  30
ENDBRANCH  28  29
ENDBRANCH   1  28
TORSDOF 26
