REMARK SMILES C[C@@H](C(=O)OCCOCCOCCOCCOC(=O)c1ccc(-c2c3nc(c(-c4ccccc4)c4ccc([nH]4)c(-c4ccccc4)c4nc(c(-c5ccccc5)c5ccc2[nH]5)C=C4)C=C3)cc1)c1ccc(-c2ccn(C(F)F)c(=O)c2)cc1
REMARK SMILES IDX 10 1 9 2 8 3 7 4 6 5 5 6 3 7 4 8 2 9 1 10 68 11 69 12 83 13
REMARK SMILES IDX 70 14 82 15 71 16 72 17 73 18 81 19 74 20 79 21 75 22 80 23
REMARK SMILES IDX 76 24 77 25 78 26 11 27 12 28 13 29 14 30 15 31 16 32 17 33
REMARK SMILES IDX 18 34 19 35 20 36 21 37 67 38 22 39 66 40 23 41 24 42 25 43
REMARK SMILES IDX 60 44 26 45 65 46 59 47 61 48 27 49 64 50 58 51 57 52 28 54
REMARK SMILES IDX 50 55 35 56 49 57 36 58 39 59 48 60 62 61 37 62 38 63 47 65
REMARK SMILES IDX 63 66 40 67 29 68 30 69 34 70 31 71 33 72 32 73 51 74 52 75
REMARK SMILES IDX 56 76 53 77 55 78 54 79 41 80 42 81 46 82 43 83 45 84 44 85
REMARK H PARENT 61 53 39 64
REMARK Flexibility Score: inf
ROOT
ATOM      1  C   UNL     1       0.818  -1.829   1.990  1.00  0.00     0.188 C 
ENDROOT
BRANCH   1   2
ATOM      2  C   UNL     1       0.146  -3.188   1.745  1.00  0.00     0.188 C 
BRANCH   2   3
ATOM      3  O   UNL     1       0.895  -4.339   2.075  1.00  0.00    -0.376 OA
BRANCH   3   4
ATOM      4  C   UNL     1       1.945  -4.798   1.236  1.00  0.00     0.202 C 
BRANCH   4   5
ATOM      5  C   UNL     1       2.432  -4.130  -0.070  1.00  0.00     0.261 C 
BRANCH   5   6
ATOM      6  O   UNL     1       1.862  -2.862  -0.405  1.00  0.00    -0.463 OA
BRANCH   6   7
ATOM      7  C   UNL     1       1.158  -2.757  -1.557  1.00  0.00     0.313 C 
ATOM      8  O   UNL     1       0.998  -3.680  -2.350  1.00  0.00    -0.252 OA
BRANCH   7   9
ATOM      9  C   UNL     1       0.486  -1.384  -1.716  1.00  0.00     0.126 C 
ATOM     10  C   UNL     1       1.369  -0.229  -1.200  1.00  0.00     0.025 C 
BRANCH   9  11
ATOM     11  C   UNL     1      -0.984  -1.346  -1.265  1.00  0.00    -0.034 A 
ATOM     12  C   UNL     1      -1.649  -0.134  -1.006  1.00  0.00     0.005 A 
ATOM     13  C   UNL     1      -1.753  -2.522  -1.200  1.00  0.00     0.005 A 
ATOM     14  C   UNL     1      -3.025  -0.102  -0.720  1.00  0.00     0.009 A 
ATOM     15  C   UNL     1      -3.117  -2.496  -0.893  1.00  0.00     0.009 A 
ATOM     16  C   UNL     1      -3.774  -1.282  -0.689  1.00  0.00    -0.018 A 
BRANCH  16  17
ATOM     17  C   UNL     1      -5.247  -1.283  -0.595  1.00  0.00    -0.011 A 
ATOM     18  C   UNL     1      -5.995  -1.926   0.468  1.00  0.00     0.027 A 
ATOM     19  C   UNL     1      -5.916  -0.782  -1.650  1.00  0.00     0.080 A 
ATOM     20  C   UNL     1      -7.325  -2.064   0.374  1.00  0.00     0.095 A 
ATOM     21  C   UNL     1      -7.394  -0.904  -1.755  1.00  0.00     0.255 A 
ATOM     22  N   UNL     1      -8.019  -1.577  -0.719  1.00  0.00    -0.258 N 
ATOM     23  O   UNL     1      -7.950  -0.435  -2.744  1.00  0.00    -0.269 OA
BRANCH  22  24
ATOM     24  C   UNL     1      -9.437  -1.793  -0.849  1.00  0.00     0.451 C 
ATOM     25  F   UNL     1     -10.105  -0.622  -0.989  1.00  0.00    -0.185 F 
ATOM     26  F   UNL     1      -9.710  -2.563  -1.931  1.00  0.00    -0.185 F 
ENDBRANCH  22  24
ENDBRANCH  16  17
ENDBRANCH   9  11
ENDBRANCH   7   9
ENDBRANCH   6   7
ENDBRANCH   5   6
ENDBRANCH   4   5
ENDBRANCH   3   4
ENDBRANCH   2   3
ENDBRANCH   1   2
BRANCH   1  27
ATOM     27  O   UNL     1       2.234  -1.860   2.016  1.00  0.00    -0.377 OA
BRANCH  27  28
ATOM     28  C   UNL     1       2.879  -2.240   3.226  1.00  0.00     0.188 C 
BRANCH  28  29
ATOM     29  C   UNL     1       2.107  -2.940   4.367  1.00  0.00     0.188 C 
BRANCH  29  30
ATOM     30  O   UNL     1       0.784  -2.470   4.576  1.00  0.00    -0.376 OA
BRANCH  30  31
ATOM     31  C   UNL     1       0.551  -1.521   5.605  1.00  0.00     0.202 C 
BRANCH  31  32
ATOM     32  C   UNL     1       1.211  -0.141   5.458  1.00  0.00     0.261 C 
BRANCH  32  33
ATOM     33  O   UNL     1       2.644  -0.128   5.375  1.00  0.00    -0.460 OA
BRANCH  33  34
ATOM     34  C   UNL     1       3.341  -0.665   6.396  1.00  0.00     0.338 C 
ATOM     35  O   UNL     1       2.895  -1.118   7.438  1.00  0.00    -0.246 OA
BRANCH  34  36
ATOM     36  C   UNL     1       4.745  -0.801   5.961  1.00  0.00     0.060 A 
ATOM     37  C   UNL     1       5.326  -2.076   5.927  1.00  0.00     0.016 A 
ATOM     38  C   UNL     1       5.484   0.323   5.585  1.00  0.00     0.016 A 
ATOM     39  C   UNL     1       6.662  -2.226   5.555  1.00  0.00     0.010 A 
ATOM     40  C   UNL     1       6.829   0.174   5.235  1.00  0.00     0.010 A 
ATOM     41  C   UNL     1       7.433  -1.096   5.256  1.00  0.00    -0.014 A 
BRANCH  41  42
ATOM     42  C   UNL     1       8.908  -1.216   5.173  1.00  0.00     0.031 A 
ATOM     43  C   UNL     1       9.721  -0.852   6.386  1.00  0.00     0.074 A 
ATOM     44  C   UNL     1       9.519  -1.659   4.060  1.00  0.00     0.049 A 
ATOM     45  N   UNL     1      11.019  -0.827   6.541  1.00  0.00    -0.248 NA
ATOM     46  C   UNL     1       8.962  -0.461   7.586  1.00  0.00     0.031 C 
ATOM     47  C   UNL     1       8.846  -2.094   2.839  1.00  0.00     0.029 A 
ATOM     48  N   UNL     1      10.855  -1.807   3.783  1.00  0.00    -0.354 N 
ATOM     49  C   UNL     1      11.232  -0.409   7.849  1.00  0.00     0.074 A 
ATOM     50  C   UNL     1       9.933  -0.160   8.434  1.00  0.00     0.031 C 
ATOM     51  C   UNL     1       9.776  -2.451   1.935  1.00  0.00     0.029 A 
ATOM     52  C   UNL     1      11.107  -2.234   2.502  1.00  0.00     0.049 A 
ATOM     53  H   UNL     1      11.566  -1.625   4.440  1.00  0.00     0.167 HD
ATOM     54  C   UNL     1      12.404  -0.253   8.510  1.00  0.00     0.031 A 
ATOM     55  C   UNL     1      12.276  -2.402   1.855  1.00  0.00     0.031 A 
ATOM     56  C   UNL     1      13.697  -0.479   7.922  1.00  0.00     0.049 A 
ATOM     57  C   UNL     1      13.570  -2.130   2.580  1.00  0.00     0.074 A 
ATOM     58  C   UNL     1      14.944  -0.352   8.509  1.00  0.00     0.029 A 
ATOM     59  N   UNL     1      13.909  -0.867   6.609  1.00  0.00    -0.354 N 
ATOM     60  N   UNL     1      13.761  -1.755   3.822  1.00  0.00    -0.248 NA
ATOM     61  C   UNL     1      14.810  -2.312   1.812  1.00  0.00     0.031 C 
ATOM     62  C   UNL     1      15.912  -0.599   7.531  1.00  0.00     0.029 A 
ATOM     63  C   UNL     1      15.268  -0.955   6.356  1.00  0.00     0.049 A 
ATOM     64  H   UNL     1      13.199  -1.054   5.953  1.00  0.00     0.167 HD
ATOM     65  C   UNL     1      15.139  -1.689   3.993  1.00  0.00     0.074 A 
ATOM     66  C   UNL     1      15.736  -2.077   2.732  1.00  0.00     0.031 C 
ATOM     67  C   UNL     1      15.848  -1.341   5.096  1.00  0.00     0.031 A 
BRANCH  54  68
ATOM     68  C   UNL     1      12.334   0.229   9.933  1.00  0.00    -0.014 A 
ATOM     69  C   UNL     1      11.822  -0.583  10.958  1.00  0.00     0.009 A 
ATOM     70  C   UNL     1      12.807   1.511  10.256  1.00  0.00     0.009 A 
ATOM     71  C   UNL     1      11.749  -0.105  12.269  1.00  0.00     0.001 A 
ATOM     72  C   UNL     1      12.763   1.973  11.572  1.00  0.00     0.001 A 
ATOM     73  C   UNL     1      12.224   1.170  12.575  1.00  0.00     0.000 A 
ENDBRANCH  54  68
BRANCH  55  74
ATOM     74  C   UNL     1      12.285  -2.826   0.428  1.00  0.00    -0.014 A 
ATOM     75  C   UNL     1      12.788  -4.081   0.053  1.00  0.00     0.009 A 
ATOM     76  C   UNL     1      11.811  -1.961  -0.571  1.00  0.00     0.009 A 
ATOM     77  C   UNL     1      12.840  -4.449  -1.294  1.00  0.00     0.001 A 
ATOM     78  C   UNL     1      11.833  -2.345  -1.914  1.00  0.00     0.001 A 
ATOM     79  C   UNL     1      12.357  -3.584  -2.275  1.00  0.00     0.000 A 
ENDBRANCH  55  74
BRANCH  67  80
ATOM     80  C   UNL     1      17.349  -1.407   5.006  1.00  0.00    -0.014 A 
ATOM     81  C   UNL     1      18.082  -0.492   4.234  1.00  0.00     0.009 A 
ATOM     82  C   UNL     1      18.044  -2.377   5.748  1.00  0.00     0.009 A 
ATOM     83  C   UNL     1      19.476  -0.571   4.179  1.00  0.00     0.001 A 
ATOM     84  C   UNL     1      19.438  -2.432   5.718  1.00  0.00     0.001 A 
ATOM     85  C   UNL     1      20.152  -1.536   4.925  1.00  0.00     0.000 A 
ENDBRANCH  67  80
ENDBRANCH  41  42
ENDBRANCH  34  36
ENDBRANCH  33  34
ENDBRANCH  32  33
ENDBRANCH  31  32
ENDBRANCH  30  31
ENDBRANCH  29  30
ENDBRANCH  28  29
ENDBRANCH  27  28
ENDBRANCH   1  27
TORSDOF 23
