REMARK SMILES CCN(CC)S(=O)(=O)c1ccc2nc(-c3ccncc3)cc(C(=O)OCCOCCOCCOCCOC(=O)c3ccc(-c4c5nc(c(-c6ccccc6)c6ccc([nH]6)c(-c6ccccc6)c6nc(c(-c7ccccc7)c7ccc4[nH]7)C=C6)C=C5)cc3)c2c1
REMARK SMILES IDX 30 1 29 2 28 3 27 4 26 5 25 6 23 7 24 8 22 9 9 10 10 11
REMARK SMILES IDX 89 12 11 13 88 14 12 15 13 16 21 17 14 18 6 19 7 20 8 21
REMARK SMILES IDX 3 22 2 23 1 24 4 25 5 26 15 27 16 28 20 29 17 30 19 31 18 32
REMARK SMILES IDX 31 33 32 34 33 35 34 36 35 37 36 38 37 39 38 40 39 41 40 42
REMARK SMILES IDX 41 43 87 44 42 45 86 46 43 47 44 48 45 49 80 50 46 51 85 52
REMARK SMILES IDX 79 53 81 54 47 55 84 56 78 57 77 58 48 60 70 61 55 62 69 63
REMARK SMILES IDX 56 64 59 65 68 66 82 67 57 68 58 69 67 71 83 72 60 73 49 74
REMARK SMILES IDX 50 75 54 76 51 77 53 78 52 79 71 80 72 81 76 82 73 83 75 84
REMARK SMILES IDX 74 85 61 86 62 87 66 88 63 89 65 90 64 91
REMARK H PARENT 81 59 59 70
REMARK Flexibility Score: inf
ROOT
ATOM      1  C   UNL     1       1.056   7.404   3.484  1.00  0.00     0.188 C 
ENDROOT
BRANCH   1   2
ATOM      2  C   UNL     1      -0.088   8.284   2.921  1.00  0.00     0.188 C 
BRANCH   2   3
ATOM      3  O   UNL     1      -1.370   7.683   2.971  1.00  0.00    -0.376 OA
BRANCH   3   4
ATOM      4  C   UNL     1      -2.011   7.344   1.757  1.00  0.00     0.202 C 
BRANCH   4   5
ATOM      5  C   UNL     1      -1.344   6.260   0.906  1.00  0.00     0.261 C 
BRANCH   5   6
ATOM      6  O   UNL     1       0.076   6.395   0.774  1.00  0.00    -0.460 OA
BRANCH   6   7
ATOM      7  C   UNL     1       0.532   7.250  -0.167  1.00  0.00     0.338 C 
ATOM      8  O   UNL     1      -0.149   7.947  -0.897  1.00  0.00    -0.246 OA
BRANCH   7   9
ATOM      9  C   UNL     1       2.003   7.381  -0.022  1.00  0.00     0.071 A 
ATOM     10  C   UNL     1       3.434   3.926   0.535  1.00  0.00     0.083 A 
ATOM     11  C   UNL     1       4.775   4.264   0.684  1.00  0.00     0.024 A 
ATOM     12  C   UNL     1       2.502   4.913   0.215  1.00  0.00     0.033 A 
ATOM     13  C   UNL     1       5.162   5.600   0.576  1.00  0.00     0.030 A 
ATOM     14  C   UNL     1       2.881   6.284   0.174  1.00  0.00     0.016 A 
ATOM     15  C   UNL     1       4.240   6.615   0.365  1.00  0.00     0.072 A 
ATOM     16  N   UNL     1       4.699   7.877   0.372  1.00  0.00    -0.248 NA
ATOM     17  C   UNL     1       2.482   8.696   0.008  1.00  0.00     0.045 A 
ATOM     18  C   UNL     1       3.832   8.899   0.217  1.00  0.00     0.072 A 
BRANCH  10  19
ATOM     19  S   UNL     1       2.986   2.218   0.739  1.00  0.00     0.243 S 
ATOM     20  O   UNL     1       3.688   1.723   1.904  1.00  0.00    -0.207 OA
ATOM     21  O   UNL     1       3.211   1.631  -0.564  1.00  0.00    -0.207 OA
BRANCH  19  22
ATOM     22  N   UNL     1       1.306   2.164   1.091  1.00  0.00    -0.198 NA
BRANCH  22  23
ATOM     23  C   UNL     1       0.682   0.796   1.050  1.00  0.00     0.099 C 
ATOM     24  C   UNL     1       0.876   0.048  -0.255  1.00  0.00     0.022 C 
ENDBRANCH  22  23
BRANCH  22  25
ATOM     25  C   UNL     1       0.810   2.928   2.288  1.00  0.00     0.099 C 
ATOM     26  C   UNL     1       1.301   2.418   3.631  1.00  0.00     0.022 C 
ENDBRANCH  22  25
ENDBRANCH  19  22
ENDBRANCH  10  19
BRANCH  18  27
ATOM     27  C   UNL     1       4.416  10.239   0.263  1.00  0.00     0.003 A 
ATOM     28  C   UNL     1       5.060  10.761  -0.863  1.00  0.00     0.030 A 
ATOM     29  C   UNL     1       4.344  11.035   1.411  1.00  0.00     0.030 A 
ATOM     30  C   UNL     1       5.573  12.046  -0.804  1.00  0.00     0.111 A 
ATOM     31  C   UNL     1       4.894  12.308   1.375  1.00  0.00     0.111 A 
ATOM     32  N   UNL     1       5.497  12.834   0.288  1.00  0.00    -0.265 NA
ENDBRANCH  18  27
ENDBRANCH   7   9
ENDBRANCH   6   7
ENDBRANCH   5   6
ENDBRANCH   4   5
ENDBRANCH   3   4
ENDBRANCH   2   3
ENDBRANCH   1   2
BRANCH   1  33
ATOM     33  O   UNL     1       0.811   6.117   4.046  1.00  0.00    -0.377 OA
BRANCH  33  34
ATOM     34  C   UNL     1      -0.454   5.823   4.625  1.00  0.00     0.188 C 
BRANCH  34  35
ATOM     35  C   UNL     1      -1.099   6.841   5.587  1.00  0.00     0.188 C 
BRANCH  35  36
ATOM     36  O   UNL     1      -0.359   8.043   5.710  1.00  0.00    -0.376 OA
BRANCH  36  37
ATOM     37  C   UNL     1       0.393   8.239   6.894  1.00  0.00     0.202 C 
BRANCH  37  38
ATOM     38  C   UNL     1       1.455   7.198   7.283  1.00  0.00     0.261 C 
BRANCH  38  39
ATOM     39  O   UNL     1       1.074   5.816   7.218  1.00  0.00    -0.460 OA
BRANCH  39  40
ATOM     40  C   UNL     1       0.210   5.357   8.146  1.00  0.00     0.338 C 
ATOM     41  O   UNL     1      -0.327   5.995   9.037  1.00  0.00    -0.246 OA
BRANCH  40  42
ATOM     42  C   UNL     1      -0.122   3.962   7.789  1.00  0.00     0.060 A 
ATOM     43  C   UNL     1      -1.439   3.637   7.436  1.00  0.00     0.016 A 
ATOM     44  C   UNL     1       0.872   2.981   7.789  1.00  0.00     0.016 A 
ATOM     45  C   UNL     1      -1.771   2.320   7.110  1.00  0.00     0.010 A 
ATOM     46  C   UNL     1       0.534   1.660   7.484  1.00  0.00     0.010 A 
ATOM     47  C   UNL     1      -0.795   1.318   7.174  1.00  0.00    -0.014 A 
BRANCH  47  48
ATOM     48  C   UNL     1      -1.192  -0.110   7.114  1.00  0.00     0.031 A 
ATOM     49  C   UNL     1      -1.344  -0.863   8.408  1.00  0.00     0.074 A 
ATOM     50  C   UNL     1      -1.425  -0.731   5.944  1.00  0.00     0.049 A 
ATOM     51  N   UNL     1      -1.631  -2.124   8.607  1.00  0.00    -0.248 NA
ATOM     52  C   UNL     1      -1.150  -0.085   9.643  1.00  0.00     0.031 C 
ATOM     53  C   UNL     1      -1.380  -0.105   4.624  1.00  0.00     0.029 A 
ATOM     54  N   UNL     1      -1.738  -2.042   5.683  1.00  0.00    -0.354 N 
ATOM     55  C   UNL     1      -1.648  -2.290   9.987  1.00  0.00     0.074 A 
ATOM     56  C   UNL     1      -1.308  -1.013  10.574  1.00  0.00     0.031 C 
ATOM     57  C   UNL     1      -1.627  -1.040   3.689  1.00  0.00     0.029 A 
ATOM     58  C   UNL     1      -1.822  -2.331   4.343  1.00  0.00     0.049 A 
ATOM     59  H   UNL     1      -1.887  -2.711   6.389  1.00  0.00     0.167 HD
ATOM     60  C   UNL     1      -1.929  -3.404  10.703  1.00  0.00     0.031 A 
ATOM     61  C   UNL     1      -2.013  -3.508   3.717  1.00  0.00     0.031 A 
ATOM     62  C   UNL     1      -2.243  -4.681  10.121  1.00  0.00     0.049 A 
ATOM     63  C   UNL     1      -2.214  -4.758   4.533  1.00  0.00     0.074 A 
ATOM     64  C   UNL     1      -2.558  -5.866  10.762  1.00  0.00     0.029 A 
ATOM     65  N   UNL     1      -2.266  -4.942   8.760  1.00  0.00    -0.354 N 
ATOM     66  N   UNL     1      -2.262  -4.896   5.836  1.00  0.00    -0.248 NA
ATOM     67  C   UNL     1      -2.402  -6.011   3.788  1.00  0.00     0.031 C 
ATOM     68  C   UNL     1      -2.704  -6.861   9.790  1.00  0.00     0.029 A 
ATOM     69  C   UNL     1      -2.554  -6.279   8.542  1.00  0.00     0.049 A 
ATOM     70  H   UNL     1      -2.103  -4.276   8.053  1.00  0.00     0.167 HD
ATOM     71  C   UNL     1      -2.519  -6.243   6.065  1.00  0.00     0.074 A 
ATOM     72  C   UNL     1      -2.631  -6.875   4.767  1.00  0.00     0.031 C 
ATOM     73  C   UNL     1      -2.657  -6.897   7.245  1.00  0.00     0.031 A 
BRANCH  60  74
ATOM     74  C   UNL     1      -1.867  -3.296  12.202  1.00  0.00    -0.014 A 
ATOM     75  C   UNL     1      -2.820  -2.561  12.924  1.00  0.00     0.009 A 
ATOM     76  C   UNL     1      -0.852  -3.965  12.904  1.00  0.00     0.009 A 
ATOM     77  C   UNL     1      -2.737  -2.468  14.315  1.00  0.00     0.001 A 
ATOM     78  C   UNL     1      -0.790  -3.897  14.297  1.00  0.00     0.001 A 
ATOM     79  C   UNL     1      -1.726  -3.141  15.000  1.00  0.00     0.000 A 
ENDBRANCH  60  74
BRANCH  61  80
ATOM     80  C   UNL     1      -2.005  -3.579   2.232  1.00  0.00    -0.014 A 
ATOM     81  C   UNL     1      -3.183  -3.852   1.521  1.00  0.00     0.009 A 
ATOM     82  C   UNL     1      -0.805  -3.418   1.521  1.00  0.00     0.009 A 
ATOM     83  C   UNL     1      -3.156  -3.990   0.131  1.00  0.00     0.001 A 
ATOM     84  C   UNL     1      -0.785  -3.535   0.130  1.00  0.00     0.001 A 
ATOM     85  C   UNL     1      -1.958  -3.828  -0.563  1.00  0.00     0.000 A 
ENDBRANCH  61  80
BRANCH  73  86
ATOM     86  C   UNL     1      -2.982  -8.364   7.189  1.00  0.00    -0.014 A 
ATOM     87  C   UNL     1      -2.036  -9.310   6.765  1.00  0.00     0.009 A 
ATOM     88  C   UNL     1      -4.245  -8.810   7.612  1.00  0.00     0.009 A 
ATOM     89  C   UNL     1      -2.361 -10.668   6.732  1.00  0.00     0.001 A 
ATOM     90  C   UNL     1      -4.555 -10.171   7.611  1.00  0.00     0.001 A 
ATOM     91  C   UNL     1      -3.617 -11.098   7.161  1.00  0.00     0.000 A 
ENDBRANCH  73  86
ENDBRANCH  47  48
ENDBRANCH  40  42
ENDBRANCH  39  40
ENDBRANCH  38  39
ENDBRANCH  37  38
ENDBRANCH  36  37
ENDBRANCH  35  36
ENDBRANCH  34  35
ENDBRANCH  33  34
ENDBRANCH   1  33
TORSDOF 25
