REMARK SMILES COc1cc(-c2ccc(F)c(C(F)(F)F)c2)ccc1C(=O)OCCOCCOCCOCCOC(=O)c1ccc(-c2c3nc(c(-c4ccccc4)c4ccc([nH]4)c(-c4ccccc4)c4nc(c(-c5ccccc5)c5ccc2[nH]5)C=C4)C=C3)cc1
REMARK SMILES IDX 28 1 27 2 26 3 25 4 24 5 23 6 22 7 20 8 21 9 19 10 3 11 4 12
REMARK SMILES IDX 5 13 18 14 17 15 2 16 1 17 6 18 7 19 16 20 8 21 11 22 9 23
REMARK SMILES IDX 10 24 12 25 13 26 14 27 15 28 29 29 30 30 31 31 32 32 33 33
REMARK SMILES IDX 34 34 35 35 36 36 37 37 38 38 84 39 39 40 83 41 40 42 41 43
REMARK SMILES IDX 42 44 77 45 43 46 82 47 76 48 78 49 44 50 81 51 75 52 74 53
REMARK SMILES IDX 45 55 67 56 52 57 66 58 53 59 56 60 65 61 79 62 54 63 55 64
REMARK SMILES IDX 64 66 80 67 57 68 46 69 47 70 51 71 48 72 50 73 49 74 68 75
REMARK SMILES IDX 69 76 73 77 70 78 72 79 71 80 58 81 59 82 63 83 60 84 62 85
REMARK SMILES IDX 61 86
REMARK H PARENT 78 54 56 65
REMARK Flexibility Score: inf
ROOT
ATOM      1  O   UNL     1       3.293  -2.208  -1.918  1.00  0.00    -0.377 OA
ENDROOT
BRANCH   1   2
ATOM      2  C   UNL     1       3.846  -1.046  -2.515  1.00  0.00     0.188 C 
BRANCH   2   3
ATOM      3  C   UNL     1       4.968  -0.244  -1.823  1.00  0.00     0.188 C 
BRANCH   3   4
ATOM      4  O   UNL     1       5.338  -0.695  -0.524  1.00  0.00    -0.376 OA
BRANCH   4   5
ATOM      5  C   UNL     1       5.085   0.214   0.539  1.00  0.00     0.202 C 
BRANCH   5   6
ATOM      6  C   UNL     1       3.633   0.174   1.012  1.00  0.00     0.261 C 
BRANCH   6   7
ATOM      7  O   UNL     1       2.701   0.468  -0.035  1.00  0.00    -0.460 OA
BRANCH   7   8
ATOM      8  C   UNL     1       2.618   1.753  -0.434  1.00  0.00     0.342 C 
ATOM      9  O   UNL     1       3.259   2.691   0.012  1.00  0.00    -0.246 OA
BRANCH   8  10
ATOM     10  C   UNL     1       1.730   1.850  -1.615  1.00  0.00     0.102 A 
ATOM     11  C   UNL     1       0.557   1.101  -1.784  1.00  0.00     0.134 A 
ATOM     12  C   UNL     1      -0.169   1.212  -2.978  1.00  0.00     0.056 A 
ATOM     13  C   UNL     1       0.241   2.076  -4.008  1.00  0.00    -0.015 A 
ATOM     14  C   UNL     1       2.156   2.703  -2.645  1.00  0.00     0.020 A 
ATOM     15  C   UNL     1       1.424   2.807  -3.832  1.00  0.00     0.010 A 
BRANCH  11  16
ATOM     16  O   UNL     1       0.105   0.148  -0.911  1.00  0.00    -0.496 OA
ATOM     17  C   UNL     1      -0.357   0.681   0.327  1.00  0.00     0.278 C 
ENDBRANCH  11  16
BRANCH  13  18
ATOM     18  C   UNL     1      -0.576   2.251  -5.215  1.00  0.00    -0.017 A 
ATOM     19  C   UNL     1      -1.798   2.938  -5.133  1.00  0.00     0.012 A 
ATOM     20  C   UNL     1      -0.161   1.766  -6.468  1.00  0.00     0.025 A 
ATOM     21  C   UNL     1      -2.582   3.141  -6.268  1.00  0.00     0.040 A 
ATOM     22  C   UNL     1      -0.949   1.964  -7.618  1.00  0.00     0.092 A 
ATOM     23  C   UNL     1      -2.152   2.654  -7.496  1.00  0.00     0.135 A 
ATOM     24  F   UNL     1      -2.918   2.861  -8.575  1.00  0.00    -0.206 F 
BRANCH  22  25
ATOM     25  C   UNL     1      -0.542   1.456  -8.968  1.00  0.00     0.419 C 
ATOM     26  F   UNL     1      -1.421   0.553  -9.483  1.00  0.00    -0.166 F 
ATOM     27  F   UNL     1      -0.426   2.447  -9.895  1.00  0.00    -0.166 F 
ATOM     28  F   UNL     1       0.667   0.824  -8.959  1.00  0.00    -0.166 F 
ENDBRANCH  22  25
ENDBRANCH  13  18
ENDBRANCH   8  10
ENDBRANCH   7   8
ENDBRANCH   6   7
ENDBRANCH   5   6
ENDBRANCH   4   5
ENDBRANCH   3   4
ENDBRANCH   2   3
ENDBRANCH   1   2
BRANCH   1  29
ATOM     29  C   UNL     1       4.114  -3.069  -1.145  1.00  0.00     0.188 C 
BRANCH  29  30
ATOM     30  C   UNL     1       5.551  -3.371  -1.611  1.00  0.00     0.188 C 
BRANCH  30  31
ATOM     31  O   UNL     1       5.872  -2.873  -2.904  1.00  0.00    -0.376 OA
BRANCH  31  32
ATOM     32  C   UNL     1       5.968  -3.845  -3.937  1.00  0.00     0.202 C 
BRANCH  32  33
ATOM     33  C   UNL     1       4.618  -4.411  -4.395  1.00  0.00     0.261 C 
BRANCH  33  34
ATOM     34  O   UNL     1       3.907  -5.165  -3.399  1.00  0.00    -0.460 OA
BRANCH  34  35
ATOM     35  C   UNL     1       4.522  -6.263  -2.913  1.00  0.00     0.338 C 
ATOM     36  O   UNL     1       5.600  -6.722  -3.247  1.00  0.00    -0.246 OA
BRANCH  35  37
ATOM     37  C   UNL     1       3.738  -6.759  -1.769  1.00  0.00     0.060 A 
ATOM     38  C   UNL     1       4.379  -6.917  -0.534  1.00  0.00     0.016 A 
ATOM     39  C   UNL     1       2.397  -7.114  -1.932  1.00  0.00     0.016 A 
ATOM     40  C   UNL     1       3.693  -7.501   0.529  1.00  0.00     0.010 A 
ATOM     41  C   UNL     1       1.717  -7.717  -0.873  1.00  0.00     0.010 A 
ATOM     42  C   UNL     1       2.382  -7.960   0.342  1.00  0.00    -0.014 A 
BRANCH  42  43
ATOM     43  C   UNL     1       1.822  -8.936   1.305  1.00  0.00     0.031 A 
ATOM     44  C   UNL     1       2.036 -10.400   1.020  1.00  0.00     0.074 A 
ATOM     45  C   UNL     1       1.191  -8.546   2.425  1.00  0.00     0.049 A 
ATOM     46  N   UNL     1       1.672 -11.445   1.716  1.00  0.00    -0.248 NA
ATOM     47  C   UNL     1       2.768 -10.726  -0.217  1.00  0.00     0.031 C 
ATOM     48  C   UNL     1       0.960  -7.163   2.837  1.00  0.00     0.029 A 
ATOM     49  N   UNL     1       0.633  -9.296   3.430  1.00  0.00    -0.354 N 
ATOM     50  C   UNL     1       2.143 -12.546   1.012  1.00  0.00     0.074 A 
ATOM     51  C   UNL     1       2.782 -12.049  -0.186  1.00  0.00     0.031 C 
ATOM     52  C   UNL     1       0.306  -7.163   4.013  1.00  0.00     0.029 A 
ATOM     53  C   UNL     1       0.058  -8.544   4.424  1.00  0.00     0.049 A 
ATOM     54  H   UNL     1       0.645 -10.280   3.437  1.00  0.00     0.167 HD
ATOM     55  C   UNL     1       2.069 -13.857   1.337  1.00  0.00     0.031 A 
ATOM     56  C   UNL     1      -0.597  -8.935   5.534  1.00  0.00     0.031 A 
ATOM     57  C   UNL     1       1.408 -14.362   2.506  1.00  0.00     0.049 A 
ATOM     58  C   UNL     1      -0.742 -10.407   5.828  1.00  0.00     0.074 A 
ATOM     59  C   UNL     1       1.237 -15.677   2.903  1.00  0.00     0.029 A 
ATOM     60  N   UNL     1       0.808 -13.568   3.470  1.00  0.00    -0.354 N 
ATOM     61  N   UNL     1      -0.284 -11.437   5.157  1.00  0.00    -0.248 NA
ATOM     62  C   UNL     1      -1.480 -10.766   7.048  1.00  0.00     0.031 C 
ATOM     63  C   UNL     1       0.505 -15.679   4.095  1.00  0.00     0.029 A 
ATOM     64  C   UNL     1       0.265 -14.364   4.462  1.00  0.00     0.049 A 
ATOM     65  H   UNL     1       0.774 -12.585   3.451  1.00  0.00     0.167 HD
ATOM     66  C   UNL     1      -0.642 -12.559   5.896  1.00  0.00     0.074 A 
ATOM     67  C   UNL     1      -1.343 -12.083   7.070  1.00  0.00     0.031 C 
ATOM     68  C   UNL     1      -0.409 -13.868   5.631  1.00  0.00     0.031 A 
BRANCH  55  69
ATOM     69  C   UNL     1       2.713 -14.832   0.395  1.00  0.00    -0.014 A 
ATOM     70  C   UNL     1       4.111 -14.950   0.328  1.00  0.00     0.009 A 
ATOM     71  C   UNL     1       1.920 -15.650  -0.422  1.00  0.00     0.009 A 
ATOM     72  C   UNL     1       4.702 -15.852  -0.558  1.00  0.00     0.001 A 
ATOM     73  C   UNL     1       2.514 -16.569  -1.290  1.00  0.00     0.001 A 
ATOM     74  C   UNL     1       3.903 -16.664  -1.363  1.00  0.00     0.000 A 
ENDBRANCH  55  69
BRANCH  56  75
ATOM     75  C   UNL     1      -1.180  -7.932   6.464  1.00  0.00    -0.014 A 
ATOM     76  C   UNL     1      -0.661  -7.767   7.758  1.00  0.00     0.009 A 
ATOM     77  C   UNL     1      -2.307  -7.185   6.086  1.00  0.00     0.009 A 
ATOM     78  C   UNL     1      -1.284  -6.909   8.668  1.00  0.00     0.001 A 
ATOM     79  C   UNL     1      -2.910  -6.307   6.989  1.00  0.00     0.001 A 
ATOM     80  C   UNL     1      -2.408  -6.180   8.282  1.00  0.00     0.000 A 
ENDBRANCH  56  75
BRANCH  68  81
ATOM     81  C   UNL     1      -0.854 -14.868   6.661  1.00  0.00    -0.014 A 
ATOM     82  C   UNL     1      -2.211 -15.170   6.854  1.00  0.00     0.009 A 
ATOM     83  C   UNL     1       0.109 -15.537   7.433  1.00  0.00     0.009 A 
ATOM     84  C   UNL     1      -2.595 -16.091   7.830  1.00  0.00     0.001 A 
ATOM     85  C   UNL     1      -0.276 -16.477   8.387  1.00  0.00     0.001 A 
ATOM     86  C   UNL     1      -1.628 -16.745   8.594  1.00  0.00     0.000 A 
ENDBRANCH  68  81
ENDBRANCH  42  43
ENDBRANCH  35  37
ENDBRANCH  34  35
ENDBRANCH  33  34
ENDBRANCH  32  33
ENDBRANCH  31  32
ENDBRANCH  30  31
ENDBRANCH  29  30
ENDBRANCH   1  29
TORSDOF 23
