REMARK SMILES COc1ccccc1[C@@H]1C[N@@H+](Cc2cn3cc(C)ccc3n2)C[C@H]1C(=O)OCCOCCOCCOCCOC(=O)c1ccc(-c2c3nc(c(-c4ccccc4)c4ccc([nH]4)c(-c4ccccc4)c4nc(c(-c5ccccc5)c5ccc2[nH]5)C=C4)C=C3)cc1
REMARK SMILES IDX 33 1 32 2 31 3 30 4 29 5 28 6 27 7 25 8 26 9 24 10 9 11
REMARK SMILES IDX 10 12 11 13 23 14 8 16 3 17 4 18 5 19 7 20 6 21 2 22 1 23
REMARK SMILES IDX 12 24 13 25 14 26 22 27 15 28 21 29 16 30 20 31 17 32 19 33
REMARK SMILES IDX 18 34 34 35 35 36 36 37 37 38 38 39 39 40 40 41 41 42 42 43
REMARK SMILES IDX 43 44 89 45 44 46 88 47 45 48 46 49 47 50 82 51 48 52 87 53
REMARK SMILES IDX 81 54 83 55 49 56 86 57 80 58 79 59 50 61 72 62 57 63 71 64
REMARK SMILES IDX 58 65 61 66 70 67 84 68 59 69 60 70 69 72 85 73 62 74 51 75
REMARK SMILES IDX 52 76 56 77 53 78 55 79 54 80 73 81 74 82 78 83 75 84 77 85
REMARK SMILES IDX 76 86 63 87 64 88 68 89 65 90 67 91 66 92
REMARK H PARENT 11 15 83 60 61 71
REMARK Flexibility Score: inf
ROOT
ATOM      1  O   UNL     1       3.262   3.790  -2.688  1.00  0.00    -0.377 OA
ENDROOT
BRANCH   1   2
ATOM      2  C   UNL     1       2.270   3.461  -1.728  1.00  0.00     0.188 C 
BRANCH   2   3
ATOM      3  C   UNL     1       1.752   4.362  -0.591  1.00  0.00     0.188 C 
BRANCH   3   4
ATOM      4  O   UNL     1       2.587   5.365  -0.046  1.00  0.00    -0.376 OA
BRANCH   4   5
ATOM      5  C   UNL     1       3.719   5.029   0.741  1.00  0.00     0.202 C 
BRANCH   5   6
ATOM      6  C   UNL     1       3.768   3.705   1.494  1.00  0.00     0.261 C 
BRANCH   6   7
ATOM      7  O   UNL     1       3.691   2.539   0.646  1.00  0.00    -0.463 OA
BRANCH   7   8
ATOM      8  C   UNL     1       3.087   1.485   1.244  1.00  0.00     0.315 C 
ATOM      9  O   UNL     1       2.670   1.528   2.404  1.00  0.00    -0.252 OA
BRANCH   8  10
ATOM     10  C   UNL     1       2.929   0.201   0.452  1.00  0.00     0.167 C 
ATOM     11  C   UNL     1       3.220  -0.019  -1.044  1.00  0.00     0.098 C 
ATOM     12  C   UNL     1       3.714  -1.476  -1.070  1.00  0.00     0.272 C 
ATOM     13  N   UNL     1       4.442  -1.690   0.177  1.00  0.00    -0.329 N 
ATOM     14  C   UNL     1       3.812  -0.823   1.176  1.00  0.00     0.278 C 
ATOM     15  H   UNL     1       4.368  -2.670   0.451  1.00  0.00     0.348 HD
BRANCH  11  16
ATOM     16  C   UNL     1       2.126   0.107  -2.108  1.00  0.00     0.004 A 
ATOM     17  C   UNL     1       0.802  -0.333  -1.954  1.00  0.00     0.122 A 
ATOM     18  C   UNL     1      -0.140  -0.164  -2.978  1.00  0.00     0.047 A 
ATOM     19  C   UNL     1       0.239   0.403  -4.196  1.00  0.00     0.004 A 
ATOM     20  C   UNL     1       2.495   0.622  -3.371  1.00  0.00     0.008 A 
ATOM     21  C   UNL     1       1.564   0.768  -4.402  1.00  0.00     0.001 A 
BRANCH  17  22
ATOM     22  O   UNL     1       0.487  -1.116  -0.875  1.00  0.00    -0.496 OA
ATOM     23  C   UNL     1      -0.489  -0.535  -0.015  1.00  0.00     0.278 C 
ENDBRANCH  17  22
ENDBRANCH  11  16
BRANCH  13  24
ATOM     24  C   UNL     1       5.898  -1.530   0.082  1.00  0.00     0.321 C 
BRANCH  24  25
ATOM     25  C   UNL     1       6.364  -0.273  -0.591  1.00  0.00     0.114 A 
ATOM     26  C   UNL     1       6.814  -0.123  -1.889  1.00  0.00     0.122 A 
ATOM     27  N   UNL     1       6.395   0.942   0.068  1.00  0.00    -0.228 NA
ATOM     28  N   UNL     1       7.154   1.196  -2.021  1.00  0.00    -0.306 N 
ATOM     29  C   UNL     1       6.874   1.806  -0.805  1.00  0.00     0.137 A 
ATOM     30  C   UNL     1       7.712   1.857  -3.112  1.00  0.00     0.096 A 
ATOM     31  C   UNL     1       7.165   3.195  -0.703  1.00  0.00     0.048 A 
ATOM     32  C   UNL     1       8.023   3.164  -3.007  1.00  0.00    -0.034 A 
ATOM     33  C   UNL     1       7.718   3.845  -1.747  1.00  0.00     0.009 A 
ATOM     34  C   UNL     1       8.679   3.951  -4.098  1.00  0.00     0.046 C 
ENDBRANCH  24  25
ENDBRANCH  13  24
ENDBRANCH   8  10
ENDBRANCH   7   8
ENDBRANCH   6   7
ENDBRANCH   5   6
ENDBRANCH   4   5
ENDBRANCH   3   4
ENDBRANCH   2   3
ENDBRANCH   1   2
BRANCH   1  35
ATOM     35  C   UNL     1       3.880   5.054  -2.661  1.00  0.00     0.188 C 
BRANCH  35  36
ATOM     36  C   UNL     1       2.962   6.255  -2.912  1.00  0.00     0.188 C 
BRANCH  36  37
ATOM     37  O   UNL     1       1.580   5.916  -2.957  1.00  0.00    -0.376 OA
BRANCH  37  38
ATOM     38  C   UNL     1       0.970   5.822  -4.236  1.00  0.00     0.202 C 
BRANCH  38  39
ATOM     39  C   UNL     1       1.360   4.626  -5.103  1.00  0.00     0.261 C 
BRANCH  39  40
ATOM     40  O   UNL     1       2.751   4.465  -5.358  1.00  0.00    -0.460 OA
BRANCH  40  41
ATOM     41  C   UNL     1       3.404   5.478  -5.952  1.00  0.00     0.338 C 
ATOM     42  O   UNL     1       2.964   6.574  -6.242  1.00  0.00    -0.246 OA
BRANCH  41  43
ATOM     43  C   UNL     1       4.752   5.004  -6.315  1.00  0.00     0.060 A 
ATOM     44  C   UNL     1       5.574   5.916  -6.975  1.00  0.00     0.016 A 
ATOM     45  C   UNL     1       5.062   3.634  -6.263  1.00  0.00     0.016 A 
ATOM     46  C   UNL     1       6.550   5.421  -7.811  1.00  0.00     0.010 A 
ATOM     47  C   UNL     1       6.029   3.137  -7.110  1.00  0.00     0.010 A 
ATOM     48  C   UNL     1       6.675   4.033  -7.955  1.00  0.00    -0.014 A 
BRANCH  48  49
ATOM     49  C   UNL     1       7.359   3.572  -9.143  1.00  0.00     0.031 A 
ATOM     50  C   UNL     1       8.826   3.651  -9.143  1.00  0.00     0.074 A 
ATOM     51  C   UNL     1       6.694   3.135 -10.226  1.00  0.00     0.049 A 
ATOM     52  N   UNL     1       9.562   4.468  -9.817  1.00  0.00    -0.248 NA
ATOM     53  C   UNL     1       9.555   2.751  -8.247  1.00  0.00     0.031 C 
ATOM     54  C   UNL     1       5.289   2.737 -10.344  1.00  0.00     0.029 A 
ATOM     55  N   UNL     1       7.201   2.882 -11.463  1.00  0.00    -0.354 N 
ATOM     56  C   UNL     1      10.872   4.105  -9.546  1.00  0.00     0.074 A 
ATOM     57  C   UNL     1      10.814   3.111  -8.498  1.00  0.00     0.031 C 
ATOM     58  C   UNL     1       5.116   2.092 -11.520  1.00  0.00     0.029 A 
ATOM     59  C   UNL     1       6.353   2.161 -12.281  1.00  0.00     0.049 A 
ATOM     60  H   UNL     1       8.093   3.186 -11.749  1.00  0.00     0.167 HD
ATOM     61  C   UNL     1      11.912   4.516 -10.317  1.00  0.00     0.031 A 
ATOM     62  C   UNL     1       6.680   1.603 -13.469  1.00  0.00     0.031 A 
ATOM     63  C   UNL     1      11.562   5.594 -11.202  1.00  0.00     0.049 A 
ATOM     64  C   UNL     1       7.868   2.313 -14.000  1.00  0.00     0.074 A 
ATOM     65  C   UNL     1      11.109   6.887 -11.033  1.00  0.00     0.029 A 
ATOM     66  N   UNL     1      11.347   5.293 -12.525  1.00  0.00    -0.354 N 
ATOM     67  N   UNL     1       7.839   3.543 -14.428  1.00  0.00    -0.248 NA
ATOM     68  C   UNL     1       9.195   1.795 -13.703  1.00  0.00     0.031 C 
ATOM     69  C   UNL     1      10.234   7.124 -12.133  1.00  0.00     0.029 A 
ATOM     70  C   UNL     1      10.211   5.962 -12.907  1.00  0.00     0.049 A 
ATOM     71  H   UNL     1      11.902   4.709 -13.091  1.00  0.00     0.167 HD
ATOM     72  C   UNL     1       9.064   4.082 -14.062  1.00  0.00     0.074 A 
ATOM     73  C   UNL     1       9.900   2.930 -13.741  1.00  0.00     0.031 C 
ATOM     74  C   UNL     1       9.196   5.413 -13.780  1.00  0.00     0.031 A 
BRANCH  61  75
ATOM     75  C   UNL     1      13.174   3.726 -10.480  1.00  0.00    -0.014 A 
ATOM     76  C   UNL     1      14.298   4.335 -11.058  1.00  0.00     0.009 A 
ATOM     77  C   UNL     1      13.216   2.329 -10.305  1.00  0.00     0.009 A 
ATOM     78  C   UNL     1      15.403   3.578 -11.461  1.00  0.00     0.001 A 
ATOM     79  C   UNL     1      14.335   1.576 -10.666  1.00  0.00     0.001 A 
ATOM     80  C   UNL     1      15.421   2.200 -11.263  1.00  0.00     0.000 A 
ENDBRANCH  61  75
BRANCH  62  81
ATOM     81  C   UNL     1       6.171   0.337 -14.031  1.00  0.00    -0.014 A 
ATOM     82  C   UNL     1       6.372   0.012 -15.379  1.00  0.00     0.009 A 
ATOM     83  C   UNL     1       5.687  -0.673 -13.177  1.00  0.00     0.009 A 
ATOM     84  C   UNL     1       6.123  -1.285 -15.847  1.00  0.00     0.001 A 
ATOM     85  C   UNL     1       5.429  -1.963 -13.645  1.00  0.00     0.001 A 
ATOM     86  C   UNL     1       5.660  -2.273 -14.979  1.00  0.00     0.000 A 
ENDBRANCH  62  81
BRANCH  74  87
ATOM     87  C   UNL     1       8.031   6.315 -14.110  1.00  0.00    -0.014 A 
ATOM     88  C   UNL     1       6.766   6.147 -13.518  1.00  0.00     0.009 A 
ATOM     89  C   UNL     1       8.243   7.443 -14.915  1.00  0.00     0.009 A 
ATOM     90  C   UNL     1       5.733   7.056 -13.758  1.00  0.00     0.001 A 
ATOM     91  C   UNL     1       7.215   8.365 -15.138  1.00  0.00     0.001 A 
ATOM     92  C   UNL     1       5.959   8.167 -14.566  1.00  0.00     0.000 A 
ENDBRANCH  74  87
ENDBRANCH  48  49
ENDBRANCH  41  43
ENDBRANCH  40  41
ENDBRANCH  39  40
ENDBRANCH  38  39
ENDBRANCH  37  38
ENDBRANCH  36  37
ENDBRANCH  35  36
ENDBRANCH   1  35
TORSDOF 24
