REMARK SMILES O=C(OCCOCCOCCOCCOC(=O)c1ccc(-c2c3nc(c(-c4ccccc4)c4ccc([nH]4)c(-c4ccccc4)c4nc(c(-c5ccccc5)c5ccc2[nH]5)C=C4)C=C3)cc1)c1ccc(CN2C(=O)CSC2=S)cc1
REMARK SMILES IDX 9 1 8 2 7 3 6 4 5 5 4 6 3 7 2 8 1 9 66 10 67 11 79 12 68 13
REMARK SMILES IDX 78 14 69 15 70 16 71 17 72 18 76 19 73 20 74 21 75 22 77 23
REMARK SMILES IDX 10 24 11 25 12 26 13 27 14 28 15 29 16 30 17 31 18 32 19 33
REMARK SMILES IDX 65 34 20 35 64 36 21 37 22 38 23 39 58 40 24 41 63 42 57 43
REMARK SMILES IDX 59 44 25 45 62 46 56 47 55 48 26 50 48 51 33 52 47 53 34 54
REMARK SMILES IDX 37 55 46 56 60 57 35 58 36 59 45 61 61 62 38 63 27 64 28 65
REMARK SMILES IDX 32 66 29 67 31 68 30 69 49 70 50 71 54 72 51 73 53 74 52 75
REMARK SMILES IDX 39 76 40 77 44 78 41 79 43 80 42 81
REMARK H PARENT 59 49 37 60
REMARK Flexibility Score: inf
ROOT
ATOM      1  O   UNL     1       2.699   2.961   2.586  1.00  0.00    -0.377 OA
ENDROOT
BRANCH   1   2
ATOM      2  C   UNL     1       1.917   1.935   1.968  1.00  0.00     0.188 C 
BRANCH   2   3
ATOM      3  C   UNL     1       2.377   1.545   0.561  1.00  0.00     0.188 C 
BRANCH   3   4
ATOM      4  O   UNL     1       3.543   0.731   0.679  1.00  0.00    -0.376 OA
BRANCH   4   5
ATOM      5  C   UNL     1       4.487   0.775  -0.376  1.00  0.00     0.202 C 
BRANCH   5   6
ATOM      6  C   UNL     1       4.012   0.220  -1.714  1.00  0.00     0.261 C 
BRANCH   6   7
ATOM      7  O   UNL     1       2.660  -0.270  -1.720  1.00  0.00    -0.460 OA
BRANCH   7   8
ATOM      8  C   UNL     1       2.204  -1.408  -1.147  1.00  0.00     0.338 C 
ATOM      9  O   UNL     1       1.009  -1.685  -1.162  1.00  0.00    -0.246 OA
BRANCH   8  10
ATOM     10  C   UNL     1       3.150  -2.397  -0.599  1.00  0.00     0.060 A 
ATOM     11  C   UNL     1       3.739  -2.250   0.657  1.00  0.00     0.016 A 
ATOM     12  C   UNL     1       3.303  -3.599  -1.293  1.00  0.00     0.016 A 
ATOM     13  C   UNL     1       4.585  -3.239   1.158  1.00  0.00     0.006 A 
ATOM     14  C   UNL     1       4.109  -4.611  -0.767  1.00  0.00     0.006 A 
ATOM     15  C   UNL     1       4.787  -4.427   0.447  1.00  0.00    -0.028 A 
BRANCH  15  16
ATOM     16  C   UNL     1       5.768  -5.460   0.964  1.00  0.00     0.162 C 
BRANCH  16  17
ATOM     17  N   UNL     1       7.104  -5.206   0.423  1.00  0.00    -0.293 N 
ATOM     18  C   UNL     1       7.908  -4.279   1.062  1.00  0.00     0.238 C 
ATOM     19  C   UNL     1       7.623  -5.810  -0.699  1.00  0.00     0.143 C 
ATOM     20  O   UNL     1       7.646  -3.723   2.124  1.00  0.00    -0.273 OA
ATOM     21  C   UNL     1       9.166  -3.985   0.295  1.00  0.00     0.177 C 
ATOM     22  S   UNL     1       9.216  -5.167  -1.056  1.00  0.00    -0.086 SA
ATOM     23  S   UNL     1       6.942  -6.999  -1.650  1.00  0.00    -0.052 S 
ENDBRANCH  16  17
ENDBRANCH  15  16
ENDBRANCH   8  10
ENDBRANCH   7   8
ENDBRANCH   6   7
ENDBRANCH   5   6
ENDBRANCH   4   5
ENDBRANCH   3   4
ENDBRANCH   2   3
ENDBRANCH   1   2
BRANCH   1  24
ATOM     24  C   UNL     1       4.111   2.821   2.481  1.00  0.00     0.188 C 
BRANCH  24  25
ATOM     25  C   UNL     1       4.790   1.632   3.192  1.00  0.00     0.188 C 
BRANCH  25  26
ATOM     26  O   UNL     1       3.902   0.665   3.743  1.00  0.00    -0.376 OA
BRANCH  26  27
ATOM     27  C   UNL     1       3.881   0.613   5.169  1.00  0.00     0.202 C 
BRANCH  27  28
ATOM     28  C   UNL     1       3.030   1.714   5.817  1.00  0.00     0.261 C 
BRANCH  28  29
ATOM     29  O   UNL     1       3.470   3.052   5.536  1.00  0.00    -0.460 OA
BRANCH  29  30
ATOM     30  C   UNL     1       4.695   3.421   5.966  1.00  0.00     0.338 C 
ATOM     31  O   UNL     1       5.457   2.778   6.665  1.00  0.00    -0.246 OA
BRANCH  30  32
ATOM     32  C   UNL     1       5.061   4.656   5.234  1.00  0.00     0.060 A 
ATOM     33  C   UNL     1       6.328   4.730   4.633  1.00  0.00     0.016 A 
ATOM     34  C   UNL     1       4.128   5.680   5.037  1.00  0.00     0.016 A 
ATOM     35  C   UNL     1       6.666   5.835   3.847  1.00  0.00     0.010 A 
ATOM     36  C   UNL     1       4.474   6.795   4.272  1.00  0.00     0.010 A 
ATOM     37  C   UNL     1       5.755   6.891   3.700  1.00  0.00    -0.014 A 
BRANCH  37  38
ATOM     38  C   UNL     1       6.226   8.213   3.224  1.00  0.00     0.031 A 
ATOM     39  C   UNL     1       6.740   9.165   4.268  1.00  0.00     0.074 A 
ATOM     40  C   UNL     1       6.181   8.584   1.932  1.00  0.00     0.049 A 
ATOM     41  N   UNL     1       7.148  10.401   4.142  1.00  0.00    -0.248 NA
ATOM     42  C   UNL     1       6.793   8.648   5.647  1.00  0.00     0.031 C 
ATOM     43  C   UNL     1       5.738   7.751   0.817  1.00  0.00     0.029 A 
ATOM     44  N   UNL     1       6.510   9.783   1.349  1.00  0.00    -0.354 N 
ATOM     45  C   UNL     1       7.498  10.807   5.423  1.00  0.00     0.074 A 
ATOM     46  C   UNL     1       7.230   9.701   6.315  1.00  0.00     0.031 C 
ATOM     47  C   UNL     1       5.812   8.471  -0.318  1.00  0.00     0.029 A 
ATOM     48  C   UNL     1       6.276   9.823  -0.004  1.00  0.00     0.049 A 
ATOM     49  H   UNL     1       6.879  10.544   1.853  1.00  0.00     0.167 HD
ATOM     50  C   UNL     1       7.998  11.995   5.830  1.00  0.00     0.031 A 
ATOM     51  C   UNL     1       6.402  10.842  -0.878  1.00  0.00     0.031 A 
ATOM     52  C   UNL     1       8.228  13.112   4.960  1.00  0.00     0.049 A 
ATOM     53  C   UNL     1       6.881  12.187  -0.389  1.00  0.00     0.074 A 
ATOM     54  C   UNL     1       8.732  14.360   5.276  1.00  0.00     0.029 A 
ATOM     55  N   UNL     1       7.952  13.117   3.603  1.00  0.00    -0.354 N 
ATOM     56  N   UNL     1       7.244  12.550   0.818  1.00  0.00    -0.248 NA
ATOM     57  C   UNL     1       6.971  13.263  -1.389  1.00  0.00     0.031 C 
ATOM     58  C   UNL     1       8.711  15.141   4.116  1.00  0.00     0.029 A 
ATOM     59  C   UNL     1       8.252  14.357   3.068  1.00  0.00     0.049 A 
ATOM     60  H   UNL     1       7.595  12.353   3.095  1.00  0.00     0.167 HD
ATOM     61  C   UNL     1       7.635  13.881   0.716  1.00  0.00     0.074 A 
ATOM     62  C   UNL     1       7.473  14.260  -0.672  1.00  0.00     0.031 C 
ATOM     63  C   UNL     1       8.093  14.714   1.683  1.00  0.00     0.031 A 
BRANCH  50  64
ATOM     64  C   UNL     1       8.279  12.144   7.297  1.00  0.00    -0.014 A 
ATOM     65  C   UNL     1       9.346  11.465   7.906  1.00  0.00     0.009 A 
ATOM     66  C   UNL     1       7.452  12.961   8.082  1.00  0.00     0.009 A 
ATOM     67  C   UNL     1       9.555  11.570   9.283  1.00  0.00     0.001 A 
ATOM     68  C   UNL     1       7.682  13.088   9.453  1.00  0.00     0.001 A 
ATOM     69  C   UNL     1       8.725  12.384  10.053  1.00  0.00     0.000 A 
ENDBRANCH  50  64
BRANCH  51  70
ATOM     70  C   UNL     1       6.055  10.650  -2.312  1.00  0.00    -0.014 A 
ATOM     71  C   UNL     1       7.054  10.656  -3.297  1.00  0.00     0.009 A 
ATOM     72  C   UNL     1       4.716  10.497  -2.707  1.00  0.00     0.009 A 
ATOM     73  C   UNL     1       6.718  10.538  -4.649  1.00  0.00     0.001 A 
ATOM     74  C   UNL     1       4.386  10.353  -4.057  1.00  0.00     0.001 A 
ATOM     75  C   UNL     1       5.386  10.382  -5.027  1.00  0.00     0.000 A 
ENDBRANCH  51  70
BRANCH  63  76
ATOM     76  C   UNL     1       8.502  16.102   1.274  1.00  0.00    -0.014 A 
ATOM     77  C   UNL     1       7.552  17.080   0.947  1.00  0.00     0.009 A 
ATOM     78  C   UNL     1       9.862  16.451   1.288  1.00  0.00     0.009 A 
ATOM     79  C   UNL     1       7.959  18.375   0.617  1.00  0.00     0.001 A 
ATOM     80  C   UNL     1      10.264  17.752   0.985  1.00  0.00     0.001 A 
ATOM     81  C   UNL     1       9.313  18.711   0.642  1.00  0.00     0.000 A 
ENDBRANCH  63  76
ENDBRANCH  37  38
ENDBRANCH  30  32
ENDBRANCH  29  30
ENDBRANCH  28  29
ENDBRANCH  27  28
ENDBRANCH  26  27
ENDBRANCH  25  26
ENDBRANCH  24  25
ENDBRANCH   1  24
TORSDOF 22
