REMARK SMILES C[C@@H](C(=O)OCCOCCOCCOCCOC(=O)c1ccc(-c2c3nc(c(-c4ccccc4)c4ccc([nH]4)c(-c4ccccc4)c4nc(c(-c5ccccc5)c5ccc2[nH]5)C=C4)C=C3)cc1)c1ccc(-c2cccc(OC(=O)NC3CC3)c2)c(F)c1
REMARK SMILES IDX 9 1 8 2 7 3 6 4 5 5 3 6 4 7 2 8 1 9 68 10 69 11 87 12 70 13
REMARK SMILES IDX 85 14 71 15 86 16 72 17 73 18 84 19 74 20 76 21 75 22 77 23
REMARK SMILES IDX 78 24 79 25 80 26 81 28 82 29 83 30 10 31 11 32 12 33 13 34
REMARK SMILES IDX 14 35 15 36 16 37 17 38 18 39 19 40 20 41 21 42 67 43 22 44
REMARK SMILES IDX 66 45 23 46 24 47 25 48 60 49 26 50 65 51 59 52 61 53 27 54
REMARK SMILES IDX 64 55 58 56 57 57 28 59 50 60 35 61 49 62 36 63 39 64 48 65
REMARK SMILES IDX 62 66 37 67 38 68 47 70 63 71 40 72 29 73 30 74 34 75 31 76
REMARK SMILES IDX 33 77 32 78 51 79 52 80 56 81 53 82 55 83 54 84 41 85 42 86
REMARK SMILES IDX 46 87 43 88 45 89 44 90
REMARK H PARENT 80 27 61 58 39 69
REMARK Flexibility Score: inf
ROOT
ATOM      1  C   UNL     1       0.172  -2.140   2.789  1.00  0.00     0.188 C 
ENDROOT
BRANCH   1   2
ATOM      2  O   UNL     1       0.927  -3.029   3.586  1.00  0.00    -0.376 OA
BRANCH   2   3
ATOM      3  C   UNL     1       1.988  -3.793   3.034  1.00  0.00     0.202 C 
BRANCH   3   4
ATOM      4  C   UNL     1       2.525  -3.696   1.589  1.00  0.00     0.261 C 
BRANCH   4   5
ATOM      5  O   UNL     1       1.990  -2.659   0.761  1.00  0.00    -0.463 OA
BRANCH   5   6
ATOM      6  C   UNL     1       1.329  -3.025  -0.362  1.00  0.00     0.313 C 
ATOM      7  O   UNL     1       1.193  -4.187  -0.730  1.00  0.00    -0.252 OA
BRANCH   6   8
ATOM      8  C   UNL     1       0.688  -1.832  -1.093  1.00  0.00     0.126 C 
ATOM      9  C   UNL     1       1.569  -0.572  -1.057  1.00  0.00     0.025 C 
BRANCH   8  10
ATOM     10  C   UNL     1      -0.801  -1.652  -0.763  1.00  0.00    -0.031 A 
ATOM     11  C   UNL     1      -1.419  -0.403  -0.581  1.00  0.00     0.005 A 
ATOM     12  C   UNL     1      -1.629  -2.785  -0.695  1.00  0.00     0.044 A 
ATOM     13  C   UNL     1      -2.802  -0.298  -0.331  1.00  0.00     0.012 A 
ATOM     14  C   UNL     1      -2.997  -2.676  -0.442  1.00  0.00     0.131 A 
ATOM     15  C   UNL     1      -3.618  -1.437  -0.262  1.00  0.00     0.018 A 
ATOM     16  F   UNL     1      -3.719  -3.807  -0.399  1.00  0.00    -0.206 F 
BRANCH  15  17
ATOM     17  C   UNL     1      -5.068  -1.347  -0.024  1.00  0.00    -0.012 A 
ATOM     18  C   UNL     1      -5.913  -0.681  -0.927  1.00  0.00     0.009 A 
ATOM     19  C   UNL     1      -5.647  -1.973   1.095  1.00  0.00     0.056 A 
ATOM     20  C   UNL     1      -7.297  -0.655  -0.730  1.00  0.00     0.004 A 
ATOM     21  C   UNL     1      -7.026  -1.941   1.293  1.00  0.00     0.133 A 
ATOM     22  C   UNL     1      -7.855  -1.286   0.380  1.00  0.00     0.047 A 
BRANCH  21  23
ATOM     23  O   UNL     1      -7.699  -2.548   2.384  1.00  0.00    -0.410 OA
BRANCH  23  24
ATOM     24  C   UNL     1      -7.132  -3.378   3.347  1.00  0.00     0.412 C 
ATOM     25  O   UNL     1      -5.942  -3.659   3.450  1.00  0.00    -0.224 OA
ATOM     26  N   UNL     1      -8.035  -3.914   4.229  1.00  0.00    -0.318 N 
ATOM     27  H   UNL     1      -7.654  -4.547   4.880  1.00  0.00     0.167 HD
BRANCH  26  28
ATOM     28  C   UNL     1      -9.437  -3.698   4.354  1.00  0.00     0.085 C 
ATOM     29  C   UNL     1     -10.396  -3.321   3.262  1.00  0.00     0.027 C 
ATOM     30  C   UNL     1     -10.374  -4.729   3.773  1.00  0.00     0.027 C 
ENDBRANCH  26  28
ENDBRANCH  23  24
ENDBRANCH  21  23
ENDBRANCH  15  17
ENDBRANCH   8  10
ENDBRANCH   6   8
ENDBRANCH   5   6
ENDBRANCH   4   5
ENDBRANCH   3   4
ENDBRANCH   2   3
ENDBRANCH   1   2
BRANCH   1  31
ATOM     31  C   UNL     1       0.813  -0.772   2.511  1.00  0.00     0.188 C 
BRANCH  31  32
ATOM     32  O   UNL     1       2.229  -0.734   2.536  1.00  0.00    -0.377 OA
BRANCH  32  33
ATOM     33  C   UNL     1       2.896  -0.659   3.791  1.00  0.00     0.188 C 
BRANCH  33  34
ATOM     34  C   UNL     1       2.140  -0.834   5.126  1.00  0.00     0.188 C 
BRANCH  34  35
ATOM     35  O   UNL     1       0.821  -0.317   5.144  1.00  0.00    -0.376 OA
BRANCH  35  36
ATOM     36  C   UNL     1       0.600   0.970   5.697  1.00  0.00     0.202 C 
BRANCH  36  37
ATOM     37  C   UNL     1       1.264   2.166   4.996  1.00  0.00     0.261 C 
BRANCH  37  38
ATOM     38  O   UNL     1       2.697   2.137   4.912  1.00  0.00    -0.460 OA
BRANCH  38  39
ATOM     39  C   UNL     1       3.393   2.068   6.069  1.00  0.00     0.338 C 
ATOM     40  O   UNL     1       2.953   2.087   7.198  1.00  0.00    -0.246 OA
BRANCH  39  41
ATOM     41  C   UNL     1       4.801   1.768   5.723  1.00  0.00     0.060 A 
ATOM     42  C   UNL     1       5.380   0.588   6.207  1.00  0.00     0.016 A 
ATOM     43  C   UNL     1       5.541   2.647   4.930  1.00  0.00     0.016 A 
ATOM     44  C   UNL     1       6.718   0.303   5.933  1.00  0.00     0.010 A 
ATOM     45  C   UNL     1       6.887   2.371   4.674  1.00  0.00     0.010 A 
ATOM     46  C   UNL     1       7.491   1.217   5.206  1.00  0.00    -0.014 A 
BRANCH  46  47
ATOM     47  C   UNL     1       8.967   1.074   5.180  1.00  0.00     0.031 A 
ATOM     48  C   UNL     1       9.780   1.899   6.141  1.00  0.00     0.074 A 
ATOM     49  C   UNL     1       9.578   0.218   4.342  1.00  0.00     0.049 A 
ATOM     50  N   UNL     1      11.079   1.984   6.271  1.00  0.00    -0.248 NA
ATOM     51  C   UNL     1       9.022   2.742   7.080  1.00  0.00     0.031 C 
ATOM     52  C   UNL     1       8.905  -0.675   3.402  1.00  0.00     0.029 A 
ATOM     53  N   UNL     1      10.914  -0.030   4.149  1.00  0.00    -0.354 N 
ATOM     54  C   UNL     1      11.292   2.896   7.299  1.00  0.00     0.074 A 
ATOM     55  C   UNL     1       9.993   3.360   7.733  1.00  0.00     0.031 C 
ATOM     56  C   UNL     1       9.835  -1.368   2.721  1.00  0.00     0.029 A 
ATOM     57  C   UNL     1      11.165  -0.939   3.151  1.00  0.00     0.049 A 
ATOM     58  H   UNL     1      11.625   0.402   4.676  1.00  0.00     0.167 HD
ATOM     59  C   UNL     1      12.464   3.306   7.839  1.00  0.00     0.031 A 
ATOM     60  C   UNL     1      12.335  -1.356   2.627  1.00  0.00     0.031 A 
ATOM     61  C   UNL     1      13.757   2.861   7.393  1.00  0.00     0.049 A 
ATOM     62  C   UNL     1      13.628  -0.813   3.179  1.00  0.00     0.074 A 
ATOM     63  C   UNL     1      15.005   3.215   7.877  1.00  0.00     0.029 A 
ATOM     64  N   UNL     1      13.969   1.973   6.349  1.00  0.00    -0.354 N 
ATOM     65  N   UNL     1      13.820   0.033   4.163  1.00  0.00    -0.248 NA
ATOM     66  C   UNL     1      14.869  -1.292   2.551  1.00  0.00     0.031 C 
ATOM     67  C   UNL     1      15.973   2.592   7.083  1.00  0.00     0.029 A 
ATOM     68  C   UNL     1      15.328   1.791   6.154  1.00  0.00     0.049 A 
ATOM     69  H   UNL     1      13.259   1.537   5.825  1.00  0.00     0.167 HD
ATOM     70  C   UNL     1      15.199   0.161   4.292  1.00  0.00     0.074 A 
ATOM     71  C   UNL     1      15.794  -0.705   3.297  1.00  0.00     0.031 C 
ATOM     72  C   UNL     1      15.908   0.926   5.159  1.00  0.00     0.031 A 
BRANCH  59  73
ATOM     73  C   UNL     1      12.396   4.321   8.947  1.00  0.00    -0.014 A 
ATOM     74  C   UNL     1      11.886   3.991  10.213  1.00  0.00     0.009 A 
ATOM     75  C   UNL     1      12.869   5.624   8.725  1.00  0.00     0.009 A 
ATOM     76  C   UNL     1      11.816   4.957  11.220  1.00  0.00     0.001 A 
ATOM     77  C   UNL     1      12.828   6.577   9.743  1.00  0.00     0.001 A 
ATOM     78  C   UNL     1      12.292   6.246  10.986  1.00  0.00     0.000 A 
ENDBRANCH  59  73
BRANCH  60  79
ATOM     79  C   UNL     1      12.344  -2.319   1.492  1.00  0.00    -0.014 A 
ATOM     80  C   UNL     1      12.848  -3.618   1.654  1.00  0.00     0.009 A 
ATOM     81  C   UNL     1      11.868  -1.932   0.229  1.00  0.00     0.009 A 
ATOM     82  C   UNL     1      12.902  -4.498   0.570  1.00  0.00     0.001 A 
ATOM     83  C   UNL     1      11.891  -2.824  -0.845  1.00  0.00     0.001 A 
ATOM     84  C   UNL     1      12.418  -4.103  -0.676  1.00  0.00     0.000 A 
ENDBRANCH  60  79
BRANCH  72  85
ATOM     85  C   UNL     1      17.409   0.828   5.104  1.00  0.00    -0.014 A 
ATOM     86  C   UNL     1      18.142   1.351   4.027  1.00  0.00     0.009 A 
ATOM     87  C   UNL     1      18.104   0.242   6.175  1.00  0.00     0.009 A 
ATOM     88  C   UNL     1      19.536   1.255   4.008  1.00  0.00     0.001 A 
ATOM     89  C   UNL     1      19.498   0.179   6.170  1.00  0.00     0.001 A 
ATOM     90  C   UNL     1      20.212   0.675   5.082  1.00  0.00     0.000 A 
ENDBRANCH  72  85
ENDBRANCH  46  47
ENDBRANCH  39  41
ENDBRANCH  38  39
ENDBRANCH  37  38
ENDBRANCH  36  37
ENDBRANCH  35  36
ENDBRANCH  34  35
ENDBRANCH  33  34
ENDBRANCH  32  33
ENDBRANCH  31  32
ENDBRANCH   1  31
TORSDOF 25
