REMARK SMILES Cc1cc(Br)cc2c1O[C@H](C(F)(F)F)C(C(=O)OCCOCCOCCOCCOC(=O)c1ccc(-c3c4nc(c(-c5ccccc5)c5ccc([nH]5)c(-c5ccccc5)c5nc(c(-c6ccccc6)c6ccc3[nH]6)C=C5)C=C4)cc1)=C2
REMARK SMILES IDX 25 1 24 2 23 3 22 4 21 5 20 6 19 7 18 8 16 9 17 10 15 11
REMARK SMILES IDX 1 12 2 13 3 14 8 15 4 16 7 17 9 18 5 19 6 20 81 21 10 22
REMARK SMILES IDX 11 23 12 24 13 25 14 26 26 27 27 28 28 29 29 30 30 31 31 32
REMARK SMILES IDX 32 33 33 34 34 35 80 36 35 37 79 38 36 39 37 40 38 41 73 42
REMARK SMILES IDX 39 43 78 44 72 45 74 46 40 47 77 48 71 49 70 50 41 52 63 53
REMARK SMILES IDX 48 54 62 55 49 56 52 57 61 58 75 59 50 60 51 61 60 63 76 64
REMARK SMILES IDX 53 65 42 66 43 67 47 68 44 69 46 70 45 71 64 72 65 73 69 74
REMARK SMILES IDX 66 75 68 76 67 77 54 78 55 79 59 80 56 81 58 82 57 83
REMARK H PARENT 74 51 52 62
REMARK Flexibility Score: inf
ROOT
ATOM      1  C   UNL     1       6.385  -6.816  -1.110  1.00  0.00     0.188 C 
ENDROOT
BRANCH   1   2
ATOM      2  O   UNL     1       5.152  -6.093  -1.159  1.00  0.00    -0.377 OA
BRANCH   2   3
ATOM      3  C   UNL     1       4.273  -6.200  -0.049  1.00  0.00     0.188 C 
BRANCH   3   4
ATOM      4  C   UNL     1       3.441  -7.498  -0.053  1.00  0.00     0.188 C 
BRANCH   4   5
ATOM      5  O   UNL     1       3.984  -8.501  -0.896  1.00  0.00    -0.376 OA
BRANCH   5   6
ATOM      6  C   UNL     1       3.536  -8.651  -2.232  1.00  0.00     0.202 C 
BRANCH   6   7
ATOM      7  C   UNL     1       3.290  -7.465  -3.182  1.00  0.00     0.261 C 
BRANCH   7   8
ATOM      8  O   UNL     1       2.811  -6.250  -2.602  1.00  0.00    -0.460 OA
BRANCH   8   9
ATOM      9  C   UNL     1       1.509  -6.184  -2.270  1.00  0.00     0.338 C 
ATOM     10  O   UNL     1       0.668  -7.049  -2.437  1.00  0.00    -0.246 OA
BRANCH   9  11
ATOM     11  C   UNL     1       1.308  -4.937  -1.499  1.00  0.00     0.087 C 
ATOM     12  C   UNL     1       1.032  -0.078   0.070  1.00  0.00     0.048 C 
ATOM     13  C   UNL     1       0.568  -1.403   0.607  1.00  0.00    -0.007 A 
ATOM     14  C   UNL     1      -0.233  -1.453   1.756  1.00  0.00     0.023 A 
ATOM     15  C   UNL     1       0.891  -2.600  -0.056  1.00  0.00     0.130 A 
ATOM     16  C   UNL     1      -0.687  -2.679   2.241  1.00  0.00     0.019 A 
ATOM     17  C   UNL     1       0.389  -3.821   0.406  1.00  0.00     0.019 A 
ATOM     18  O   UNL     1       1.690  -2.491  -1.159  1.00  0.00    -0.475 OA
ATOM     19  Br  UNL     1      -1.773  -2.732   3.787  1.00  0.00    -0.051 Br
ATOM     20  C   UNL     1      -0.377  -3.862   1.576  1.00  0.00     0.027 A 
ATOM     21  C   UNL     1       0.602  -5.033  -0.366  1.00  0.00     0.027 C 
ATOM     22  C   UNL     1       1.964  -3.664  -1.970  1.00  0.00     0.316 C 
BRANCH  22  23
ATOM     23  C   UNL     1       1.600  -3.328  -3.422  1.00  0.00     0.430 C 
ATOM     24  F   UNL     1       2.137  -2.143  -3.803  1.00  0.00    -0.167 F 
ATOM     25  F   UNL     1       2.059  -4.257  -4.292  1.00  0.00    -0.167 F 
ATOM     26  F   UNL     1       0.261  -3.240  -3.595  1.00  0.00    -0.167 F 
ENDBRANCH  22  23
ENDBRANCH   9  11
ENDBRANCH   8   9
ENDBRANCH   7   8
ENDBRANCH   6   7
ENDBRANCH   5   6
ENDBRANCH   4   5
ENDBRANCH   3   4
ENDBRANCH   2   3
ENDBRANCH   1   2
BRANCH   1  27
ATOM     27  C   UNL     1       6.614  -8.000  -0.137  1.00  0.00     0.188 C 
BRANCH  27  28
ATOM     28  O   UNL     1       6.036  -7.823   1.149  1.00  0.00    -0.376 OA
BRANCH  28  29
ATOM     29  C   UNL     1       6.898  -7.547   2.239  1.00  0.00     0.202 C 
BRANCH  29  30
ATOM     30  C   UNL     1       7.566  -6.166   2.230  1.00  0.00     0.261 C 
BRANCH  30  31
ATOM     31  O   UNL     1       8.349  -5.862   1.066  1.00  0.00    -0.460 OA
BRANCH  31  32
ATOM     32  C   UNL     1       9.432  -6.631   0.829  1.00  0.00     0.338 C 
ATOM     33  O   UNL     1       9.856  -7.544   1.517  1.00  0.00    -0.246 OA
BRANCH  32  34
ATOM     34  C   UNL     1       9.921  -6.302  -0.524  1.00  0.00     0.060 A 
ATOM     35  C   UNL     1       9.955  -7.307  -1.500  1.00  0.00     0.016 A 
ATOM     36  C   UNL     1      10.330  -5.002  -0.830  1.00  0.00     0.016 A 
ATOM     37  C   UNL     1      10.432  -7.021  -2.778  1.00  0.00     0.010 A 
ATOM     38  C   UNL     1      10.833  -4.723  -2.102  1.00  0.00     0.010 A 
ATOM     39  C   UNL     1      10.919  -5.740  -3.069  1.00  0.00    -0.014 A 
BRANCH  39  40
ATOM     40  C   UNL     1      11.725  -5.525  -4.293  1.00  0.00     0.031 A 
ATOM     41  C   UNL     1      13.221  -5.629  -4.179  1.00  0.00     0.074 A 
ATOM     42  C   UNL     1      11.152  -5.278  -5.484  1.00  0.00     0.049 A 
ATOM     43  N   UNL     1      14.138  -5.449  -5.093  1.00  0.00    -0.248 NA
ATOM     44  C   UNL     1      13.754  -5.989  -2.853  1.00  0.00     0.031 C 
ATOM     45  C   UNL     1       9.714  -5.221  -5.739  1.00  0.00     0.029 A 
ATOM     46  N   UNL     1      11.723  -5.033  -6.708  1.00  0.00    -0.354 N 
ATOM     47  C   UNL     1      15.351  -5.675  -4.455  1.00  0.00     0.074 A 
ATOM     48  C   UNL     1      15.059  -5.970  -3.071  1.00  0.00     0.031 C 
ATOM     49  C   UNL     1       9.515  -4.957  -7.043  1.00  0.00     0.029 A 
ATOM     50  C   UNL     1      10.809  -4.790  -7.704  1.00  0.00     0.049 A 
ATOM     51  H   UNL     1      12.696  -5.031  -6.857  1.00  0.00     0.167 HD
ATOM     52  C   UNL     1      16.599  -5.648  -4.977  1.00  0.00     0.031 A 
ATOM     53  C   UNL     1      10.999  -4.455  -8.995  1.00  0.00     0.031 A 
ATOM     54  C   UNL     1      16.892  -5.335  -6.348  1.00  0.00     0.049 A 
ATOM     55  C   UNL     1      12.403  -4.320  -9.527  1.00  0.00     0.074 A 
ATOM     56  C   UNL     1      18.126  -5.274  -6.970  1.00  0.00     0.029 A 
ATOM     57  N   UNL     1      15.941  -5.024  -7.307  1.00  0.00    -0.354 N 
ATOM     58  N   UNL     1      13.543  -4.539  -8.917  1.00  0.00    -0.248 NA
ATOM     59  C   UNL     1      12.546  -3.892 -10.927  1.00  0.00     0.031 C 
ATOM     60  C   UNL     1      17.927  -4.866  -8.291  1.00  0.00     0.029 A 
ATOM     61  C   UNL     1      16.564  -4.741  -8.510  1.00  0.00     0.049 A 
ATOM     62  H   UNL     1      14.969  -5.008  -7.155  1.00  0.00     0.167 HD
ATOM     63  C   UNL     1      14.534  -4.302  -9.863  1.00  0.00     0.074 A 
ATOM     64  C   UNL     1      13.861  -3.939 -11.092  1.00  0.00     0.031 C 
ATOM     65  C   UNL     1      15.881  -4.379  -9.725  1.00  0.00     0.031 A 
BRANCH  52  66
ATOM     66  C   UNL     1      17.746  -5.941  -4.053  1.00  0.00    -0.014 A 
ATOM     67  C   UNL     1      17.980  -7.240  -3.575  1.00  0.00     0.009 A 
ATOM     68  C   UNL     1      18.636  -4.915  -3.699  1.00  0.00     0.009 A 
ATOM     69  C   UNL     1      19.073  -7.501  -2.745  1.00  0.00     0.001 A 
ATOM     70  C   UNL     1      19.743  -5.185  -2.894  1.00  0.00     0.001 A 
ATOM     71  C   UNL     1      19.957  -6.476  -2.413  1.00  0.00     0.000 A 
ENDBRANCH  52  66
BRANCH  53  72
ATOM     72  C   UNL     1       9.829  -4.212  -9.881  1.00  0.00    -0.014 A 
ATOM     73  C   UNL     1       9.539  -5.088 -10.939  1.00  0.00     0.009 A 
ATOM     74  C   UNL     1       8.998  -3.098  -9.680  1.00  0.00     0.009 A 
ATOM     75  C   UNL     1       8.452  -4.845 -11.784  1.00  0.00     0.001 A 
ATOM     76  C   UNL     1       7.896  -2.874 -10.508  1.00  0.00     0.001 A 
ATOM     77  C   UNL     1       7.628  -3.743 -11.563  1.00  0.00     0.000 A 
ENDBRANCH  53  72
BRANCH  65  78
ATOM     78  C   UNL     1      16.727  -4.090 -10.935  1.00  0.00    -0.014 A 
ATOM     79  C   UNL     1      16.869  -2.784 -11.428  1.00  0.00     0.009 A 
ATOM     80  C   UNL     1      17.460  -5.126 -11.536  1.00  0.00     0.009 A 
ATOM     81  C   UNL     1      17.709  -2.527 -12.514  1.00  0.00     0.001 A 
ATOM     82  C   UNL     1      18.324  -4.861 -12.599  1.00  0.00     0.001 A 
ATOM     83  C   UNL     1      18.442  -3.563 -13.092  1.00  0.00     0.000 A 
ENDBRANCH  65  78
ENDBRANCH  39  40
ENDBRANCH  32  34
ENDBRANCH  31  32
ENDBRANCH  30  31
ENDBRANCH  29  30
ENDBRANCH  28  29
ENDBRANCH  27  28
ENDBRANCH   1  27
TORSDOF 21
