REMARK SMILES O=C(Cc1ccccc1C(=O)OCCOCCOCCOCCOC(=O)c1ccc(-c2c3nc(c(-c4ccccc4)c4ccc([nH]4)c(-c4ccccc4)c4nc(c(-c5ccccc5)c5ccc2[nH]5)C=C4)C=C3)cc1)Nc1cccc(OC[C@@H]2CCCO2)c1
REMARK SMILES IDX 16 1 15 2 14 3 13 4 12 5 10 6 11 7 9 8 4 9 5 10 6 11 8 12
REMARK SMILES IDX 7 13 3 14 2 15 1 16 75 17 76 19 77 20 88 21 78 22 80 23
REMARK SMILES IDX 79 24 81 25 82 26 83 27 84 28 87 29 85 30 86 31 17 32 18 33
REMARK SMILES IDX 19 34 20 35 21 36 22 37 23 38 24 39 25 40 26 41 27 42 28 43
REMARK SMILES IDX 74 44 29 45 73 46 30 47 31 48 32 49 67 50 33 51 72 52 66 53
REMARK SMILES IDX 68 54 34 55 71 56 65 57 64 58 35 60 57 61 42 62 56 63 43 64
REMARK SMILES IDX 46 65 55 66 69 67 44 68 45 69 54 71 70 72 47 73 36 74 37 75
REMARK SMILES IDX 41 76 38 77 40 78 39 79 58 80 59 81 63 82 60 83 62 84 61 85
REMARK SMILES IDX 48 86 49 87 53 88 50 89 52 90 51 91
REMARK H PARENT 75 18 68 59 46 70
REMARK Flexibility Score: inf
ROOT
ATOM      1  C   UNL     1       3.071   5.251   2.100  1.00  0.00     0.188 C 
ENDROOT
BRANCH   1   2
ATOM      2  O   UNL     1       2.768   6.120   1.023  1.00  0.00    -0.376 OA
BRANCH   2   3
ATOM      3  C   UNL     1       3.676   6.235  -0.055  1.00  0.00     0.202 C 
BRANCH   3   4
ATOM      4  C   UNL     1       3.959   4.977  -0.884  1.00  0.00     0.261 C 
BRANCH   4   5
ATOM      5  O   UNL     1       4.096   3.778  -0.113  1.00  0.00    -0.460 OA
BRANCH   5   6
ATOM      6  C   UNL     1       5.311   3.491   0.395  1.00  0.00     0.338 C 
ATOM      7  O   UNL     1       6.324   4.149   0.237  1.00  0.00    -0.246 OA
BRANCH   6   8
ATOM      8  C   UNL     1       5.184   2.367   1.374  1.00  0.00     0.063 A 
ATOM      9  C   UNL     1       4.378   1.214   1.199  1.00  0.00    -0.024 A 
ATOM     10  C   UNL     1       4.328   0.287   2.261  1.00  0.00     0.005 A 
ATOM     11  C   UNL     1       5.039   0.488   3.446  1.00  0.00     0.000 A 
ATOM     12  C   UNL     1       5.874   2.568   2.585  1.00  0.00     0.016 A 
ATOM     13  C   UNL     1       5.799   1.635   3.616  1.00  0.00     0.001 A 
BRANCH   9  14
ATOM     14  C   UNL     1       3.573   0.996  -0.073  1.00  0.00     0.136 C 
BRANCH  14  15
ATOM     15  C   UNL     1       2.641  -0.200  -0.110  1.00  0.00     0.228 C 
ATOM     16  O   UNL     1       1.423  -0.050  -0.040  1.00  0.00    -0.274 OA
ATOM     17  N   UNL     1       3.287  -1.429  -0.177  1.00  0.00    -0.326 N 
ATOM     18  H   UNL     1       4.271  -1.447  -0.154  1.00  0.00     0.169 HD
BRANCH  17  19
ATOM     19  C   UNL     1       2.590  -2.648  -0.277  1.00  0.00     0.044 A 
ATOM     20  C   UNL     1       3.040  -3.751   0.444  1.00  0.00     0.026 A 
ATOM     21  C   UNL     1       1.446  -2.758  -1.071  1.00  0.00     0.072 A 
ATOM     22  C   UNL     1       2.292  -4.930   0.434  1.00  0.00     0.006 A 
ATOM     23  C   UNL     1       0.695  -3.930  -1.092  1.00  0.00     0.121 A 
ATOM     24  C   UNL     1       1.121  -5.013  -0.324  1.00  0.00     0.046 A 
BRANCH  23  25
ATOM     25  O   UNL     1      -0.474  -4.122  -1.778  1.00  0.00    -0.491 OA
BRANCH  25  26
ATOM     26  C   UNL     1      -0.899  -3.100  -2.694  1.00  0.00     0.261 C 
BRANCH  26  27
ATOM     27  C   UNL     1      -1.442  -1.857  -1.982  1.00  0.00     0.156 C 
ATOM     28  C   UNL     1      -2.862  -1.482  -2.352  1.00  0.00     0.038 C 
ATOM     29  O   UNL     1      -0.675  -0.706  -2.391  1.00  0.00    -0.375 OA
ATOM     30  C   UNL     1      -2.898  -0.033  -1.937  1.00  0.00     0.031 C 
ATOM     31  C   UNL     1      -1.499   0.452  -2.252  1.00  0.00     0.161 C 
ENDBRANCH  26  27
ENDBRANCH  25  26
ENDBRANCH  23  25
ENDBRANCH  17  19
ENDBRANCH  14  15
ENDBRANCH   9  14
ENDBRANCH   6   8
ENDBRANCH   5   6
ENDBRANCH   4   5
ENDBRANCH   3   4
ENDBRANCH   2   3
ENDBRANCH   1   2
BRANCH   1  32
ATOM     32  C   UNL     1       2.126   4.031   2.237  1.00  0.00     0.188 C 
BRANCH  32  33
ATOM     33  O   UNL     1       1.062   3.784   1.325  1.00  0.00    -0.377 OA
BRANCH  33  34
ATOM     34  C   UNL     1       0.463   4.858   0.617  1.00  0.00     0.188 C 
BRANCH  34  35
ATOM     35  C   UNL     1       0.070   6.133   1.394  1.00  0.00     0.188 C 
BRANCH  35  36
ATOM     36  O   UNL     1       0.463   6.117   2.754  1.00  0.00    -0.376 OA
BRANCH  36  37
ATOM     37  C   UNL     1      -0.519   5.826   3.732  1.00  0.00     0.202 C 
BRANCH  37  38
ATOM     38  C   UNL     1      -1.368   4.551   3.603  1.00  0.00     0.261 C 
BRANCH  38  39
ATOM     39  O   UNL     1      -1.948   4.277   2.320  1.00  0.00    -0.460 OA
BRANCH  39  40
ATOM     40  C   UNL     1      -2.927   5.089   1.877  1.00  0.00     0.338 C 
ATOM     41  O   UNL     1      -3.396   6.066   2.441  1.00  0.00    -0.246 OA
BRANCH  40  42
ATOM     42  C   UNL     1      -3.226   4.687   0.489  1.00  0.00     0.060 A 
ATOM     43  C   UNL     1      -2.943   5.559  -0.573  1.00  0.00     0.016 A 
ATOM     44  C   UNL     1      -3.775   3.431   0.243  1.00  0.00     0.016 A 
ATOM     45  C   UNL     1      -3.216   5.177  -1.890  1.00  0.00     0.010 A 
ATOM     46  C   UNL     1      -4.089   3.073  -1.067  1.00  0.00     0.010 A 
ATOM     47  C   UNL     1      -3.822   3.942  -2.142  1.00  0.00    -0.014 A 
BRANCH  47  48
ATOM     48  C   UNL     1      -4.379   3.626  -3.482  1.00  0.00     0.031 A 
ATOM     49  C   UNL     1      -5.867   3.733  -3.665  1.00  0.00     0.074 A 
ATOM     50  C   UNL     1      -3.604   3.229  -4.509  1.00  0.00     0.049 A 
ATOM     51  N   UNL     1      -6.607   3.388  -4.686  1.00  0.00    -0.248 NA
ATOM     52  C   UNL     1      -6.619   4.311  -2.538  1.00  0.00     0.031 C 
ATOM     53  C   UNL     1      -2.146   3.156  -4.498  1.00  0.00     0.029 A 
ATOM     54  N   UNL     1      -3.953   2.776  -5.759  1.00  0.00    -0.354 N 
ATOM     55  C   UNL     1      -7.910   3.700  -4.321  1.00  0.00     0.074 A 
ATOM     56  C   UNL     1      -7.866   4.218  -2.972  1.00  0.00     0.031 C 
ATOM     57  C   UNL     1      -1.726   2.632  -5.664  1.00  0.00     0.029 A 
ATOM     58  C   UNL     1      -2.885   2.322  -6.496  1.00  0.00     0.049 A 
ATOM     59  H   UNL     1      -4.878   2.777  -6.094  1.00  0.00     0.167 HD
ATOM     60  C   UNL     1      -9.045   3.580  -5.048  1.00  0.00     0.031 A 
ATOM     61  C   UNL     1      -2.851   1.700  -7.692  1.00  0.00     0.031 A 
ATOM     62  C   UNL     1      -9.092   3.049  -6.383  1.00  0.00     0.049 A 
ATOM     63  C   UNL     1      -4.140   1.460  -8.437  1.00  0.00     0.074 A 
ATOM     64  C   UNL     1     -10.190   2.899  -7.210  1.00  0.00     0.029 A 
ATOM     65  N   UNL     1      -7.994   2.571  -7.080  1.00  0.00    -0.354 N 
ATOM     66  N   UNL     1      -5.364   1.784  -8.097  1.00  0.00    -0.248 NA
ATOM     67  C   UNL     1      -4.040   0.786  -9.741  1.00  0.00     0.031 C 
ATOM     68  C   UNL     1      -9.767   2.266  -8.382  1.00  0.00     0.029 A 
ATOM     69  C   UNL     1      -8.394   2.092  -8.315  1.00  0.00     0.049 A 
ATOM     70  H   UNL     1      -7.068   2.572  -6.746  1.00  0.00     0.167 HD
ATOM     71  C   UNL     1      -6.171   1.398  -9.162  1.00  0.00     0.074 A 
ATOM     72  C   UNL     1      -5.298   0.816 -10.159  1.00  0.00     0.031 C 
ATOM     73  C   UNL     1      -7.513   1.524  -9.304  1.00  0.00     0.031 A 
BRANCH  60  74
ATOM     74  C   UNL     1     -10.331   3.997  -4.392  1.00  0.00    -0.014 A 
ATOM     75  C   UNL     1     -10.606   5.345  -4.109  1.00  0.00     0.009 A 
ATOM     76  C   UNL     1     -11.289   3.025  -4.066  1.00  0.00     0.009 A 
ATOM     77  C   UNL     1     -11.798   5.705  -3.478  1.00  0.00     0.001 A 
ATOM     78  C   UNL     1     -12.494   3.392  -3.466  1.00  0.00     0.001 A 
ATOM     79  C   UNL     1     -12.743   4.730  -3.162  1.00  0.00     0.000 A 
ENDBRANCH  60  74
BRANCH  61  80
ATOM     80  C   UNL     1      -1.555   1.246  -8.267  1.00  0.00    -0.014 A 
ATOM     81  C   UNL     1      -1.028   1.857  -9.415  1.00  0.00     0.009 A 
ATOM     82  C   UNL     1      -0.852   0.178  -7.688  1.00  0.00     0.009 A 
ATOM     83  C   UNL     1       0.158   1.390  -9.988  1.00  0.00     0.001 A 
ATOM     84  C   UNL     1       0.349  -0.268  -8.245  1.00  0.00     0.001 A 
ATOM     85  C   UNL     1       0.848   0.331  -9.400  1.00  0.00     0.000 A 
ENDBRANCH  61  80
BRANCH  73  86
ATOM     86  C   UNL     1      -8.125   1.080 -10.604  1.00  0.00    -0.014 A 
ATOM     87  C   UNL     1      -8.238  -0.277 -10.940  1.00  0.00     0.009 A 
ATOM     88  C   UNL     1      -8.665   2.042 -11.474  1.00  0.00     0.009 A 
ATOM     89  C   UNL     1      -8.856  -0.659 -12.133  1.00  0.00     0.001 A 
ATOM     90  C   UNL     1      -9.311   1.656 -12.649  1.00  0.00     0.001 A 
ATOM     91  C   UNL     1      -9.399   0.306 -12.981  1.00  0.00     0.000 A 
ENDBRANCH  73  86
ENDBRANCH  47  48
ENDBRANCH  40  42
ENDBRANCH  39  40
ENDBRANCH  38  39
ENDBRANCH  37  38
ENDBRANCH  36  37
ENDBRANCH  35  36
ENDBRANCH  34  35
ENDBRANCH  33  34
ENDBRANCH  32  33
ENDBRANCH   1  32
TORSDOF 26
