REMARK SMILES Cc1cc(C)c2c(c1)C=C(C(=O)OCCOCCOCCOCCOC(=O)c1ccc(-c3c4nc(c(-c5ccccc5)c5ccc([nH]5)c(-c5ccccc5)c5nc(c(-c6ccccc6)c6ccc3[nH]6)C=C5)C=C4)cc1)[C@@H](C(F)(F)F)O2
REMARK SMILES IDX 20 1 19 2 18 3 17 4 16 5 15 6 14 7 13 8 11 9 12 10 10 11
REMARK SMILES IDX 1 12 2 13 3 14 8 15 4 16 7 17 5 18 6 19 9 20 81 21 76 22
REMARK SMILES IDX 77 23 78 24 79 25 80 26 21 27 22 28 23 29 24 30 25 31 26 32
REMARK SMILES IDX 27 33 28 34 29 35 75 36 30 37 74 38 31 39 32 40 33 41 68 42
REMARK SMILES IDX 34 43 73 44 67 45 69 46 35 47 72 48 66 49 65 50 36 52 58 53
REMARK SMILES IDX 43 54 57 55 44 56 47 57 56 58 70 59 45 60 46 61 55 63 71 64
REMARK SMILES IDX 48 65 37 66 38 67 42 68 39 69 41 70 40 71 59 72 60 73 64 74
REMARK SMILES IDX 61 75 63 76 62 77 49 78 50 79 54 80 51 81 53 82 52 83
REMARK H PARENT 69 51 47 62
REMARK Flexibility Score: inf
ROOT
ATOM      1  C   UNL     1       0.936   4.649   8.944  1.00  0.00     0.188 C 
ENDROOT
BRANCH   1   2
ATOM      2  O   UNL     1       0.380   3.787   7.948  1.00  0.00    -0.377 OA
BRANCH   2   3
ATOM      3  C   UNL     1       0.836   3.922   6.611  1.00  0.00     0.188 C 
BRANCH   3   4
ATOM      4  C   UNL     1       0.275   5.160   5.885  1.00  0.00     0.188 C 
BRANCH   4   5
ATOM      5  O   UNL     1      -0.293   6.110   6.777  1.00  0.00    -0.376 OA
BRANCH   5   6
ATOM      6  C   UNL     1      -1.704   6.172   6.906  1.00  0.00     0.202 C 
BRANCH   6   7
ATOM      7  C   UNL     1      -2.484   4.926   7.357  1.00  0.00     0.261 C 
BRANCH   7   8
ATOM      8  O   UNL     1      -2.137   3.695   6.712  1.00  0.00    -0.460 OA
BRANCH   8   9
ATOM      9  C   UNL     1      -2.501   3.538   5.425  1.00  0.00     0.338 C 
ATOM     10  O   UNL     1      -3.138   4.324   4.748  1.00  0.00    -0.246 OA
BRANCH   9  11
ATOM     11  C   UNL     1      -1.846   2.312   4.917  1.00  0.00     0.087 C 
ATOM     12  C   UNL     1       1.105   0.072  -0.008  1.00  0.00     0.044 C 
ATOM     13  C   UNL     1       0.490   0.051   1.361  1.00  0.00    -0.050 A 
ATOM     14  C   UNL     1       0.406  -1.148   2.079  1.00  0.00     0.010 A 
ATOM     15  C   UNL     1      -0.001   1.226   1.939  1.00  0.00     0.015 A 
ATOM     16  C   UNL     1      -0.169  -1.184   3.358  1.00  0.00    -0.008 A 
ATOM     17  C   UNL     1      -0.605   1.200   3.201  1.00  0.00     0.018 A 
ATOM     18  C   UNL     1      -0.284  -2.490   4.094  1.00  0.00     0.048 C 
ATOM     19  C   UNL     1      -0.657   0.005   3.923  1.00  0.00     0.130 A 
ATOM     20  C   UNL     1      -1.245   2.396   3.724  1.00  0.00     0.027 C 
ATOM     21  O   UNL     1      -1.185  -0.084   5.181  1.00  0.00    -0.475 OA
ATOM     22  C   UNL     1      -1.818   1.078   5.780  1.00  0.00     0.316 C 
BRANCH  22  23
ATOM     23  C   UNL     1      -3.220   0.659   6.243  1.00  0.00     0.430 C 
ATOM     24  F   UNL     1      -3.179  -0.488   6.964  1.00  0.00    -0.167 F 
ATOM     25  F   UNL     1      -3.796   1.591   7.037  1.00  0.00    -0.167 F 
ATOM     26  F   UNL     1      -4.053   0.451   5.198  1.00  0.00    -0.167 F 
ENDBRANCH  22  23
ENDBRANCH   9  11
ENDBRANCH   8   9
ENDBRANCH   7   8
ENDBRANCH   6   7
ENDBRANCH   5   6
ENDBRANCH   4   5
ENDBRANCH   3   4
ENDBRANCH   2   3
ENDBRANCH   1   2
BRANCH   1  27
ATOM     27  C   UNL     1       1.805   5.884   8.596  1.00  0.00     0.188 C 
BRANCH  27  28
ATOM     28  O   UNL     1       2.660   5.707   7.474  1.00  0.00    -0.376 OA
BRANCH  28  29
ATOM     29  C   UNL     1       4.050   5.583   7.725  1.00  0.00     0.202 C 
BRANCH  29  30
ATOM     30  C   UNL     1       4.477   4.252   8.354  1.00  0.00     0.261 C 
BRANCH  30  31
ATOM     31  O   UNL     1       3.880   3.951   9.625  1.00  0.00    -0.460 OA
BRANCH  31  32
ATOM     32  C   UNL     1       4.137   4.793  10.649  1.00  0.00     0.338 C 
ATOM     33  O   UNL     1       4.860   5.773  10.640  1.00  0.00    -0.246 OA
BRANCH  32  34
ATOM     34  C   UNL     1       3.225   4.431  11.753  1.00  0.00     0.060 A 
ATOM     35  C   UNL     1       2.311   5.382  12.222  1.00  0.00     0.016 A 
ATOM     36  C   UNL     1       3.257   3.146  12.300  1.00  0.00     0.016 A 
ATOM     37  C   UNL     1       1.440   5.056  13.262  1.00  0.00     0.010 A 
ATOM     38  C   UNL     1       2.402   2.828  13.357  1.00  0.00     0.010 A 
ATOM     39  C   UNL     1       1.512   3.791  13.862  1.00  0.00    -0.014 A 
BRANCH  39  40
ATOM     40  C   UNL     1       0.817   3.554  15.149  1.00  0.00     0.031 A 
ATOM     41  C   UNL     1       1.591   3.776  16.419  1.00  0.00     0.074 A 
ATOM     42  C   UNL     1      -0.476   3.189  15.198  1.00  0.00     0.049 A 
ATOM     43  N   UNL     1       1.204   3.638  17.661  1.00  0.00    -0.248 NA
ATOM     44  C   UNL     1       2.988   4.219  16.267  1.00  0.00     0.031 C 
ATOM     45  C   UNL     1      -1.348   2.996  14.042  1.00  0.00     0.029 A 
ATOM     46  N   UNL     1      -1.280   2.922  16.278  1.00  0.00    -0.354 N 
ATOM     47  C   UNL     1       2.304   3.986  18.434  1.00  0.00     0.074 A 
ATOM     48  C   UNL     1       3.384   4.302  17.528  1.00  0.00     0.031 C 
ATOM     49  C   UNL     1      -2.573   2.648  14.476  1.00  0.00     0.029 A 
ATOM     50  C   UNL     1      -2.562   2.563  15.937  1.00  0.00     0.049 A 
ATOM     51  H   UNL     1      -0.968   2.982  17.210  1.00  0.00     0.167 HD
ATOM     52  C   UNL     1       2.402   4.052  19.782  1.00  0.00     0.031 A 
ATOM     53  C   UNL     1      -3.600   2.199  16.715  1.00  0.00     0.031 A 
ATOM     54  C   UNL     1       1.339   3.716  20.687  1.00  0.00     0.049 A 
ATOM     55  C   UNL     1      -3.429   2.168  18.213  1.00  0.00     0.074 A 
ATOM     56  C   UNL     1       1.347   3.744  22.070  1.00  0.00     0.029 A 
ATOM     57  N   UNL     1       0.082   3.283  20.299  1.00  0.00    -0.354 N 
ATOM     58  N   UNL     1      -2.391   2.516  18.934  1.00  0.00    -0.248 NA
ATOM     59  C   UNL     1      -4.576   1.695  19.004  1.00  0.00     0.031 C 
ATOM     60  C   UNL     1       0.112   3.271  22.520  1.00  0.00     0.029 A 
ATOM     61  C   UNL     1      -0.686   3.011  21.417  1.00  0.00     0.049 A 
ATOM     62  H   UNL     1      -0.221   3.184  19.367  1.00  0.00     0.167 HD
ATOM     63  C   UNL     1      -2.768   2.329  20.260  1.00  0.00     0.074 A 
ATOM     64  C   UNL     1      -4.134   1.851  20.244  1.00  0.00     0.031 C 
ATOM     65  C   UNL     1      -2.045   2.537  21.388  1.00  0.00     0.031 A 
BRANCH  52  66
ATOM     66  C   UNL     1       3.717   4.489  20.360  1.00  0.00    -0.014 A 
ATOM     67  C   UNL     1       4.137   5.825  20.274  1.00  0.00     0.009 A 
ATOM     68  C   UNL     1       4.522   3.564  21.043  1.00  0.00     0.009 A 
ATOM     69  C   UNL     1       5.347   6.223  20.845  1.00  0.00     0.001 A 
ATOM     70  C   UNL     1       5.718   3.971  21.637  1.00  0.00     0.001 A 
ATOM     71  C   UNL     1       6.132   5.298  21.532  1.00  0.00     0.000 A 
ENDBRANCH  52  66
BRANCH  53  72
ATOM     72  C   UNL     1      -4.902   1.829  16.097  1.00  0.00    -0.014 A 
ATOM     73  C   UNL     1      -6.031   2.645  16.268  1.00  0.00     0.009 A 
ATOM     74  C   UNL     1      -5.027   0.650  15.344  1.00  0.00     0.009 A 
ATOM     75  C   UNL     1      -7.260   2.281  15.712  1.00  0.00     0.001 A 
ATOM     76  C   UNL     1      -6.250   0.303  14.766  1.00  0.00     0.001 A 
ATOM     77  C   UNL     1      -7.367   1.115  14.956  1.00  0.00     0.000 A 
ENDBRANCH  53  72
BRANCH  65  78
ATOM     78  C   UNL     1      -2.711   2.271  22.709  1.00  0.00    -0.014 A 
ATOM     79  C   UNL     1      -2.950   0.962  23.151  1.00  0.00     0.009 A 
ATOM     80  C   UNL     1      -3.011   3.344  23.565  1.00  0.00     0.009 A 
ATOM     81  C   UNL     1      -3.492   0.732  24.418  1.00  0.00     0.001 A 
ATOM     82  C   UNL     1      -3.524   3.110  24.842  1.00  0.00     0.001 A 
ATOM     83  C   UNL     1      -3.769   1.805  25.265  1.00  0.00     0.000 A 
ENDBRANCH  65  78
ENDBRANCH  39  40
ENDBRANCH  32  34
ENDBRANCH  31  32
ENDBRANCH  30  31
ENDBRANCH  29  30
ENDBRANCH  28  29
ENDBRANCH  27  28
ENDBRANCH   1  27
TORSDOF 21
