REMARK SMILES O=C(Cn1nc(C(=O)OCCOCCOCCOCCOC(=O)c2ccc(-c3c4nc(c(-c5ccccc5)c5ccc([nH]5)c(-c5ccccc5)c5nc(c(-c6ccccc6)c6ccc3[nH]6)C=C5)C=C4)cc2)c2ccccc2c1=O)Nc1ccc2c(c1)C(=O)c1ccccc1C2=O
REMARK SMILES IDX 14 1 13 2 12 3 11 4 10 5 9 6 7 7 8 8 6 9 4 10 5 11 78 12
REMARK SMILES IDX 77 13 79 14 72 15 76 16 73 17 75 18 74 19 3 20 2 21 1 22
REMARK SMILES IDX 80 23 81 25 82 26 86 27 83 28 85 29 84 30 87 31 95 32 88 33
REMARK SMILES IDX 89 34 94 35 96 36 90 37 93 38 91 39 92 40 15 41 16 42 17 43
REMARK SMILES IDX 18 44 19 45 20 46 21 47 22 48 23 49 24 50 25 51 71 52 26 53
REMARK SMILES IDX 70 54 27 55 28 56 29 57 64 58 30 59 69 60 63 61 65 62 31 63
REMARK SMILES IDX 68 64 62 65 61 66 32 68 54 69 39 70 53 71 40 72 43 73 52 74
REMARK SMILES IDX 66 75 41 76 42 77 51 79 67 80 44 81 33 82 34 83 38 84 35 85
REMARK SMILES IDX 37 86 36 87 55 88 56 89 60 90 57 91 59 92 58 93 45 94 46 95
REMARK SMILES IDX 50 96 47 97 49 98 48 99
REMARK H PARENT 80 24 65 67 43 78
REMARK Flexibility Score: inf
ROOT
ATOM      1  C   UNL     1       5.260  -3.732   1.673  1.00  0.00     0.188 C 
ENDROOT
BRANCH   1   2
ATOM      2  C   UNL     1       5.352  -4.773   2.794  1.00  0.00     0.188 C 
BRANCH   2   3
ATOM      3  O   UNL     1       4.494  -5.906   2.678  1.00  0.00    -0.376 OA
BRANCH   3   4
ATOM      4  C   UNL     1       3.089  -5.677   2.567  1.00  0.00     0.202 C 
BRANCH   4   5
ATOM      5  C   UNL     1       2.455  -4.736   3.596  1.00  0.00     0.261 C 
BRANCH   5   6
ATOM      6  O   UNL     1       2.758  -3.380   3.213  1.00  0.00    -0.458 OA
BRANCH   6   7
ATOM      7  C   UNL     1       2.765  -2.470   4.212  1.00  0.00     0.359 C 
ATOM      8  O   UNL     1       2.428  -2.616   5.356  1.00  0.00    -0.244 OA
BRANCH   7   9
ATOM      9  C   UNL     1       3.506  -1.229   3.706  1.00  0.00     0.176 A 
ATOM     10  N   UNL     1       3.598   0.631   2.315  1.00  0.00    -0.219 N 
ATOM     11  N   UNL     1       2.922  -0.483   2.809  1.00  0.00    -0.161 NA
ATOM     12  C   UNL     1       4.870   1.009   2.749  1.00  0.00     0.275 A 
ATOM     13  C   UNL     1       5.527   0.135   3.736  1.00  0.00     0.051 A 
ATOM     14  O   UNL     1       5.454   2.017   2.363  1.00  0.00    -0.267 OA
ATOM     15  C   UNL     1       4.859  -0.978   4.230  1.00  0.00     0.022 A 
ATOM     16  C   UNL     1       6.824   0.428   4.176  1.00  0.00     0.014 A 
ATOM     17  C   UNL     1       5.492  -1.815   5.160  1.00  0.00     0.011 A 
ATOM     18  C   UNL     1       7.456  -0.408   5.097  1.00  0.00     0.001 A 
ATOM     19  C   UNL     1       6.793  -1.531   5.583  1.00  0.00     0.001 A 
BRANCH  10  20
ATOM     20  C   UNL     1       2.875   1.564   1.414  1.00  0.00     0.248 C 
BRANCH  20  21
ATOM     21  C   UNL     1       2.027   0.967   0.287  1.00  0.00     0.246 C 
ATOM     22  O   UNL     1       1.317   1.648  -0.447  1.00  0.00    -0.273 OA
ATOM     23  N   UNL     1       2.129  -0.394   0.239  1.00  0.00    -0.324 N 
ATOM     24  H   UNL     1       2.798  -0.806   0.833  1.00  0.00     0.169 HD
BRANCH  23  25
ATOM     25  C   UNL     1       1.391  -1.255  -0.556  1.00  0.00     0.042 A 
ATOM     26  C   UNL     1       1.380  -1.160  -1.948  1.00  0.00     0.027 A 
ATOM     27  C   UNL     1       0.891  -2.374   0.109  1.00  0.00     0.039 A 
ATOM     28  C   UNL     1       1.150  -2.326  -2.668  1.00  0.00     0.015 A 
ATOM     29  C   UNL     1       0.583  -3.502  -0.615  1.00  0.00     0.036 A 
ATOM     30  C   UNL     1       0.944  -3.514  -1.950  1.00  0.00     0.034 A 
ATOM     31  C   UNL     1       0.280  -4.751   0.099  1.00  0.00     0.194 C 
ATOM     32  C   UNL     1       1.769  -4.669  -2.325  1.00  0.00     0.194 C 
ATOM     33  O   UNL     1      -0.381  -4.746   1.128  1.00  0.00    -0.289 OA
ATOM     34  C   UNL     1       0.944  -5.973  -0.375  1.00  0.00     0.034 A 
ATOM     35  C   UNL     1       1.808  -5.860  -1.453  1.00  0.00     0.034 A 
ATOM     36  O   UNL     1       2.536  -4.560  -3.268  1.00  0.00    -0.289 OA
ATOM     37  C   UNL     1       0.904  -7.149   0.379  1.00  0.00     0.013 A 
ATOM     38  C   UNL     1       2.744  -6.864  -1.682  1.00  0.00     0.013 A 
ATOM     39  C   UNL     1       1.806  -8.178   0.102  1.00  0.00     0.001 A 
ATOM     40  C   UNL     1       2.751  -8.022  -0.909  1.00  0.00     0.001 A 
ENDBRANCH  23  25
ENDBRANCH  20  21
ENDBRANCH  10  20
ENDBRANCH   7   9
ENDBRANCH   6   7
ENDBRANCH   5   6
ENDBRANCH   4   5
ENDBRANCH   3   4
ENDBRANCH   2   3
ENDBRANCH   1   2
BRANCH   1  41
ATOM     41  O   UNL     1       6.029  -4.070   0.531  1.00  0.00    -0.377 OA
BRANCH  41  42
ATOM     42  C   UNL     1       5.441  -5.045  -0.325  1.00  0.00     0.188 C 
BRANCH  42  43
ATOM     43  C   UNL     1       6.185  -6.383  -0.265  1.00  0.00     0.188 C 
BRANCH  43  44
ATOM     44  O   UNL     1       7.611  -6.349  -0.334  1.00  0.00    -0.376 OA
BRANCH  44  45
ATOM     45  C   UNL     1       8.217  -5.331  -1.122  1.00  0.00     0.202 C 
BRANCH  45  46
ATOM     46  C   UNL     1       8.224  -5.573  -2.632  1.00  0.00     0.261 C 
BRANCH  46  47
ATOM     47  O   UNL     1       6.911  -5.697  -3.211  1.00  0.00    -0.460 OA
BRANCH  47  48
ATOM     48  C   UNL     1       6.626  -6.893  -3.789  1.00  0.00     0.338 C 
ATOM     49  O   UNL     1       7.313  -7.900  -3.761  1.00  0.00    -0.246 OA
BRANCH  48  50
ATOM     50  C   UNL     1       5.282  -6.859  -4.420  1.00  0.00     0.060 A 
ATOM     51  C   UNL     1       4.768  -5.694  -4.991  1.00  0.00     0.016 A 
ATOM     52  C   UNL     1       4.504  -8.028  -4.420  1.00  0.00     0.016 A 
ATOM     53  C   UNL     1       3.466  -5.691  -5.512  1.00  0.00     0.010 A 
ATOM     54  C   UNL     1       3.184  -8.008  -4.904  1.00  0.00     0.010 A 
ATOM     55  C   UNL     1       2.638  -6.827  -5.426  1.00  0.00    -0.014 A 
BRANCH  55  56
ATOM     56  C   UNL     1       1.322  -6.813  -6.118  1.00  0.00     0.031 A 
ATOM     57  C   UNL     1      -0.001  -6.510  -5.477  1.00  0.00     0.074 A 
ATOM     58  C   UNL     1       1.349  -7.048  -7.438  1.00  0.00     0.049 A 
ATOM     59  N   UNL     1      -1.107  -6.084  -6.040  1.00  0.00    -0.248 NA
ATOM     60  C   UNL     1      -0.119  -6.698  -4.032  1.00  0.00     0.031 C 
ATOM     61  C   UNL     1       2.556  -7.363  -8.199  1.00  0.00     0.029 A 
ATOM     62  N   UNL     1       0.342  -7.057  -8.361  1.00  0.00    -0.354 N 
ATOM     63  C   UNL     1      -1.994  -5.818  -5.002  1.00  0.00     0.074 A 
ATOM     64  C   UNL     1      -1.324  -6.193  -3.775  1.00  0.00     0.031 C 
ATOM     65  C   UNL     1       2.218  -7.547  -9.480  1.00  0.00     0.029 A 
ATOM     66  C   UNL     1       0.774  -7.371  -9.619  1.00  0.00     0.049 A 
ATOM     67  H   UNL     1      -0.598  -6.858  -8.143  1.00  0.00     0.167 HD
ATOM     68  C   UNL     1      -3.256  -5.330  -5.078  1.00  0.00     0.031 A 
ATOM     69  C   UNL     1       0.093  -7.508 -10.768  1.00  0.00     0.031 A 
ATOM     70  C   UNL     1      -4.003  -5.218  -6.307  1.00  0.00     0.049 A 
ATOM     71  C   UNL     1      -1.367  -7.192 -10.803  1.00  0.00     0.074 A 
ATOM     72  C   UNL     1      -5.288  -4.736  -6.498  1.00  0.00     0.029 A 
ATOM     73  N   UNL     1      -3.572  -5.695  -7.535  1.00  0.00    -0.354 N 
ATOM     74  N   UNL     1      -2.128  -6.724  -9.844  1.00  0.00    -0.248 NA
ATOM     75  C   UNL     1      -2.058  -7.401 -12.079  1.00  0.00     0.031 C 
ATOM     76  C   UNL     1      -5.676  -5.037  -7.809  1.00  0.00     0.029 A 
ATOM     77  C   UNL     1      -4.601  -5.619  -8.460  1.00  0.00     0.049 A 
ATOM     78  H   UNL     1      -2.668  -6.037  -7.722  1.00  0.00     0.167 HD
ATOM     79  C   UNL     1      -3.387  -6.562 -10.404  1.00  0.00     0.074 A 
ATOM     80  C   UNL     1      -3.283  -6.979 -11.788  1.00  0.00     0.031 C 
ATOM     81  C   UNL     1      -4.517  -6.092  -9.821  1.00  0.00     0.031 A 
BRANCH  68  82
ATOM     82  C   UNL     1      -3.946  -4.899  -3.810  1.00  0.00    -0.014 A 
ATOM     83  C   UNL     1      -5.052  -5.611  -3.318  1.00  0.00     0.009 A 
ATOM     84  C   UNL     1      -3.607  -3.677  -3.206  1.00  0.00     0.009 A 
ATOM     85  C   UNL     1      -5.816  -5.100  -2.264  1.00  0.00     0.001 A 
ATOM     86  C   UNL     1      -4.364  -3.175  -2.143  1.00  0.00     0.001 A 
ATOM     87  C   UNL     1      -5.473  -3.882  -1.679  1.00  0.00     0.000 A 
ENDBRANCH  68  82
BRANCH  69  88
ATOM     88  C   UNL     1       0.855  -7.946 -11.958  1.00  0.00    -0.014 A 
ATOM     89  C   UNL     1       1.369  -9.255 -12.011  1.00  0.00     0.009 A 
ATOM     90  C   UNL     1       1.234  -7.019 -12.935  1.00  0.00     0.009 A 
ATOM     91  C   UNL     1       2.292  -9.610 -12.992  1.00  0.00     0.001 A 
ATOM     92  C   UNL     1       2.139  -7.388 -13.932  1.00  0.00     0.001 A 
ATOM     93  C   UNL     1       2.679  -8.675 -13.949  1.00  0.00     0.000 A 
ENDBRANCH  69  88
BRANCH  81  94
ATOM     94  C   UNL     1      -5.761  -6.035 -10.663  1.00  0.00    -0.014 A 
ATOM     95  C   UNL     1      -6.302  -4.795 -11.036  1.00  0.00     0.009 A 
ATOM     96  C   UNL     1      -6.436  -7.209 -11.032  1.00  0.00     0.009 A 
ATOM     97  C   UNL     1      -7.499  -4.730 -11.752  1.00  0.00     0.001 A 
ATOM     98  C   UNL     1      -7.617  -7.142 -11.774  1.00  0.00     0.001 A 
ATOM     99  C   UNL     1      -8.152  -5.903 -12.126  1.00  0.00     0.000 A 
ENDBRANCH  81  94
ENDBRANCH  55  56
ENDBRANCH  48  50
ENDBRANCH  47  48
ENDBRANCH  46  47
ENDBRANCH  45  46
ENDBRANCH  44  45
ENDBRANCH  43  44
ENDBRANCH  42  43
ENDBRANCH  41  42
ENDBRANCH   1  41
TORSDOF 23
