REMARK SMILES Cc1nn([C@@H](C)C(=O)OCCOCCOCCOCCOC(=O)c2ccc(-c3c4nc(c(-c5ccccc5)c5ccc([nH]5)c(-c5ccccc5)c5nc(c(-c6ccccc6)c6ccc3[nH]6)C=C5)C=C4)cc2)c(=O)c2cc3cc(F)ccc3n12
REMARK SMILES IDX 16 1 15 2 14 3 13 4 12 5 11 6 10 7 9 8 7 9 8 10 5 11 6 12
REMARK SMILES IDX 4 13 1 14 2 15 3 16 83 17 74 18 82 19 72 20 75 21 76 22
REMARK SMILES IDX 81 23 73 24 77 25 80 26 78 27 79 28 17 29 18 30 19 31 20 32
REMARK SMILES IDX 21 33 22 34 23 35 24 36 25 37 71 38 26 39 70 40 27 41 28 42
REMARK SMILES IDX 29 43 64 44 30 45 69 46 63 47 65 48 31 49 68 50 62 51 61 52
REMARK SMILES IDX 32 54 54 55 39 56 53 57 40 58 43 59 52 60 66 61 41 62 42 63
REMARK SMILES IDX 51 65 67 66 44 67 33 68 34 69 38 70 35 71 37 72 36 73 55 74
REMARK SMILES IDX 56 75 60 76 57 77 59 78 58 79 45 80 46 81 50 82 47 83 49 84
REMARK SMILES IDX 48 85
REMARK H PARENT 65 53 43 64
REMARK Flexibility Score: inf
ROOT
ATOM      1  C   UNL     1       2.856  -2.583   4.753  1.00  0.00     0.188 C 
ENDROOT
BRANCH   1   2
ATOM      2  O   UNL     1       1.633  -1.995   4.343  1.00  0.00    -0.377 OA
BRANCH   2   3
ATOM      3  C   UNL     1       1.380  -0.641   4.638  1.00  0.00     0.188 C 
BRANCH   3   4
ATOM      4  C   UNL     1       0.920  -0.289   6.057  1.00  0.00     0.188 C 
BRANCH   4   5
ATOM      5  O   UNL     1       1.502  -0.922   7.177  1.00  0.00    -0.376 OA
BRANCH   5   6
ATOM      6  C   UNL     1       1.228  -2.275   7.513  1.00  0.00     0.202 C 
BRANCH   6   7
ATOM      7  C   UNL     1       0.012  -3.086   7.041  1.00  0.00     0.261 C 
BRANCH   7   8
ATOM      8  O   UNL     1      -0.381  -2.887   5.680  1.00  0.00    -0.462 OA
BRANCH   8   9
ATOM      9  C   UNL     1      -1.593  -2.314   5.491  1.00  0.00     0.330 C 
ATOM     10  O   UNL     1      -2.332  -1.970   6.413  1.00  0.00    -0.250 OA
BRANCH   9  11
ATOM     11  C   UNL     1      -1.965  -2.043   4.024  1.00  0.00     0.218 C 
ATOM     12  C   UNL     1      -3.365  -2.590   3.769  1.00  0.00     0.046 C 
BRANCH  11  13
ATOM     13  N   UNL     1      -1.030  -2.382   2.935  1.00  0.00    -0.212 N 
ATOM     14  C   UNL     1       0.563  -0.381   0.241  1.00  0.00     0.090 C 
ATOM     15  C   UNL     1       0.117  -1.528   1.090  1.00  0.00     0.131 A 
ATOM     16  N   UNL     1      -0.681  -1.318   2.095  1.00  0.00    -0.155 NA
ATOM     17  N   UNL     1       0.589  -2.806   0.760  1.00  0.00    -0.291 N 
ATOM     18  C   UNL     1       0.242  -3.871   1.562  1.00  0.00     0.115 A 
ATOM     19  C   UNL     1       1.359  -3.276  -0.312  1.00  0.00     0.055 A 
ATOM     20  C   UNL     1      -0.624  -3.703   2.708  1.00  0.00     0.291 A 
ATOM     21  C   UNL     1       0.836  -5.010   1.068  1.00  0.00     0.043 A 
ATOM     22  C   UNL     1       1.522  -4.659  -0.119  1.00  0.00     0.004 A 
ATOM     23  C   UNL     1       1.915  -2.652  -1.453  1.00  0.00     0.030 A 
ATOM     24  O   UNL     1      -0.996  -4.648   3.398  1.00  0.00    -0.265 OA
ATOM     25  C   UNL     1       2.252  -5.417  -1.058  1.00  0.00     0.049 A 
ATOM     26  C   UNL     1       2.623  -3.427  -2.379  1.00  0.00     0.041 A 
ATOM     27  C   UNL     1       2.785  -4.786  -2.177  1.00  0.00     0.123 A 
ATOM     28  F   UNL     1       3.459  -5.508  -3.082  1.00  0.00    -0.207 F 
ENDBRANCH  11  13
ENDBRANCH   9  11
ENDBRANCH   8   9
ENDBRANCH   7   8
ENDBRANCH   6   7
ENDBRANCH   5   6
ENDBRANCH   4   5
ENDBRANCH   3   4
ENDBRANCH   2   3
ENDBRANCH   1   2
BRANCH   1  29
ATOM     29  C   UNL     1       3.967  -1.706   5.356  1.00  0.00     0.188 C 
BRANCH  29  30
ATOM     30  O   UNL     1       4.201  -0.521   4.615  1.00  0.00    -0.376 OA
BRANCH  30  31
ATOM     31  C   UNL     1       5.261  -0.523   3.670  1.00  0.00     0.202 C 
BRANCH  31  32
ATOM     32  C   UNL     1       5.188  -1.540   2.519  1.00  0.00     0.261 C 
BRANCH  32  33
ATOM     33  O   UNL     1       5.167  -2.915   2.942  1.00  0.00    -0.460 OA
BRANCH  33  34
ATOM     34  C   UNL     1       6.298  -3.474   3.440  1.00  0.00     0.338 C 
ATOM     35  O   UNL     1       7.425  -3.056   3.323  1.00  0.00    -0.246 OA
BRANCH  34  36
ATOM     36  C   UNL     1       5.836  -4.452   4.470  1.00  0.00     0.060 A 
ATOM     37  C   UNL     1       4.721  -5.274   4.270  1.00  0.00     0.016 A 
ATOM     38  C   UNL     1       6.365  -4.288   5.759  1.00  0.00     0.016 A 
ATOM     39  C   UNL     1       4.080  -5.834   5.377  1.00  0.00     0.010 A 
ATOM     40  C   UNL     1       5.706  -4.827   6.865  1.00  0.00     0.010 A 
ATOM     41  C   UNL     1       4.542  -5.575   6.684  1.00  0.00    -0.014 A 
BRANCH  41  42
ATOM     42  C   UNL     1       3.943  -6.340   7.792  1.00  0.00     0.031 A 
ATOM     43  C   UNL     1       4.190  -7.799   7.645  1.00  0.00     0.074 A 
ATOM     44  C   UNL     1       3.389  -5.883   8.939  1.00  0.00     0.049 A 
ATOM     45  N   UNL     1       3.325  -8.748   7.513  1.00  0.00    -0.248 NA
ATOM     46  C   UNL     1       5.591  -8.228   7.496  1.00  0.00     0.031 C 
ATOM     47  C   UNL     1       3.378  -4.506   9.434  1.00  0.00     0.029 A 
ATOM     48  N   UNL     1       2.797  -6.583   9.966  1.00  0.00    -0.354 N 
ATOM     49  C   UNL     1       4.071  -9.921   7.426  1.00  0.00     0.074 A 
ATOM     50  C   UNL     1       5.444  -9.529   7.260  1.00  0.00     0.031 C 
ATOM     51  C   UNL     1       2.990  -4.495  10.730  1.00  0.00     0.029 A 
ATOM     52  C   UNL     1       2.625  -5.843  11.133  1.00  0.00     0.049 A 
ATOM     53  H   UNL     1       2.519  -7.524   9.882  1.00  0.00     0.167 HD
ATOM     54  C   UNL     1       3.536 -11.128   7.748  1.00  0.00     0.031 A 
ATOM     55  C   UNL     1       2.264  -6.297  12.362  1.00  0.00     0.031 A 
ATOM     56  C   UNL     1       2.102 -11.076   7.813  1.00  0.00     0.049 A 
ATOM     57  C   UNL     1       1.593  -7.603  12.216  1.00  0.00     0.074 A 
ATOM     58  C   UNL     1       1.058 -11.037   6.919  1.00  0.00     0.029 A 
ATOM     59  N   UNL     1       1.612 -10.719   9.040  1.00  0.00    -0.354 N 
ATOM     60  N   UNL     1       0.421  -7.755  11.675  1.00  0.00    -0.248 NA
ATOM     61  C   UNL     1       2.340  -8.832  12.453  1.00  0.00     0.031 C 
ATOM     62  C   UNL     1      -0.036 -10.449   7.619  1.00  0.00     0.029 A 
ATOM     63  C   UNL     1       0.364 -10.170   8.925  1.00  0.00     0.049 A 
ATOM     64  H   UNL     1       2.093 -10.841   9.890  1.00  0.00     0.167 HD
ATOM     65  C   UNL     1       0.472  -9.013  11.110  1.00  0.00     0.074 A 
ATOM     66  C   UNL     1       1.578  -9.690  11.771  1.00  0.00     0.031 C 
ATOM     67  C   UNL     1      -0.160  -9.271   9.932  1.00  0.00     0.031 A 
BRANCH  54  68
ATOM     68  C   UNL     1       4.304 -12.208   8.480  1.00  0.00    -0.014 A 
ATOM     69  C   UNL     1       5.555 -12.002   9.092  1.00  0.00     0.009 A 
ATOM     70  C   UNL     1       3.623 -13.389   8.832  1.00  0.00     0.009 A 
ATOM     71  C   UNL     1       6.088 -12.902  10.020  1.00  0.00     0.001 A 
ATOM     72  C   UNL     1       4.135 -14.274   9.789  1.00  0.00     0.001 A 
ATOM     73  C   UNL     1       5.365 -14.026  10.387  1.00  0.00     0.000 A 
ENDBRANCH  54  68
BRANCH  55  74
ATOM     74  C   UNL     1       2.643  -5.795  13.705  1.00  0.00    -0.014 A 
ATOM     75  C   UNL     1       3.899  -5.193  13.897  1.00  0.00     0.009 A 
ATOM     76  C   UNL     1       1.920  -6.173  14.852  1.00  0.00     0.009 A 
ATOM     77  C   UNL     1       4.438  -5.028  15.178  1.00  0.00     0.001 A 
ATOM     78  C   UNL     1       2.463  -6.011  16.135  1.00  0.00     0.001 A 
ATOM     79  C   UNL     1       3.730  -5.457  16.296  1.00  0.00     0.000 A 
ENDBRANCH  55  74
BRANCH  67  80
ATOM     80  C   UNL     1      -1.329  -8.409   9.549  1.00  0.00    -0.014 A 
ATOM     81  C   UNL     1      -2.551  -9.052   9.299  1.00  0.00     0.009 A 
ATOM     82  C   UNL     1      -1.237  -7.027   9.319  1.00  0.00     0.009 A 
ATOM     83  C   UNL     1      -3.646  -8.344   8.808  1.00  0.00     0.001 A 
ATOM     84  C   UNL     1      -2.345  -6.311   8.854  1.00  0.00     0.001 A 
ATOM     85  C   UNL     1      -3.543  -6.973   8.586  1.00  0.00     0.000 A 
ENDBRANCH  67  80
ENDBRANCH  41  42
ENDBRANCH  34  36
ENDBRANCH  33  34
ENDBRANCH  32  33
ENDBRANCH  31  32
ENDBRANCH  30  31
ENDBRANCH  29  30
ENDBRANCH   1  29
TORSDOF 21
