REMARK SMILES O=C(CNC(=O)N1CC(OCCOCCOCCOCCOC(=O)c2ccc(-c3c4nc(c(-c5ccccc5)c5ccc([nH]5)c(-c5ccccc5)c5nc(c(-c6ccccc6)c6ccc3[nH]6)C=C5)C=C4)cc2)=Nc2ccccc21)N[C@H](C(=O)[O-])c1ccccc1
REMARK SMILES IDX 15 1 14 2 13 3 12 4 11 5 10 6 9 7 7 8 8 9 79 10 74 11 78 12
REMARK SMILES IDX 73 13 75 14 77 15 76 16 5 17 4 18 6 20 3 21 2 22 1 23 80 24
REMARK SMILES IDX 81 26 85 27 86 28 90 29 87 30 89 31 88 32 82 33 83 34 84 35
REMARK SMILES IDX 16 36 17 37 18 38 19 39 20 40 21 41 22 42 23 43 24 44 25 45
REMARK SMILES IDX 26 46 72 47 27 48 71 49 28 50 29 51 30 52 65 53 31 54 70 55
REMARK SMILES IDX 64 56 66 57 32 58 69 59 63 60 62 61 33 63 55 64 40 65 54 66
REMARK SMILES IDX 41 67 44 68 53 69 67 70 42 71 43 72 52 74 68 75 45 76 34 77
REMARK SMILES IDX 35 78 39 79 36 80 38 81 37 82 56 83 57 84 61 85 58 86 60 87
REMARK SMILES IDX 59 88 46 89 47 90 51 91 48 92 50 93 49 94
REMARK H PARENT 4 19 80 25 66 62 44 73
REMARK Flexibility Score: inf
ROOT
ATOM      1  C   UNL     1       0.299  -1.752   4.285  1.00  0.00     0.188 C 
ENDROOT
BRANCH   1   2
ATOM      2  C   UNL     1       1.405  -2.803   4.167  1.00  0.00     0.188 C 
BRANCH   2   3
ATOM      3  O   UNL     1       1.093  -4.185   4.006  1.00  0.00    -0.376 OA
BRANCH   3   4
ATOM      4  C   UNL     1      -0.184  -4.707   4.313  1.00  0.00     0.201 C 
BRANCH   4   5
ATOM      5  C   UNL     1      -0.691  -4.808   5.766  1.00  0.00     0.259 C 
BRANCH   5   6
ATOM      6  O   UNL     1      -0.388  -3.722   6.655  1.00  0.00    -0.477 OA
BRANCH   6   7
ATOM      7  C   UNL     1       0.896  -3.654   7.086  1.00  0.00     0.209 C 
ATOM      8  N   UNL     1       2.563  -1.883   7.400  1.00  0.00    -0.283 N 
ATOM      9  C   UNL     1       1.228  -2.359   7.785  1.00  0.00     0.224 C 
ATOM     10  C   UNL     1       3.542  -2.920   7.252  1.00  0.00     0.072 A 
ATOM     11  C   UNL     1       3.102  -4.246   6.995  1.00  0.00     0.091 A 
ATOM     12  C   UNL     1       4.912  -2.684   7.348  1.00  0.00     0.029 A 
ATOM     13  N   UNL     1       1.748  -4.593   6.845  1.00  0.00    -0.214 NA
ATOM     14  C   UNL     1       4.028  -5.242   6.675  1.00  0.00     0.030 A 
ATOM     15  C   UNL     1       5.829  -3.689   7.023  1.00  0.00     0.002 A 
ATOM     16  C   UNL     1       5.388  -4.959   6.659  1.00  0.00     0.002 A 
BRANCH   8  17
ATOM     17  C   UNL     1       2.722  -0.520   7.366  1.00  0.00     0.322 C 
ATOM     18  N   UNL     1       3.595   0.110   6.553  1.00  0.00    -0.329 N 
ATOM     19  H   UNL     1       3.725   1.056   6.793  1.00  0.00     0.165 HD
ATOM     20  O   UNL     1       1.975   0.218   8.020  1.00  0.00    -0.248 OA
BRANCH  18  21
ATOM     21  C   UNL     1       4.394  -0.295   5.395  1.00  0.00     0.218 C 
BRANCH  21  22
ATOM     22  C   UNL     1       4.775   0.928   4.537  1.00  0.00     0.240 C 
ATOM     23  O   UNL     1       5.927   1.351   4.497  1.00  0.00    -0.273 OA
ATOM     24  N   UNL     1       3.705   1.499   3.885  1.00  0.00    -0.342 N 
ATOM     25  H   UNL     1       2.802   1.350   4.248  1.00  0.00     0.164 HD
BRANCH  24  26
ATOM     26  C   UNL     1       3.848   2.329   2.664  1.00  0.00     0.158 C 
BRANCH  26  27
ATOM     27  C   UNL     1       3.647   3.812   2.897  1.00  0.00    -0.020 A 
ATOM     28  C   UNL     1       4.417   4.536   3.810  1.00  0.00     0.006 A 
ATOM     29  C   UNL     1       2.680   4.502   2.136  1.00  0.00     0.006 A 
ATOM     30  C   UNL     1       4.205   5.909   3.978  1.00  0.00     0.000 A 
ATOM     31  C   UNL     1       2.468   5.869   2.304  1.00  0.00     0.000 A 
ATOM     32  C   UNL     1       3.228   6.572   3.232  1.00  0.00     0.000 A 
ENDBRANCH  26  27
BRANCH  26  33
ATOM     33  C   UNL     1       4.940   1.906   1.615  1.00  0.00     0.068 C 
ATOM     34  O   UNL     1       5.375   2.805   0.839  1.00  0.00    -0.548 OA
ATOM     35  O   UNL     1       5.166   0.652   1.567  1.00  0.00    -0.548 OA
ENDBRANCH  26  33
ENDBRANCH  24  26
ENDBRANCH  21  22
ENDBRANCH  18  21
ENDBRANCH   8  17
ENDBRANCH   6   7
ENDBRANCH   5   6
ENDBRANCH   4   5
ENDBRANCH   3   4
ENDBRANCH   2   3
ENDBRANCH   1   2
BRANCH   1  36
ATOM     36  O   UNL     1      -0.087  -1.116   3.074  1.00  0.00    -0.377 OA
BRANCH  36  37
ATOM     37  C   UNL     1      -0.796  -1.925   2.151  1.00  0.00     0.188 C 
BRANCH  37  38
ATOM     38  C   UNL     1       0.046  -2.532   1.017  1.00  0.00     0.188 C 
BRANCH  38  39
ATOM     39  O   UNL     1       1.427  -2.675   1.294  1.00  0.00    -0.376 OA
BRANCH  39  40
ATOM     40  C   UNL     1       2.286  -1.706   0.678  1.00  0.00     0.202 C 
BRANCH  40  41
ATOM     41  C   UNL     1       2.188  -0.284   1.230  1.00  0.00     0.261 C 
BRANCH  41  42
ATOM     42  O   UNL     1       0.905   0.337   1.066  1.00  0.00    -0.460 OA
BRANCH  42  43
ATOM     43  C   UNL     1       0.609   0.754  -0.176  1.00  0.00     0.338 C 
ATOM     44  O   UNL     1       1.302   0.739  -1.174  1.00  0.00    -0.246 OA
BRANCH  43  45
ATOM     45  C   UNL     1      -0.841   0.965  -0.204  1.00  0.00     0.060 A 
ATOM     46  C   UNL     1      -1.572   0.088  -1.010  1.00  0.00     0.016 A 
ATOM     47  C   UNL     1      -1.467   1.978   0.528  1.00  0.00     0.016 A 
ATOM     48  C   UNL     1      -2.940   0.249  -1.127  1.00  0.00     0.010 A 
ATOM     49  C   UNL     1      -2.845   2.158   0.388  1.00  0.00     0.010 A 
ATOM     50  C   UNL     1      -3.568   1.319  -0.476  1.00  0.00    -0.014 A 
BRANCH  50  51
ATOM     51  C   UNL     1      -4.928   1.659  -0.935  1.00  0.00     0.031 A 
ATOM     52  C   UNL     1      -5.053   2.631  -2.072  1.00  0.00     0.074 A 
ATOM     53  C   UNL     1      -5.988   0.982  -0.465  1.00  0.00     0.049 A 
ATOM     54  N   UNL     1      -6.102   2.934  -2.791  1.00  0.00    -0.248 NA
ATOM     55  C   UNL     1      -3.824   3.343  -2.466  1.00  0.00     0.031 C 
ATOM     56  C   UNL     1      -5.947  -0.022   0.597  1.00  0.00     0.029 A 
ATOM     57  N   UNL     1      -7.300   1.011  -0.856  1.00  0.00    -0.354 N 
ATOM     58  C   UNL     1      -5.653   3.857  -3.729  1.00  0.00     0.074 A 
ATOM     59  C   UNL     1      -4.253   4.095  -3.466  1.00  0.00     0.031 C 
ATOM     60  C   UNL     1      -7.179  -0.534   0.759  1.00  0.00     0.029 A 
ATOM     61  C   UNL     1      -8.091   0.116  -0.180  1.00  0.00     0.049 A 
ATOM     62  H   UNL     1      -7.643   1.615  -1.554  1.00  0.00     0.167 HD
ATOM     63  C   UNL     1      -6.349   4.443  -4.730  1.00  0.00     0.031 A 
ATOM     64  C   UNL     1      -9.402  -0.151  -0.321  1.00  0.00     0.031 A 
ATOM     65  C   UNL     1      -7.749   4.217  -4.960  1.00  0.00     0.049 A 
ATOM     66  C   UNL     1     -10.169   0.563  -1.401  1.00  0.00     0.074 A 
ATOM     67  C   UNL     1      -8.571   4.776  -5.920  1.00  0.00     0.029 A 
ATOM     68  N   UNL     1      -8.534   3.358  -4.204  1.00  0.00    -0.354 N 
ATOM     69  N   UNL     1      -9.736   1.425  -2.291  1.00  0.00    -0.248 NA
ATOM     70  C   UNL     1     -11.600   0.253  -1.508  1.00  0.00     0.031 C 
ATOM     71  C   UNL     1      -9.867   4.290  -5.714  1.00  0.00     0.029 A 
ATOM     72  C   UNL     1      -9.838   3.384  -4.663  1.00  0.00     0.049 A 
ATOM     73  H   UNL     1      -8.210   2.811  -3.452  1.00  0.00     0.167 HD
ATOM     74  C   UNL     1     -10.834   1.743  -3.079  1.00  0.00     0.074 A 
ATOM     75  C   UNL     1     -11.947   0.963  -2.572  1.00  0.00     0.031 C 
ATOM     76  C   UNL     1     -10.921   2.599  -4.127  1.00  0.00     0.031 A 
BRANCH  63  77
ATOM     77  C   UNL     1      -5.605   5.413  -5.604  1.00  0.00    -0.014 A 
ATOM     78  C   UNL     1      -4.636   4.976  -6.523  1.00  0.00     0.009 A 
ATOM     79  C   UNL     1      -5.863   6.788  -5.494  1.00  0.00     0.009 A 
ATOM     80  C   UNL     1      -3.917   5.899  -7.286  1.00  0.00     0.001 A 
ATOM     81  C   UNL     1      -5.161   7.706  -6.277  1.00  0.00     0.001 A 
ATOM     82  C   UNL     1      -4.182   7.262  -7.165  1.00  0.00     0.000 A 
ENDBRANCH  63  77
BRANCH  64  83
ATOM     83  C   UNL     1     -10.062  -1.138   0.573  1.00  0.00    -0.014 A 
ATOM     84  C   UNL     1     -10.530  -2.365   0.080  1.00  0.00     0.009 A 
ATOM     85  C   UNL     1     -10.230  -0.851   1.938  1.00  0.00     0.009 A 
ATOM     86  C   UNL     1     -11.171  -3.272   0.929  1.00  0.00     0.001 A 
ATOM     87  C   UNL     1     -10.846  -1.770   2.789  1.00  0.00     0.001 A 
ATOM     88  C   UNL     1     -11.324  -2.977   2.283  1.00  0.00     0.000 A 
ENDBRANCH  64  83
BRANCH  76  89
ATOM     89  C   UNL     1     -12.257   2.707  -4.802  1.00  0.00    -0.014 A 
ATOM     90  C   UNL     1     -13.335   3.361  -4.185  1.00  0.00     0.009 A 
ATOM     91  C   UNL     1     -12.429   2.169  -6.087  1.00  0.00     0.009 A 
ATOM     92  C   UNL     1     -14.572   3.434  -4.825  1.00  0.00     0.001 A 
ATOM     93  C   UNL     1     -13.659   2.271  -6.737  1.00  0.00     0.001 A 
ATOM     94  C   UNL     1     -14.732   2.892  -6.100  1.00  0.00     0.000 A 
ENDBRANCH  76  89
ENDBRANCH  50  51
ENDBRANCH  43  45
ENDBRANCH  42  43
ENDBRANCH  41  42
ENDBRANCH  40  41
ENDBRANCH  39  40
ENDBRANCH  38  39
ENDBRANCH  37  38
ENDBRANCH  36  37
ENDBRANCH   1  36
TORSDOF 25
