REMARK SMILES COc1cc([C@H]2[NH2+]CCC3=c4ccccc4=N[C@H]32)ccc1OCC(=O)OCCOCCOCCOCCOC(=O)c1ccc(-c2c3nc(c(-c4ccccc4)c4ccc([nH]4)c(-c4ccccc4)c4nc(c(-c5ccccc5)c5ccc2[nH]5)C=C4)C=C3)cc1
REMARK SMILES IDX 31 1 30 2 29 3 28 4 27 5 26 6 24 7 25 8 23 9 22 10 21 11
REMARK SMILES IDX 3 12 4 13 5 14 20 15 19 16 2 17 1 18 6 19 7 20 18 21 8 22
REMARK SMILES IDX 10 25 17 26 9 27 11 28 16 29 12 30 15 31 13 32 14 33 32 34
REMARK SMILES IDX 33 35 34 36 35 37 36 38 37 39 38 40 39 41 40 42 41 43 42 44
REMARK SMILES IDX 88 45 43 46 87 47 44 48 45 49 46 50 81 51 47 52 86 53 80 54
REMARK SMILES IDX 82 55 48 56 85 57 79 58 78 59 49 61 71 62 56 63 70 64 57 65
REMARK SMILES IDX 60 66 69 67 83 68 58 69 59 70 68 72 84 73 61 74 50 75 51 76
REMARK SMILES IDX 55 77 52 78 54 79 53 80 72 81 73 82 77 83 74 84 76 85 75 86
REMARK SMILES IDX 62 87 63 88 67 89 64 90 66 91 65 92
REMARK H PARENT 7 23 7 24 82 60 60 71
REMARK Flexibility Score: inf
ROOT
ATOM      1  C   UNL     1      -0.052   1.309  10.662  1.00  0.00     0.188 C 
ENDROOT
BRANCH   1   2
ATOM      2  C   UNL     1       0.459  -0.138  10.673  1.00  0.00     0.188 C 
BRANCH   2   3
ATOM      3  O   UNL     1       0.122  -1.001  11.739  1.00  0.00    -0.376 OA
BRANCH   3   4
ATOM      4  C   UNL     1       0.099  -0.487  13.054  1.00  0.00     0.202 C 
BRANCH   4   5
ATOM      5  C   UNL     1       1.219   0.434  13.584  1.00  0.00     0.261 C 
BRANCH   5   6
ATOM      6  O   UNL     1       1.880   1.310  12.651  1.00  0.00    -0.461 OA
BRANCH   6   7
ATOM      7  C   UNL     1       3.042   0.876  12.086  1.00  0.00     0.344 C 
ATOM      8  O   UNL     1       3.606  -0.170  12.384  1.00  0.00    -0.248 OA
BRANCH   7   9
ATOM      9  C   UNL     1       3.610   1.879  11.050  1.00  0.00     0.352 C 
BRANCH   9  10
ATOM     10  O   UNL     1       2.924   2.549  10.024  1.00  0.00    -0.478 OA
BRANCH  10  11
ATOM     11  C   UNL     1       2.444   2.316   8.780  1.00  0.00     0.162 A 
ATOM     12  C   UNL     1       2.265   1.222   7.934  1.00  0.00     0.161 A 
ATOM     13  C   UNL     1       1.495   1.387   6.715  1.00  0.00     0.060 A 
ATOM     14  C   UNL     1       0.888   2.597   6.293  1.00  0.00     0.016 A 
ATOM     15  C   UNL     1       1.892   3.529   8.318  1.00  0.00     0.051 A 
ATOM     16  C   UNL     1       1.134   3.664   7.140  1.00  0.00     0.014 A 
BRANCH  12  17
ATOM     17  O   UNL     1       2.618  -0.090   8.068  1.00  0.00    -0.493 OA
ATOM     18  C   UNL     1       3.688  -0.495   8.893  1.00  0.00     0.278 C 
ENDBRANCH  12  17
BRANCH  14  19
ATOM     19  C   UNL     1       0.017   2.677   4.997  1.00  0.00     0.243 C 
ATOM     20  N   UNL     1      -1.076   1.683   5.111  1.00  0.00    -0.338 N 
ATOM     21  C   UNL     1      -0.536   4.062   4.434  1.00  0.00     0.196 C 
ATOM     22  C   UNL     1      -2.452   1.983   4.715  1.00  0.00     0.265 C 
ATOM     23  H   UNL     1      -1.115   1.417   6.095  1.00  0.00     0.346 HD
ATOM     24  H   UNL     1      -0.803   0.990   4.415  1.00  0.00     0.346 HD
ATOM     25  C   UNL     1      -1.866   4.419   5.030  1.00  0.00    -0.025 C 
ATOM     26  N   UNL     1       0.329   5.248   4.684  1.00  0.00    -0.270 NA
ATOM     27  C   UNL     1      -2.969   3.437   4.862  1.00  0.00     0.095 C 
ATOM     28  C   UNL     1      -1.800   5.559   5.708  1.00  0.00     0.001 A 
ATOM     29  C   UNL     1      -0.435   6.021   5.403  1.00  0.00     0.066 A 
ATOM     30  C   UNL     1      -2.669   6.288   6.573  1.00  0.00     0.010 A 
ATOM     31  C   UNL     1      -0.029   7.306   6.016  1.00  0.00     0.028 A 
ATOM     32  C   UNL     1      -2.206   7.408   7.154  1.00  0.00     0.001 A 
ATOM     33  C   UNL     1      -0.877   7.920   6.859  1.00  0.00     0.002 A 
ENDBRANCH  14  19
ENDBRANCH  10  11
ENDBRANCH   9  10
ENDBRANCH   7   9
ENDBRANCH   6   7
ENDBRANCH   5   6
ENDBRANCH   4   5
ENDBRANCH   3   4
ENDBRANCH   2   3
ENDBRANCH   1   2
BRANCH   1  34
ATOM     34  O   UNL     1      -1.083   1.659  11.553  1.00  0.00    -0.377 OA
BRANCH  34  35
ATOM     35  C   UNL     1      -2.410   1.240  11.309  1.00  0.00     0.188 C 
BRANCH  35  36
ATOM     36  C   UNL     1      -2.768   0.166  10.269  1.00  0.00     0.188 C 
BRANCH  36  37
ATOM     37  O   UNL     1      -1.874   0.006   9.189  1.00  0.00    -0.376 OA
BRANCH  37  38
ATOM     38  C   UNL     1      -2.113   0.694   7.975  1.00  0.00     0.202 C 
BRANCH  38  39
ATOM     39  C   UNL     1      -2.041   2.218   8.029  1.00  0.00     0.261 C 
BRANCH  39  40
ATOM     40  O   UNL     1      -3.033   2.821   8.828  1.00  0.00    -0.460 OA
BRANCH  40  41
ATOM     41  C   UNL     1      -4.308   2.651   8.445  1.00  0.00     0.338 C 
ATOM     42  O   UNL     1      -4.782   2.007   7.532  1.00  0.00    -0.246 OA
BRANCH  41  43
ATOM     43  C   UNL     1      -5.019   3.324   9.513  1.00  0.00     0.060 A 
ATOM     44  C   UNL     1      -5.745   2.542  10.410  1.00  0.00     0.016 A 
ATOM     45  C   UNL     1      -4.753   4.683   9.723  1.00  0.00     0.016 A 
ATOM     46  C   UNL     1      -6.237   3.148  11.546  1.00  0.00     0.010 A 
ATOM     47  C   UNL     1      -5.249   5.288  10.855  1.00  0.00     0.010 A 
ATOM     48  C   UNL     1      -6.013   4.520  11.740  1.00  0.00    -0.014 A 
BRANCH  48  49
ATOM     49  C   UNL     1      -6.773   5.198  12.784  1.00  0.00     0.031 A 
ATOM     50  C   UNL     1      -8.082   5.792  12.383  1.00  0.00     0.074 A 
ATOM     51  C   UNL     1      -6.301   5.204  14.036  1.00  0.00     0.049 A 
ATOM     52  N   UNL     1      -9.003   6.328  13.132  1.00  0.00    -0.248 NA
ATOM     53  C   UNL     1      -8.402   5.774  10.942  1.00  0.00     0.031 C 
ATOM     54  C   UNL     1      -5.026   4.625  14.465  1.00  0.00     0.029 A 
ATOM     55  N   UNL     1      -6.855   5.699  15.178  1.00  0.00    -0.354 N 
ATOM     56  C   UNL     1     -10.016   6.693  12.257  1.00  0.00     0.074 A 
ATOM     57  C   UNL     1      -9.582   6.368  10.920  1.00  0.00     0.031 C 
ATOM     58  C   UNL     1      -4.908   4.779  15.794  1.00  0.00     0.029 A 
ATOM     59  C   UNL     1      -6.087   5.481  16.292  1.00  0.00     0.049 A 
ATOM     60  H   UNL     1      -7.721   6.166  15.201  1.00  0.00     0.167 HD
ATOM     61  C   UNL     1     -11.212   7.241  12.562  1.00  0.00     0.031 A 
ATOM     62  C   UNL     1      -6.335   5.816  17.568  1.00  0.00     0.031 A 
ATOM     63  C   UNL     1     -11.581   7.591  13.904  1.00  0.00     0.049 A 
ATOM     64  C   UNL     1      -7.649   6.482  17.870  1.00  0.00     0.074 A 
ATOM     65  C   UNL     1     -12.752   8.162  14.359  1.00  0.00     0.029 A 
ATOM     66  N   UNL     1     -10.759   7.409  15.010  1.00  0.00    -0.354 N 
ATOM     67  N   UNL     1      -8.630   6.787  17.051  1.00  0.00    -0.248 NA
ATOM     68  C   UNL     1      -7.899   6.833  19.271  1.00  0.00     0.031 C 
ATOM     69  C   UNL     1     -12.612   8.384  15.734  1.00  0.00     0.029 A 
ATOM     70  C   UNL     1     -11.384   7.884  16.147  1.00  0.00     0.049 A 
ATOM     71  H   UNL     1      -9.863   7.001  14.987  1.00  0.00     0.167 HD
ATOM     72  C   UNL     1      -9.626   7.345  17.839  1.00  0.00     0.074 A 
ATOM     73  C   UNL     1      -9.133   7.311  19.205  1.00  0.00     0.031 C 
ATOM     74  C   UNL     1     -10.837   7.843  17.480  1.00  0.00     0.031 A 
BRANCH  61  75
ATOM     75  C   UNL     1     -12.144   7.529  11.421  1.00  0.00    -0.014 A 
ATOM     76  C   UNL     1     -12.742   6.493  10.682  1.00  0.00     0.009 A 
ATOM     77  C   UNL     1     -12.411   8.857  11.060  1.00  0.00     0.009 A 
ATOM     78  C   UNL     1     -13.558   6.783   9.586  1.00  0.00     0.001 A 
ATOM     79  C   UNL     1     -13.251   9.145   9.983  1.00  0.00     0.001 A 
ATOM     80  C   UNL     1     -13.816   8.109   9.241  1.00  0.00     0.000 A 
ENDBRANCH  61  75
BRANCH  62  81
ATOM     81  C   UNL     1      -5.339   5.511  18.625  1.00  0.00    -0.014 A 
ATOM     82  C   UNL     1      -5.605   4.553  19.614  1.00  0.00     0.009 A 
ATOM     83  C   UNL     1      -4.097   6.168  18.637  1.00  0.00     0.009 A 
ATOM     84  C   UNL     1      -4.660   4.277  20.606  1.00  0.00     0.001 A 
ATOM     85  C   UNL     1      -3.143   5.869  19.611  1.00  0.00     0.001 A 
ATOM     86  C   UNL     1      -3.429   4.931  20.601  1.00  0.00     0.000 A 
ENDBRANCH  62  81
BRANCH  74  87
ATOM     87  C   UNL     1     -11.700   8.364  18.593  1.00  0.00    -0.014 A 
ATOM     88  C   UNL     1     -11.376   9.546  19.276  1.00  0.00     0.009 A 
ATOM     89  C   UNL     1     -12.868   7.668  18.944  1.00  0.00     0.009 A 
ATOM     90  C   UNL     1     -12.180   9.995  20.324  1.00  0.00     0.001 A 
ATOM     91  C   UNL     1     -13.690   8.141  19.966  1.00  0.00     0.001 A 
ATOM     92  C   UNL     1     -13.337   9.294  20.664  1.00  0.00     0.000 A 
ENDBRANCH  74  87
ENDBRANCH  48  49
ENDBRANCH  41  43
ENDBRANCH  40  41
ENDBRANCH  39  40
ENDBRANCH  38  39
ENDBRANCH  37  38
ENDBRANCH  36  37
ENDBRANCH  35  36
ENDBRANCH  34  35
ENDBRANCH   1  34
TORSDOF 24
