REMARK SMILES NS(=O)(=O)c1ccc(-c2cc(Cl)cc3c2O[C@@H](C(F)(F)F)C(C(=O)OCCOCCOCCOCCOC(=O)c2ccc(-c4c5nc(c(-c6ccccc6)c6ccc([nH]6)c(-c6ccccc6)c6nc(c(-c7ccccc7)c7ccc4[nH]7)C=C6)C=C5)cc2)=C3)cc1
REMARK SMILES IDX 30 1 29 2 28 3 27 4 26 5 25 6 23 7 24 8 22 9 9 10 10 11
REMARK SMILES IDX 15 12 11 13 14 14 16 15 12 16 13 17 88 18 17 19 8 20 5 21
REMARK SMILES IDX 6 22 90 23 7 24 89 25 2 26 3 27 4 28 1 29 18 32 19 33 20 34
REMARK SMILES IDX 21 35 31 36 32 37 33 38 34 39 35 40 36 41 37 42 38 43 39 44
REMARK SMILES IDX 40 45 41 46 87 47 42 48 86 49 43 50 44 51 45 52 80 53 46 54
REMARK SMILES IDX 85 55 79 56 81 57 47 58 84 59 78 60 77 61 48 63 70 64 55 65
REMARK SMILES IDX 69 66 56 67 59 68 68 69 82 70 57 71 58 72 67 74 83 75 60 76
REMARK SMILES IDX 49 77 50 78 54 79 51 80 53 81 52 82 71 83 72 84 76 85 73 86
REMARK SMILES IDX 75 87 74 88 61 89 62 90 66 91 63 92 65 93 64 94
REMARK H PARENT 1 30 1 31 81 62 59 73
REMARK Flexibility Score: inf
ROOT
ATOM      1  C   UNL     1       3.450 -11.726  -3.752  1.00  0.00     0.188 C 
ENDROOT
BRANCH   1   2
ATOM      2  C   UNL     1       2.439 -10.750  -4.366  1.00  0.00     0.188 C 
BRANCH   2   3
ATOM      3  O   UNL     1       1.713 -11.278  -5.471  1.00  0.00    -0.376 OA
BRANCH   3   4
ATOM      4  C   UNL     1       2.170 -10.963  -6.782  1.00  0.00     0.202 C 
BRANCH   4   5
ATOM      5  C   UNL     1       3.657 -11.189  -7.078  1.00  0.00     0.261 C 
BRANCH   5   6
ATOM      6  O   UNL     1       4.474 -10.268  -6.321  1.00  0.00    -0.460 OA
BRANCH   6   7
ATOM      7  C   UNL     1       4.687  -9.068  -6.882  1.00  0.00     0.338 C 
ATOM      8  O   UNL     1       4.374  -8.771  -8.028  1.00  0.00    -0.246 OA
BRANCH   7   9
ATOM      9  C   UNL     1       5.200  -8.068  -5.911  1.00  0.00     0.087 C 
ATOM     10  C   UNL     1       2.596  -7.105  -2.819  1.00  0.00     0.026 A 
ATOM     11  C   UNL     1       1.317  -7.456  -3.306  1.00  0.00     0.033 A 
ATOM     12  C   UNL     1       3.647  -7.232  -3.753  1.00  0.00     0.135 A 
ATOM     13  C   UNL     1       1.065  -7.498  -4.677  1.00  0.00     0.042 A 
ATOM     14  C   UNL     1       3.371  -7.035  -5.115  1.00  0.00     0.019 A 
ATOM     15  O   UNL     1       4.778  -7.996  -3.419  1.00  0.00    -0.475 OA
ATOM     16  Cl  UNL     1      -0.512  -7.876  -5.239  1.00  0.00    -0.084 Cl
ATOM     17  C   UNL     1       2.069  -7.176  -5.583  1.00  0.00     0.032 A 
ATOM     18  C   UNL     1       4.511  -6.919  -6.050  1.00  0.00     0.027 C 
ATOM     19  C   UNL     1       5.749  -8.299  -4.513  1.00  0.00     0.316 C 
BRANCH  10  20
ATOM     20  C   UNL     1       2.535  -6.002  -1.786  1.00  0.00    -0.015 A 
ATOM     21  C   UNL     1       1.684  -3.678  -0.372  1.00  0.00     0.082 A 
ATOM     22  C   UNL     1       1.230  -4.941   0.011  1.00  0.00     0.022 A 
ATOM     23  C   UNL     1       2.620  -3.563  -1.397  1.00  0.00     0.022 A 
ATOM     24  C   UNL     1       1.667  -6.088  -0.676  1.00  0.00     0.010 A 
ATOM     25  C   UNL     1       3.043  -4.716  -2.089  1.00  0.00     0.010 A 
BRANCH  21  26
ATOM     26  S   UNL     1       0.969  -2.261   0.420  1.00  0.00     0.238 S 
ATOM     27  O   UNL     1       1.492  -2.174   1.760  1.00  0.00    -0.207 OA
ATOM     28  O   UNL     1      -0.450  -2.249   0.132  1.00  0.00    -0.207 OA
BRANCH  26  29
ATOM     29  N   UNL     1       1.585  -0.921  -0.392  1.00  0.00    -0.225 NA
ATOM     30  H   UNL     1       1.206  -0.069   0.022  1.00  0.00     0.137 HD
ATOM     31  H   UNL     1       1.319  -0.968  -1.376  1.00  0.00     0.137 HD
ENDBRANCH  26  29
ENDBRANCH  21  26
ENDBRANCH  10  20
BRANCH  19  32
ATOM     32  C   UNL     1       6.649  -9.543  -4.288  1.00  0.00     0.430 C 
ATOM     33  F   UNL     1       7.837  -9.359  -4.927  1.00  0.00    -0.167 F 
ATOM     34  F   UNL     1       6.942  -9.707  -2.976  1.00  0.00    -0.167 F 
ATOM     35  F   UNL     1       6.167 -10.713  -4.731  1.00  0.00    -0.167 F 
ENDBRANCH  19  32
ENDBRANCH   7   9
ENDBRANCH   6   7
ENDBRANCH   5   6
ENDBRANCH   4   5
ENDBRANCH   3   4
ENDBRANCH   2   3
ENDBRANCH   1   2
BRANCH   1  36
ATOM     36  O   UNL     1       3.687 -12.880  -4.534  1.00  0.00    -0.377 OA
BRANCH  36  37
ATOM     37  C   UNL     1       2.679 -13.887  -4.573  1.00  0.00     0.188 C 
BRANCH  37  38
ATOM     38  C   UNL     1       1.261 -13.675  -3.988  1.00  0.00     0.188 C 
BRANCH  38  39
ATOM     39  O   UNL     1       1.210 -12.882  -2.808  1.00  0.00    -0.376 OA
BRANCH  39  40
ATOM     40  C   UNL     1       0.917 -13.550  -1.590  1.00  0.00     0.202 C 
BRANCH  40  41
ATOM     41  C   UNL     1       2.099 -14.332  -1.006  1.00  0.00     0.261 C 
BRANCH  41  42
ATOM     42  O   UNL     1       2.591 -15.394  -1.837  1.00  0.00    -0.460 OA
BRANCH  42  43
ATOM     43  C   UNL     1       1.738 -16.401  -2.132  1.00  0.00     0.338 C 
ATOM     44  O   UNL     1       0.598 -16.547  -1.737  1.00  0.00    -0.246 OA
BRANCH  43  45
ATOM     45  C   UNL     1       2.373 -17.205  -3.196  1.00  0.00     0.060 A 
ATOM     46  C   UNL     1       1.719 -17.343  -4.428  1.00  0.00     0.016 A 
ATOM     47  C   UNL     1       3.640 -17.756  -2.998  1.00  0.00     0.016 A 
ATOM     48  C   UNL     1       2.337 -18.037  -5.470  1.00  0.00     0.010 A 
ATOM     49  C   UNL     1       4.245 -18.472  -4.030  1.00  0.00     0.010 A 
ATOM     50  C   UNL     1       3.591 -18.627  -5.265  1.00  0.00    -0.014 A 
BRANCH  50  51
ATOM     51  C   UNL     1       4.175 -19.533  -6.279  1.00  0.00     0.031 A 
ATOM     52  C   UNL     1       3.950 -21.010  -6.133  1.00  0.00     0.074 A 
ATOM     53  C   UNL     1       4.936 -19.060  -7.280  1.00  0.00     0.049 A 
ATOM     54  N   UNL     1       4.452 -21.998  -6.826  1.00  0.00    -0.248 NA
ATOM     55  C   UNL     1       3.041 -21.425  -5.052  1.00  0.00     0.031 C 
ATOM     56  C   UNL     1       5.206 -17.649  -7.545  1.00  0.00     0.029 A 
ATOM     57  N   UNL     1       5.647 -19.730  -8.245  1.00  0.00    -0.354 N 
ATOM     58  C   UNL     1       3.934 -23.153  -6.256  1.00  0.00     0.074 A 
ATOM     59  C   UNL     1       3.092 -22.744  -5.153  1.00  0.00     0.031 C 
ATOM     60  C   UNL     1       6.051 -17.559  -8.588  1.00  0.00     0.029 A 
ATOM     61  C   UNL     1       6.409 -18.905  -9.034  1.00  0.00     0.049 A 
ATOM     62  H   UNL     1       5.614 -20.707  -8.359  1.00  0.00     0.167 HD
ATOM     63  C   UNL     1       4.146 -24.441  -6.616  1.00  0.00     0.031 A 
ATOM     64  C   UNL     1       7.323 -19.203  -9.978  1.00  0.00     0.031 A 
ATOM     65  C   UNL     1       5.007 -24.847  -7.693  1.00  0.00     0.049 A 
ATOM     66  C   UNL     1       7.611 -20.645 -10.305  1.00  0.00     0.074 A 
ATOM     67  C   UNL     1       5.255 -26.125  -8.163  1.00  0.00     0.029 A 
ATOM     68  N   UNL     1       5.782 -23.984  -8.451  1.00  0.00    -0.354 N 
ATOM     69  N   UNL     1       7.073 -21.730  -9.801  1.00  0.00    -0.248 NA
ATOM     70  C   UNL     1       8.635 -20.902 -11.328  1.00  0.00     0.031 C 
ATOM     71  C   UNL     1       6.235 -26.040  -9.157  1.00  0.00     0.029 A 
ATOM     72  C   UNL     1       6.549 -24.704  -9.351  1.00  0.00     0.049 A 
ATOM     73  H   UNL     1       5.787 -23.003  -8.363  1.00  0.00     0.167 HD
ATOM     74  C   UNL     1       7.684 -22.795 -10.452  1.00  0.00     0.074 A 
ATOM     75  C   UNL     1       8.618 -22.226 -11.402  1.00  0.00     0.031 C 
ATOM     76  C   UNL     1       7.490 -24.126 -10.276  1.00  0.00     0.031 A 
BRANCH  63  77
ATOM     77  C   UNL     1       3.477 -25.502  -5.789  1.00  0.00    -0.014 A 
ATOM     78  C   UNL     1       2.088 -25.702  -5.834  1.00  0.00     0.009 A 
ATOM     79  C   UNL     1       4.255 -26.319  -4.954  1.00  0.00     0.009 A 
ATOM     80  C   UNL     1       1.489 -26.672  -5.028  1.00  0.00     0.001 A 
ATOM     81  C   UNL     1       3.657 -27.307  -4.172  1.00  0.00     0.001 A 
ATOM     82  C   UNL     1       2.273 -27.475  -4.200  1.00  0.00     0.000 A 
ENDBRANCH  63  77
BRANCH  64  83
ATOM     83  C   UNL     1       8.075 -18.108 -10.647  1.00  0.00    -0.014 A 
ATOM     84  C   UNL     1       7.847 -17.797 -11.995  1.00  0.00     0.009 A 
ATOM     85  C   UNL     1       9.026 -17.364  -9.930  1.00  0.00     0.009 A 
ATOM     86  C   UNL     1       8.565 -16.771 -12.614  1.00  0.00     0.001 A 
ATOM     87  C   UNL     1       9.722 -16.321 -10.544  1.00  0.00     0.001 A 
ATOM     88  C   UNL     1       9.496 -16.029 -11.887  1.00  0.00     0.000 A 
ENDBRANCH  64  83
BRANCH  76  89
ATOM     89  C   UNL     1       8.300 -25.064 -11.129  1.00  0.00    -0.014 A 
ATOM     90  C   UNL     1       9.670 -25.259 -10.892  1.00  0.00     0.009 A 
ATOM     91  C   UNL     1       7.673 -25.807 -12.141  1.00  0.00     0.009 A 
ATOM     92  C   UNL     1      10.399 -26.162 -11.668  1.00  0.00     0.001 A 
ATOM     93  C   UNL     1       8.398 -26.731 -12.896  1.00  0.00     0.001 A 
ATOM     94  C   UNL     1       9.762 -26.902 -12.664  1.00  0.00     0.000 A 
ENDBRANCH  76  89
ENDBRANCH  50  51
ENDBRANCH  43  45
ENDBRANCH  42  43
ENDBRANCH  41  42
ENDBRANCH  40  41
ENDBRANCH  39  40
ENDBRANCH  38  39
ENDBRANCH  37  38
ENDBRANCH  36  37
ENDBRANCH   1  36
TORSDOF 24
