REMARK SMILES Cc1nnc(S[C@@H](C)CCO)c(C(=O)OCCOCCOCCOCCOC(=O)c2ccc(-c3c4nc(c(-c5ccccc5)c5ccc([nH]5)c(-c5ccccc5)c5nc(c(-c6ccccc6)c6ccc3[nH]6)C=C5)C=C4)cc2)c1C
REMARK SMILES IDX 19 1 18 2 17 3 16 4 15 5 13 6 14 7 12 8 1 9 2 10 3 11 78 12
REMARK SMILES IDX 4 13 79 14 5 15 6 16 7 17 8 18 9 19 10 20 11 21 20 23 21 24
REMARK SMILES IDX 22 25 23 26 24 27 25 28 26 29 27 30 28 31 29 32 30 33 31 34
REMARK SMILES IDX 77 35 32 36 76 37 33 38 34 39 35 40 70 41 36 42 75 43 69 44
REMARK SMILES IDX 71 45 37 46 74 47 68 48 67 49 38 51 60 52 45 53 59 54 46 55
REMARK SMILES IDX 49 56 58 57 72 58 47 59 48 60 57 62 73 63 50 64 39 65 40 66
REMARK SMILES IDX 44 67 41 68 43 69 42 70 61 71 62 72 66 73 63 74 65 75 64 76
REMARK SMILES IDX 51 77 52 78 56 79 53 80 55 81 54 82
REMARK H PARENT 11 22 71 50 49 61
REMARK Flexibility Score: inf
ROOT
ATOM      1  C   UNL     1      -0.776   5.141   2.037  1.00  0.00     0.188 C 
ENDROOT
BRANCH   1   2
ATOM      2  O   UNL     1      -0.125   6.396   2.181  1.00  0.00    -0.376 OA
BRANCH   2   3
ATOM      3  C   UNL     1       1.204   6.483   2.671  1.00  0.00     0.202 C 
BRANCH   3   4
ATOM      4  C   UNL     1       2.240   5.826   1.773  1.00  0.00     0.261 C 
BRANCH   4   5
ATOM      5  O   UNL     1       1.997   4.418   1.710  1.00  0.00    -0.460 OA
BRANCH   5   6
ATOM      6  C   UNL     1       2.340   3.652   2.774  1.00  0.00     0.341 C 
ATOM      7  O   UNL     1       3.034   3.999   3.708  1.00  0.00    -0.246 OA
BRANCH   6   8
ATOM      8  C   UNL     1       1.570   2.396   2.644  1.00  0.00     0.098 A 
ATOM      9  C   UNL     1       0.623  -0.217   0.003  1.00  0.00     0.069 C 
ATOM     10  C   UNL     1       0.709   0.610   1.251  1.00  0.00     0.064 A 
ATOM     11  N   UNL     1      -0.019   0.182   2.294  1.00  0.00    -0.155 NA
ATOM     12  C   UNL     1       1.496   1.752   1.363  1.00  0.00    -0.011 A 
ATOM     13  N   UNL     1       0.058   0.818   3.521  1.00  0.00    -0.143 NA
ATOM     14  C   UNL     1       2.192   2.294   0.133  1.00  0.00     0.047 C 
ATOM     15  C   UNL     1       0.861   1.885   3.738  1.00  0.00     0.134 A 
BRANCH  15  16
ATOM     16  S   UNL     1       1.069   2.129   5.490  1.00  0.00    -0.100 SA
BRANCH  16  17
ATOM     17  C   UNL     1       0.602   3.813   6.124  1.00  0.00     0.052 C 
ATOM     18  C   UNL     1       1.890   4.597   6.410  1.00  0.00     0.020 C 
BRANCH  17  19
ATOM     19  C   UNL     1      -0.409   4.697   5.399  1.00  0.00     0.043 C 
BRANCH  19  20
ATOM     20  C   UNL     1      -1.879   4.337   5.547  1.00  0.00     0.157 C 
BRANCH  20  21
ATOM     21  O   UNL     1      -2.300   4.528   6.890  1.00  0.00    -0.396 OA
ATOM     22  H   UNL     1      -1.779   3.957   7.476  1.00  0.00     0.210 HD
ENDBRANCH  20  21
ENDBRANCH  19  20
ENDBRANCH  17  19
ENDBRANCH  16  17
ENDBRANCH  15  16
ENDBRANCH   6   8
ENDBRANCH   5   6
ENDBRANCH   4   5
ENDBRANCH   3   4
ENDBRANCH   2   3
ENDBRANCH   1   2
BRANCH   1  23
ATOM     23  C   UNL     1      -1.255   4.769   0.622  1.00  0.00     0.188 C 
BRANCH  23  24
ATOM     24  O   UNL     1      -1.401   5.748  -0.396  1.00  0.00    -0.377 OA
BRANCH  24  25
ATOM     25  C   UNL     1      -1.330   7.112  -0.025  1.00  0.00     0.188 C 
BRANCH  25  26
ATOM     26  C   UNL     1      -2.381   7.638   0.978  1.00  0.00     0.188 C 
BRANCH  26  27
ATOM     27  O   UNL     1      -3.137   6.618   1.630  1.00  0.00    -0.376 OA
BRANCH  27  28
ATOM     28  C   UNL     1      -4.550   6.718   1.490  1.00  0.00     0.202 C 
BRANCH  28  29
ATOM     29  C   UNL     1      -5.066   5.999   0.238  1.00  0.00     0.261 C 
BRANCH  29  30
ATOM     30  O   UNL     1      -4.462   6.444  -0.984  1.00  0.00    -0.460 OA
BRANCH  30  31
ATOM     31  C   UNL     1      -4.688   7.726  -1.343  1.00  0.00     0.338 C 
ATOM     32  O   UNL     1      -5.426   8.527  -0.800  1.00  0.00    -0.246 OA
BRANCH  31  33
ATOM     33  C   UNL     1      -3.693   8.072  -2.378  1.00  0.00     0.060 A 
ATOM     34  C   UNL     1      -2.920   9.229  -2.197  1.00  0.00     0.016 A 
ATOM     35  C   UNL     1      -3.472   7.231  -3.472  1.00  0.00     0.016 A 
ATOM     36  C   UNL     1      -1.911   9.538  -3.107  1.00  0.00     0.010 A 
ATOM     37  C   UNL     1      -2.519   7.584  -4.425  1.00  0.00     0.010 A 
ATOM     38  C   UNL     1      -1.762   8.755  -4.261  1.00  0.00    -0.014 A 
BRANCH  38  39
ATOM     39  C   UNL     1      -1.095   9.345  -5.441  1.00  0.00     0.031 A 
ATOM     40  C   UNL     1      -1.873  10.387  -6.200  1.00  0.00     0.074 A 
ATOM     41  C   UNL     1       0.127   8.964  -5.849  1.00  0.00     0.049 A 
ATOM     42  N   UNL     1      -1.546  11.040  -7.283  1.00  0.00    -0.248 NA
ATOM     43  C   UNL     1      -3.195  10.754  -5.655  1.00  0.00     0.031 C 
ATOM     44  C   UNL     1       0.996   8.005  -5.170  1.00  0.00     0.029 A 
ATOM     45  N   UNL     1       0.843   9.347  -6.955  1.00  0.00    -0.354 N 
ATOM     46  C   UNL     1      -2.602  11.909  -7.521  1.00  0.00     0.074 A 
ATOM     47  C   UNL     1      -3.583  11.704  -6.486  1.00  0.00     0.031 C 
ATOM     48  C   UNL     1       2.128   7.865  -5.886  1.00  0.00     0.029 A 
ATOM     49  C   UNL     1       2.047   8.701  -7.083  1.00  0.00     0.049 A 
ATOM     50  H   UNL     1       0.523  10.022  -7.596  1.00  0.00     0.167 HD
ATOM     51  C   UNL     1      -2.755  12.795  -8.528  1.00  0.00     0.031 A 
ATOM     52  C   UNL     1       2.962   8.766  -8.070  1.00  0.00     0.031 A 
ATOM     53  C   UNL     1      -1.837  12.933  -9.616  1.00  0.00     0.049 A 
ATOM     54  C   UNL     1       2.703   9.657  -9.258  1.00  0.00     0.074 A 
ATOM     55  C   UNL     1      -1.930  13.755 -10.721  1.00  0.00     0.029 A 
ATOM     56  N   UNL     1      -0.668  12.202  -9.744  1.00  0.00    -0.354 N 
ATOM     57  N   UNL     1       1.699  10.473  -9.475  1.00  0.00    -0.248 NA
ATOM     58  C   UNL     1       3.698   9.628 -10.341  1.00  0.00     0.031 C 
ATOM     59  C   UNL     1      -0.835  13.489 -11.546  1.00  0.00     0.029 A 
ATOM     60  C   UNL     1      -0.038  12.537 -10.926  1.00  0.00     0.049 A 
ATOM     61  H   UNL     1      -0.336  11.543  -9.092  1.00  0.00     0.167 HD
ATOM     62  C   UNL     1       1.945  11.060 -10.710  1.00  0.00     0.074 A 
ATOM     63  C   UNL     1       3.198  10.516 -11.191  1.00  0.00     0.031 C 
ATOM     64  C   UNL     1       1.202  11.970 -11.385  1.00  0.00     0.031 A 
BRANCH  51  65
ATOM     65  C   UNL     1      -3.993  13.637  -8.510  1.00  0.00    -0.014 A 
ATOM     66  C   UNL     1      -4.090  14.743  -7.652  1.00  0.00     0.009 A 
ATOM     67  C   UNL     1      -5.066  13.325  -9.356  1.00  0.00     0.009 A 
ATOM     68  C   UNL     1      -5.249  15.519  -7.637  1.00  0.00     0.001 A 
ATOM     69  C   UNL     1      -6.217  14.113  -9.350  1.00  0.00     0.001 A 
ATOM     70  C   UNL     1      -6.308  15.207  -8.489  1.00  0.00     0.000 A 
ENDBRANCH  51  65
BRANCH  52  71
ATOM     71  C   UNL     1       4.197   7.945  -7.995  1.00  0.00    -0.014 A 
ATOM     72  C   UNL     1       5.433   8.543  -7.710  1.00  0.00     0.009 A 
ATOM     73  C   UNL     1       4.147   6.558  -8.208  1.00  0.00     0.009 A 
ATOM     74  C   UNL     1       6.595   7.771  -7.645  1.00  0.00     0.001 A 
ATOM     75  C   UNL     1       5.308   5.785  -8.125  1.00  0.00     0.001 A 
ATOM     76  C   UNL     1       6.531   6.392  -7.847  1.00  0.00     0.000 A 
ENDBRANCH  52  71
BRANCH  64  77
ATOM     77  C   UNL     1       1.713  12.448 -12.711  1.00  0.00    -0.014 A 
ATOM     78  C   UNL     1       1.574  11.659 -13.862  1.00  0.00     0.009 A 
ATOM     79  C   UNL     1       2.226  13.749 -12.828  1.00  0.00     0.009 A 
ATOM     80  C   UNL     1       1.950  12.164 -15.108  1.00  0.00     0.001 A 
ATOM     81  C   UNL     1       2.581  14.258 -14.077  1.00  0.00     0.001 A 
ATOM     82  C   UNL     1       2.445  13.464 -15.215  1.00  0.00     0.000 A 
ENDBRANCH  64  77
ENDBRANCH  38  39
ENDBRANCH  31  33
ENDBRANCH  30  31
ENDBRANCH  29  30
ENDBRANCH  28  29
ENDBRANCH  27  28
ENDBRANCH  26  27
ENDBRANCH  25  26
ENDBRANCH  24  25
ENDBRANCH  23  24
ENDBRANCH   1  23
TORSDOF 25
