REMARK SMILES Cc1ccccc1[C@H](C(=O)NC[C@H]1CC[C@@H](C(=O)OCCOCCOCCOCCOC(=O)c2ccc(-c3c4nc(c(-c5ccccc5)c5ccc([nH]5)c(-c5ccccc5)c5nc(c(-c6ccccc6)c6ccc3[nH]6)C=C5)C=C4)cc2)CC1)[NH+](C)C
REMARK SMILES IDX 24 1 23 2 22 3 21 4 20 5 19 6 17 7 18 8 16 9 13 10 14 11
REMARK SMILES IDX 83 12 15 13 82 14 12 15 11 16 9 17 10 18 8 20 7 21 1 22 2 23
REMARK SMILES IDX 3 24 4 25 6 26 5 27 84 28 85 29 86 30 25 32 26 33 27 34
REMARK SMILES IDX 28 35 29 36 30 37 31 38 32 39 33 40 34 41 35 42 81 43 36 44
REMARK SMILES IDX 80 45 37 46 38 47 39 48 74 49 40 50 79 51 73 52 75 53 41 54
REMARK SMILES IDX 78 55 72 56 71 57 42 59 64 60 49 61 63 62 50 63 53 64 62 65
REMARK SMILES IDX 76 66 51 67 52 68 61 70 77 71 54 72 43 73 44 74 48 75 45 76
REMARK SMILES IDX 47 77 46 78 65 79 66 80 70 81 67 82 69 83 68 84 55 85 56 86
REMARK SMILES IDX 60 87 57 88 59 89 58 90
REMARK H PARENT 11 19 84 31 75 58 53 69
REMARK Flexibility Score: inf
ROOT
ATOM      1  C   UNL     1      -0.243  -1.100  -5.864  1.00  0.00     0.188 C 
ENDROOT
BRANCH   1   2
ATOM      2  C   UNL     1       0.091  -0.136  -7.005  1.00  0.00     0.188 C 
BRANCH   2   3
ATOM      3  O   UNL     1       1.263  -0.274  -7.799  1.00  0.00    -0.376 OA
BRANCH   3   4
ATOM      4  C   UNL     1       2.119   0.877  -7.819  1.00  0.00     0.202 C 
BRANCH   4   5
ATOM      5  C   UNL     1       1.560   2.311  -8.143  1.00  0.00     0.261 C 
BRANCH   5   6
ATOM      6  O   UNL     1       0.457   2.821  -7.301  1.00  0.00    -0.463 OA
BRANCH   6   7
ATOM      7  C   UNL     1      -0.826   2.560  -7.663  1.00  0.00     0.309 C 
ATOM      8  O   UNL     1      -1.099   2.047  -8.746  1.00  0.00    -0.252 OA
BRANCH   7   9
ATOM      9  C   UNL     1      -1.934   2.818  -6.561  1.00  0.00     0.099 C 
ATOM     10  C   UNL     1      -2.465   2.825  -3.357  1.00  0.00     0.008 C 
ATOM     11  C   UNL     1      -2.549   4.077  -4.323  1.00  0.00     0.006 C 
ATOM     12  C   UNL     1      -2.046   1.575  -4.168  1.00  0.00     0.006 C 
ATOM     13  C   UNL     1      -1.887   4.103  -5.740  1.00  0.00     0.015 C 
ATOM     14  C   UNL     1      -2.422   1.635  -5.694  1.00  0.00     0.015 C 
BRANCH  10  15
ATOM     15  C   UNL     1      -1.952   3.282  -1.837  1.00  0.00     0.119 C 
BRANCH  15  16
ATOM     16  N   UNL     1      -1.524   2.441  -0.654  1.00  0.00    -0.350 N 
ATOM     17  C   UNL     1      -0.732   2.419   0.508  1.00  0.00     0.283 C 
ATOM     18  O   UNL     1      -1.230   1.585   1.310  1.00  0.00    -0.268 OA
ATOM     19  H   UNL     1      -1.976   1.569  -0.726  1.00  0.00     0.163 HD
BRANCH  17  20
ATOM     20  C   UNL     1       0.751   3.200   1.130  1.00  0.00     0.305 C 
BRANCH  20  21
ATOM     21  C   UNL     1       1.847   3.934   0.047  1.00  0.00     0.022 A 
ATOM     22  C   UNL     1       4.514   2.480  -0.843  1.00  0.00     0.045 C 
ATOM     23  C   UNL     1       3.298   3.352  -0.998  1.00  0.00    -0.041 A 
ATOM     24  C   UNL     1       3.211   3.632  -2.826  1.00  0.00     0.004 A 
ATOM     25  C   UNL     1       1.810   4.644  -3.468  1.00  0.00     0.000 A 
ATOM     26  C   UNL     1       0.539   4.852  -0.737  1.00  0.00     0.011 A 
ATOM     27  C   UNL     1       0.531   5.206  -2.427  1.00  0.00     0.001 A 
ENDBRANCH  20  21
BRANCH  20  28
ATOM     28  N   UNL     1       0.350   4.081   2.257  1.00  0.00    -0.326 N 
ATOM     29  C   UNL     1       1.349   4.891   2.904  1.00  0.00     0.333 C 
ATOM     30  C   UNL     1      -1.031   4.460   2.447  1.00  0.00     0.333 C 
ATOM     31  H   UNL     1       0.322   3.272   2.877  1.00  0.00     0.348 HD
ENDBRANCH  20  28
ENDBRANCH  17  20
ENDBRANCH  15  16
ENDBRANCH  10  15
ENDBRANCH   7   9
ENDBRANCH   6   7
ENDBRANCH   5   6
ENDBRANCH   4   5
ENDBRANCH   3   4
ENDBRANCH   2   3
ENDBRANCH   1   2
BRANCH   1  32
ATOM     32  O   UNL     1       0.497  -0.763  -4.684  1.00  0.00    -0.377 OA
BRANCH  32  33
ATOM     33  C   UNL     1       1.410  -1.785  -4.329  1.00  0.00     0.188 C 
BRANCH  33  34
ATOM     34  C   UNL     1       2.274  -2.171  -5.506  1.00  0.00     0.188 C 
BRANCH  34  35
ATOM     35  O   UNL     1       1.758  -3.131  -6.396  1.00  0.00    -0.376 OA
BRANCH  35  36
ATOM     36  C   UNL     1       1.496  -4.432  -5.877  1.00  0.00     0.202 C 
BRANCH  36  37
ATOM     37  C   UNL     1       2.074  -4.881  -4.507  1.00  0.00     0.261 C 
BRANCH  37  38
ATOM     38  O   UNL     1       3.499  -4.637  -4.409  1.00  0.00    -0.460 OA
BRANCH  38  39
ATOM     39  C   UNL     1       3.965  -4.209  -3.192  1.00  0.00     0.338 C 
ATOM     40  O   UNL     1       3.458  -4.483  -2.115  1.00  0.00    -0.246 OA
BRANCH  39  41
ATOM     41  C   UNL     1       4.933  -3.060  -3.382  1.00  0.00     0.060 A 
ATOM     42  C   UNL     1       4.956  -2.080  -2.387  1.00  0.00     0.016 A 
ATOM     43  C   UNL     1       5.328  -2.695  -4.666  1.00  0.00     0.016 A 
ATOM     44  C   UNL     1       4.975  -0.723  -2.747  1.00  0.00     0.010 A 
ATOM     45  C   UNL     1       5.199  -1.346  -5.021  1.00  0.00     0.010 A 
ATOM     46  C   UNL     1       4.877  -0.348  -4.082  1.00  0.00    -0.014 A 
BRANCH  46  47
ATOM     47  C   UNL     1       4.259   0.916  -4.604  1.00  0.00     0.031 A 
ATOM     48  C   UNL     1       4.954   1.690  -5.697  1.00  0.00     0.074 A 
ATOM     49  C   UNL     1       2.982   1.304  -4.296  1.00  0.00     0.049 A 
ATOM     50  N   UNL     1       4.629   2.876  -6.110  1.00  0.00    -0.248 NA
ATOM     51  C   UNL     1       6.118   1.178  -6.415  1.00  0.00     0.031 C 
ATOM     52  C   UNL     1       2.110   2.212  -5.029  1.00  0.00     0.029 A 
ATOM     53  N   UNL     1       2.201   1.094  -3.164  1.00  0.00    -0.354 N 
ATOM     54  C   UNL     1       5.352   3.159  -7.255  1.00  0.00     0.074 A 
ATOM     55  C   UNL     1       6.254   2.054  -7.412  1.00  0.00     0.031 C 
ATOM     56  C   UNL     1       1.007   2.539  -4.343  1.00  0.00     0.029 A 
ATOM     57  C   UNL     1       1.267   2.236  -2.963  1.00  0.00     0.049 A 
ATOM     58  H   UNL     1       2.258   0.303  -2.580  1.00  0.00     0.167 HD
ATOM     59  C   UNL     1       5.072   4.277  -7.984  1.00  0.00     0.031 A 
ATOM     60  C   UNL     1       1.444   3.151  -1.846  1.00  0.00     0.031 A 
ATOM     61  C   UNL     1       4.285   5.232  -7.184  1.00  0.00     0.049 A 
ATOM     62  C   UNL     1       2.480   5.039  -1.607  1.00  0.00     0.074 A 
ATOM     63  C   UNL     1       2.997   5.719  -7.274  1.00  0.00     0.029 A 
ATOM     64  N   UNL     1       4.780   5.675  -5.938  1.00  0.00    -0.354 N 
ATOM     65  N   UNL     1       3.674   5.502  -2.275  1.00  0.00    -0.248 NA
ATOM     66  C   UNL     1       2.287   6.532  -0.900  1.00  0.00     0.031 C 
ATOM     67  C   UNL     1       2.712   6.421  -6.070  1.00  0.00     0.029 A 
ATOM     68  C   UNL     1       3.814   6.366  -5.212  1.00  0.00     0.049 A 
ATOM     69  H   UNL     1       5.698   5.514  -5.621  1.00  0.00     0.167 HD
ATOM     70  C   UNL     1       3.617   6.774  -2.743  1.00  0.00     0.074 A 
ATOM     71  C   UNL     1       2.965   7.435  -1.653  1.00  0.00     0.031 C 
ATOM     72  C   UNL     1       4.115   7.146  -3.974  1.00  0.00     0.031 A 
BRANCH  59  73
ATOM     73  C   UNL     1       5.352   4.413  -9.493  1.00  0.00    -0.014 A 
ATOM     74  C   UNL     1       4.633   5.357 -10.259  1.00  0.00     0.009 A 
ATOM     75  C   UNL     1       6.224   3.601 -10.251  1.00  0.00     0.009 A 
ATOM     76  C   UNL     1       4.755   5.465 -11.661  1.00  0.00     0.001 A 
ATOM     77  C   UNL     1       6.359   3.705 -11.653  1.00  0.00     0.001 A 
ATOM     78  C   UNL     1       5.619   4.637 -12.362  1.00  0.00     0.000 A 
ENDBRANCH  59  73
BRANCH  60  79
ATOM     79  C   UNL     1       1.447   1.564  -0.855  1.00  0.00    -0.014 A 
ATOM     80  C   UNL     1       0.498   0.516  -1.179  1.00  0.00     0.009 A 
ATOM     81  C   UNL     1       2.355   1.059   0.135  1.00  0.00     0.009 A 
ATOM     82  C   UNL     1       0.610  -0.840  -0.791  1.00  0.00     0.001 A 
ATOM     83  C   UNL     1       2.511  -0.298   0.502  1.00  0.00     0.001 A 
ATOM     84  C   UNL     1       1.668  -1.260  -0.009  1.00  0.00     0.000 A 
ENDBRANCH  60  79
BRANCH  72  85
ATOM     85  C   UNL     1       4.799   8.463  -4.183  1.00  0.00    -0.014 A 
ATOM     86  C   UNL     1       5.291   9.211  -3.112  1.00  0.00     0.009 A 
ATOM     87  C   UNL     1       5.151   8.884  -5.486  1.00  0.00     0.009 A 
ATOM     88  C   UNL     1       6.023  10.377  -3.327  1.00  0.00     0.001 A 
ATOM     89  C   UNL     1       5.930  10.016  -5.704  1.00  0.00     0.001 A 
ATOM     90  C   UNL     1       6.346  10.776  -4.621  1.00  0.00     0.000 A 
ENDBRANCH  72  85
ENDBRANCH  46  47
ENDBRANCH  39  41
ENDBRANCH  38  39
ENDBRANCH  37  38
ENDBRANCH  36  37
ENDBRANCH  35  36
ENDBRANCH  34  35
ENDBRANCH  33  34
ENDBRANCH  32  33
ENDBRANCH   1  32
TORSDOF 25
