REMARK SMILES COc1cc(C)cc2c1O[C@H](C(F)(F)F)C(C(=O)OCCOCCOCCOCCOC(=O)c1ccc(-c3c4nc(c(-c5ccccc5)c5ccc([nH]5)c(-c5ccccc5)c5nc(c(-c6ccccc6)c6ccc3[nH]6)C=C5)C=C4)cc1)=C2
REMARK SMILES IDX 26 1 25 2 24 3 23 4 22 5 21 6 20 7 19 8 17 9 18 10 16 11
REMARK SMILES IDX 3 12 4 13 9 14 5 15 8 16 10 17 6 18 7 19 82 20 11 21 2 22
REMARK SMILES IDX 1 23 12 24 13 25 14 26 15 27 27 28 28 29 29 30 30 31 31 32
REMARK SMILES IDX 32 33 33 34 34 35 35 36 81 37 36 38 80 39 37 40 38 41 39 42
REMARK SMILES IDX 74 43 40 44 79 45 73 46 75 47 41 48 78 49 72 50 71 51 42 53
REMARK SMILES IDX 64 54 49 55 63 56 50 57 53 58 62 59 76 60 51 61 52 62 61 64
REMARK SMILES IDX 77 65 54 66 43 67 44 68 48 69 45 70 47 71 46 72 65 73 66 74
REMARK SMILES IDX 70 75 67 76 69 77 68 78 55 79 56 80 60 81 57 82 59 83 58 84
REMARK H PARENT 75 52 53 63
REMARK Flexibility Score: inf
ROOT
ATOM      1  C   UNL     1      -6.048   1.498   6.132  1.00  0.00     0.188 C 
ENDROOT
BRANCH   1   2
ATOM      2  O   UNL     1      -4.976   2.049   5.367  1.00  0.00    -0.377 OA
BRANCH   2   3
ATOM      3  C   UNL     1      -3.672   1.992   5.924  1.00  0.00     0.188 C 
BRANCH   3   4
ATOM      4  C   UNL     1      -3.404   3.118   6.939  1.00  0.00     0.188 C 
BRANCH   4   5
ATOM      5  O   UNL     1      -4.589   3.815   7.321  1.00  0.00    -0.376 OA
BRANCH   5   6
ATOM      6  C   UNL     1      -4.811   5.092   6.734  1.00  0.00     0.202 C 
BRANCH   6   7
ATOM      7  C   UNL     1      -5.088   5.136   5.224  1.00  0.00     0.261 C 
BRANCH   7   8
ATOM      8  O   UNL     1      -4.075   4.542   4.397  1.00  0.00    -0.460 OA
BRANCH   8   9
ATOM      9  C   UNL     1      -2.863   5.128   4.373  1.00  0.00     0.338 C 
ATOM     10  O   UNL     1      -2.539   6.157   4.940  1.00  0.00    -0.246 OA
BRANCH   9  11
ATOM     11  C   UNL     1      -1.931   4.218   3.672  1.00  0.00     0.087 C 
ATOM     12  C   UNL     1       0.747   1.690   1.686  1.00  0.00     0.161 A 
ATOM     13  C   UNL     1       2.037   1.521   2.199  1.00  0.00     0.054 A 
ATOM     14  C   UNL     1      -0.175   2.498   2.372  1.00  0.00     0.169 A 
ATOM     15  C   UNL     1       2.407   2.127   3.408  1.00  0.00    -0.047 A 
ATOM     16  C   UNL     1       0.193   3.122   3.566  1.00  0.00     0.021 A 
ATOM     17  O   UNL     1      -1.420   2.627   1.817  1.00  0.00    -0.471 OA
ATOM     18  C   UNL     1       3.791   1.958   3.965  1.00  0.00     0.044 C 
ATOM     19  C   UNL     1       1.471   2.909   4.096  1.00  0.00     0.015 A 
ATOM     20  C   UNL     1      -0.730   4.027   4.231  1.00  0.00     0.027 C 
ATOM     21  C   UNL     1      -2.398   3.502   2.430  1.00  0.00     0.316 C 
BRANCH  12  22
ATOM     22  O   UNL     1       0.330   1.172   0.484  1.00  0.00    -0.493 OA
ATOM     23  C   UNL     1       0.912  -0.067   0.103  1.00  0.00     0.278 C 
ENDBRANCH  12  22
BRANCH  21  24
ATOM     24  C   UNL     1      -2.907   4.474   1.356  1.00  0.00     0.430 C 
ATOM     25  F   UNL     1      -3.284   3.819   0.231  1.00  0.00    -0.167 F 
ATOM     26  F   UNL     1      -3.992   5.170   1.774  1.00  0.00    -0.167 F 
ATOM     27  F   UNL     1      -1.964   5.379   1.005  1.00  0.00    -0.167 F 
ENDBRANCH  21  24
ENDBRANCH   9  11
ENDBRANCH   8   9
ENDBRANCH   7   8
ENDBRANCH   6   7
ENDBRANCH   5   6
ENDBRANCH   4   5
ENDBRANCH   3   4
ENDBRANCH   2   3
ENDBRANCH   1   2
BRANCH   1  28
ATOM     28  C   UNL     1      -5.953   1.313   7.665  1.00  0.00     0.188 C 
BRANCH  28  29
ATOM     29  O   UNL     1      -4.730   0.728   8.104  1.00  0.00    -0.376 OA
BRANCH  29  30
ATOM     30  C   UNL     1      -4.795  -0.604   8.594  1.00  0.00     0.202 C 
BRANCH  30  31
ATOM     31  C   UNL     1      -4.867  -1.664   7.489  1.00  0.00     0.261 C 
BRANCH  31  32
ATOM     32  O   UNL     1      -6.033  -1.593   6.654  1.00  0.00    -0.460 OA
BRANCH  32  33
ATOM     33  C   UNL     1      -7.242  -1.720   7.246  1.00  0.00     0.338 C 
ATOM     34  O   UNL     1      -7.471  -1.948   8.420  1.00  0.00    -0.246 OA
BRANCH  33  35
ATOM     35  C   UNL     1      -8.259  -1.334   6.245  1.00  0.00     0.060 A 
ATOM     36  C   UNL     1      -8.237  -1.897   4.967  1.00  0.00     0.016 A 
ATOM     37  C   UNL     1      -9.216  -0.367   6.580  1.00  0.00     0.016 A 
ATOM     38  C   UNL     1      -9.196  -1.515   4.030  1.00  0.00     0.010 A 
ATOM     39  C   UNL     1     -10.172   0.019   5.637  1.00  0.00     0.010 A 
ATOM     40  C   UNL     1     -10.183  -0.572   4.365  1.00  0.00    -0.014 A 
BRANCH  40  41
ATOM     41  C   UNL     1     -11.336  -0.377   3.455  1.00  0.00     0.031 A 
ATOM     42  C   UNL     1     -11.445   0.798   2.534  1.00  0.00     0.074 A 
ATOM     43  C   UNL     1     -12.306  -1.312   3.477  1.00  0.00     0.049 A 
ATOM     44  N   UNL     1     -12.351   1.030   1.618  1.00  0.00    -0.248 NA
ATOM     45  C   UNL     1     -10.421   1.845   2.651  1.00  0.00     0.031 C 
ATOM     46  C   UNL     1     -12.314  -2.483   4.357  1.00  0.00     0.029 A 
ATOM     47  N   UNL     1     -13.458  -1.434   2.744  1.00  0.00    -0.354 N 
ATOM     48  C   UNL     1     -12.000   2.239   1.034  1.00  0.00     0.074 A 
ATOM     49  C   UNL     1     -10.819   2.713   1.726  1.00  0.00     0.031 C 
ATOM     50  C   UNL     1     -13.408  -3.214   4.099  1.00  0.00     0.029 A 
ATOM     51  C   UNL     1     -14.188  -2.554   3.057  1.00  0.00     0.049 A 
ATOM     52  H   UNL     1     -13.735  -0.781   2.061  1.00  0.00     0.167 HD
ATOM     53  C   UNL     1     -12.607   2.880   0.006  1.00  0.00     0.031 A 
ATOM     54  C   UNL     1     -15.354  -3.010   2.561  1.00  0.00     0.031 A 
ATOM     55  C   UNL     1     -13.793   2.405  -0.665  1.00  0.00     0.049 A 
ATOM     56  C   UNL     1     -16.016  -2.265   1.439  1.00  0.00     0.074 A 
ATOM     57  C   UNL     1     -14.438   2.962  -1.756  1.00  0.00     0.029 A 
ATOM     58  N   UNL     1     -14.518   1.280  -0.305  1.00  0.00    -0.354 N 
ATOM     59  N   UNL     1     -15.617  -1.175   0.830  1.00  0.00    -0.248 NA
ATOM     60  C   UNL     1     -17.273  -2.821   0.919  1.00  0.00     0.031 C 
ATOM     61  C   UNL     1     -15.592   2.219  -2.010  1.00  0.00     0.029 A 
ATOM     62  C   UNL     1     -15.626   1.152  -1.128  1.00  0.00     0.049 A 
ATOM     63  H   UNL     1     -14.282   0.664   0.426  1.00  0.00     0.167 HD
ATOM     64  C   UNL     1     -16.562  -0.924  -0.155  1.00  0.00     0.074 A 
ATOM     65  C   UNL     1     -17.543  -1.986  -0.077  1.00  0.00     0.031 C 
ATOM     66  C   UNL     1     -16.606   0.099  -1.042  1.00  0.00     0.031 A 
BRANCH  53  67
ATOM     67  C   UNL     1     -12.013   4.168  -0.492  1.00  0.00    -0.014 A 
ATOM     68  C   UNL     1     -12.724   5.371  -0.343  1.00  0.00     0.009 A 
ATOM     69  C   UNL     1     -10.833   4.169  -1.252  1.00  0.00     0.009 A 
ATOM     70  C   UNL     1     -12.282   6.540  -0.966  1.00  0.00     0.001 A 
ATOM     71  C   UNL     1     -10.380   5.346  -1.853  1.00  0.00     0.001 A 
ATOM     72  C   UNL     1     -11.111   6.526  -1.721  1.00  0.00     0.000 A 
ENDBRANCH  53  67
BRANCH  54  73
ATOM     73  C   UNL     1     -15.936  -4.257   3.120  1.00  0.00    -0.014 A 
ATOM     74  C   UNL     1     -16.425  -4.283   4.437  1.00  0.00     0.009 A 
ATOM     75  C   UNL     1     -15.945  -5.442   2.370  1.00  0.00     0.009 A 
ATOM     76  C   UNL     1     -16.886  -5.474   5.000  1.00  0.00     0.001 A 
ATOM     77  C   UNL     1     -16.437  -6.625   2.926  1.00  0.00     0.001 A 
ATOM     78  C   UNL     1     -16.896  -6.643   4.242  1.00  0.00     0.000 A 
ENDBRANCH  54  73
BRANCH  66  79
ATOM     79  C   UNL     1     -17.752   0.139  -2.017  1.00  0.00    -0.014 A 
ATOM     80  C   UNL     1     -17.508  -0.046  -3.388  1.00  0.00     0.009 A 
ATOM     81  C   UNL     1     -19.049   0.471  -1.597  1.00  0.00     0.009 A 
ATOM     82  C   UNL     1     -18.534   0.120  -4.320  1.00  0.00     0.001 A 
ATOM     83  C   UNL     1     -20.080   0.606  -2.529  1.00  0.00     0.001 A 
ATOM     84  C   UNL     1     -19.820   0.443  -3.889  1.00  0.00     0.000 A 
ENDBRANCH  66  79
ENDBRANCH  40  41
ENDBRANCH  33  35
ENDBRANCH  32  33
ENDBRANCH  31  32
ENDBRANCH  30  31
ENDBRANCH  29  30
ENDBRANCH  28  29
ENDBRANCH   1  28
TORSDOF 22
