REMARK SMILES O=C(OCCOCCOCCOCCOC(=O)[C@@H](c1ccccc1)[C@H](C(=O)c1ccccc1)c1ccccc1)c1ccc(-c2c3nc(c(-c4ccccc4)c4ccc([nH]4)c(-c4ccccc4)c4nc(c(-c5ccccc5)c5ccc2[nH]5)C=C4)C=C3)cc1
REMARK SMILES IDX 10 1 9 2 8 3 7 4 6 5 5 6 4 7 3 8 2 9 1 10 40 11 41 12 87 13
REMARK SMILES IDX 42 14 86 15 43 16 44 17 45 18 80 19 46 20 85 21 79 22 81 23
REMARK SMILES IDX 47 24 84 25 78 26 77 27 48 29 70 30 55 31 69 32 56 33 59 34
REMARK SMILES IDX 68 35 82 36 57 37 58 38 67 40 83 41 60 42 49 43 50 44 54 45
REMARK SMILES IDX 51 46 53 47 52 48 71 49 72 50 76 51 73 52 75 53 74 54 61 55
REMARK SMILES IDX 62 56 66 57 63 58 65 59 64 60 11 61 12 62 13 63 14 64 15 65
REMARK SMILES IDX 16 66 17 67 18 68 19 69 20 70 24 71 21 72 23 73 22 74 25 75
REMARK SMILES IDX 34 76 35 77 39 78 36 79 38 80 37 81 26 82 27 83 28 84 29 85
REMARK SMILES IDX 33 86 30 87 32 88 31 89
REMARK H PARENT 81 28 59 39
REMARK Flexibility Score: inf
ROOT
ATOM      1  C   UNL     1       4.420  -4.814  -8.542  1.00  0.00     0.188 C 
ENDROOT
BRANCH   1   2
ATOM      2  O   UNL     1       4.909  -4.306  -7.307  1.00  0.00    -0.377 OA
BRANCH   2   3
ATOM      3  C   UNL     1       5.468  -2.994  -7.258  1.00  0.00     0.188 C 
BRANCH   3   4
ATOM      4  C   UNL     1       6.706  -2.774  -8.107  1.00  0.00     0.188 C 
BRANCH   4   5
ATOM      5  O   UNL     1       6.849  -3.846  -9.021  1.00  0.00    -0.376 OA
BRANCH   5   6
ATOM      6  C   UNL     1       8.121  -4.455  -9.109  1.00  0.00     0.202 C 
BRANCH   6   7
ATOM      7  C   UNL     1       8.946  -3.919 -10.272  1.00  0.00     0.261 C 
BRANCH   7   8
ATOM      8  O   UNL     1       9.084  -2.493 -10.172  1.00  0.00    -0.460 OA
BRANCH   8   9
ATOM      9  C   UNL     1       8.209  -1.539 -10.571  1.00  0.00     0.338 C 
ATOM     10  O   UNL     1       8.390  -0.390 -10.184  1.00  0.00    -0.246 OA
BRANCH   9  11
ATOM     11  C   UNL     1       7.031  -1.787 -11.468  1.00  0.00     0.060 A 
ATOM     12  C   UNL     1       6.318  -2.985 -11.596  1.00  0.00     0.016 A 
ATOM     13  C   UNL     1       6.563  -0.670 -12.182  1.00  0.00     0.016 A 
ATOM     14  C   UNL     1       5.182  -3.087 -12.380  1.00  0.00     0.010 A 
ATOM     15  C   UNL     1       5.458  -0.773 -13.028  1.00  0.00     0.010 A 
ATOM     16  C   UNL     1       4.791  -1.996 -13.141  1.00  0.00    -0.014 A 
BRANCH  16  17
ATOM     17  C   UNL     1       3.913  -2.273 -14.280  1.00  0.00     0.031 A 
ATOM     18  C   UNL     1       4.591  -2.581 -15.578  1.00  0.00     0.074 A 
ATOM     19  C   UNL     1       2.588  -2.372 -14.114  1.00  0.00     0.049 A 
ATOM     20  N   UNL     1       4.080  -2.733 -16.766  1.00  0.00    -0.248 NA
ATOM     21  C   UNL     1       6.057  -2.748 -15.523  1.00  0.00     0.031 C 
ATOM     22  C   UNL     1       1.882  -2.274 -12.836  1.00  0.00     0.029 A 
ATOM     23  N   UNL     1       1.603  -2.587 -15.034  1.00  0.00    -0.354 N 
ATOM     24  C   UNL     1       5.164  -2.962 -17.604  1.00  0.00     0.074 A 
ATOM     25  C   UNL     1       6.357  -2.944 -16.794  1.00  0.00     0.031 C 
ATOM     26  C   UNL     1       0.563  -2.405 -13.061  1.00  0.00     0.029 A 
ATOM     27  C   UNL     1       0.342  -2.523 -14.498  1.00  0.00     0.049 A 
ATOM     28  H   UNL     1       1.779  -2.769 -15.986  1.00  0.00     0.167 HD
ATOM     29  C   UNL     1       5.152  -3.140 -18.942  1.00  0.00     0.031 A 
ATOM     30  C   UNL     1      -0.847  -2.503 -15.128  1.00  0.00     0.031 A 
ATOM     31  C   UNL     1       3.938  -3.114 -19.706  1.00  0.00     0.049 A 
ATOM     32  C   UNL     1      -0.839  -2.577 -16.631  1.00  0.00     0.074 A 
ATOM     33  C   UNL     1       3.766  -3.204 -21.072  1.00  0.00     0.029 A 
ATOM     34  N   UNL     1       2.674  -2.978 -19.142  1.00  0.00    -0.354 N 
ATOM     35  N   UNL     1       0.186  -2.699 -17.446  1.00  0.00    -0.248 NA
ATOM     36  C   UNL     1      -2.139  -2.502 -17.305  1.00  0.00     0.031 C 
ATOM     37  C   UNL     1       2.400  -3.065 -21.337  1.00  0.00     0.029 A 
ATOM     38  C   UNL     1       1.714  -2.964 -20.133  1.00  0.00     0.049 A 
ATOM     39  H   UNL     1       2.491  -2.904 -18.178  1.00  0.00     0.167 HD
ATOM     40  C   UNL     1      -0.344  -2.745 -18.727  1.00  0.00     0.074 A 
ATOM     41  C   UNL     1      -1.785  -2.642 -18.577  1.00  0.00     0.031 C 
ATOM     42  C   UNL     1       0.290  -2.867 -19.920  1.00  0.00     0.031 A 
BRANCH  29  43
ATOM     43  C   UNL     1       6.487  -3.241 -19.624  1.00  0.00    -0.014 A 
ATOM     44  C   UNL     1       7.338  -4.344 -19.438  1.00  0.00     0.009 A 
ATOM     45  C   UNL     1       6.939  -2.164 -20.402  1.00  0.00     0.009 A 
ATOM     46  C   UNL     1       8.632  -4.337 -19.967  1.00  0.00     0.001 A 
ATOM     47  C   UNL     1       8.219  -2.174 -20.958  1.00  0.00     0.001 A 
ATOM     48  C   UNL     1       9.071  -3.252 -20.726  1.00  0.00     0.000 A 
ENDBRANCH  29  43
BRANCH  30  49
ATOM     49  C   UNL     1      -2.099  -2.336 -14.345  1.00  0.00    -0.014 A 
ATOM     50  C   UNL     1      -3.040  -3.371 -14.257  1.00  0.00     0.009 A 
ATOM     51  C   UNL     1      -2.345  -1.141 -13.648  1.00  0.00     0.009 A 
ATOM     52  C   UNL     1      -4.203  -3.209 -13.496  1.00  0.00     0.001 A 
ATOM     53  C   UNL     1      -3.493  -0.992 -12.865  1.00  0.00     0.001 A 
ATOM     54  C   UNL     1      -4.424  -2.024 -12.796  1.00  0.00     0.000 A 
ENDBRANCH  30  49
BRANCH  42  55
ATOM     55  C   UNL     1      -0.573  -2.960 -21.143  1.00  0.00    -0.014 A 
ATOM     56  C   UNL     1      -1.222  -1.834 -21.668  1.00  0.00     0.009 A 
ATOM     57  C   UNL     1      -0.654  -4.184 -21.827  1.00  0.00     0.009 A 
ATOM     58  C   UNL     1      -1.958  -1.940 -22.849  1.00  0.00     0.001 A 
ATOM     59  C   UNL     1      -1.362  -4.277 -23.022  1.00  0.00     0.001 A 
ATOM     60  C   UNL     1      -2.019  -3.157 -23.529  1.00  0.00     0.000 A 
ENDBRANCH  42  55
ENDBRANCH  16  17
ENDBRANCH   9  11
ENDBRANCH   8   9
ENDBRANCH   7   8
ENDBRANCH   6   7
ENDBRANCH   5   6
ENDBRANCH   4   5
ENDBRANCH   3   4
ENDBRANCH   2   3
ENDBRANCH   1   2
BRANCH   1  61
ATOM     61  C   UNL     1       3.052  -5.477  -8.364  1.00  0.00     0.188 C 
BRANCH  61  62
ATOM     62  O   UNL     1       1.959  -4.616  -8.062  1.00  0.00    -0.376 OA
BRANCH  62  63
ATOM     63  C   UNL     1       2.165  -3.562  -7.129  1.00  0.00     0.202 C 
BRANCH  63  64
ATOM     64  C   UNL     1       2.378  -3.909  -5.633  1.00  0.00     0.261 C 
BRANCH  64  65
ATOM     65  O   UNL     1       3.671  -4.439  -5.194  1.00  0.00    -0.463 OA
BRANCH  65  66
ATOM     66  C   UNL     1       3.767  -5.793  -5.146  1.00  0.00     0.314 C 
ATOM     67  O   UNL     1       2.824  -6.523  -5.467  1.00  0.00    -0.252 OA
BRANCH  66  68
ATOM     68  C   UNL     1       4.937  -6.410  -4.382  1.00  0.00     0.144 C 
BRANCH  68  69
ATOM     69  C   UNL     1       6.454  -6.422  -4.667  1.00  0.00    -0.033 A 
ATOM     70  C   UNL     1       7.138  -5.694  -5.633  1.00  0.00     0.004 A 
ATOM     71  C   UNL     1       7.274  -7.299  -3.911  1.00  0.00     0.004 A 
ATOM     72  C   UNL     1       8.544  -5.746  -5.753  1.00  0.00     0.000 A 
ATOM     73  C   UNL     1       8.666  -7.378  -4.041  1.00  0.00     0.000 A 
ATOM     74  C   UNL     1       9.311  -6.581  -4.960  1.00  0.00     0.000 A 
ENDBRANCH  68  69
BRANCH  68  75
ATOM     75  C   UNL     1       4.463  -6.359  -2.886  1.00  0.00     0.110 C 
BRANCH  75  76
ATOM     76  C   UNL     1       4.638  -7.700  -2.155  1.00  0.00    -0.036 A 
ATOM     77  C   UNL     1       4.323  -8.905  -2.824  1.00  0.00     0.004 A 
ATOM     78  C   UNL     1       5.136  -7.800  -0.855  1.00  0.00     0.004 A 
ATOM     79  C   UNL     1       4.662 -10.147  -2.290  1.00  0.00     0.000 A 
ATOM     80  C   UNL     1       5.460  -9.046  -0.309  1.00  0.00     0.000 A 
ATOM     81  C   UNL     1       5.253 -10.215  -1.038  1.00  0.00     0.000 A 
ENDBRANCH  75  76
BRANCH  75  82
ATOM     82  C   UNL     1       4.885  -5.076  -2.131  1.00  0.00     0.171 C 
ATOM     83  O   UNL     1       4.092  -4.454  -1.422  1.00  0.00    -0.293 OA
BRANCH  82  84
ATOM     84  C   UNL     1       6.272  -4.553  -2.177  1.00  0.00     0.018 A 
ATOM     85  C   UNL     1       7.174  -4.889  -1.165  1.00  0.00     0.012 A 
ATOM     86  C   UNL     1       6.669  -3.686  -3.197  1.00  0.00     0.012 A 
ATOM     87  C   UNL     1       8.506  -4.479  -1.251  1.00  0.00     0.001 A 
ATOM     88  C   UNL     1       8.007  -3.290  -3.291  1.00  0.00     0.001 A 
ATOM     89  C   UNL     1       8.929  -3.709  -2.332  1.00  0.00     0.000 A 
ENDBRANCH  82  84
ENDBRANCH  75  82
ENDBRANCH  68  75
ENDBRANCH  66  68
ENDBRANCH  65  66
ENDBRANCH  64  65
ENDBRANCH  63  64
ENDBRANCH  62  63
ENDBRANCH  61  62
ENDBRANCH   1  61
TORSDOF 25
