REMARK SMILES O=C(OCCOCCOCCOCCOC(=O)[C@H](Cc1cccc(Br)c1)CC1CCC1)c1ccc(-c2c3nc(c(-c4ccccc4)c4ccc([nH]4)c(-c4ccccc4)c4nc(c(-c5ccccc5)c5ccc2[nH]5)C=C4)C=C3)cc1
REMARK SMILES IDX 9 1 8 2 7 3 6 4 5 5 4 6 3 7 2 8 1 9 32 10 33 11 79 12 34 13
REMARK SMILES IDX 78 14 35 15 36 16 37 17 72 18 38 19 77 20 71 21 73 22 39 23
REMARK SMILES IDX 76 24 70 25 69 26 40 28 62 29 47 30 61 31 48 32 51 33 60 34
REMARK SMILES IDX 74 35 49 36 50 37 59 39 75 40 52 41 41 42 42 43 46 44 43 45
REMARK SMILES IDX 45 46 44 47 63 48 64 49 68 50 65 51 67 52 66 53 53 54 54 55
REMARK SMILES IDX 58 56 55 57 57 58 56 59 10 60 11 61 12 62 13 63 14 64 15 65
REMARK SMILES IDX 16 66 17 67 18 68 27 69 28 70 29 71 31 72 30 73 19 74 20 75
REMARK SMILES IDX 21 76 26 77 22 78 24 79 23 80 25 81
REMARK H PARENT 73 27 51 38
REMARK Flexibility Score: inf
ROOT
ATOM      1  O   UNL     1       6.605  -3.021  -3.751  1.00  0.00    -0.377 OA
ENDROOT
BRANCH   1   2
ATOM      2  C   UNL     1       7.274  -3.545  -2.617  1.00  0.00     0.188 C 
BRANCH   2   3
ATOM      3  C   UNL     1       7.852  -2.512  -1.658  1.00  0.00     0.188 C 
BRANCH   3   4
ATOM      4  O   UNL     1       6.812  -1.718  -1.081  1.00  0.00    -0.376 OA
BRANCH   4   5
ATOM      5  C   UNL     1       7.083  -0.314  -0.998  1.00  0.00     0.202 C 
BRANCH   5   6
ATOM      6  C   UNL     1       7.974   0.083   0.174  1.00  0.00     0.261 C 
BRANCH   6   7
ATOM      7  O   UNL     1       8.883  -0.952   0.576  1.00  0.00    -0.460 OA
BRANCH   7   8
ATOM      8  C   UNL     1       8.647  -2.050   1.335  1.00  0.00     0.338 C 
ATOM      9  O   UNL     1       9.582  -2.831   1.516  1.00  0.00    -0.246 OA
BRANCH   8  10
ATOM     10  C   UNL     1       7.327  -2.406   1.954  1.00  0.00     0.060 A 
ATOM     11  C   UNL     1       6.086  -1.867   1.613  1.00  0.00     0.016 A 
ATOM     12  C   UNL     1       7.347  -3.407   2.943  1.00  0.00     0.016 A 
ATOM     13  C   UNL     1       4.914  -2.267   2.223  1.00  0.00     0.010 A 
ATOM     14  C   UNL     1       6.178  -3.791   3.606  1.00  0.00     0.010 A 
ATOM     15  C   UNL     1       4.969  -3.179   3.266  1.00  0.00    -0.014 A 
BRANCH  15  16
ATOM     16  C   UNL     1       3.809  -3.172   4.164  1.00  0.00     0.031 A 
ATOM     17  C   UNL     1       3.906  -2.291   5.374  1.00  0.00     0.074 A 
ATOM     18  C   UNL     1       2.653  -3.728   3.769  1.00  0.00     0.049 A 
ATOM     19  N   UNL     1       3.040  -2.086   6.326  1.00  0.00    -0.248 NA
ATOM     20  C   UNL     1       5.149  -1.506   5.513  1.00  0.00     0.031 C 
ATOM     21  C   UNL     1       2.433  -4.401   2.486  1.00  0.00     0.029 A 
ATOM     22  N   UNL     1       1.434  -3.761   4.382  1.00  0.00    -0.354 N 
ATOM     23  C   UNL     1       3.656  -1.195   7.198  1.00  0.00     0.074 A 
ATOM     24  C   UNL     1       4.959  -0.887   6.664  1.00  0.00     0.031 C 
ATOM     25  C   UNL     1       1.143  -4.766   2.403  1.00  0.00     0.029 A 
ATOM     26  C   UNL     1       0.477  -4.419   3.652  1.00  0.00     0.049 A 
ATOM     27  H   UNL     1       1.259  -3.353   5.261  1.00  0.00     0.167 HD
ATOM     28  C   UNL     1       3.171  -0.700   8.358  1.00  0.00     0.031 A 
ATOM     29  C   UNL     1      -0.785  -4.730   3.995  1.00  0.00     0.031 A 
ATOM     30  C   UNL     1       1.870  -1.048   8.854  1.00  0.00     0.049 A 
ATOM     31  C   UNL     1      -1.254  -4.294   5.356  1.00  0.00     0.074 A 
ATOM     32  C   UNL     1       1.273  -0.706  10.050  1.00  0.00     0.029 A 
ATOM     33  N   UNL     1       0.963  -1.837   8.155  1.00  0.00    -0.354 N 
ATOM     34  N   UNL     1      -0.634  -3.550   6.245  1.00  0.00    -0.248 NA
ATOM     35  C   UNL     1      -2.585  -4.748   5.770  1.00  0.00     0.031 C 
ATOM     36  C   UNL     1       0.027  -1.342  10.100  1.00  0.00     0.029 A 
ATOM     37  C   UNL     1      -0.183  -2.015   8.903  1.00  0.00     0.049 A 
ATOM     38  H   UNL     1       1.116  -2.213   7.258  1.00  0.00     0.167 HD
ATOM     39  C   UNL     1      -1.509  -3.421   7.313  1.00  0.00     0.074 A 
ATOM     40  C   UNL     1      -2.708  -4.156   6.950  1.00  0.00     0.031 C 
ATOM     41  C   UNL     1      -1.348  -2.757   8.486  1.00  0.00     0.031 A 
BRANCH  28  42
ATOM     42  C   UNL     1       4.113   0.128   9.186  1.00  0.00    -0.014 A 
ATOM     43  C   UNL     1       4.538   1.407   8.788  1.00  0.00     0.009 A 
ATOM     44  C   UNL     1       4.665  -0.434  10.348  1.00  0.00     0.009 A 
ATOM     45  C   UNL     1       5.536   2.076   9.504  1.00  0.00     0.001 A 
ATOM     46  C   UNL     1       5.637   0.250  11.079  1.00  0.00     0.001 A 
ATOM     47  C   UNL     1       6.085   1.497  10.647  1.00  0.00     0.000 A 
ENDBRANCH  28  42
BRANCH  29  48
ATOM     48  C   UNL     1      -1.642  -5.532   3.082  1.00  0.00    -0.014 A 
ATOM     49  C   UNL     1      -2.815  -4.994   2.532  1.00  0.00     0.009 A 
ATOM     50  C   UNL     1      -1.290  -6.853   2.755  1.00  0.00     0.009 A 
ATOM     51  C   UNL     1      -3.625  -5.768   1.693  1.00  0.00     0.001 A 
ATOM     52  C   UNL     1      -2.084  -7.613   1.893  1.00  0.00     0.001 A 
ATOM     53  C   UNL     1      -3.257  -7.073   1.371  1.00  0.00     0.000 A 
ENDBRANCH  29  48
BRANCH  41  54
ATOM     54  C   UNL     1      -2.522  -2.751   9.419  1.00  0.00    -0.014 A 
ATOM     55  C   UNL     1      -2.904  -3.899  10.128  1.00  0.00     0.009 A 
ATOM     56  C   UNL     1      -3.222  -1.551   9.625  1.00  0.00     0.009 A 
ATOM     57  C   UNL     1      -3.992  -3.854  10.999  1.00  0.00     0.001 A 
ATOM     58  C   UNL     1      -4.284  -1.500  10.524  1.00  0.00     0.001 A 
ATOM     59  C   UNL     1      -4.675  -2.654  11.202  1.00  0.00     0.000 A 
ENDBRANCH  41  54
ENDBRANCH  15  16
ENDBRANCH   8  10
ENDBRANCH   7   8
ENDBRANCH   6   7
ENDBRANCH   5   6
ENDBRANCH   4   5
ENDBRANCH   3   4
ENDBRANCH   2   3
ENDBRANCH   1   2
BRANCH   1  60
ATOM     60  C   UNL     1       5.741  -1.930  -3.510  1.00  0.00     0.188 C 
BRANCH  60  61
ATOM     61  C   UNL     1       4.385  -2.104  -2.811  1.00  0.00     0.188 C 
BRANCH  61  62
ATOM     62  O   UNL     1       3.990  -3.378  -2.361  1.00  0.00    -0.376 OA
BRANCH  62  63
ATOM     63  C   UNL     1       3.990  -4.462  -3.277  1.00  0.00     0.202 C 
BRANCH  63  64
ATOM     64  C   UNL     1       3.653  -4.295  -4.777  1.00  0.00     0.261 C 
BRANCH  64  65
ATOM     65  O   UNL     1       4.338  -3.243  -5.491  1.00  0.00    -0.463 OA
BRANCH  65  66
ATOM     66  C   UNL     1       3.597  -2.207  -5.975  1.00  0.00     0.309 C 
ATOM     67  O   UNL     1       2.367  -2.147  -5.914  1.00  0.00    -0.252 OA
BRANCH  66  68
ATOM     68  C   UNL     1       4.471  -1.064  -6.540  1.00  0.00     0.104 C 
BRANCH  68  69
ATOM     69  C   UNL     1       4.171  -1.016  -8.044  1.00  0.00     0.019 C 
BRANCH  69  70
ATOM     70  C   UNL     1       4.972  -0.028  -8.883  1.00  0.00    -0.010 C 
ATOM     71  C   UNL     1       4.585   1.464  -8.828  1.00  0.00     0.003 C 
ATOM     72  C   UNL     1       6.431   0.368  -8.559  1.00  0.00     0.003 C 
ATOM     73  C   UNL     1       6.075   1.828  -8.889  1.00  0.00     0.001 C 
ENDBRANCH  69  70
ENDBRANCH  68  69
BRANCH  68  74
ATOM     74  C   UNL     1       4.140   0.226  -5.721  1.00  0.00     0.050 C 
BRANCH  74  75
ATOM     75  C   UNL     1       5.193   1.299  -5.431  1.00  0.00    -0.046 A 
ATOM     76  C   UNL     1       4.783   2.646  -5.399  1.00  0.00     0.004 A 
ATOM     77  C   UNL     1       6.528   1.030  -5.087  1.00  0.00     0.019 A 
ATOM     78  C   UNL     1       5.676   3.682  -5.099  1.00  0.00     0.001 A 
ATOM     79  C   UNL     1       7.413   2.067  -4.755  1.00  0.00     0.018 A 
ATOM     80  C   UNL     1       6.997   3.393  -4.773  1.00  0.00     0.016 A 
ATOM     81  Br  UNL     1       9.195   1.663  -4.258  1.00  0.00    -0.051 Br
ENDBRANCH  74  75
ENDBRANCH  68  74
ENDBRANCH  66  68
ENDBRANCH  65  66
ENDBRANCH  64  65
ENDBRANCH  63  64
ENDBRANCH  62  63
ENDBRANCH  61  62
ENDBRANCH  60  61
ENDBRANCH   1  60
TORSDOF 24
