REMARK SMILES CS(=O)(=O)c1ccc(/C=C(/C(=O)OCCOCCOCCOCCOC(=O)c2ccc(-c3c4nc(c(-c5ccccc5)c5ccc([nH]5)c(-c5ccccc5)c5nc(c(-c6ccccc6)c6ccc3[nH]6)C=C5)C=C4)cc2)c2cccc(Br)c2)cc1
REMARK SMILES IDX 19 1 18 2 17 3 16 4 15 5 14 6 13 7 11 8 12 9 10 10 9 11 8 12
REMARK SMILES IDX 5 13 6 14 84 15 7 16 83 17 2 18 1 19 3 20 4 21 76 22 77 23
REMARK SMILES IDX 82 24 78 25 80 26 79 27 81 28 20 29 21 30 22 31 23 32 24 33
REMARK SMILES IDX 25 34 26 35 27 36 28 37 29 38 75 39 30 40 74 41 31 42 32 43
REMARK SMILES IDX 33 44 68 45 34 46 73 47 67 48 69 49 35 50 72 51 66 52 65 53
REMARK SMILES IDX 36 55 58 56 43 57 57 58 44 59 47 60 56 61 70 62 45 63 46 64
REMARK SMILES IDX 55 66 71 67 48 68 37 69 38 70 42 71 39 72 41 73 40 74 59 75
REMARK SMILES IDX 60 76 64 77 61 78 63 79 62 80 49 81 50 82 54 83 51 84 53 85
REMARK SMILES IDX 52 86
REMARK H PARENT 69 54 47 65
REMARK Flexibility Score: inf
ROOT
ATOM      1  O   UNL     1       5.343  -4.553  -7.816  1.00  0.00    -0.377 OA
ENDROOT
BRANCH   1   2
ATOM      2  C   UNL     1       4.578  -5.619  -7.279  1.00  0.00     0.188 C 
BRANCH   2   3
ATOM      3  C   UNL     1       3.808  -6.548  -8.245  1.00  0.00     0.188 C 
BRANCH   3   4
ATOM      4  O   UNL     1       4.033  -6.268  -9.618  1.00  0.00    -0.376 OA
BRANCH   4   5
ATOM      5  C   UNL     1       2.954  -5.693 -10.336  1.00  0.00     0.202 C 
BRANCH   5   6
ATOM      6  C   UNL     1       2.527  -4.276  -9.922  1.00  0.00     0.261 C 
BRANCH   6   7
ATOM      7  O   UNL     1       2.344  -4.068  -8.512  1.00  0.00    -0.460 OA
BRANCH   7   8
ATOM      8  C   UNL     1       1.238  -4.608  -7.946  1.00  0.00     0.338 C 
ATOM      9  O   UNL     1       0.363  -5.209  -8.552  1.00  0.00    -0.246 OA
BRANCH   8  10
ATOM     10  C   UNL     1       1.296  -4.500  -6.446  1.00  0.00     0.067 C 
ATOM     11  C   UNL     1       1.841  -3.391  -5.885  1.00  0.00     0.024 C 
BRANCH  11  12
ATOM     12  C   UNL     1       1.817  -2.970  -4.463  1.00  0.00    -0.025 A 
ATOM     13  C   UNL     1       1.149  -2.065  -1.895  1.00  0.00     0.067 A 
ATOM     14  C   UNL     1       1.431  -3.414  -2.104  1.00  0.00     0.021 A 
ATOM     15  C   UNL     1       1.346  -1.139  -2.919  1.00  0.00     0.021 A 
ATOM     16  C   UNL     1       1.803  -3.852  -3.376  1.00  0.00     0.009 A 
ATOM     17  C   UNL     1       1.685  -1.597  -4.197  1.00  0.00     0.009 A 
BRANCH  13  18
ATOM     18  S   UNL     1       0.426  -1.588  -0.345  1.00  0.00     0.175 S 
ATOM     19  C   UNL     1       1.051   0.022   0.032  1.00  0.00     0.163 C 
ATOM     20  O   UNL     1       0.945  -2.492   0.664  1.00  0.00    -0.224 OA
ATOM     21  O   UNL     1      -1.000  -1.468  -0.583  1.00  0.00    -0.224 OA
ENDBRANCH  13  18
ENDBRANCH  11  12
BRANCH  10  22
ATOM     22  C   UNL     1       0.726  -5.617  -5.661  1.00  0.00    -0.010 A 
ATOM     23  C   UNL     1       1.490  -6.778  -5.434  1.00  0.00     0.009 A 
ATOM     24  C   UNL     1      -0.527  -5.505  -5.053  1.00  0.00     0.024 A 
ATOM     25  C   UNL     1       1.014  -7.809  -4.625  1.00  0.00     0.002 A 
ATOM     26  C   UNL     1      -0.987  -6.530  -4.223  1.00  0.00     0.018 A 
ATOM     27  C   UNL     1      -0.227  -7.681  -4.012  1.00  0.00     0.016 A 
ATOM     28  Br  UNL     1      -2.642  -6.334  -3.333  1.00  0.00    -0.051 Br
ENDBRANCH  10  22
ENDBRANCH   8  10
ENDBRANCH   7   8
ENDBRANCH   6   7
ENDBRANCH   5   6
ENDBRANCH   4   5
ENDBRANCH   3   4
ENDBRANCH   2   3
ENDBRANCH   1   2
BRANCH   1  29
ATOM     29  C   UNL     1       6.196  -4.804  -8.928  1.00  0.00     0.188 C 
BRANCH  29  30
ATOM     30  C   UNL     1       6.796  -6.211  -9.169  1.00  0.00     0.188 C 
BRANCH  30  31
ATOM     31  O   UNL     1       6.590  -7.135  -8.113  1.00  0.00    -0.376 OA
BRANCH  31  32
ATOM     32  C   UNL     1       7.698  -7.470  -7.298  1.00  0.00     0.202 C 
BRANCH  32  33
ATOM     33  C   UNL     1       8.293  -6.345  -6.441  1.00  0.00     0.261 C 
BRANCH  33  34
ATOM     34  O   UNL     1       8.664  -5.149  -7.139  1.00  0.00    -0.460 OA
BRANCH  34  35
ATOM     35  C   UNL     1       9.648  -5.236  -8.058  1.00  0.00     0.338 C 
ATOM     36  O   UNL     1      10.278  -6.227  -8.384  1.00  0.00    -0.246 OA
BRANCH  35  37
ATOM     37  C   UNL     1       9.710  -3.929  -8.741  1.00  0.00     0.060 A 
ATOM     38  C   UNL     1       9.456  -3.848 -10.119  1.00  0.00     0.016 A 
ATOM     39  C   UNL     1       9.983  -2.780  -7.998  1.00  0.00     0.016 A 
ATOM     40  C   UNL     1       9.502  -2.611 -10.764  1.00  0.00     0.010 A 
ATOM     41  C   UNL     1      10.058  -1.551  -8.647  1.00  0.00     0.010 A 
ATOM     42  C   UNL     1       9.853  -1.467 -10.037  1.00  0.00    -0.014 A 
BRANCH  42  43
ATOM     43  C   UNL     1      10.266  -0.228 -10.732  1.00  0.00     0.031 A 
ATOM     44  C   UNL     1      11.739  -0.013 -10.943  1.00  0.00     0.074 A 
ATOM     45  C   UNL     1       9.378   0.704 -11.117  1.00  0.00     0.049 A 
ATOM     46  N   UNL     1      12.374   1.050 -11.360  1.00  0.00    -0.248 NA
ATOM     47  C   UNL     1      12.614  -1.155 -10.622  1.00  0.00     0.031 C 
ATOM     48  C   UNL     1       7.925   0.588 -11.020  1.00  0.00     0.029 A 
ATOM     49  N   UNL     1       9.585   1.952 -11.649  1.00  0.00    -0.354 N 
ATOM     50  C   UNL     1      13.722   0.713 -11.326  1.00  0.00     0.074 A 
ATOM     51  C   UNL     1      13.815  -0.641 -10.830  1.00  0.00     0.031 C 
ATOM     52  C   UNL     1       7.370   1.732 -11.459  1.00  0.00     0.029 A 
ATOM     53  C   UNL     1       8.429   2.674 -11.819  1.00  0.00     0.049 A 
ATOM     54  H   UNL     1      10.476   2.297 -11.886  1.00  0.00     0.167 HD
ATOM     55  C   UNL     1      14.789   1.468 -11.675  1.00  0.00     0.031 A 
ATOM     56  C   UNL     1       8.256   3.959 -12.185  1.00  0.00     0.031 A 
ATOM     57  C   UNL     1      14.692   2.821 -12.147  1.00  0.00     0.049 A 
ATOM     58  C   UNL     1       9.464   4.811 -12.484  1.00  0.00     0.074 A 
ATOM     59  C   UNL     1      15.711   3.673 -12.534  1.00  0.00     0.029 A 
ATOM     60  N   UNL     1      13.504   3.520 -12.290  1.00  0.00    -0.354 N 
ATOM     61  N   UNL     1      10.735   4.485 -12.460  1.00  0.00    -0.248 NA
ATOM     62  C   UNL     1       9.213   6.209 -12.864  1.00  0.00     0.031 C 
ATOM     63  C   UNL     1      15.143   4.910 -12.851  1.00  0.00     0.029 A 
ATOM     64  C   UNL     1      13.765   4.803 -12.736  1.00  0.00     0.049 A 
ATOM     65  H   UNL     1      12.608   3.158 -12.101  1.00  0.00     0.167 HD
ATOM     66  C   UNL     1      11.428   5.622 -12.863  1.00  0.00     0.074 A 
ATOM     67  C   UNL     1      10.437   6.644 -13.127  1.00  0.00     0.031 C 
ATOM     68  C   UNL     1      12.764   5.801 -13.010  1.00  0.00     0.031 A 
BRANCH  55  69
ATOM     69  C   UNL     1      16.151   0.857 -11.506  1.00  0.00    -0.014 A 
ATOM     70  C   UNL     1      16.590  -0.196 -12.325  1.00  0.00     0.009 A 
ATOM     71  C   UNL     1      17.017   1.355 -10.521  1.00  0.00     0.009 A 
ATOM     72  C   UNL     1      17.853  -0.761 -12.135  1.00  0.00     0.001 A 
ATOM     73  C   UNL     1      18.292   0.812 -10.355  1.00  0.00     0.001 A 
ATOM     74  C   UNL     1      18.704  -0.252 -11.155  1.00  0.00     0.000 A 
ENDBRANCH  55  69
BRANCH  56  75
ATOM     75  C   UNL     1       6.888   4.538 -12.266  1.00  0.00    -0.014 A 
ATOM     76  C   UNL     1       6.344   4.916 -13.504  1.00  0.00     0.009 A 
ATOM     77  C   UNL     1       6.129   4.745 -11.103  1.00  0.00     0.009 A 
ATOM     78  C   UNL     1       5.083   5.514 -13.571  1.00  0.00     0.001 A 
ATOM     79  C   UNL     1       4.856   5.314 -11.177  1.00  0.00     0.001 A 
ATOM     80  C   UNL     1       4.338   5.709 -12.409  1.00  0.00     0.000 A 
ENDBRANCH  56  75
BRANCH  68  81
ATOM     81  C   UNL     1      13.238   7.124 -13.547  1.00  0.00    -0.014 A 
ATOM     82  C   UNL     1      13.198   8.293 -12.774  1.00  0.00     0.009 A 
ATOM     83  C   UNL     1      13.805   7.177 -14.832  1.00  0.00     0.009 A 
ATOM     84  C   UNL     1      13.691   9.495 -13.288  1.00  0.00     0.001 A 
ATOM     85  C   UNL     1      14.327   8.371 -15.330  1.00  0.00     0.001 A 
ATOM     86  C   UNL     1      14.262   9.531 -14.561  1.00  0.00     0.000 A 
ENDBRANCH  68  81
ENDBRANCH  42  43
ENDBRANCH  35  37
ENDBRANCH  34  35
ENDBRANCH  33  34
ENDBRANCH  32  33
ENDBRANCH  31  32
ENDBRANCH  30  31
ENDBRANCH  29  30
ENDBRANCH   1  29
TORSDOF 23
