REMARK SMILES CSCCC(=O)N1[C@H](C)CCC[C@@H]1C(=O)OCCOCCOCCOCCOC(=O)c1ccc(-c2c3nc(c(-c4ccccc4)c4ccc([nH]4)c(-c4ccccc4)c4nc(c(-c5ccccc5)c5ccc2[nH]5)C=C4)C=C3)cc1
REMARK SMILES IDX 21 1 20 2 19 3 18 4 17 5 16 6 14 7 15 8 13 9 7 10 8 11 9 12
REMARK SMILES IDX 10 13 12 14 11 15 5 16 6 17 4 18 3 19 2 20 1 21 22 22 23 23
REMARK SMILES IDX 24 24 25 25 26 26 27 27 28 28 29 29 30 30 31 31 32 32 78 33
REMARK SMILES IDX 33 34 77 35 34 36 35 37 36 38 71 39 37 40 76 41 70 42 72 43
REMARK SMILES IDX 38 44 75 45 69 46 68 47 39 49 61 50 46 51 60 52 47 53 50 54
REMARK SMILES IDX 59 55 73 56 48 57 49 58 58 60 74 61 51 62 40 63 41 64 45 65
REMARK SMILES IDX 42 66 44 67 43 68 62 69 63 70 67 71 64 72 66 73 65 74 52 75
REMARK SMILES IDX 53 76 57 77 54 78 56 79 55 80
REMARK H PARENT 72 48 50 59
REMARK Flexibility Score: inf
ROOT
ATOM      1  C   UNL     1      -3.020   0.385  -3.598  1.00  0.00     0.188 C 
ENDROOT
BRANCH   1   2
ATOM      2  C   UNL     1      -4.065  -0.693  -3.261  1.00  0.00     0.188 C 
BRANCH   2   3
ATOM      3  O   UNL     1      -5.052  -0.463  -2.271  1.00  0.00    -0.376 OA
BRANCH   3   4
ATOM      4  C   UNL     1      -4.692  -0.085  -0.952  1.00  0.00     0.202 C 
BRANCH   4   5
ATOM      5  C   UNL     1      -3.436  -0.626  -0.273  1.00  0.00     0.261 C 
BRANCH   5   6
ATOM      6  O   UNL     1      -2.199  -0.376  -0.962  1.00  0.00    -0.462 OA
BRANCH   6   7
ATOM      7  C   UNL     1      -1.512  -1.454  -1.417  1.00  0.00     0.328 C 
ATOM      8  O   UNL     1      -1.940  -2.604  -1.346  1.00  0.00    -0.250 OA
BRANCH   7   9
ATOM      9  C   UNL     1      -0.046  -1.139  -1.786  1.00  0.00     0.195 C 
ATOM     10  N   UNL     1       0.654  -1.261  -0.507  1.00  0.00    -0.326 N 
ATOM     11  C   UNL     1       0.578  -0.099   0.403  1.00  0.00     0.083 C 
ATOM     12  C   UNL     1      -0.377  -0.227   1.586  1.00  0.00     0.031 C 
ATOM     13  C   UNL     1       0.371   1.238  -0.341  1.00  0.00     0.025 C 
ATOM     14  C   UNL     1       0.410   0.101  -2.565  1.00  0.00     0.037 C 
ATOM     15  C   UNL     1       1.034   1.196  -1.705  1.00  0.00     0.005 C 
BRANCH  10  16
ATOM     16  C   UNL     1       1.370  -2.426  -0.302  1.00  0.00     0.224 C 
ATOM     17  O   UNL     1       1.865  -3.055  -1.241  1.00  0.00    -0.275 OA
BRANCH  16  18
ATOM     18  C   UNL     1       1.412  -3.009   1.087  1.00  0.00     0.111 C 
BRANCH  18  19
ATOM     19  C   UNL     1       2.721  -2.845   1.843  1.00  0.00     0.079 C 
BRANCH  19  20
ATOM     20  S   UNL     1       2.981  -1.265   2.726  1.00  0.00    -0.165 SA
ATOM     21  C   UNL     1       3.874  -0.317   1.457  1.00  0.00     0.085 C 
ENDBRANCH  19  20
ENDBRANCH  18  19
ENDBRANCH  16  18
ENDBRANCH  10  16
ENDBRANCH   7   9
ENDBRANCH   6   7
ENDBRANCH   5   6
ENDBRANCH   4   5
ENDBRANCH   3   4
ENDBRANCH   2   3
ENDBRANCH   1   2
BRANCH   1  22
ATOM     22  O   UNL     1      -2.820   1.394  -2.624  1.00  0.00    -0.377 OA
BRANCH  22  23
ATOM     23  C   UNL     1      -3.643   2.554  -2.663  1.00  0.00     0.188 C 
BRANCH  23  24
ATOM     24  C   UNL     1      -5.011   2.470  -3.364  1.00  0.00     0.188 C 
BRANCH  24  25
ATOM     25  O   UNL     1      -4.974   1.832  -4.628  1.00  0.00    -0.376 OA
BRANCH  25  26
ATOM     26  C   UNL     1      -4.765   2.608  -5.798  1.00  0.00     0.202 C 
BRANCH  26  27
ATOM     27  C   UNL     1      -3.511   3.495  -5.889  1.00  0.00     0.261 C 
BRANCH  27  28
ATOM     28  O   UNL     1      -3.359   4.524  -4.896  1.00  0.00    -0.460 OA
BRANCH  28  29
ATOM     29  C   UNL     1      -4.386   5.378  -4.690  1.00  0.00     0.338 C 
ATOM     30  O   UNL     1      -5.423   5.448  -5.308  1.00  0.00    -0.246 OA
BRANCH  29  31
ATOM     31  C   UNL     1      -4.114   6.103  -3.427  1.00  0.00     0.060 A 
ATOM     32  C   UNL     1      -5.025   5.988  -2.370  1.00  0.00     0.016 A 
ATOM     33  C   UNL     1      -2.987   6.918  -3.306  1.00  0.00     0.016 A 
ATOM     34  C   UNL     1      -4.841   6.730  -1.204  1.00  0.00     0.010 A 
ATOM     35  C   UNL     1      -2.818   7.684  -2.148  1.00  0.00     0.010 A 
ATOM     36  C   UNL     1      -3.768   7.625  -1.113  1.00  0.00    -0.014 A 
BRANCH  36  37
ATOM     37  C   UNL     1      -3.779   8.660  -0.051  1.00  0.00     0.031 A 
ATOM     38  C   UNL     1      -4.313  10.025  -0.399  1.00  0.00     0.074 A 
ATOM     39  C   UNL     1      -3.381   8.388   1.204  1.00  0.00     0.049 A 
ATOM     40  N   UNL     1      -4.392  11.100   0.341  1.00  0.00    -0.248 NA
ATOM     41  C   UNL     1      -4.835  10.197  -1.767  1.00  0.00     0.031 C 
ATOM     42  C   UNL     1      -2.914   7.090   1.686  1.00  0.00     0.029 A 
ATOM     43  N   UNL     1      -3.312   9.202   2.307  1.00  0.00    -0.354 N 
ATOM     44  C   UNL     1      -4.971  12.071  -0.467  1.00  0.00     0.074 A 
ATOM     45  C   UNL     1      -5.190  11.473  -1.765  1.00  0.00     0.031 C 
ATOM     46  C   UNL     1      -2.598   7.198   2.989  1.00  0.00     0.029 A 
ATOM     47  C   UNL     1      -2.804   8.579   3.421  1.00  0.00     0.049 A 
ATOM     48  H   UNL     1      -3.599  10.144   2.300  1.00  0.00     0.167 HD
ATOM     49  C   UNL     1      -5.306  13.345  -0.155  1.00  0.00     0.031 A 
ATOM     50  C   UNL     1      -2.518   9.078   4.640  1.00  0.00     0.031 A 
ATOM     51  C   UNL     1      -5.074  13.948   1.128  1.00  0.00     0.049 A 
ATOM     52  C   UNL     1      -2.787  10.537   4.921  1.00  0.00     0.074 A 
ATOM     53  C   UNL     1      -5.355  15.241   1.536  1.00  0.00     0.029 A 
ATOM     54  N   UNL     1      -4.504  13.300   2.211  1.00  0.00    -0.354 N 
ATOM     55  N   UNL     1      -3.339  11.443   4.150  1.00  0.00    -0.248 NA
ATOM     56  C   UNL     1      -2.400  11.037   6.249  1.00  0.00     0.031 C 
ATOM     57  C   UNL     1      -4.906  15.389   2.851  1.00  0.00     0.029 A 
ATOM     58  C   UNL     1      -4.407  14.171   3.282  1.00  0.00     0.049 A 
ATOM     59  H   UNL     1      -4.211  12.360   2.218  1.00  0.00     0.167 HD
ATOM     60  C   UNL     1      -3.403  12.603   4.915  1.00  0.00     0.074 A 
ATOM     61  C   UNL     1      -2.850  12.282   6.213  1.00  0.00     0.031 C 
ATOM     62  C   UNL     1      -3.875  13.828   4.574  1.00  0.00     0.031 A 
BRANCH  49  63
ATOM     63  C   UNL     1      -5.944  14.181  -1.229  1.00  0.00    -0.014 A 
ATOM     64  C   UNL     1      -7.264  13.944  -1.644  1.00  0.00     0.009 A 
ATOM     65  C   UNL     1      -5.236  15.254  -1.792  1.00  0.00     0.009 A 
ATOM     66  C   UNL     1      -7.855  14.753  -2.616  1.00  0.00     0.001 A 
ATOM     67  C   UNL     1      -5.839  16.079  -2.742  1.00  0.00     0.001 A 
ATOM     68  C   UNL     1      -7.145  15.825  -3.158  1.00  0.00     0.000 A 
ENDBRANCH  49  63
BRANCH  50  69
ATOM     69  C   UNL     1      -1.903   8.220   5.690  1.00  0.00    -0.014 A 
ATOM     70  C   UNL     1      -2.582   7.954   6.890  1.00  0.00     0.009 A 
ATOM     71  C   UNL     1      -0.597   7.730   5.532  1.00  0.00     0.009 A 
ATOM     72  C   UNL     1      -1.949   7.260   7.925  1.00  0.00     0.001 A 
ATOM     73  C   UNL     1       0.020   7.005   6.554  1.00  0.00     0.001 A 
ATOM     74  C   UNL     1      -0.650   6.786   7.756  1.00  0.00     0.000 A 
ENDBRANCH  50  69
BRANCH  62  75
ATOM     75  C   UNL     1      -3.879  14.891   5.638  1.00  0.00    -0.014 A 
ATOM     76  C   UNL     1      -2.689  15.473   6.101  1.00  0.00     0.009 A 
ATOM     77  C   UNL     1      -5.103  15.348   6.152  1.00  0.00     0.009 A 
ATOM     78  C   UNL     1      -2.724  16.462   7.087  1.00  0.00     0.001 A 
ATOM     79  C   UNL     1      -5.137  16.361   7.111  1.00  0.00     0.001 A 
ATOM     80  C   UNL     1      -3.947  16.909   7.586  1.00  0.00     0.000 A 
ENDBRANCH  62  75
ENDBRANCH  36  37
ENDBRANCH  29  31
ENDBRANCH  28  29
ENDBRANCH  27  28
ENDBRANCH  26  27
ENDBRANCH  25  26
ENDBRANCH  24  25
ENDBRANCH  23  24
ENDBRANCH  22  23
ENDBRANCH   1  22
TORSDOF 24
