REMARK SMILES CCCc1c(C(=O)OCCOCCOCCOCCOC(=O)c2ccc(-c3c4nc(c(-c5ccccc5)c5ccc([nH]5)c(-c5ccccc5)c5nc(c(-c6ccccc6)c6ccc3[nH]6)C=C5)C=C4)cc2)nnn1-c1cc(OC)ccc1F
REMARK SMILES IDX 14 1 13 2 12 3 11 4 10 5 9 6 8 7 6 8 7 9 5 10 4 11 73 12
REMARK SMILES IDX 71 13 72 14 3 15 2 16 1 17 74 18 75 19 81 20 76 21 80 22
REMARK SMILES IDX 82 23 79 24 77 25 78 26 15 27 16 28 17 29 18 30 19 31 20 32
REMARK SMILES IDX 21 33 22 34 23 35 24 36 70 37 25 38 69 39 26 40 27 41 28 42
REMARK SMILES IDX 63 43 29 44 68 45 62 46 64 47 30 48 67 49 61 50 60 51 31 53
REMARK SMILES IDX 53 54 38 55 52 56 39 57 42 58 51 59 65 60 40 61 41 62 50 64
REMARK SMILES IDX 66 65 43 66 32 67 33 68 37 69 34 70 36 71 35 72 54 73 55 74
REMARK SMILES IDX 59 75 56 76 58 77 57 78 44 79 45 80 49 81 46 82 48 83 47 84
REMARK H PARENT 64 52 42 63
REMARK Flexibility Score: inf
ROOT
ATOM      1  O   UNL     1       2.292  -5.302   3.543  1.00  0.00    -0.377 OA
ENDROOT
BRANCH   1   2
ATOM      2  C   UNL     1       1.662  -4.487   4.526  1.00  0.00     0.188 C 
BRANCH   2   3
ATOM      3  C   UNL     1       0.357  -4.924   5.229  1.00  0.00     0.188 C 
BRANCH   3   4
ATOM      4  O   UNL     1      -0.023  -6.250   4.932  1.00  0.00    -0.376 OA
BRANCH   4   5
ATOM      5  C   UNL     1      -1.137  -6.519   4.117  1.00  0.00     0.202 C 
BRANCH   5   6
ATOM      6  C   UNL     1      -1.278  -5.845   2.744  1.00  0.00     0.261 C 
BRANCH   6   7
ATOM      7  O   UNL     1      -0.711  -4.539   2.606  1.00  0.00    -0.458 OA
BRANCH   7   8
ATOM      8  C   UNL     1      -1.474  -3.491   3.027  1.00  0.00     0.360 C 
ATOM      9  O   UNL     1      -2.607  -3.613   3.471  1.00  0.00    -0.244 OA
BRANCH   8  10
ATOM     10  C   UNL     1      -0.734  -2.232   3.025  1.00  0.00     0.194 A 
ATOM     11  C   UNL     1       0.226  -1.744   2.142  1.00  0.00     0.080 A 
ATOM     12  N   UNL     1       0.485  -0.473   2.642  1.00  0.00    -0.214 N 
ATOM     13  N   UNL     1      -0.829  -1.369   4.094  1.00  0.00    -0.122 NA
ATOM     14  N   UNL     1       0.010  -0.364   3.899  1.00  0.00    -0.061 NA
BRANCH  11  15
ATOM     15  C   UNL     1       0.963  -2.377   0.995  1.00  0.00     0.059 C 
BRANCH  15  16
ATOM     16  C   UNL     1       0.627  -1.852  -0.401  1.00  0.00     0.003 C 
ATOM     17  C   UNL     1       1.703  -0.930  -0.969  1.00  0.00     0.004 C 
ENDBRANCH  15  16
ENDBRANCH  11  15
BRANCH  12  18
ATOM     18  C   UNL     1       0.816   0.691   1.940  1.00  0.00     0.106 A 
ATOM     19  C   UNL     1       1.971   1.415   2.248  1.00  0.00     0.078 A 
ATOM     20  C   UNL     1      -0.053   1.131   0.945  1.00  0.00     0.149 A 
ATOM     21  C   UNL     1       2.302   2.531   1.470  1.00  0.00     0.121 A 
ATOM     22  C   UNL     1       0.266   2.242   0.180  1.00  0.00     0.045 A 
ATOM     23  F   UNL     1      -1.211   0.498   0.710  1.00  0.00    -0.205 F 
ATOM     24  C   UNL     1       1.456   2.928   0.425  1.00  0.00     0.049 A 
BRANCH  21  25
ATOM     25  O   UNL     1       3.478   3.144   1.807  1.00  0.00    -0.497 OA
ATOM     26  C   UNL     1       3.817   4.322   1.080  1.00  0.00     0.278 C 
ENDBRANCH  21  25
ENDBRANCH  12  18
ENDBRANCH   8  10
ENDBRANCH   7   8
ENDBRANCH   6   7
ENDBRANCH   5   6
ENDBRANCH   4   5
ENDBRANCH   3   4
ENDBRANCH   2   3
ENDBRANCH   1   2
BRANCH   1  27
ATOM     27  C   UNL     1       2.329  -6.720   3.673  1.00  0.00     0.188 C 
BRANCH  27  28
ATOM     28  C   UNL     1       2.443  -7.426   5.047  1.00  0.00     0.188 C 
BRANCH  28  29
ATOM     29  O   UNL     1       2.290  -6.594   6.179  1.00  0.00    -0.376 OA
BRANCH  29  30
ATOM     30  C   UNL     1       3.381  -6.134   6.945  1.00  0.00     0.202 C 
BRANCH  30  31
ATOM     31  C   UNL     1       4.613  -5.545   6.272  1.00  0.00     0.261 C 
BRANCH  31  32
ATOM     32  O   UNL     1       4.956  -6.121   5.029  1.00  0.00    -0.460 OA
BRANCH  32  33
ATOM     33  C   UNL     1       5.534  -7.333   5.121  1.00  0.00     0.338 C 
ATOM     34  O   UNL     1       5.518  -8.098   6.064  1.00  0.00    -0.246 OA
BRANCH  33  35
ATOM     35  C   UNL     1       6.344  -7.520   3.920  1.00  0.00     0.060 A 
ATOM     36  C   UNL     1       6.796  -8.811   3.651  1.00  0.00     0.016 A 
ATOM     37  C   UNL     1       6.895  -6.381   3.312  1.00  0.00     0.016 A 
ATOM     38  C   UNL     1       7.957  -8.943   2.927  1.00  0.00     0.010 A 
ATOM     39  C   UNL     1       8.066  -6.513   2.615  1.00  0.00     0.010 A 
ATOM     40  C   UNL     1       8.622  -7.783   2.508  1.00  0.00    -0.014 A 
BRANCH  40  41
ATOM     41  C   UNL     1       9.888  -7.935   1.833  1.00  0.00     0.031 A 
ATOM     42  C   UNL     1       9.720  -8.427   0.454  1.00  0.00     0.074 A 
ATOM     43  C   UNL     1      11.058  -7.569   2.386  1.00  0.00     0.049 A 
ATOM     44  N   UNL     1      10.022  -9.599   0.011  1.00  0.00    -0.248 NA
ATOM     45  C   UNL     1       8.944  -7.600  -0.486  1.00  0.00     0.031 C 
ATOM     46  C   UNL     1      11.276  -6.833   3.634  1.00  0.00     0.029 A 
ATOM     47  N   UNL     1      12.313  -7.685   1.875  1.00  0.00    -0.354 N 
ATOM     48  C   UNL     1       9.692  -9.571  -1.335  1.00  0.00     0.074 A 
ATOM     49  C   UNL     1       8.838  -8.427  -1.525  1.00  0.00     0.031 C 
ATOM     50  C   UNL     1      12.544  -6.362   3.653  1.00  0.00     0.029 A 
ATOM     51  C   UNL     1      13.254  -6.869   2.490  1.00  0.00     0.049 A 
ATOM     52  H   UNL     1      12.535  -8.294   1.134  1.00  0.00     0.167 HD
ATOM     53  C   UNL     1      10.426 -10.278  -2.235  1.00  0.00     0.031 A 
ATOM     54  C   UNL     1      14.495  -6.579   2.022  1.00  0.00     0.031 A 
ATOM     55  C   UNL     1      11.203 -11.310  -1.592  1.00  0.00     0.049 A 
ATOM     56  C   UNL     1      14.852  -7.614   1.024  1.00  0.00     0.074 A 
ATOM     57  C   UNL     1      10.910 -12.389  -0.781  1.00  0.00     0.029 A 
ATOM     58  N   UNL     1      12.544 -11.063  -1.424  1.00  0.00    -0.354 N 
ATOM     59  N   UNL     1      15.098  -8.853   1.335  1.00  0.00    -0.248 NA
ATOM     60  C   UNL     1      14.504  -7.379  -0.368  1.00  0.00     0.031 C 
ATOM     61  C   UNL     1      11.977 -12.447   0.164  1.00  0.00     0.029 A 
ATOM     62  C   UNL     1      12.902 -11.454  -0.162  1.00  0.00     0.049 A 
ATOM     63  H   UNL     1      13.146 -10.671  -2.098  1.00  0.00     0.167 HD
ATOM     64  C   UNL     1      14.478  -9.590   0.337  1.00  0.00     0.074 A 
ATOM     65  C   UNL     1      14.239  -8.634  -0.744  1.00  0.00     0.031 C 
ATOM     66  C   UNL     1      13.955 -10.824   0.605  1.00  0.00     0.031 A 
BRANCH  53  67
ATOM     67  C   UNL     1      10.813  -9.695  -3.573  1.00  0.00    -0.014 A 
ATOM     68  C   UNL     1      11.559 -10.491  -4.457  1.00  0.00     0.009 A 
ATOM     69  C   UNL     1      10.737  -8.319  -3.872  1.00  0.00     0.009 A 
ATOM     70  C   UNL     1      12.255  -9.923  -5.530  1.00  0.00     0.001 A 
ATOM     71  C   UNL     1      11.392  -7.756  -4.967  1.00  0.00     0.001 A 
ATOM     72  C   UNL     1      12.177  -8.556  -5.780  1.00  0.00     0.000 A 
ENDBRANCH  53  67
BRANCH  54  73
ATOM     73  C   UNL     1      15.271  -5.325   2.144  1.00  0.00    -0.014 A 
ATOM     74  C   UNL     1      16.631  -5.292   1.789  1.00  0.00     0.009 A 
ATOM     75  C   UNL     1      14.615  -4.095   2.326  1.00  0.00     0.009 A 
ATOM     76  C   UNL     1      17.291  -4.075   1.570  1.00  0.00     0.001 A 
ATOM     77  C   UNL     1      15.276  -2.880   2.115  1.00  0.00     0.001 A 
ATOM     78  C   UNL     1      16.609  -2.871   1.717  1.00  0.00     0.000 A 
ENDBRANCH  54  73
BRANCH  66  79
ATOM     79  C   UNL     1      14.338 -11.478   1.913  1.00  0.00    -0.014 A 
ATOM     80  C   UNL     1      14.112 -10.898   3.175  1.00  0.00     0.009 A 
ATOM     81  C   UNL     1      14.866 -12.777   1.868  1.00  0.00     0.009 A 
ATOM     82  C   UNL     1      14.456 -11.576   4.349  1.00  0.00     0.001 A 
ATOM     83  C   UNL     1      15.185 -13.464   3.041  1.00  0.00     0.001 A 
ATOM     84  C   UNL     1      14.993 -12.860   4.280  1.00  0.00     0.000 A 
ENDBRANCH  66  79
ENDBRANCH  40  41
ENDBRANCH  33  35
ENDBRANCH  32  33
ENDBRANCH  31  32
ENDBRANCH  30  31
ENDBRANCH  29  30
ENDBRANCH  28  29
ENDBRANCH  27  28
ENDBRANCH   1  27
TORSDOF 24
