REMARK SMILES O=C(COCCNC(=O)c1cnn(-c2ccccc2)c1)OCCOCCOCCOCCOC(=O)c1ccc(-c2c3nc(c(-c4ccccc4)c4ccc([nH]4)c(-c4ccccc4)c4nc(c(-c5ccccc5)c5ccc2[nH]5)C=C4)C=C3)cc1
REMARK SMILES IDX 25 1 24 2 23 3 22 4 21 5 2 6 1 7 3 8 4 9 5 10 6 11 7 12 8 13
REMARK SMILES IDX 9 15 10 16 11 17 20 18 12 19 13 20 14 21 15 22 19 23 16 24
REMARK SMILES IDX 18 25 17 26 26 27 27 28 28 29 29 30 30 31 31 32 32 33 33 34
REMARK SMILES IDX 34 35 35 36 36 37 37 38 83 39 38 40 82 41 39 42 40 43 41 44
REMARK SMILES IDX 76 45 42 46 81 47 75 48 77 49 43 50 80 51 74 52 73 53 44 55
REMARK SMILES IDX 66 56 51 57 65 58 52 59 55 60 64 61 78 62 53 63 54 64 63 66
REMARK SMILES IDX 79 67 56 68 45 69 46 70 50 71 47 72 49 73 48 74 67 75 68 76
REMARK SMILES IDX 72 77 69 78 71 79 70 80 57 81 58 82 62 83 59 84 61 85 60 86
REMARK H PARENT 7 14 77 54 55 65
REMARK Flexibility Score: inf
ROOT
ATOM      1  C   UNL     1       2.789   1.259   0.875  1.00  0.00     0.188 C 
ENDROOT
BRANCH   1   2
ATOM      2  O   UNL     1       4.158   0.937   1.046  1.00  0.00    -0.376 OA
BRANCH   2   3
ATOM      3  C   UNL     1       5.119   0.719   0.028  1.00  0.00     0.202 C 
BRANCH   3   4
ATOM      4  C   UNL     1       4.786   0.088  -1.326  1.00  0.00     0.261 C 
BRANCH   4   5
ATOM      5  O   UNL     1       3.425  -0.266  -1.557  1.00  0.00    -0.462 OA
BRANCH   5   6
ATOM      6  C   UNL     1       2.860  -1.391  -1.054  1.00  0.00     0.332 C 
ATOM      7  O   UNL     1       1.764  -1.748  -1.481  1.00  0.00    -0.250 OA
BRANCH   6   8
ATOM      8  C   UNL     1       3.549  -2.082   0.134  1.00  0.00     0.282 C 
BRANCH   8   9
ATOM      9  O   UNL     1       3.701  -3.488   0.087  1.00  0.00    -0.368 OA
BRANCH   9  10
ATOM     10  C   UNL     1       2.497  -4.252   0.085  1.00  0.00     0.182 C 
BRANCH  10  11
ATOM     11  C   UNL     1       1.833  -4.335   1.466  1.00  0.00     0.144 C 
BRANCH  11  12
ATOM     12  N   UNL     1       1.077  -3.141   1.826  1.00  0.00    -0.350 N 
ATOM     13  C   UNL     1      -0.120  -2.706   1.319  1.00  0.00     0.254 C 
ATOM     14  H   UNL     1       1.478  -2.574   2.524  1.00  0.00     0.163 HD
ATOM     15  O   UNL     1      -0.458  -1.536   1.501  1.00  0.00    -0.269 OA
BRANCH  13  16
ATOM     16  C   UNL     1      -0.946  -3.652   0.609  1.00  0.00     0.078 A 
ATOM     17  C   UNL     1      -1.421  -4.903   1.042  1.00  0.00     0.149 A 
ATOM     18  C   UNL     1      -1.525  -3.491  -0.633  1.00  0.00     0.128 A 
ATOM     19  N   UNL     1      -2.215  -5.494   0.152  1.00  0.00    -0.176 NA
ATOM     20  N   UNL     1      -2.251  -4.632  -0.900  1.00  0.00    -0.240 N 
BRANCH  20  21
ATOM     21  C   UNL     1      -2.956  -4.972  -2.085  1.00  0.00     0.065 A 
ATOM     22  C   UNL     1      -3.854  -6.051  -2.062  1.00  0.00     0.028 A 
ATOM     23  C   UNL     1      -2.753  -4.267  -3.278  1.00  0.00     0.028 A 
ATOM     24  C   UNL     1      -4.548  -6.414  -3.216  1.00  0.00     0.002 A 
ATOM     25  C   UNL     1      -3.435  -4.652  -4.436  1.00  0.00     0.002 A 
ATOM     26  C   UNL     1      -4.334  -5.719  -4.404  1.00  0.00     0.000 A 
ENDBRANCH  20  21
ENDBRANCH  13  16
ENDBRANCH  11  12
ENDBRANCH  10  11
ENDBRANCH   9  10
ENDBRANCH   8   9
ENDBRANCH   6   8
ENDBRANCH   5   6
ENDBRANCH   4   5
ENDBRANCH   3   4
ENDBRANCH   2   3
ENDBRANCH   1   2
BRANCH   1  27
ATOM     27  C   UNL     1       2.278   2.685   0.579  1.00  0.00     0.188 C 
BRANCH  27  28
ATOM     28  O   UNL     1       3.046   3.817   0.939  1.00  0.00    -0.377 OA
BRANCH  28  29
ATOM     29  C   UNL     1       4.361   3.847   0.440  1.00  0.00     0.188 C 
BRANCH  29  30
ATOM     30  C   UNL     1       5.437   3.784   1.545  1.00  0.00     0.188 C 
BRANCH  30  31
ATOM     31  O   UNL     1       5.227   3.177   2.818  1.00  0.00    -0.376 OA
BRANCH  31  32
ATOM     32  C   UNL     1       3.992   3.216   3.523  1.00  0.00     0.202 C 
BRANCH  32  33
ATOM     33  C   UNL     1       3.371   4.532   3.997  1.00  0.00     0.261 C 
BRANCH  33  34
ATOM     34  O   UNL     1       3.272   5.503   2.976  1.00  0.00    -0.460 OA
BRANCH  34  35
ATOM     35  C   UNL     1       4.363   6.269   2.854  1.00  0.00     0.338 C 
ATOM     36  O   UNL     1       5.364   6.264   3.572  1.00  0.00    -0.246 OA
BRANCH  35  37
ATOM     37  C   UNL     1       4.184   7.187   1.731  1.00  0.00     0.060 A 
ATOM     38  C   UNL     1       5.260   8.033   1.457  1.00  0.00     0.016 A 
ATOM     39  C   UNL     1       2.907   7.393   1.189  1.00  0.00     0.016 A 
ATOM     40  C   UNL     1       4.984   9.255   0.904  1.00  0.00     0.010 A 
ATOM     41  C   UNL     1       2.627   8.624   0.655  1.00  0.00     0.010 A 
ATOM     42  C   UNL     1       3.649   9.568   0.636  1.00  0.00    -0.014 A 
BRANCH  42  43
ATOM     43  C   UNL     1       3.342  10.957   0.414  1.00  0.00     0.031 A 
ATOM     44  C   UNL     1       3.554  11.416  -0.962  1.00  0.00     0.074 A 
ATOM     45  C   UNL     1       2.862  11.741   1.394  1.00  0.00     0.049 A 
ATOM     46  N   UNL     1       4.478  12.206  -1.390  1.00  0.00    -0.248 NA
ATOM     47  C   UNL     1       2.715  10.815  -2.005  1.00  0.00     0.031 C 
ATOM     48  C   UNL     1       2.327  11.336   2.697  1.00  0.00     0.029 A 
ATOM     49  N   UNL     1       2.650  13.082   1.366  1.00  0.00    -0.354 N 
ATOM     50  C   UNL     1       4.227  12.352  -2.745  1.00  0.00     0.074 A 
ATOM     51  C   UNL     1       3.261  11.342  -3.099  1.00  0.00     0.031 C 
ATOM     52  C   UNL     1       1.647  12.377   3.231  1.00  0.00     0.029 A 
ATOM     53  C   UNL     1       1.812  13.538   2.369  1.00  0.00     0.049 A 
ATOM     54  H   UNL     1       3.056  13.676   0.694  1.00  0.00     0.167 HD
ATOM     55  C   UNL     1       4.626  13.459  -3.423  1.00  0.00     0.031 A 
ATOM     56  C   UNL     1       1.232  14.759   2.422  1.00  0.00     0.031 A 
ATOM     57  C   UNL     1       5.612  14.219  -2.700  1.00  0.00     0.049 A 
ATOM     58  C   UNL     1       1.972  15.659   1.505  1.00  0.00     0.074 A 
ATOM     59  C   UNL     1       6.875  13.960  -2.209  1.00  0.00     0.029 A 
ATOM     60  N   UNL     1       5.183  15.362  -2.068  1.00  0.00    -0.354 N 
ATOM     61  N   UNL     1       3.177  16.097   1.733  1.00  0.00    -0.248 NA
ATOM     62  C   UNL     1       1.528  15.768   0.122  1.00  0.00     0.031 C 
ATOM     63  C   UNL     1       6.970  14.708  -1.000  1.00  0.00     0.029 A 
ATOM     64  C   UNL     1       5.771  15.403  -0.830  1.00  0.00     0.049 A 
ATOM     65  H   UNL     1       4.563  16.032  -2.437  1.00  0.00     0.167 HD
ATOM     66  C   UNL     1       3.788  16.131   0.487  1.00  0.00     0.074 A 
ATOM     67  C   UNL     1       2.692  16.047  -0.472  1.00  0.00     0.031 C 
ATOM     68  C   UNL     1       5.133  15.933   0.357  1.00  0.00     0.031 A 
BRANCH  55  69
ATOM     69  C   UNL     1       3.811  14.052  -4.539  1.00  0.00    -0.014 A 
ATOM     70  C   UNL     1       4.349  15.116  -5.277  1.00  0.00     0.009 A 
ATOM     71  C   UNL     1       2.438  13.784  -4.714  1.00  0.00     0.009 A 
ATOM     72  C   UNL     1       3.542  15.901  -6.106  1.00  0.00     0.001 A 
ATOM     73  C   UNL     1       1.640  14.533  -5.578  1.00  0.00     0.001 A 
ATOM     74  C   UNL     1       2.188  15.610  -6.255  1.00  0.00     0.000 A 
ENDBRANCH  55  69
BRANCH  56  75
ATOM     75  C   UNL     1      -0.069  15.128   3.015  1.00  0.00    -0.014 A 
ATOM     76  C   UNL     1      -0.385  16.473   3.258  1.00  0.00     0.009 A 
ATOM     77  C   UNL     1      -1.105  14.182   3.118  1.00  0.00     0.009 A 
ATOM     78  C   UNL     1      -1.698  16.859   3.556  1.00  0.00     0.001 A 
ATOM     79  C   UNL     1      -2.413  14.565   3.426  1.00  0.00     0.001 A 
ATOM     80  C   UNL     1      -2.712  15.907   3.629  1.00  0.00     0.000 A 
ENDBRANCH  56  75
BRANCH  68  81
ATOM     81  C   UNL     1       5.976  15.986   1.607  1.00  0.00    -0.014 A 
ATOM     82  C   UNL     1       5.782  15.118   2.696  1.00  0.00     0.009 A 
ATOM     83  C   UNL     1       7.085  16.846   1.632  1.00  0.00     0.009 A 
ATOM     84  C   UNL     1       6.647  15.141   3.795  1.00  0.00     0.001 A 
ATOM     85  C   UNL     1       7.963  16.852   2.719  1.00  0.00     0.001 A 
ATOM     86  C   UNL     1       7.739  16.006   3.803  1.00  0.00     0.000 A 
ENDBRANCH  68  81
ENDBRANCH  42  43
ENDBRANCH  35  37
ENDBRANCH  34  35
ENDBRANCH  33  34
ENDBRANCH  32  33
ENDBRANCH  31  32
ENDBRANCH  30  31
ENDBRANCH  29  30
ENDBRANCH  28  29
ENDBRANCH  27  28
ENDBRANCH   1  27
TORSDOF 26
