REMARK SMILES O=C(OCCOCCOCCOCCOC(=O)c1ccc(-c2c3nc(c(-c4ccccc4)c4ccc([nH]4)c(-c4ccccc4)c4nc(c(-c5ccccc5)c5ccc2[nH]5)C=C4)C=C3)cc1)C1=Cc2c(ccc(Cl)c2Oc2ccccc2)O[C@H]1C(F)(F)F
REMARK SMILES IDX 9 1 8 2 7 3 6 4 5 5 4 6 3 7 2 8 1 9 66 10 67 11 83 12 68 13
REMARK SMILES IDX 82 14 69 15 74 16 70 17 72 18 71 19 73 20 84 21 85 22 86 23
REMARK SMILES IDX 87 24 75 25 76 26 77 27 81 28 78 29 80 30 79 31 10 32 11 33
REMARK SMILES IDX 12 34 13 35 14 36 15 37 16 38 17 39 18 40 19 41 65 42 20 43
REMARK SMILES IDX 64 44 21 45 22 46 23 47 58 48 24 49 63 50 57 51 59 52 25 53
REMARK SMILES IDX 62 54 56 55 55 56 26 58 48 59 33 60 47 61 34 62 37 63 46 64
REMARK SMILES IDX 60 65 35 66 36 67 45 69 61 70 38 71 27 72 28 73 32 74 29 75
REMARK SMILES IDX 31 76 30 77 49 78 50 79 54 80 51 81 53 82 52 83 39 84 40 85
REMARK SMILES IDX 44 86 41 87 43 88 42 89
REMARK H PARENT 59 57 37 68
REMARK Flexibility Score: inf
ROOT
ATOM      1  O   UNL     1       2.732   3.069   0.599  1.00  0.00    -0.377 OA
ENDROOT
BRANCH   1   2
ATOM      2  C   UNL     1       1.330   3.317   0.412  1.00  0.00     0.188 C 
BRANCH   2   3
ATOM      3  C   UNL     1       0.664   2.405  -0.638  1.00  0.00     0.188 C 
BRANCH   3   4
ATOM      4  O   UNL     1       0.526   1.024  -0.310  1.00  0.00    -0.376 OA
BRANCH   4   5
ATOM      5  C   UNL     1       1.733   0.274  -0.279  1.00  0.00     0.202 C 
BRANCH   5   6
ATOM      6  C   UNL     1       2.357  -0.120  -1.613  1.00  0.00     0.261 C 
BRANCH   6   7
ATOM      7  O   UNL     1       2.125  -1.522  -1.909  1.00  0.00    -0.460 OA
BRANCH   7   8
ATOM      8  C   UNL     1       2.667  -2.623  -1.339  1.00  0.00     0.338 C 
ATOM      9  O   UNL     1       2.371  -3.734  -1.775  1.00  0.00    -0.246 OA
BRANCH   8  10
ATOM     10  C   UNL     1       3.631  -2.572  -0.229  1.00  0.00     0.088 C 
ATOM     11  C   UNL     1       3.827  -1.568   0.632  1.00  0.00     0.031 C 
ATOM     12  C   UNL     1       4.678  -3.655  -0.166  1.00  0.00     0.316 C 
ATOM     13  C   UNL     1       5.179  -0.984   0.412  1.00  0.00     0.062 A 
ATOM     14  O   UNL     1       5.982  -3.092  -0.524  1.00  0.00    -0.475 OA
ATOM     15  C   UNL     1       6.106  -1.730  -0.342  1.00  0.00     0.131 A 
ATOM     16  C   UNL     1       5.376   0.376   0.659  1.00  0.00     0.156 A 
ATOM     17  C   UNL     1       7.109  -1.077  -1.045  1.00  0.00     0.049 A 
ATOM     18  C   UNL     1       6.307   1.038  -0.163  1.00  0.00     0.084 A 
ATOM     19  C   UNL     1       7.154   0.316  -1.018  1.00  0.00     0.028 A 
ATOM     20  Cl  UNL     1       6.376   2.759  -0.326  1.00  0.00    -0.080 Cl
BRANCH  12  21
ATOM     21  C   UNL     1       4.669  -4.347   1.218  1.00  0.00     0.430 C 
ATOM     22  F   UNL     1       3.426  -4.341   1.770  1.00  0.00    -0.167 F 
ATOM     23  F   UNL     1       5.054  -5.639   1.142  1.00  0.00    -0.167 F 
ATOM     24  F   UNL     1       5.484  -3.730   2.109  1.00  0.00    -0.167 F 
ENDBRANCH  12  21
BRANCH  16  25
ATOM     25  O   UNL     1       4.563   1.099   1.507  1.00  0.00    -0.455 OA
BRANCH  25  26
ATOM     26  C   UNL     1       4.006   0.537   2.646  1.00  0.00     0.127 A 
ATOM     27  C   UNL     1       2.628   0.718   2.837  1.00  0.00     0.047 A 
ATOM     28  C   UNL     1       4.727  -0.150   3.616  1.00  0.00     0.047 A 
ATOM     29  C   UNL     1       1.941   0.107   3.880  1.00  0.00     0.004 A 
ATOM     30  C   UNL     1       4.043  -0.746   4.687  1.00  0.00     0.004 A 
ATOM     31  C   UNL     1       2.652  -0.644   4.801  1.00  0.00     0.000 A 
ENDBRANCH  25  26
ENDBRANCH  16  25
ENDBRANCH   8  10
ENDBRANCH   7   8
ENDBRANCH   6   7
ENDBRANCH   5   6
ENDBRANCH   4   5
ENDBRANCH   3   4
ENDBRANCH   2   3
ENDBRANCH   1   2
BRANCH   1  32
ATOM     32  C   UNL     1       3.405   4.179   1.210  1.00  0.00     0.188 C 
BRANCH  32  33
ATOM     33  C   UNL     1       4.453   3.833   2.298  1.00  0.00     0.188 C 
BRANCH  33  34
ATOM     34  O   UNL     1       4.054   3.433   3.603  1.00  0.00    -0.376 OA
BRANCH  34  35
ATOM     35  C   UNL     1       2.835   3.920   4.129  1.00  0.00     0.202 C 
BRANCH  35  36
ATOM     36  C   UNL     1       2.786   5.407   4.502  1.00  0.00     0.261 C 
BRANCH  36  37
ATOM     37  O   UNL     1       3.163   6.273   3.422  1.00  0.00    -0.460 OA
BRANCH  37  38
ATOM     38  C   UNL     1       4.448   6.729   3.429  1.00  0.00     0.338 C 
ATOM     39  O   UNL     1       5.270   6.612   4.302  1.00  0.00    -0.246 OA
BRANCH  38  40
ATOM     40  C   UNL     1       4.750   7.179   2.042  1.00  0.00     0.060 A 
ATOM     41  C   UNL     1       5.947   6.762   1.429  1.00  0.00     0.016 A 
ATOM     42  C   UNL     1       3.811   7.920   1.324  1.00  0.00     0.016 A 
ATOM     43  C   UNL     1       6.213   7.093   0.101  1.00  0.00     0.010 A 
ATOM     44  C   UNL     1       4.095   8.292   0.016  1.00  0.00     0.010 A 
ATOM     45  C   UNL     1       5.313   7.917  -0.581  1.00  0.00    -0.014 A 
BRANCH  45  46
ATOM     46  C   UNL     1       5.762   8.716  -1.738  1.00  0.00     0.031 A 
ATOM     47  C   UNL     1       6.324  10.073  -1.425  1.00  0.00     0.074 A 
ATOM     48  C   UNL     1       5.558   8.321  -3.003  1.00  0.00     0.049 A 
ATOM     49  N   UNL     1       6.545  11.087  -2.216  1.00  0.00    -0.248 NA
ATOM     50  C   UNL     1       6.637  10.328  -0.007  1.00  0.00     0.031 C 
ATOM     51  C   UNL     1       5.058   7.014  -3.419  1.00  0.00     0.029 A 
ATOM     52  N   UNL     1       5.709   9.021  -4.173  1.00  0.00    -0.354 N 
ATOM     53  C   UNL     1       6.983  12.110  -1.385  1.00  0.00     0.074 A 
ATOM     54  C   UNL     1       6.976  11.604  -0.033  1.00  0.00     0.031 C 
ATOM     55  C   UNL     1       4.901   7.020  -4.756  1.00  0.00     0.029 A 
ATOM     56  C   UNL     1       5.243   8.346  -5.272  1.00  0.00     0.049 A 
ATOM     57  H   UNL     1       6.111   9.919  -4.219  1.00  0.00     0.167 HD
ATOM     58  C   UNL     1       7.346  13.369  -1.717  1.00  0.00     0.031 A 
ATOM     59  C   UNL     1       5.068   8.773  -6.538  1.00  0.00     0.031 A 
ATOM     60  C   UNL     1       7.308  13.870  -3.061  1.00  0.00     0.049 A 
ATOM     61  C   UNL     1       5.422  10.196  -6.888  1.00  0.00     0.074 A 
ATOM     62  C   UNL     1       7.675  15.117  -3.527  1.00  0.00     0.029 A 
ATOM     63  N   UNL     1       6.856  13.143  -4.154  1.00  0.00    -0.354 N 
ATOM     64  N   UNL     1       5.869  11.154  -6.109  1.00  0.00    -0.248 NA
ATOM     65  C   UNL     1       5.250  10.597  -8.292  1.00  0.00     0.031 C 
ATOM     66  C   UNL     1       7.379  15.169  -4.893  1.00  0.00     0.029 A 
ATOM     67  C   UNL     1       6.905  13.927  -5.291  1.00  0.00     0.049 A 
ATOM     68  H   UNL     1       6.547  12.209  -4.123  1.00  0.00     0.167 HD
ATOM     69  C   UNL     1       6.065  12.258  -6.932  1.00  0.00     0.074 A 
ATOM     70  C   UNL     1       5.688  11.850  -8.270  1.00  0.00     0.031 C 
ATOM     71  C   UNL     1       6.525  13.494  -6.613  1.00  0.00     0.031 A 
BRANCH  58  72
ATOM     72  C   UNL     1       7.733  14.286  -0.591  1.00  0.00    -0.014 A 
ATOM     73  C   UNL     1       8.884  14.062   0.182  1.00  0.00     0.009 A 
ATOM     74  C   UNL     1       6.904  15.372  -0.270  1.00  0.00     0.009 A 
ATOM     75  C   UNL     1       9.163  14.868   1.287  1.00  0.00     0.001 A 
ATOM     76  C   UNL     1       7.206  16.200   0.811  1.00  0.00     0.001 A 
ATOM     77  C   UNL     1       8.326  15.938   1.599  1.00  0.00     0.000 A 
ENDBRANCH  58  72
BRANCH  59  78
ATOM     78  C   UNL     1       4.506   7.846  -7.554  1.00  0.00    -0.014 A 
ATOM     79  C   UNL     1       5.317   7.329  -8.575  1.00  0.00     0.009 A 
ATOM     80  C   UNL     1       3.162   7.444  -7.488  1.00  0.00     0.009 A 
ATOM     81  C   UNL     1       4.792   6.436  -9.514  1.00  0.00     0.001 A 
ATOM     82  C   UNL     1       2.647   6.530  -8.411  1.00  0.00     0.001 A 
ATOM     83  C   UNL     1       3.461   6.031  -9.425  1.00  0.00     0.000 A 
ENDBRANCH  59  78
BRANCH  71  84
ATOM     84  C   UNL     1       6.703  14.484  -7.731  1.00  0.00    -0.014 A 
ATOM     85  C   UNL     1       5.607  15.100  -8.352  1.00  0.00     0.009 A 
ATOM     86  C   UNL     1       8.002  14.872  -8.100  1.00  0.00     0.009 A 
ATOM     87  C   UNL     1       5.811  16.069  -9.337  1.00  0.00     0.001 A 
ATOM     88  C   UNL     1       8.202  15.863  -9.060  1.00  0.00     0.001 A 
ATOM     89  C   UNL     1       7.106  16.456  -9.683  1.00  0.00     0.000 A 
ENDBRANCH  71  84
ENDBRANCH  45  46
ENDBRANCH  38  40
ENDBRANCH  37  38
ENDBRANCH  36  37
ENDBRANCH  35  36
ENDBRANCH  34  35
ENDBRANCH  33  34
ENDBRANCH  32  33
ENDBRANCH   1  32
TORSDOF 23
