REMARK SMILES O=C(CCCCN1C(=O)CCc2cc([N+](=O)[O-])ccc21)OCCOCCOCCOCCOC(=O)c1ccc(-c2c3nc(c(-c4ccccc4)c4ccc([nH]4)c(-c4ccccc4)c4nc(c(-c5ccccc5)c5ccc2[nH]5)C=C4)C=C3)cc1
REMARK SMILES IDX 25 1 24 2 23 3 22 4 21 5 2 6 1 7 3 8 4 9 5 10 6 11 7 12 8 13
REMARK SMILES IDX 20 14 9 15 10 16 12 17 19 18 11 19 13 20 18 21 14 22 15 23
REMARK SMILES IDX 16 24 17 25 26 26 27 27 28 28 29 29 30 30 31 31 32 32 33 33
REMARK SMILES IDX 34 34 35 35 36 36 37 37 83 38 38 39 82 40 39 41 40 42 41 43
REMARK SMILES IDX 76 44 42 45 81 46 75 47 77 48 43 49 80 50 74 51 73 52 44 54
REMARK SMILES IDX 66 55 51 56 65 57 52 58 55 59 64 60 78 61 53 62 54 63 63 65
REMARK SMILES IDX 79 66 56 67 45 68 46 69 50 70 47 71 49 72 48 73 67 74 68 75
REMARK SMILES IDX 72 76 69 77 71 78 70 79 57 80 58 81 62 82 59 83 61 84 60 85
REMARK H PARENT 77 53 55 64
REMARK Flexibility Score: inf
ROOT
ATOM      1  C   UNL     1       2.453   1.579   0.448  1.00  0.00     0.188 C 
ENDROOT
BRANCH   1   2
ATOM      2  O   UNL     1       3.443   0.756  -0.167  1.00  0.00    -0.376 OA
BRANCH   2   3
ATOM      3  C   UNL     1       3.615   0.808  -1.563  1.00  0.00     0.202 C 
BRANCH   3   4
ATOM      4  C   UNL     1       3.185  -0.462  -2.304  1.00  0.00     0.261 C 
BRANCH   4   5
ATOM      5  O   UNL     1       2.791  -1.634  -1.558  1.00  0.00    -0.463 OA
BRANCH   5   6
ATOM      6  C   UNL     1       2.084  -1.524  -0.413  1.00  0.00     0.305 C 
ATOM      7  O   UNL     1       0.888  -1.254  -0.394  1.00  0.00    -0.252 OA
BRANCH   6   8
ATOM      8  C   UNL     1       2.903  -1.790   0.849  1.00  0.00     0.123 C 
BRANCH   8   9
ATOM      9  C   UNL     1       4.162  -2.646   0.722  1.00  0.00     0.014 C 
BRANCH   9  10
ATOM     10  C   UNL     1       5.305  -2.161  -0.184  1.00  0.00     0.023 C 
BRANCH  10  11
ATOM     11  C   UNL     1       6.254  -1.049   0.313  1.00  0.00     0.125 C 
BRANCH  11  12
ATOM     12  N   UNL     1       7.033  -1.259   1.533  1.00  0.00    -0.312 N 
ATOM     13  C   UNL     1       7.310  -0.142   2.327  1.00  0.00     0.227 C 
ATOM     14  C   UNL     1       7.396  -2.559   1.960  1.00  0.00     0.047 A 
ATOM     15  O   UNL     1       7.103   1.016   1.966  1.00  0.00    -0.275 OA
ATOM     16  C   UNL     1       7.985  -0.439   3.648  1.00  0.00     0.105 C 
ATOM     17  C   UNL     1       7.383  -2.818   3.336  1.00  0.00    -0.017 A 
ATOM     18  C   UNL     1       7.617  -3.600   1.057  1.00  0.00     0.034 A 
ATOM     19  C   UNL     1       7.341  -1.659   4.293  1.00  0.00     0.048 C 
ATOM     20  C   UNL     1       7.274  -4.142   3.773  1.00  0.00     0.091 A 
ATOM     21  C   UNL     1       7.511  -4.920   1.478  1.00  0.00     0.088 A 
ATOM     22  C   UNL     1       7.268  -5.180   2.828  1.00  0.00     0.269 A 
BRANCH  22  23
ATOM     23  N   UNL     1       6.940  -6.545   3.242  1.00  0.00     0.062 N 
ATOM     24  O   UNL     1       7.004  -6.811   4.449  1.00  0.00    -0.258 OA
ATOM     25  O   UNL     1       6.591  -7.341   2.358  1.00  0.00    -0.258 OA
ENDBRANCH  22  23
ENDBRANCH  11  12
ENDBRANCH  10  11
ENDBRANCH   9  10
ENDBRANCH   8   9
ENDBRANCH   6   8
ENDBRANCH   5   6
ENDBRANCH   4   5
ENDBRANCH   3   4
ENDBRANCH   2   3
ENDBRANCH   1   2
BRANCH   1  26
ATOM     26  C   UNL     1       2.306   2.989  -0.104  1.00  0.00     0.188 C 
BRANCH  26  27
ATOM     27  O   UNL     1       3.440   3.853  -0.095  1.00  0.00    -0.377 OA
BRANCH  27  28
ATOM     28  C   UNL     1       4.725   3.371   0.277  1.00  0.00     0.188 C 
BRANCH  28  29
ATOM     29  C   UNL     1       5.331   4.029   1.522  1.00  0.00     0.188 C 
BRANCH  29  30
ATOM     30  O   UNL     1       4.563   4.006   2.717  1.00  0.00    -0.376 OA
BRANCH  30  31
ATOM     31  C   UNL     1       3.301   4.665   2.720  1.00  0.00     0.202 C 
BRANCH  31  32
ATOM     32  C   UNL     1       3.208   6.128   2.241  1.00  0.00     0.261 C 
BRANCH  32  33
ATOM     33  O   UNL     1       3.447   6.313   0.830  1.00  0.00    -0.460 OA
BRANCH  33  34
ATOM     34  C   UNL     1       4.566   6.998   0.487  1.00  0.00     0.338 C 
ATOM     35  O   UNL     1       5.341   7.563   1.235  1.00  0.00    -0.246 OA
BRANCH  34  36
ATOM     36  C   UNL     1       4.846   6.829  -0.958  1.00  0.00     0.060 A 
ATOM     37  C   UNL     1       6.061   6.244  -1.351  1.00  0.00     0.016 A 
ATOM     38  C   UNL     1       3.976   7.344  -1.917  1.00  0.00     0.016 A 
ATOM     39  C   UNL     1       6.419   6.189  -2.702  1.00  0.00     0.010 A 
ATOM     40  C   UNL     1       4.350   7.320  -3.266  1.00  0.00     0.010 A 
ATOM     41  C   UNL     1       5.587   6.773  -3.662  1.00  0.00    -0.014 A 
BRANCH  41  42
ATOM     42  C   UNL     1       6.088   7.040  -5.035  1.00  0.00     0.031 A 
ATOM     43  C   UNL     1       6.673   8.396  -5.321  1.00  0.00     0.074 A 
ATOM     44  C   UNL     1       5.989   6.134  -6.023  1.00  0.00     0.049 A 
ATOM     45  N   UNL     1       7.029   8.927  -6.462  1.00  0.00    -0.248 NA
ATOM     46  C   UNL     1       6.870   9.275  -4.157  1.00  0.00     0.031 C 
ATOM     47  C   UNL     1       5.496   4.767  -5.875  1.00  0.00     0.029 A 
ATOM     48  N   UNL     1       6.274   6.250  -7.363  1.00  0.00    -0.354 N 
ATOM     49  C   UNL     1       7.463  10.212  -6.157  1.00  0.00     0.074 A 
ATOM     50  C   UNL     1       7.312  10.383  -4.729  1.00  0.00     0.031 C 
ATOM     51  C   UNL     1       5.478   4.181  -7.086  1.00  0.00     0.029 A 
ATOM     52  C   UNL     1       5.915   5.145  -8.097  1.00  0.00     0.049 A 
ATOM     53  H   UNL     1       6.695   7.047  -7.759  1.00  0.00     0.167 HD
ATOM     54  C   UNL     1       7.934  11.169  -6.991  1.00  0.00     0.031 A 
ATOM     55  C   UNL     1       5.898   4.950  -9.431  1.00  0.00     0.031 A 
ATOM     56  C   UNL     1       8.058  11.009  -8.414  1.00  0.00     0.049 A 
ATOM     57  C   UNL     1       6.347   6.055 -10.354  1.00  0.00     0.074 A 
ATOM     58  C   UNL     1       8.547  11.912  -9.343  1.00  0.00     0.029 A 
ATOM     59  N   UNL     1       7.672   9.879  -9.117  1.00  0.00    -0.354 N 
ATOM     60  N   UNL     1       6.785   7.255 -10.056  1.00  0.00    -0.248 NA
ATOM     61  C   UNL     1       6.302   5.779 -11.799  1.00  0.00     0.031 C 
ATOM     62  C   UNL     1       8.388  11.355 -10.615  1.00  0.00     0.029 A 
ATOM     63  C   UNL     1       7.875  10.075 -10.472  1.00  0.00     0.049 A 
ATOM     64  H   UNL     1       7.308   9.059  -8.713  1.00  0.00     0.167 HD
ATOM     65  C   UNL     1       7.095   7.862 -11.269  1.00  0.00     0.074 A 
ATOM     66  C   UNL     1       6.802   6.897 -12.307  1.00  0.00     0.031 C 
ATOM     67  C   UNL     1       7.584   9.106 -11.498  1.00  0.00     0.031 A 
BRANCH  54  68
ATOM     68  C   UNL     1       8.285  12.499  -6.383  1.00  0.00    -0.014 A 
ATOM     69  C   UNL     1       9.381  12.649  -5.517  1.00  0.00     0.009 A 
ATOM     70  C   UNL     1       7.503  13.625  -6.686  1.00  0.00     0.009 A 
ATOM     71  C   UNL     1       9.653  13.887  -4.930  1.00  0.00     0.001 A 
ATOM     72  C   UNL     1       7.799  14.868  -6.127  1.00  0.00     0.001 A 
ATOM     73  C   UNL     1       8.865  14.996  -5.239  1.00  0.00     0.000 A 
ENDBRANCH  54  68
BRANCH  55  74
ATOM     74  C   UNL     1       5.392   3.663  -9.984  1.00  0.00    -0.014 A 
ATOM     75  C   UNL     1       6.258   2.761 -10.619  1.00  0.00     0.009 A 
ATOM     76  C   UNL     1       4.030   3.334  -9.882  1.00  0.00     0.009 A 
ATOM     77  C   UNL     1       5.769   1.566 -11.154  1.00  0.00     0.001 A 
ATOM     78  C   UNL     1       3.550   2.126 -10.390  1.00  0.00     0.001 A 
ATOM     79  C   UNL     1       4.418   1.246 -11.032  1.00  0.00     0.000 A 
ENDBRANCH  55  74
BRANCH  67  80
ATOM     80  C   UNL     1       7.887   9.494 -12.921  1.00  0.00    -0.014 A 
ATOM     81  C   UNL     1       6.865   9.768 -13.843  1.00  0.00     0.009 A 
ATOM     82  C   UNL     1       9.223   9.672 -13.317  1.00  0.00     0.009 A 
ATOM     83  C   UNL     1       7.178  10.194 -15.137  1.00  0.00     0.001 A 
ATOM     84  C   UNL     1       9.531  10.128 -14.600  1.00  0.00     0.001 A 
ATOM     85  C   UNL     1       8.508  10.382 -15.511  1.00  0.00     0.000 A 
ENDBRANCH  67  80
ENDBRANCH  41  42
ENDBRANCH  34  36
ENDBRANCH  33  34
ENDBRANCH  32  33
ENDBRANCH  31  32
ENDBRANCH  30  31
ENDBRANCH  29  30
ENDBRANCH  28  29
ENDBRANCH  27  28
ENDBRANCH  26  27
ENDBRANCH   1  26
TORSDOF 25
