REMARK SMILES O=C(OCCOCCOCCOCCOC(=O)c1ccc(O[C@@H]2CCCCNC2=O)cn1)c1ccc(-c2c3nc(c(-c4ccccc4)c4ccc([nH]4)c(-c4ccccc4)c4nc(c(-c5ccccc5)c5ccc2[nH]5)C=C4)C=C3)cc1
REMARK SMILES IDX 10 1 9 2 8 3 7 4 6 5 5 6 4 7 3 8 2 9 1 10 33 11 34 12 80 13
REMARK SMILES IDX 35 14 79 15 36 16 37 17 38 18 73 19 39 20 78 21 72 22 74 23
REMARK SMILES IDX 40 24 77 25 71 26 70 27 41 29 63 30 48 31 62 32 49 33 52 34
REMARK SMILES IDX 61 35 75 36 50 37 51 38 60 40 76 41 53 42 42 43 43 44 47 45
REMARK SMILES IDX 44 46 46 47 45 48 64 49 65 50 69 51 66 52 68 53 67 54 54 55
REMARK SMILES IDX 55 56 59 57 56 58 58 59 57 60 11 61 12 62 13 63 14 64 15 65
REMARK SMILES IDX 16 66 17 67 18 68 19 69 32 70 20 71 31 72 21 73 22 74 23 75
REMARK SMILES IDX 24 76 25 77 29 79 28 80 30 81 27 83 26 84
REMARK H PARENT 74 28 52 39 28 82
REMARK Flexibility Score: 80.00
ROOT
ATOM      1  C   UNL     1       7.586 -15.207   6.123  1.00  0.00     0.188 C 
ENDROOT
BRANCH   1   2
ATOM      2  O   UNL     1       7.008 -16.050   5.134  1.00  0.00    -0.377 OA
BRANCH   2   3
ATOM      3  C   UNL     1       7.452 -17.407   5.113  1.00  0.00     0.188 C 
BRANCH   3   4
ATOM      4  C   UNL     1       8.967 -17.619   5.043  1.00  0.00     0.188 C 
BRANCH   4   5
ATOM      5  O   UNL     1       9.630 -17.019   6.159  1.00  0.00    -0.376 OA
BRANCH   5   6
ATOM      6  C   UNL     1      10.777 -16.233   5.832  1.00  0.00     0.202 C 
BRANCH   6   7
ATOM      7  C   UNL     1      12.083 -17.015   5.935  1.00  0.00     0.261 C 
BRANCH   7   8
ATOM      8  O   UNL     1      11.963 -18.305   5.325  1.00  0.00    -0.460 OA
BRANCH   8   9
ATOM      9  C   UNL     1      11.540 -19.460   5.892  1.00  0.00     0.338 C 
ATOM     10  O   UNL     1      11.452 -20.452   5.168  1.00  0.00    -0.246 OA
BRANCH   9  11
ATOM     11  C   UNL     1      11.202 -19.637   7.347  1.00  0.00     0.060 A 
ATOM     12  C   UNL     1      10.840 -18.636   8.256  1.00  0.00     0.016 A 
ATOM     13  C   UNL     1      11.210 -20.964   7.816  1.00  0.00     0.016 A 
ATOM     14  C   UNL     1      10.552 -18.920   9.589  1.00  0.00     0.010 A 
ATOM     15  C   UNL     1      10.925 -21.263   9.149  1.00  0.00     0.010 A 
ATOM     16  C   UNL     1      10.632 -20.230  10.045  1.00  0.00    -0.014 A 
BRANCH  16  17
ATOM     17  C   UNL     1      10.644 -20.481  11.493  1.00  0.00     0.031 A 
ATOM     18  C   UNL     1      11.982 -20.608  12.154  1.00  0.00     0.074 A 
ATOM     19  C   UNL     1       9.502 -20.544  12.194  1.00  0.00     0.049 A 
ATOM     20  N   UNL     1      12.276 -20.967  13.373  1.00  0.00    -0.248 NA
ATOM     21  C   UNL     1      13.150 -20.281  11.317  1.00  0.00     0.031 C 
ATOM     22  C   UNL     1       8.164 -20.308  11.653  1.00  0.00     0.029 A 
ATOM     23  N   UNL     1       9.291 -20.834  13.515  1.00  0.00    -0.354 N 
ATOM     24  C   UNL     1      13.663 -20.948  13.436  1.00  0.00     0.074 A 
ATOM     25  C   UNL     1      14.152 -20.536  12.141  1.00  0.00     0.031 C 
ATOM     26  C   UNL     1       7.264 -20.484  12.636  1.00  0.00     0.029 A 
ATOM     27  C   UNL     1       7.962 -20.902  13.849  1.00  0.00     0.049 A 
ATOM     28  H   UNL     1      10.020 -20.978  14.160  1.00  0.00     0.167 HD
ATOM     29  C   UNL     1      14.456 -21.274  14.482  1.00  0.00     0.031 A 
ATOM     30  C   UNL     1       7.386 -21.309  14.996  1.00  0.00     0.031 A 
ATOM     31  C   UNL     1      13.940 -21.716  15.745  1.00  0.00     0.049 A 
ATOM     32  C   UNL     1       8.280 -21.755  16.122  1.00  0.00     0.074 A 
ATOM     33  C   UNL     1      14.628 -22.131  16.868  1.00  0.00     0.029 A 
ATOM     34  N   UNL     1      12.585 -21.804  16.041  1.00  0.00    -0.354 N 
ATOM     35  N   UNL     1       9.592 -21.789  16.168  1.00  0.00    -0.248 NA
ATOM     36  C   UNL     1       7.622 -22.230  17.346  1.00  0.00     0.031 C 
ATOM     37  C   UNL     1      13.685 -22.517  17.828  1.00  0.00     0.029 A 
ATOM     38  C   UNL     1      12.413 -22.288  17.322  1.00  0.00     0.049 A 
ATOM     39  H   UNL     1      11.856 -21.558  15.427  1.00  0.00     0.167 HD
ATOM     40  C   UNL     1       9.919 -22.272  17.428  1.00  0.00     0.074 A 
ATOM     41  C   UNL     1       8.665 -22.509  18.118  1.00  0.00     0.031 C 
ATOM     42  C   UNL     1      11.142 -22.501  17.969  1.00  0.00     0.031 A 
BRANCH  29  43
ATOM     43  C   UNL     1      15.937 -21.257  14.232  1.00  0.00    -0.014 A 
ATOM     44  C   UNL     1      16.642 -20.056  14.052  1.00  0.00     0.009 A 
ATOM     45  C   UNL     1      16.621 -22.474  14.091  1.00  0.00     0.009 A 
ATOM     46  C   UNL     1      17.989 -20.077  13.679  1.00  0.00     0.001 A 
ATOM     47  C   UNL     1      17.973 -22.492  13.745  1.00  0.00     0.001 A 
ATOM     48  C   UNL     1      18.652 -21.294  13.523  1.00  0.00     0.000 A 
ENDBRANCH  29  43
BRANCH  30  49
ATOM     49  C   UNL     1       5.904 -21.370  15.094  1.00  0.00    -0.014 A 
ATOM     50  C   UNL     1       5.195 -20.476  15.909  1.00  0.00     0.009 A 
ATOM     51  C   UNL     1       5.184 -22.306  14.332  1.00  0.00     0.009 A 
ATOM     52  C   UNL     1       3.798 -20.521  15.960  1.00  0.00     0.001 A 
ATOM     53  C   UNL     1       3.788 -22.331  14.366  1.00  0.00     0.001 A 
ATOM     54  C   UNL     1       3.096 -21.441  15.183  1.00  0.00     0.000 A 
ENDBRANCH  30  49
BRANCH  42  55
ATOM     55  C   UNL     1      11.184 -22.998  19.383  1.00  0.00    -0.014 A 
ATOM     56  C   UNL     1      10.919 -24.341  19.687  1.00  0.00     0.009 A 
ATOM     57  C   UNL     1      11.598 -22.130  20.405  1.00  0.00     0.009 A 
ATOM     58  C   UNL     1      11.059 -24.803  20.996  1.00  0.00     0.001 A 
ATOM     59  C   UNL     1      11.760 -22.601  21.707  1.00  0.00     0.001 A 
ATOM     60  C   UNL     1      11.487 -23.936  22.002  1.00  0.00     0.000 A 
ENDBRANCH  42  55
ENDBRANCH  16  17
ENDBRANCH   9  11
ENDBRANCH   8   9
ENDBRANCH   7   8
ENDBRANCH   6   7
ENDBRANCH   5   6
ENDBRANCH   4   5
ENDBRANCH   3   4
ENDBRANCH   2   3
ENDBRANCH   1   2
BRANCH   1  61
ATOM     61  C   UNL     1       7.479 -15.586   7.614  1.00  0.00     0.188 C 
BRANCH  61  62
ATOM     62  O   UNL     1       6.780 -16.796   7.880  1.00  0.00    -0.376 OA
BRANCH  62  63
ATOM     63  C   UNL     1       5.550 -16.649   8.589  1.00  0.00     0.202 C 
BRANCH  63  64
ATOM     64  C   UNL     1       4.375 -16.286   7.679  1.00  0.00     0.261 C 
BRANCH  64  65
ATOM     65  O   UNL     1       4.523 -15.022   7.022  1.00  0.00    -0.459 OA
BRANCH  65  66
ATOM     66  C   UNL     1       4.575 -13.887   7.765  1.00  0.00     0.357 C 
ATOM     67  O   UNL     1       4.365 -13.809   8.963  1.00  0.00    -0.244 OA
BRANCH  66  68
ATOM     68  C   UNL     1       5.103 -12.807   6.864  1.00  0.00     0.148 A 
ATOM     69  C   UNL     1       5.103 -13.005   5.484  1.00  0.00     0.040 A 
ATOM     70  N   UNL     1       5.751 -11.765   7.451  1.00  0.00    -0.245 NA
ATOM     71  C   UNL     1       5.840 -12.141   4.689  1.00  0.00     0.050 A 
ATOM     72  C   UNL     1       6.354 -10.876   6.618  1.00  0.00     0.158 A 
ATOM     73  C   UNL     1       6.364 -10.990   5.234  1.00  0.00     0.138 A 
BRANCH  73  74
ATOM     74  O   UNL     1       6.880  -9.992   4.478  1.00  0.00    -0.479 OA
BRANCH  74  75
ATOM     75  C   UNL     1       6.140  -9.582   3.317  1.00  0.00     0.262 C 
BRANCH  75  76
ATOM     76  C   UNL     1       4.720  -9.043   3.562  1.00  0.00     0.055 C 
BRANCH  76  77
ATOM     77  C   UNL     1       3.580 -10.031   3.776  1.00  0.00     0.006 CG0
ATOM     78  G   UNL     1       3.152 -10.823   2.548  1.00  0.00     0.000 G0
ENDBRANCH  76  77
ENDBRANCH  75  76
BRANCH  75  79
ATOM     79  C   UNL     1       6.359 -10.304   1.972  1.00  0.00     0.261 C 
ATOM     80  N   UNL     1       5.384 -11.012   1.343  1.00  0.00    -0.353 N 
ATOM     81  O   UNL     1       7.450 -10.236   1.395  1.00  0.00    -0.271 OA
ATOM     82  H   UNL     1       5.519 -11.099   0.371  1.00  0.00     0.163 HD
BRANCH  80  83
ATOM     83  C   UNL     1       4.186 -11.664   1.826  1.00  0.00     0.116 C 
BRANCH  83  84
ATOM     84  C   UNL     1       3.152 -10.823   2.548  1.00  0.00     0.021 CG0
ATOM     85  G   UNL     1       3.580 -10.031   3.776  1.00  0.00     0.000 G0
ENDBRANCH  83  84
ENDBRANCH  80  83
ENDBRANCH  75  79
ENDBRANCH  74  75
ENDBRANCH  73  74
ENDBRANCH  66  68
ENDBRANCH  65  66
ENDBRANCH  64  65
ENDBRANCH  63  64
ENDBRANCH  62  63
ENDBRANCH  61  62
ENDBRANCH   1  61
TORSDOF 22
