REMARK SMILES O=C(OCCOCCOCCOCCOC(=O)[C@@H]1CC[C@H](CNc2c(F)c(F)c(F)c(F)c2F)O1)c1ccc(-c2c3nc(c(-c4ccccc4)c4ccc([nH]4)c(-c4ccccc4)c4nc(c(-c5ccccc5)c5ccc2[nH]5)C=C4)C=C3)cc1
REMARK SMILES IDX 10 1 9 2 8 3 7 4 6 5 5 6 4 7 3 8 2 9 1 10 36 11 37 12 83 13
REMARK SMILES IDX 38 14 82 15 39 16 40 17 41 18 76 19 42 20 81 21 75 22 77 23
REMARK SMILES IDX 43 24 80 25 74 26 73 27 44 29 66 30 51 31 65 32 52 33 55 34
REMARK SMILES IDX 64 35 78 36 53 37 54 38 63 40 79 41 56 42 45 43 46 44 50 45
REMARK SMILES IDX 47 46 49 47 48 48 67 49 68 50 72 51 69 52 71 53 70 54 57 55
REMARK SMILES IDX 58 56 62 57 59 58 61 59 60 60 11 61 12 62 13 63 14 64 15 65
REMARK SMILES IDX 16 66 17 67 18 68 19 69 35 70 20 71 21 72 22 73 23 74 24 76
REMARK SMILES IDX 25 77 33 78 26 79 27 80 31 81 34 82 28 83 29 84 32 85 30 86
REMARK H PARENT 77 28 55 39 23 75
REMARK Flexibility Score: inf
ROOT
ATOM      1  C   UNL     1       4.491   2.632  -2.487  1.00  0.00     0.188 C 
ENDROOT
BRANCH   1   2
ATOM      2  O   UNL     1       3.104   2.782  -2.759  1.00  0.00    -0.377 OA
BRANCH   2   3
ATOM      3  C   UNL     1       2.178   2.141  -1.882  1.00  0.00     0.188 C 
BRANCH   3   4
ATOM      4  C   UNL     1       2.478   0.689  -1.529  1.00  0.00     0.188 C 
BRANCH   4   5
ATOM      5  O   UNL     1       3.677   0.638  -0.763  1.00  0.00    -0.376 OA
BRANCH   5   6
ATOM      6  C   UNL     1       4.569  -0.433  -1.074  1.00  0.00     0.202 C 
BRANCH   6   7
ATOM      7  C   UNL     1       4.148  -1.776  -0.491  1.00  0.00     0.261 C 
BRANCH   7   8
ATOM      8  O   UNL     1       2.758  -1.833  -0.132  1.00  0.00    -0.460 OA
BRANCH   8   9
ATOM      9  C   UNL     1       2.171  -1.450   1.028  1.00  0.00     0.338 C 
ATOM     10  O   UNL     1       0.965  -1.645   1.172  1.00  0.00    -0.246 OA
BRANCH   9  11
ATOM     11  C   UNL     1       2.911  -0.844   2.172  1.00  0.00     0.060 A 
ATOM     12  C   UNL     1       3.998   0.016   2.051  1.00  0.00     0.016 A 
ATOM     13  C   UNL     1       2.416  -1.088   3.462  1.00  0.00     0.016 A 
ATOM     14  C   UNL     1       4.650   0.540   3.147  1.00  0.00     0.010 A 
ATOM     15  C   UNL     1       3.035  -0.528   4.584  1.00  0.00     0.010 A 
ATOM     16  C   UNL     1       4.181   0.259   4.420  1.00  0.00    -0.014 A 
BRANCH  16  17
ATOM     17  C   UNL     1       5.060   0.639   5.532  1.00  0.00     0.031 A 
ATOM     18  C   UNL     1       5.863  -0.452   6.167  1.00  0.00     0.074 A 
ATOM     19  C   UNL     1       5.287   1.939   5.792  1.00  0.00     0.049 A 
ATOM     20  N   UNL     1       6.671  -0.398   7.188  1.00  0.00    -0.248 NA
ATOM     21  C   UNL     1       5.756  -1.789   5.552  1.00  0.00     0.031 C 
ATOM     22  C   UNL     1       4.696   3.066   5.060  1.00  0.00     0.029 A 
ATOM     23  N   UNL     1       6.117   2.532   6.701  1.00  0.00    -0.354 N 
ATOM     24  C   UNL     1       7.122  -1.698   7.369  1.00  0.00     0.074 A 
ATOM     25  C   UNL     1       6.514  -2.520   6.351  1.00  0.00     0.031 C 
ATOM     26  C   UNL     1       5.211   4.212   5.532  1.00  0.00     0.029 A 
ATOM     27  C   UNL     1       6.088   3.904   6.653  1.00  0.00     0.049 A 
ATOM     28  H   UNL     1       6.680   2.025   7.329  1.00  0.00     0.167 HD
ATOM     29  C   UNL     1       7.959  -2.158   8.325  1.00  0.00     0.031 A 
ATOM     30  C   UNL     1       6.673   4.799   7.468  1.00  0.00     0.031 A 
ATOM     31  C   UNL     1       8.537  -1.301   9.320  1.00  0.00     0.049 A 
ATOM     32  C   UNL     1       7.492   4.255   8.606  1.00  0.00     0.074 A 
ATOM     33  C   UNL     1       9.312  -1.632  10.412  1.00  0.00     0.029 A 
ATOM     34  N   UNL     1       8.393   0.082   9.324  1.00  0.00    -0.354 N 
ATOM     35  N   UNL     1       7.814   3.008   8.868  1.00  0.00    -0.248 NA
ATOM     36  C   UNL     1       8.005   5.229   9.574  1.00  0.00     0.031 C 
ATOM     37  C   UNL     1       9.598  -0.450  11.106  1.00  0.00     0.029 A 
ATOM     38  C   UNL     1       9.051   0.621  10.411  1.00  0.00     0.049 A 
ATOM     39  H   UNL     1       7.896   0.600   8.651  1.00  0.00     0.167 HD
ATOM     40  C   UNL     1       8.577   3.046  10.024  1.00  0.00     0.074 A 
ATOM     41  C   UNL     1       8.689   4.445  10.397  1.00  0.00     0.031 C 
ATOM     42  C   UNL     1       9.131   2.026  10.726  1.00  0.00     0.031 A 
BRANCH  29  43
ATOM     43  C   UNL     1       8.171  -3.643   8.379  1.00  0.00    -0.014 A 
ATOM     44  C   UNL     1       8.932  -4.322   7.415  1.00  0.00     0.009 A 
ATOM     45  C   UNL     1       7.522  -4.386   9.378  1.00  0.00     0.009 A 
ATOM     46  C   UNL     1       9.001  -5.719   7.425  1.00  0.00     0.001 A 
ATOM     47  C   UNL     1       7.614  -5.779   9.401  1.00  0.00     0.001 A 
ATOM     48  C   UNL     1       8.342  -6.445   8.417  1.00  0.00     0.000 A 
ENDBRANCH  29  43
BRANCH  30  49
ATOM     49  C   UNL     1       6.428   6.257   7.300  1.00  0.00    -0.014 A 
ATOM     50  C   UNL     1       7.475   7.141   6.999  1.00  0.00     0.009 A 
ATOM     51  C   UNL     1       5.133   6.780   7.457  1.00  0.00     0.009 A 
ATOM     52  C   UNL     1       7.233   8.514   6.882  1.00  0.00     0.001 A 
ATOM     53  C   UNL     1       4.888   8.147   7.308  1.00  0.00     0.001 A 
ATOM     54  C   UNL     1       5.940   9.015   7.032  1.00  0.00     0.000 A 
ENDBRANCH  30  49
BRANCH  42  55
ATOM     55  C   UNL     1       9.933   2.405  11.934  1.00  0.00    -0.014 A 
ATOM     56  C   UNL     1       9.309   2.832  13.115  1.00  0.00     0.009 A 
ATOM     57  C   UNL     1      11.329   2.278  11.897  1.00  0.00     0.009 A 
ATOM     58  C   UNL     1      10.078   3.156  14.232  1.00  0.00     0.001 A 
ATOM     59  C   UNL     1      12.091   2.572  13.025  1.00  0.00     0.001 A 
ATOM     60  C   UNL     1      11.466   3.019  14.188  1.00  0.00     0.000 A 
ENDBRANCH  42  55
ENDBRANCH  16  17
ENDBRANCH   9  11
ENDBRANCH   8   9
ENDBRANCH   7   8
ENDBRANCH   6   7
ENDBRANCH   5   6
ENDBRANCH   4   5
ENDBRANCH   3   4
ENDBRANCH   2   3
ENDBRANCH   1   2
BRANCH   1  61
ATOM     61  C   UNL     1       5.186   3.556  -1.481  1.00  0.00     0.188 C 
BRANCH  61  62
ATOM     62  O   UNL     1       4.508   3.894  -0.290  1.00  0.00    -0.376 OA
BRANCH  62  63
ATOM     63  C   UNL     1       3.501   4.900  -0.321  1.00  0.00     0.202 C 
BRANCH  63  64
ATOM     64  C   UNL     1       3.398   5.958  -1.437  1.00  0.00     0.261 C 
BRANCH  64  65
ATOM     65  O   UNL     1       3.526   5.461  -2.781  1.00  0.00    -0.461 OA
BRANCH  65  66
ATOM     66  C   UNL     1       4.399   6.139  -3.586  1.00  0.00     0.335 C 
ATOM     67  O   UNL     1       4.981   7.157  -3.272  1.00  0.00    -0.249 OA
BRANCH  66  68
ATOM     68  C   UNL     1       4.580   5.477  -4.967  1.00  0.00     0.228 C 
ATOM     69  C   UNL     1       3.461   5.824  -5.922  1.00  0.00     0.047 C 
ATOM     70  O   UNL     1       4.708   4.058  -5.032  1.00  0.00    -0.361 OA
ATOM     71  C   UNL     1       3.634   4.772  -6.991  1.00  0.00     0.037 C 
ATOM     72  C   UNL     1       4.041   3.541  -6.195  1.00  0.00     0.138 C 
BRANCH  72  73
ATOM     73  C   UNL     1       2.866   2.590  -5.827  1.00  0.00     0.145 C 
BRANCH  73  74
ATOM     74  N   UNL     1       2.307   2.023  -7.049  1.00  0.00    -0.378 N 
ATOM     75  H   UNL     1       2.316   2.607  -7.841  1.00  0.00     0.160 HD
BRANCH  74  76
ATOM     76  C   UNL     1       1.764   0.762  -7.228  1.00  0.00     0.113 A 
ATOM     77  C   UNL     1       1.288  -0.086  -6.220  1.00  0.00     0.188 A 
ATOM     78  C   UNL     1       1.734   0.258  -8.545  1.00  0.00     0.188 A 
ATOM     79  F   UNL     1       1.276   0.319  -4.939  1.00  0.00    -0.201 F 
ATOM     80  C   UNL     1       0.787  -1.357  -6.522  1.00  0.00     0.199 A 
ATOM     81  C   UNL     1       1.257  -1.012  -8.846  1.00  0.00     0.199 A 
ATOM     82  F   UNL     1       2.205   1.030  -9.540  1.00  0.00    -0.201 F 
ATOM     83  F   UNL     1       0.314  -2.141  -5.543  1.00  0.00    -0.200 F 
ATOM     84  C   UNL     1       0.777  -1.819  -7.832  1.00  0.00     0.200 A 
ATOM     85  F   UNL     1       1.273  -1.449 -10.113  1.00  0.00    -0.200 F 
ATOM     86  F   UNL     1       0.309  -3.042  -8.116  1.00  0.00    -0.200 F 
ENDBRANCH  74  76
ENDBRANCH  73  74
ENDBRANCH  72  73
ENDBRANCH  66  68
ENDBRANCH  65  66
ENDBRANCH  64  65
ENDBRANCH  63  64
ENDBRANCH  62  63
ENDBRANCH  61  62
ENDBRANCH   1  61
TORSDOF 23
