REMARK SMILES O=C(OCCOCCOCCOCCOC(=O)[C@H]1[C@H]2CC[C@H](CC2)[C@@H]1C(=O)Nc1ccc(Cc2ccncc2)cc1)c1ccc(-c2c3nc(c(-c4ccccc4)c4ccc([nH]4)c(-c4ccccc4)c4nc(c(-c5ccccc5)c5ccc2[nH]5)C=C4)C=C3)cc1
REMARK SMILES IDX 10 1 9 2 8 3 7 4 6 5 5 6 4 7 3 8 2 9 1 10 42 11 43 12 89 13
REMARK SMILES IDX 44 14 88 15 45 16 46 17 47 18 82 19 48 20 87 21 81 22 83 23
REMARK SMILES IDX 49 24 86 25 80 26 79 27 50 29 72 30 57 31 71 32 58 33 61 34
REMARK SMILES IDX 70 35 84 36 59 37 60 38 69 40 85 41 62 42 51 43 52 44 56 45
REMARK SMILES IDX 53 46 55 47 54 48 73 49 74 50 78 51 75 52 77 53 76 54 63 55
REMARK SMILES IDX 64 56 68 57 65 58 67 59 66 60 11 61 12 62 13 63 14 64 15 65
REMARK SMILES IDX 16 66 17 67 18 68 19 69 25 70 24 71 20 72 22 73 23 74 21 75
REMARK SMILES IDX 26 76 27 77 28 78 29 80 30 81 41 82 31 83 40 84 32 85 33 86
REMARK SMILES IDX 34 87 35 88 39 89 36 90 38 91 37 92
REMARK H PARENT 83 28 61 39 28 79
REMARK Flexibility Score: inf
ROOT
ATOM      1  C   UNL     1       4.302  -1.945   1.904  1.00  0.00     0.188 C 
ENDROOT
BRANCH   1   2
ATOM      2  O   UNL     1       3.316  -1.309   2.719  1.00  0.00    -0.377 OA
BRANCH   2   3
ATOM      3  C   UNL     1       2.037  -1.109   2.123  1.00  0.00     0.188 C 
BRANCH   3   4
ATOM      4  C   UNL     1       2.014   0.107   1.221  1.00  0.00     0.188 C 
BRANCH   4   5
ATOM      5  O   UNL     1       3.277   0.203   0.588  1.00  0.00    -0.376 OA
BRANCH   5   6
ATOM      6  C   UNL     1       4.000   1.400   0.821  1.00  0.00     0.202 C 
BRANCH   6   7
ATOM      7  C   UNL     1       4.197   2.104  -0.519  1.00  0.00     0.261 C 
BRANCH   7   8
ATOM      8  O   UNL     1       2.996   2.073  -1.315  1.00  0.00    -0.460 OA
BRANCH   8   9
ATOM      9  C   UNL     1       2.437   1.003  -1.935  1.00  0.00     0.338 C 
ATOM     10  O   UNL     1       1.237   1.071  -2.227  1.00  0.00    -0.246 OA
BRANCH   9  11
ATOM     11  C   UNL     1       3.172  -0.241  -2.364  1.00  0.00     0.060 A 
ATOM     12  C   UNL     1       4.326  -0.780  -1.779  1.00  0.00     0.016 A 
ATOM     13  C   UNL     1       2.578  -0.975  -3.408  1.00  0.00     0.016 A 
ATOM     14  C   UNL     1       4.851  -2.007  -2.183  1.00  0.00     0.010 A 
ATOM     15  C   UNL     1       3.114  -2.191  -3.844  1.00  0.00     0.010 A 
ATOM     16  C   UNL     1       4.258  -2.707  -3.229  1.00  0.00    -0.014 A 
BRANCH  16  17
ATOM     17  C   UNL     1       4.966  -3.870  -3.792  1.00  0.00     0.031 A 
ATOM     18  C   UNL     1       5.848  -3.628  -4.979  1.00  0.00     0.074 A 
ATOM     19  C   UNL     1       4.882  -5.077  -3.207  1.00  0.00     0.049 A 
ATOM     20  N   UNL     1       6.503  -4.485  -5.713  1.00  0.00    -0.248 NA
ATOM     21  C   UNL     1       6.027  -2.222  -5.386  1.00  0.00     0.031 C 
ATOM     22  C   UNL     1       4.153  -5.373  -1.972  1.00  0.00     0.029 A 
ATOM     23  N   UNL     1       5.423  -6.282  -3.572  1.00  0.00    -0.354 N 
ATOM     24  C   UNL     1       7.139  -3.727  -6.688  1.00  0.00     0.074 A 
ATOM     25  C   UNL     1       6.809  -2.342  -6.447  1.00  0.00     0.031 C 
ATOM     26  C   UNL     1       4.283  -6.682  -1.690  1.00  0.00     0.029 A 
ATOM     27  C   UNL     1       5.048  -7.323  -2.756  1.00  0.00     0.049 A 
ATOM     28  H   UNL     1       6.023  -6.392  -4.345  1.00  0.00     0.167 HD
ATOM     29  C   UNL     1       7.911  -4.161  -7.708  1.00  0.00     0.031 A 
ATOM     30  C   UNL     1       5.261  -8.646  -2.897  1.00  0.00     0.031 A 
ATOM     31  C   UNL     1       8.207  -5.547  -7.933  1.00  0.00     0.049 A 
ATOM     32  C   UNL     1       6.031  -9.111  -4.110  1.00  0.00     0.074 A 
ATOM     33  C   UNL     1       8.950  -6.118  -8.947  1.00  0.00     0.029 A 
ATOM     34  N   UNL     1       7.756  -6.580  -7.124  1.00  0.00    -0.354 N 
ATOM     35  N   UNL     1       6.615  -8.394  -5.043  1.00  0.00    -0.248 NA
ATOM     36  C   UNL     1       6.153 -10.562  -4.303  1.00  0.00     0.031 C 
ATOM     37  C   UNL     1       8.892  -7.506  -8.789  1.00  0.00     0.029 A 
ATOM     38  C   UNL     1       8.167  -7.793  -7.641  1.00  0.00     0.049 A 
ATOM     39  H   UNL     1       7.222  -6.466  -6.305  1.00  0.00     0.167 HD
ATOM     40  C   UNL     1       7.181  -9.305  -5.925  1.00  0.00     0.074 A 
ATOM     41  C   UNL     1       6.898 -10.625  -5.398  1.00  0.00     0.031 C 
ATOM     42  C   UNL     1       7.862  -9.081  -7.075  1.00  0.00     0.031 A 
BRANCH  29  43
ATOM     43  C   UNL     1       8.396  -3.140  -8.695  1.00  0.00    -0.014 A 
ATOM     44  C   UNL     1       9.418  -2.231  -8.382  1.00  0.00     0.009 A 
ATOM     45  C   UNL     1       7.814  -3.096  -9.972  1.00  0.00     0.009 A 
ATOM     46  C   UNL     1       9.830  -1.283  -9.322  1.00  0.00     0.001 A 
ATOM     47  C   UNL     1       8.243  -2.164 -10.917  1.00  0.00     0.001 A 
ATOM     48  C   UNL     1       9.246  -1.254 -10.589  1.00  0.00     0.000 A 
ENDBRANCH  29  43
BRANCH  30  49
ATOM     49  C   UNL     1       4.662  -9.629  -1.950  1.00  0.00    -0.014 A 
ATOM     50  C   UNL     1       5.464 -10.492  -1.188  1.00  0.00     0.009 A 
ATOM     51  C   UNL     1       3.265  -9.755  -1.853  1.00  0.00     0.009 A 
ATOM     52  C   UNL     1       4.884 -11.480  -0.384  1.00  0.00     0.001 A 
ATOM     53  C   UNL     1       2.687 -10.717  -1.022  1.00  0.00     0.001 A 
ATOM     54  C   UNL     1       3.497 -11.590  -0.300  1.00  0.00     0.000 A 
ENDBRANCH  30  49
BRANCH  42  55
ATOM     55  C   UNL     1       8.354 -10.286  -7.822  1.00  0.00    -0.014 A 
ATOM     56  C   UNL     1       7.467 -11.101  -8.541  1.00  0.00     0.009 A 
ATOM     57  C   UNL     1       9.730 -10.560  -7.867  1.00  0.00     0.009 A 
ATOM     58  C   UNL     1       7.949 -12.186  -9.274  1.00  0.00     0.001 A 
ATOM     59  C   UNL     1      10.211 -11.625  -8.628  1.00  0.00     0.001 A 
ATOM     60  C   UNL     1       9.320 -12.441  -9.324  1.00  0.00     0.000 A 
ENDBRANCH  42  55
ENDBRANCH  16  17
ENDBRANCH   9  11
ENDBRANCH   8   9
ENDBRANCH   7   8
ENDBRANCH   6   7
ENDBRANCH   5   6
ENDBRANCH   4   5
ENDBRANCH   3   4
ENDBRANCH   2   3
ENDBRANCH   1   2
BRANCH   1  61
ATOM     61  C   UNL     1       4.929  -3.144   2.614  1.00  0.00     0.188 C 
BRANCH  61  62
ATOM     62  O   UNL     1       4.278  -4.403   2.453  1.00  0.00    -0.376 OA
BRANCH  62  63
ATOM     63  C   UNL     1       2.871  -4.435   2.660  1.00  0.00     0.202 C 
BRANCH  63  64
ATOM     64  C   UNL     1       2.384  -4.135   4.085  1.00  0.00     0.261 C 
BRANCH  64  65
ATOM     65  O   UNL     1       2.746  -2.809   4.540  1.00  0.00    -0.463 OA
BRANCH  65  66
ATOM     66  C   UNL     1       3.444  -2.754   5.686  1.00  0.00     0.310 C 
ATOM     67  O   UNL     1       3.552  -3.732   6.431  1.00  0.00    -0.252 OA
BRANCH  66  68
ATOM     68  C   UNL     1       4.193  -1.448   6.014  1.00  0.00     0.115 C 
ATOM     69  C   UNL     1       4.227  -0.080   5.273  1.00  0.00     0.004 C 
ATOM     70  C   UNL     1       3.929  -1.206   7.506  1.00  0.00     0.096 C 
ATOM     71  C   UNL     1       2.871   0.616   5.259  1.00  0.00     0.005 C 
ATOM     72  C   UNL     1       5.170   0.885   6.073  1.00  0.00     0.005 C 
ATOM     73  C   UNL     1       3.400   0.251   7.702  1.00  0.00     0.002 C 
ATOM     74  C   UNL     1       2.281   0.555   6.667  1.00  0.00     0.005 C 
ATOM     75  C   UNL     1       4.553   1.223   7.437  1.00  0.00     0.005 C 
BRANCH  70  76
ATOM     76  C   UNL     1       5.039  -1.592   8.519  1.00  0.00     0.228 C 
ATOM     77  O   UNL     1       4.923  -1.188   9.686  1.00  0.00    -0.274 OA
ATOM     78  N   UNL     1       6.022  -2.525   8.306  1.00  0.00    -0.326 N 
ATOM     79  H   UNL     1       6.334  -2.955   9.134  1.00  0.00     0.169 HD
BRANCH  78  80
ATOM     80  C   UNL     1       6.678  -2.995   7.156  1.00  0.00     0.041 A 
ATOM     81  C   UNL     1       6.623  -4.355   6.862  1.00  0.00     0.026 A 
ATOM     82  C   UNL     1       7.411  -2.152   6.316  1.00  0.00     0.026 A 
ATOM     83  C   UNL     1       7.120  -4.833   5.642  1.00  0.00     0.006 A 
ATOM     84  C   UNL     1       7.918  -2.629   5.097  1.00  0.00     0.006 A 
ATOM     85  C   UNL     1       7.728  -3.966   4.723  1.00  0.00    -0.043 A 
BRANCH  85  86
ATOM     86  C   UNL     1       8.080  -4.442   3.329  1.00  0.00     0.071 C 
BRANCH  86  87
ATOM     87  C   UNL     1       9.455  -5.019   3.137  1.00  0.00    -0.041 A 
ATOM     88  C   UNL     1       9.816  -6.233   3.723  1.00  0.00     0.024 A 
ATOM     89  C   UNL     1      10.379  -4.384   2.301  1.00  0.00     0.024 A 
ATOM     90  C   UNL     1      11.080  -6.742   3.469  1.00  0.00     0.111 A 
ATOM     91  C   UNL     1      11.616  -4.975   2.104  1.00  0.00     0.111 A 
ATOM     92  N   UNL     1      11.990  -6.139   2.675  1.00  0.00    -0.265 NA
ENDBRANCH  86  87
ENDBRANCH  85  86
ENDBRANCH  78  80
ENDBRANCH  70  76
ENDBRANCH  66  68
ENDBRANCH  65  66
ENDBRANCH  64  65
ENDBRANCH  63  64
ENDBRANCH  62  63
ENDBRANCH  61  62
ENDBRANCH   1  61
TORSDOF 24
