REMARK SMILES O=C(OCCOCCOCCOCCOC(=O)c1sc2ccccc2c1CSC[C@H](O)CO)c1ccc(-c2c3nc(c(-c4ccccc4)c4ccc([nH]4)c(-c4ccccc4)c4nc(c(-c5ccccc5)c5ccc2[nH]5)C=C4)C=C3)cc1
REMARK SMILES IDX 11 1 10 2 9 3 8 4 7 5 6 6 5 7 4 8 3 9 2 10 1 11 34 12 35 13
REMARK SMILES IDX 81 14 36 15 80 16 37 17 38 18 39 19 74 20 40 21 79 22 73 23
REMARK SMILES IDX 75 24 41 25 78 26 72 27 71 28 42 30 64 31 49 32 63 33 50 34
REMARK SMILES IDX 53 35 62 36 76 37 51 38 52 39 61 41 77 42 54 43 43 44 44 45
REMARK SMILES IDX 48 46 45 47 47 48 46 49 65 50 66 51 70 52 67 53 69 54 68 55
REMARK SMILES IDX 55 56 56 57 60 58 57 59 59 60 58 61 12 62 13 63 14 64 15 65
REMARK SMILES IDX 16 66 17 67 18 68 19 69 26 70 20 71 25 72 21 73 24 74 22 75
REMARK SMILES IDX 23 76 27 77 28 78 29 79 30 80 32 81 33 82 31 84
REMARK H PARENT 75 29 53 40 33 83 31 85
REMARK Flexibility Score: inf
ROOT
ATOM      1  C   UNL     1      10.798   6.347   3.742  1.00  0.00     0.188 C 
ENDROOT
BRANCH   1   2
ATOM      2  C   UNL     1      11.697   6.508   4.986  1.00  0.00     0.188 C 
BRANCH   2   3
ATOM      3  O   UNL     1      12.230   7.804   5.231  1.00  0.00    -0.377 OA
BRANCH   3   4
ATOM      4  C   UNL     1      12.942   8.398   4.149  1.00  0.00     0.188 C 
BRANCH   4   5
ATOM      5  C   UNL     1      14.151   7.574   3.711  1.00  0.00     0.188 C 
BRANCH   5   6
ATOM      6  O   UNL     1      13.703   6.411   3.005  1.00  0.00    -0.376 OA
BRANCH   6   7
ATOM      7  C   UNL     1      14.528   5.258   3.150  1.00  0.00     0.202 C 
BRANCH   7   8
ATOM      8  C   UNL     1      15.641   5.171   2.105  1.00  0.00     0.261 C 
BRANCH   8   9
ATOM      9  O   UNL     1      16.177   6.460   1.776  1.00  0.00    -0.460 OA
BRANCH   9  10
ATOM     10  C   UNL     1      15.759   7.320   0.814  1.00  0.00     0.338 C 
ATOM     11  O   UNL     1      16.346   8.397   0.710  1.00  0.00    -0.246 OA
BRANCH  10  12
ATOM     12  C   UNL     1      14.648   7.044  -0.156  1.00  0.00     0.060 A 
ATOM     13  C   UNL     1      13.591   6.149   0.030  1.00  0.00     0.016 A 
ATOM     14  C   UNL     1      14.647   7.811  -1.337  1.00  0.00     0.016 A 
ATOM     15  C   UNL     1      12.605   5.968  -0.934  1.00  0.00     0.010 A 
ATOM     16  C   UNL     1      13.649   7.655  -2.303  1.00  0.00     0.010 A 
ATOM     17  C   UNL     1      12.637   6.710  -2.110  1.00  0.00    -0.014 A 
BRANCH  17  18
ATOM     18  C   UNL     1      11.689   6.366  -3.183  1.00  0.00     0.031 A 
ATOM     19  C   UNL     1      12.195   5.542  -4.328  1.00  0.00     0.074 A 
ATOM     20  C   UNL     1      10.390   6.693  -3.069  1.00  0.00     0.049 A 
ATOM     21  N   UNL     1      11.584   5.182  -5.423  1.00  0.00    -0.248 NA
ATOM     22  C   UNL     1      13.578   5.042  -4.216  1.00  0.00     0.031 C 
ATOM     23  C   UNL     1       9.786   7.377  -1.923  1.00  0.00     0.029 A 
ATOM     24  N   UNL     1       9.339   6.475  -3.920  1.00  0.00    -0.354 N 
ATOM     25  C   UNL     1      12.517   4.450  -6.145  1.00  0.00     0.074 A 
ATOM     26  C   UNL     1      13.731   4.403  -5.365  1.00  0.00     0.031 C 
ATOM     27  C   UNL     1       8.467   7.514  -2.141  1.00  0.00     0.029 A 
ATOM     28  C   UNL     1       8.150   6.993  -3.466  1.00  0.00     0.049 A 
ATOM     29  H   UNL     1       9.427   5.993  -4.774  1.00  0.00     0.167 HD
ATOM     30  C   UNL     1      12.369   3.884  -7.364  1.00  0.00     0.031 A 
ATOM     31  C   UNL     1       6.957   7.074  -4.084  1.00  0.00     0.031 A 
ATOM     32  C   UNL     1      11.151   3.953  -8.120  1.00  0.00     0.049 A 
ATOM     33  C   UNL     1       6.852   6.529  -5.485  1.00  0.00     0.074 A 
ATOM     34  C   UNL     1      10.889   3.472  -9.389  1.00  0.00     0.029 A 
ATOM     35  N   UNL     1       9.985   4.551  -7.662  1.00  0.00    -0.354 N 
ATOM     36  N   UNL     1       7.754   5.888  -6.192  1.00  0.00    -0.248 NA
ATOM     37  C   UNL     1       5.577   6.738  -6.182  1.00  0.00     0.031 C 
ATOM     38  C   UNL     1       9.576   3.824  -9.718  1.00  0.00     0.029 A 
ATOM     39  C   UNL     1       9.006   4.477  -8.634  1.00  0.00     0.049 A 
ATOM     40  H   UNL     1       9.873   4.966  -6.777  1.00  0.00     0.167 HD
ATOM     41  C   UNL     1       7.154   5.612  -7.412  1.00  0.00     0.074 A 
ATOM     42  C   UNL     1       5.801   6.127  -7.337  1.00  0.00     0.031 C 
ATOM     43  C   UNL     1       7.672   5.002  -8.507  1.00  0.00     0.031 A 
BRANCH  30  44
ATOM     44  C   UNL     1      13.578   3.234  -7.971  1.00  0.00    -0.014 A 
ATOM     45  C   UNL     1      14.050   1.990  -7.526  1.00  0.00     0.009 A 
ATOM     46  C   UNL     1      14.266   3.894  -9.001  1.00  0.00     0.009 A 
ATOM     47  C   UNL     1      15.204   1.434  -8.084  1.00  0.00     0.001 A 
ATOM     48  C   UNL     1      15.406   3.326  -9.571  1.00  0.00     0.001 A 
ATOM     49  C   UNL     1      15.879   2.101  -9.107  1.00  0.00     0.000 A 
ENDBRANCH  30  44
BRANCH  31  50
ATOM     50  C   UNL     1       5.809   7.771  -3.442  1.00  0.00    -0.014 A 
ATOM     51  C   UNL     1       4.625   7.086  -3.128  1.00  0.00     0.009 A 
ATOM     52  C   UNL     1       5.875   9.150  -3.179  1.00  0.00     0.009 A 
ATOM     53  C   UNL     1       3.527   7.771  -2.597  1.00  0.00     0.001 A 
ATOM     54  C   UNL     1       4.790   9.826  -2.617  1.00  0.00     0.001 A 
ATOM     55  C   UNL     1       3.611   9.139  -2.339  1.00  0.00     0.000 A 
ENDBRANCH  31  50
BRANCH  43  56
ATOM     56  C   UNL     1       6.760   4.848  -9.688  1.00  0.00    -0.014 A 
ATOM     57  C   UNL     1       6.444   5.945 -10.503  1.00  0.00     0.009 A 
ATOM     58  C   UNL     1       6.260   3.579 -10.016  1.00  0.00     0.009 A 
ATOM     59  C   UNL     1       5.618   5.777 -11.614  1.00  0.00     0.001 A 
ATOM     60  C   UNL     1       5.458   3.410 -11.144  1.00  0.00     0.001 A 
ATOM     61  C   UNL     1       5.132   4.510 -11.937  1.00  0.00     0.000 A 
ENDBRANCH  43  56
ENDBRANCH  17  18
ENDBRANCH  10  12
ENDBRANCH   9  10
ENDBRANCH   8   9
ENDBRANCH   7   8
ENDBRANCH   6   7
ENDBRANCH   5   6
ENDBRANCH   4   5
ENDBRANCH   3   4
ENDBRANCH   2   3
ENDBRANCH   1   2
BRANCH   1  62
ATOM     62  O   UNL     1      10.084   7.533   3.413  1.00  0.00    -0.376 OA
BRANCH  62  63
ATOM     63  C   UNL     1       8.685   7.468   3.668  1.00  0.00     0.202 C 
BRANCH  63  64
ATOM     64  C   UNL     1       8.338   7.620   5.151  1.00  0.00     0.261 C 
BRANCH  64  65
ATOM     65  O   UNL     1       8.879   6.600   6.014  1.00  0.00    -0.459 OA
BRANCH  65  66
ATOM     66  C   UNL     1       8.443   5.316   5.906  1.00  0.00     0.348 C 
ATOM     67  O   UNL     1       7.556   4.944   5.150  1.00  0.00    -0.245 OA
BRANCH  66  68
ATOM     68  C   UNL     1       9.252   4.478   6.780  1.00  0.00     0.117 A 
ATOM     69  S   UNL     1       9.079   4.741   8.462  1.00  0.00    -0.128 S 
ATOM     70  C   UNL     1      10.205   3.498   6.497  1.00  0.00    -0.005 A 
ATOM     71  C   UNL     1      10.339   3.654   8.861  1.00  0.00     0.035 A 
ATOM     72  C   UNL     1      10.875   3.054   7.721  1.00  0.00    -0.003 A 
ATOM     73  C   UNL     1      10.826   3.367  10.153  1.00  0.00     0.019 A 
ATOM     74  C   UNL     1      11.962   2.157   7.914  1.00  0.00     0.010 A 
ATOM     75  C   UNL     1      11.874   2.458  10.302  1.00  0.00     0.001 A 
ATOM     76  C   UNL     1      12.442   1.858   9.192  1.00  0.00     0.001 A 
BRANCH  70  77
ATOM     77  C   UNL     1      10.659   3.015   5.144  1.00  0.00     0.107 C 
BRANCH  77  78
ATOM     78  S   UNL     1       9.390   2.430   4.006  1.00  0.00    -0.154 SA
BRANCH  78  79
ATOM     79  C   UNL     1       8.575   1.124   4.978  1.00  0.00     0.104 C 
BRANCH  79  80
ATOM     80  C   UNL     1       9.253  -0.254   4.955  1.00  0.00     0.149 C 
BRANCH  80  81
ATOM     81  C   UNL     1      10.441  -0.392   5.910  1.00  0.00     0.188 C 
BRANCH  81  82
ATOM     82  O   UNL     1      10.862  -1.754   5.976  1.00  0.00    -0.394 OA
ATOM     83  H   UNL     1      10.132  -2.303   6.302  1.00  0.00     0.210 HD
ENDBRANCH  81  82
ENDBRANCH  80  81
BRANCH  80  84
ATOM     84  O   UNL     1       8.294  -1.261   5.341  1.00  0.00    -0.390 OA
ATOM     85  H   UNL     1       8.004  -1.099   6.252  1.00  0.00     0.211 HD
ENDBRANCH  80  84
ENDBRANCH  79  80
ENDBRANCH  78  79
ENDBRANCH  77  78
ENDBRANCH  70  77
ENDBRANCH  66  68
ENDBRANCH  65  66
ENDBRANCH  64  65
ENDBRANCH  63  64
ENDBRANCH  62  63
ENDBRANCH   1  62
TORSDOF 27
