REMARK SMILES O=C(OCCOCCOCCOCCOC(=O)[C@H]1CC[C@H]2CCCC[C@@H]2[N@H+]1[C@@H]1CCCSC1)c1ccc(-c2c3nc(c(-c4ccccc4)c4ccc([nH]4)c(-c4ccccc4)c4nc(c(-c5ccccc5)c5ccc2[nH]5)C=C4)C=C3)cc1
REMARK SMILES IDX 8 1 7 2 6 3 5 4 4 5 3 6 2 7 1 8 34 9 35 10 81 11 36 12 80 13
REMARK SMILES IDX 37 14 38 15 39 16 74 17 40 18 79 19 73 20 75 21 41 22 78 23
REMARK SMILES IDX 72 24 71 25 42 27 64 28 49 29 63 30 50 31 53 32 62 33 76 34
REMARK SMILES IDX 51 35 52 36 61 38 77 39 54 40 43 41 44 42 48 43 45 44 47 45
REMARK SMILES IDX 46 46 65 47 66 48 70 49 67 50 69 51 68 52 55 53 56 54 60 55
REMARK SMILES IDX 57 56 59 57 58 58 9 59 10 60 11 61 12 62 13 63 14 64 15 65
REMARK SMILES IDX 16 66 17 67 18 68 19 69 27 70 20 71 26 72 21 74 25 75 22 76
REMARK SMILES IDX 24 77 23 78 28 79 29 80 33 81 30 82 32 83 31 84
REMARK H PARENT 75 26 53 37 27 73
REMARK Flexibility Score: inf
ROOT
ATOM      1  C   UNL     1       1.782   2.532  -0.708  1.00  0.00     0.188 C 
ENDROOT
BRANCH   1   2
ATOM      2  C   UNL     1       2.254   1.105  -0.991  1.00  0.00     0.188 C 
BRANCH   2   3
ATOM      3  O   UNL     1       3.569   0.880  -0.480  1.00  0.00    -0.376 OA
BRANCH   3   4
ATOM      4  C   UNL     1       4.469   0.163  -1.327  1.00  0.00     0.202 C 
BRANCH   4   5
ATOM      5  C   UNL     1       4.243  -1.345  -1.351  1.00  0.00     0.261 C 
BRANCH   5   6
ATOM      6  O   UNL     1       2.897  -1.721  -1.028  1.00  0.00    -0.460 OA
BRANCH   6   7
ATOM      7  C   UNL     1       2.332  -1.856   0.196  1.00  0.00     0.338 C 
ATOM      8  O   UNL     1       1.138  -2.153   0.252  1.00  0.00    -0.246 OA
BRANCH   7   9
ATOM      9  C   UNL     1       3.062  -1.699   1.492  1.00  0.00     0.060 A 
ATOM     10  C   UNL     1       4.183  -0.898   1.709  1.00  0.00     0.016 A 
ATOM     11  C   UNL     1       2.519  -2.370   2.601  1.00  0.00     0.016 A 
ATOM     12  C   UNL     1       4.794  -0.810   2.946  1.00  0.00     0.010 A 
ATOM     13  C   UNL     1       3.116  -2.281   3.861  1.00  0.00     0.010 A 
ATOM     14  C   UNL     1       4.281  -1.524   4.019  1.00  0.00    -0.014 A 
BRANCH  14  15
ATOM     15  C   UNL     1       5.139  -1.632   5.205  1.00  0.00     0.031 A 
ATOM     16  C   UNL     1       5.915  -2.902   5.372  1.00  0.00     0.074 A 
ATOM     17  C   UNL     1       5.364  -0.549   5.970  1.00  0.00     0.049 A 
ATOM     18  N   UNL     1       6.711  -3.267   6.337  1.00  0.00    -0.248 NA
ATOM     19  C   UNL     1       5.792  -3.893   4.285  1.00  0.00     0.031 C 
ATOM     20  C   UNL     1       4.787   0.781   5.746  1.00  0.00     0.029 A 
ATOM     21  N   UNL     1       6.174  -0.384   7.058  1.00  0.00    -0.354 N 
ATOM     22  C   UNL     1       7.154  -4.537   5.990  1.00  0.00     0.074 A 
ATOM     23  C   UNL     1       6.536  -4.889   4.735  1.00  0.00     0.031 C 
ATOM     24  C   UNL     1       5.280   1.630   6.662  1.00  0.00     0.029 A 
ATOM     25  C   UNL     1       6.136   0.887   7.578  1.00  0.00     0.049 A 
ATOM     26  H   UNL     1       6.730  -1.105   7.432  1.00  0.00     0.167 HD
ATOM     27  C   UNL     1       8.004  -5.336   6.673  1.00  0.00     0.031 A 
ATOM     28  C   UNL     1       6.700   1.365   8.701  1.00  0.00     0.031 A 
ATOM     29  C   UNL     1       8.586  -4.951   7.926  1.00  0.00     0.049 A 
ATOM     30  C   UNL     1       7.517   0.406   9.524  1.00  0.00     0.074 A 
ATOM     31  C   UNL     1       9.373  -5.691   8.785  1.00  0.00     0.029 A 
ATOM     32  N   UNL     1       8.436  -3.691   8.493  1.00  0.00    -0.354 N 
ATOM     33  N   UNL     1       7.846  -0.838   9.258  1.00  0.00    -0.248 NA
ATOM     34  C   UNL     1       8.026   0.905  10.806  1.00  0.00     0.031 C 
ATOM     35  C   UNL     1       9.658  -4.892   9.898  1.00  0.00     0.029 A 
ATOM     36  C   UNL     1       9.103  -3.634   9.700  1.00  0.00     0.049 A 
ATOM     37  H   UNL     1       7.928  -2.948   8.093  1.00  0.00     0.167 HD
ATOM     38  C   UNL     1       8.618  -1.265  10.328  1.00  0.00     0.074 A 
ATOM     39  C   UNL     1       8.728  -0.135  11.233  1.00  0.00     0.031 C 
ATOM     40  C   UNL     1       9.183  -2.477  10.556  1.00  0.00     0.031 A 
BRANCH  27  41
ATOM     41  C   UNL     1       8.250  -6.706   6.110  1.00  0.00    -0.014 A 
ATOM     42  C   UNL     1       9.006  -6.899   4.941  1.00  0.00     0.009 A 
ATOM     43  C   UNL     1       7.663  -7.820   6.728  1.00  0.00     0.009 A 
ATOM     44  C   UNL     1       9.132  -8.175   4.383  1.00  0.00     0.001 A 
ATOM     45  C   UNL     1       7.813  -9.097   6.184  1.00  0.00     0.001 A 
ATOM     46  C   UNL     1       8.537  -9.271   5.006  1.00  0.00     0.000 A 
ENDBRANCH  27  41
BRANCH  28  47
ATOM     47  C   UNL     1       6.438   2.759   9.155  1.00  0.00    -0.014 A 
ATOM     48  C   UNL     1       7.480   3.688   9.298  1.00  0.00     0.009 A 
ATOM     49  C   UNL     1       5.133   3.160   9.489  1.00  0.00     0.009 A 
ATOM     50  C   UNL     1       7.225   4.969   9.800  1.00  0.00     0.001 A 
ATOM     51  C   UNL     1       4.875   4.450   9.956  1.00  0.00     0.001 A 
ATOM     52  C   UNL     1       5.924   5.350  10.125  1.00  0.00     0.000 A 
ENDBRANCH  28  47
BRANCH  40  53
ATOM     53  C   UNL     1      10.002  -2.610  11.805  1.00  0.00    -0.014 A 
ATOM     54  C   UNL     1       9.399  -2.660  13.070  1.00  0.00     0.009 A 
ATOM     55  C   UNL     1      11.396  -2.732  11.701  1.00  0.00     0.009 A 
ATOM     56  C   UNL     1      10.184  -2.794  14.215  1.00  0.00     0.001 A 
ATOM     57  C   UNL     1      12.174  -2.901  12.844  1.00  0.00     0.001 A 
ATOM     58  C   UNL     1      11.569  -2.921  14.100  1.00  0.00     0.000 A 
ENDBRANCH  40  53
ENDBRANCH  14  15
ENDBRANCH   7   9
ENDBRANCH   6   7
ENDBRANCH   5   6
ENDBRANCH   4   5
ENDBRANCH   3   4
ENDBRANCH   2   3
ENDBRANCH   1   2
BRANCH   1  59
ATOM     59  O   UNL     1       2.519   3.550  -1.379  1.00  0.00    -0.377 OA
BRANCH  59  60
ATOM     60  C   UNL     1       3.935   3.429  -1.315  1.00  0.00     0.188 C 
BRANCH  60  61
ATOM     61  C   UNL     1       4.628   3.463   0.066  1.00  0.00     0.188 C 
BRANCH  61  62
ATOM     62  O   UNL     1       3.734   3.421   1.168  1.00  0.00    -0.376 OA
BRANCH  62  63
ATOM     63  C   UNL     1       3.601   4.643   1.886  1.00  0.00     0.202 C 
BRANCH  63  64
ATOM     64  C   UNL     1       3.036   5.857   1.124  1.00  0.00     0.261 C 
BRANCH  64  65
ATOM     65  O   UNL     1       3.544   6.042  -0.210  1.00  0.00    -0.459 OA
BRANCH  65  66
ATOM     66  C   UNL     1       4.707   6.728  -0.407  1.00  0.00     0.365 C 
ATOM     67  O   UNL     1       5.317   7.308   0.469  1.00  0.00    -0.245 OA
BRANCH  66  68
ATOM     68  C   UNL     1       5.152   6.591  -1.898  1.00  0.00     0.295 C 
ATOM     69  C   UNL     1       5.294   7.962  -2.562  1.00  0.00     0.078 C 
ATOM     70  N   UNL     1       6.277   5.619  -2.119  1.00  0.00    -0.317 N 
ATOM     71  C   UNL     1       6.079   7.918  -3.874  1.00  0.00     0.016 C 
ATOM     72  C   UNL     1       6.716   5.514  -3.527  1.00  0.00     0.188 C 
ATOM     73  H   UNL     1       5.827   4.728  -1.905  1.00  0.00     0.349 HD
ATOM     74  C   UNL     1       6.050   6.519  -4.489  1.00  0.00     0.048 C 
ATOM     75  C   UNL     1       6.503   4.096  -4.103  1.00  0.00     0.065 C 
ATOM     76  C   UNL     1       6.782   6.469  -5.838  1.00  0.00     0.010 C 
ATOM     77  C   UNL     1       7.161   3.971  -5.483  1.00  0.00     0.006 C 
ATOM     78  C   UNL     1       6.721   5.069  -6.452  1.00  0.00     0.001 C 
BRANCH  70  79
ATOM     79  C   UNL     1       7.389   5.632  -1.130  1.00  0.00     0.195 C 
ATOM     80  C   UNL     1       8.200   6.938  -1.136  1.00  0.00     0.067 C 
ATOM     81  C   UNL     1       8.309   4.387  -1.262  1.00  0.00     0.134 C 
ATOM     82  C   UNL     1       9.207   6.999   0.009  1.00  0.00     0.017 C 
ATOM     83  S   UNL     1       9.564   4.265   0.052  1.00  0.00    -0.156 SA
ATOM     84  C   UNL     1      10.278   5.926  -0.094  1.00  0.00     0.070 C 
ENDBRANCH  70  79
ENDBRANCH  66  68
ENDBRANCH  65  66
ENDBRANCH  64  65
ENDBRANCH  63  64
ENDBRANCH  62  63
ENDBRANCH  61  62
ENDBRANCH  60  61
ENDBRANCH  59  60
ENDBRANCH   1  59
TORSDOF 21
