REMARK SMILES Nc1ccc(O)c(C(=O)OCCOCCOCCOCCOC(=O)c2ccc(-c3c4nc(c(-c5ccccc5)c5ccc([nH]5)c(-c5ccccc5)c5nc(c(-c6ccccc6)c6ccc3[nH]6)C=C5)C=C4)cc2)c1
REMARK SMILES IDX 17 1 16 2 15 3 14 4 13 5 12 6 11 7 10 8 8 9 9 10 7 11 2 12
REMARK SMILES IDX 3 13 73 14 4 15 5 16 1 17 6 20 18 22 19 23 20 24 21 25 22 26
REMARK SMILES IDX 23 27 24 28 25 29 26 30 72 31 27 32 71 33 28 34 29 35 30 36
REMARK SMILES IDX 65 37 31 38 70 39 64 40 66 41 32 42 69 43 63 44 62 45 33 47
REMARK SMILES IDX 55 48 40 49 54 50 41 51 44 52 53 53 67 54 42 55 43 56 52 58
REMARK SMILES IDX 68 59 45 60 34 61 35 62 39 63 36 64 38 65 37 66 56 67 57 68
REMARK SMILES IDX 61 69 58 70 60 71 59 72 46 73 47 74 51 75 48 76 50 77 49 78
REMARK H PARENT 1 18 1 19 6 21 66 46 44 57
REMARK Flexibility Score: inf
ROOT
ATOM      1  C   UNL     1       1.175  -4.955  -2.752  1.00  0.00     0.188 C 
ENDROOT
BRANCH   1   2
ATOM      2  O   UNL     1       0.623  -3.721  -2.298  1.00  0.00    -0.377 OA
BRANCH   2   3
ATOM      3  C   UNL     1       1.474  -2.614  -2.033  1.00  0.00     0.188 C 
BRANCH   3   4
ATOM      4  C   UNL     1       2.749  -2.840  -1.194  1.00  0.00     0.188 C 
BRANCH   4   5
ATOM      5  O   UNL     1       3.014  -4.205  -0.921  1.00  0.00    -0.376 OA
BRANCH   5   6
ATOM      6  C   UNL     1       2.825  -4.699   0.389  1.00  0.00     0.202 C 
BRANCH   6   7
ATOM      7  C   UNL     1       1.429  -4.620   1.025  1.00  0.00     0.261 C 
BRANCH   7   8
ATOM      8  O   UNL     1       0.711  -3.389   0.872  1.00  0.00    -0.460 OA
BRANCH   8   9
ATOM      9  C   UNL     1       1.176  -2.311   1.538  1.00  0.00     0.342 C 
ATOM     10  O   UNL     1       2.164  -2.265   2.254  1.00  0.00    -0.246 OA
BRANCH   9  11
ATOM     11  C   UNL     1       0.462  -1.104   1.066  1.00  0.00     0.103 A 
ATOM     12  C   UNL     1      -1.563  -0.018   0.272  1.00  0.00     0.032 A 
ATOM     13  C   UNL     1      -0.818   1.138   0.018  1.00  0.00     0.029 A 
ATOM     14  C   UNL     1      -0.910  -1.146   0.775  1.00  0.00     0.045 A 
ATOM     15  C   UNL     1       0.553   1.181   0.284  1.00  0.00     0.049 A 
ATOM     16  C   UNL     1       1.189   0.067   0.818  1.00  0.00     0.130 A 
BRANCH  12  17
ATOM     17  N   UNL     1      -2.908  -0.065  -0.045  1.00  0.00    -0.399 N 
ATOM     18  H   UNL     1      -3.358   0.736  -0.399  1.00  0.00     0.156 HD
ATOM     19  H   UNL     1      -3.415  -0.899   0.083  1.00  0.00     0.156 HD
ENDBRANCH  12  17
BRANCH  16  20
ATOM     20  O   UNL     1       2.538   0.174   1.023  1.00  0.00    -0.507 OA
ATOM     21  H   UNL     1       2.977   0.982   0.841  1.00  0.00     0.293 HD
ENDBRANCH  16  20
ENDBRANCH   9  11
ENDBRANCH   8   9
ENDBRANCH   7   8
ENDBRANCH   6   7
ENDBRANCH   5   6
ENDBRANCH   4   5
ENDBRANCH   3   4
ENDBRANCH   2   3
ENDBRANCH   1   2
BRANCH   1  22
ATOM     22  C   UNL     1       2.534  -5.023  -3.491  1.00  0.00     0.188 C 
BRANCH  22  23
ATOM     23  O   UNL     1       3.094  -3.765  -3.822  1.00  0.00    -0.376 OA
BRANCH  23  24
ATOM     24  C   UNL     1       3.086  -3.367  -5.179  1.00  0.00     0.202 C 
BRANCH  24  25
ATOM     25  C   UNL     1       1.718  -3.181  -5.847  1.00  0.00     0.261 C 
BRANCH  25  26
ATOM     26  O   UNL     1       0.799  -4.278  -5.727  1.00  0.00    -0.460 OA
BRANCH  26  27
ATOM     27  C   UNL     1       1.113  -5.424  -6.365  1.00  0.00     0.338 C 
ATOM     28  O   UNL     1       2.103  -5.647  -7.045  1.00  0.00    -0.246 OA
BRANCH  27  29
ATOM     29  C   UNL     1       0.134  -6.446  -5.946  1.00  0.00     0.060 A 
ATOM     30  C   UNL     1       0.579  -7.587  -5.264  1.00  0.00     0.016 A 
ATOM     31  C   UNL     1      -1.226  -6.264  -6.209  1.00  0.00     0.016 A 
ATOM     32  C   UNL     1      -0.334  -8.564  -4.869  1.00  0.00     0.010 A 
ATOM     33  C   UNL     1      -2.136  -7.255  -5.835  1.00  0.00     0.010 A 
ATOM     34  C   UNL     1      -1.690  -8.424  -5.192  1.00  0.00    -0.014 A 
BRANCH  34  35
ATOM     35  C   UNL     1      -2.608  -9.578  -5.045  1.00  0.00     0.031 A 
ATOM     36  C   UNL     1      -2.899 -10.413  -6.262  1.00  0.00     0.074 A 
ATOM     37  C   UNL     1      -3.161  -9.893  -3.860  1.00  0.00     0.049 A 
ATOM     38  N   UNL     1      -3.709 -11.431  -6.398  1.00  0.00    -0.248 NA
ATOM     39  C   UNL     1      -2.177 -10.048  -7.493  1.00  0.00     0.031 C 
ATOM     40  C   UNL     1      -2.920  -9.197  -2.598  1.00  0.00     0.029 A 
ATOM     41  N   UNL     1      -4.052 -10.885  -3.534  1.00  0.00    -0.354 N 
ATOM     42  C   UNL     1      -3.601 -11.820  -7.728  1.00  0.00     0.074 A 
ATOM     43  C   UNL     1      -2.672 -10.913  -8.364  1.00  0.00     0.031 C 
ATOM     44  C   UNL     1      -3.655  -9.779  -1.633  1.00  0.00     0.029 A 
ATOM     45  C   UNL     1      -4.446 -10.861  -2.218  1.00  0.00     0.049 A 
ATOM     46  H   UNL     1      -4.378 -11.551  -4.182  1.00  0.00     0.167 HD
ATOM     47  C   UNL     1      -4.215 -12.846  -8.362  1.00  0.00     0.031 A 
ATOM     48  C   UNL     1      -5.361 -11.610  -1.571  1.00  0.00     0.031 A 
ATOM     49  C   UNL     1      -5.152 -13.738  -7.734  1.00  0.00     0.049 A 
ATOM     50  C   UNL     1      -6.103 -12.684  -2.325  1.00  0.00     0.074 A 
ATOM     51  C   UNL     1      -5.823 -14.812  -8.290  1.00  0.00     0.029 A 
ATOM     52  N   UNL     1      -5.555 -13.653  -6.411  1.00  0.00    -0.354 N 
ATOM     53  N   UNL     1      -5.976 -13.059  -3.575  1.00  0.00    -0.248 NA
ATOM     54  C   UNL     1      -7.113 -13.444  -1.572  1.00  0.00     0.031 C 
ATOM     55  C   UNL     1      -6.682 -15.337  -7.321  1.00  0.00     0.029 A 
ATOM     56  C   UNL     1      -6.490 -14.637  -6.141  1.00  0.00     0.049 A 
ATOM     57  H   UNL     1      -5.226 -12.991  -5.760  1.00  0.00     0.167 HD
ATOM     58  C   UNL     1      -6.861 -14.119  -3.747  1.00  0.00     0.074 A 
ATOM     59  C   UNL     1      -7.505 -14.338  -2.469  1.00  0.00     0.031 C 
ATOM     60  C   UNL     1      -7.117 -14.847  -4.861  1.00  0.00     0.031 A 
BRANCH  47  61
ATOM     61  C   UNL     1      -3.918 -13.037  -9.823  1.00  0.00    -0.014 A 
ATOM     62  C   UNL     1      -2.667 -13.501 -10.260  1.00  0.00     0.009 A 
ATOM     63  C   UNL     1      -4.920 -12.790 -10.774  1.00  0.00     0.009 A 
ATOM     64  C   UNL     1      -2.419 -13.687 -11.622  1.00  0.00     0.001 A 
ATOM     65  C   UNL     1      -4.680 -13.006 -12.131  1.00  0.00     0.001 A 
ATOM     66  C   UNL     1      -3.427 -13.446 -12.555  1.00  0.00     0.000 A 
ENDBRANCH  47  61
BRANCH  48  67
ATOM     67  C   UNL     1      -5.663 -11.357  -0.135  1.00  0.00    -0.014 A 
ATOM     68  C   UNL     1      -5.369 -12.321   0.843  1.00  0.00     0.009 A 
ATOM     69  C   UNL     1      -6.297 -10.168   0.260  1.00  0.00     0.009 A 
ATOM     70  C   UNL     1      -5.737 -12.116   2.175  1.00  0.00     0.001 A 
ATOM     71  C   UNL     1      -6.632  -9.950   1.598  1.00  0.00     0.001 A 
ATOM     72  C   UNL     1      -6.364 -10.929   2.552  1.00  0.00     0.000 A 
ENDBRANCH  48  67
BRANCH  60  73
ATOM     73  C   UNL     1      -8.098 -15.982  -4.740  1.00  0.00    -0.014 A 
ATOM     74  C   UNL     1      -9.471 -15.752  -4.562  1.00  0.00     0.009 A 
ATOM     75  C   UNL     1      -7.641 -17.305  -4.852  1.00  0.00     0.009 A 
ATOM     76  C   UNL     1     -10.359 -16.825  -4.461  1.00  0.00     0.001 A 
ATOM     77  C   UNL     1      -8.535 -18.374  -4.786  1.00  0.00     0.001 A 
ATOM     78  C   UNL     1      -9.892 -18.134  -4.579  1.00  0.00     0.000 A 
ENDBRANCH  60  73
ENDBRANCH  34  35
ENDBRANCH  27  29
ENDBRANCH  26  27
ENDBRANCH  25  26
ENDBRANCH  24  25
ENDBRANCH  23  24
ENDBRANCH  22  23
ENDBRANCH   1  22
TORSDOF 22
