REMARK SMILES Cc1ccc(NC(=O)Cn2c(CCC(=O)OCCOCCOCCOCCOC(=O)c3ccc(-c4c5nc(c(-c6ccccc6)c6ccc([nH]6)c(-c6ccccc6)c6nc(c(-c7ccccc7)c7ccc4[nH]7)C=C6)C=C5)cc3)ccc2-c2ccccc2)cc1
REMARK SMILES IDX 20 1 19 2 18 3 17 4 16 5 14 6 15 7 13 8 12 9 11 10 10 11
REMARK SMILES IDX 81 12 79 13 80 14 9 15 7 16 6 17 8 19 5 20 1 21 2 22 3 23
REMARK SMILES IDX 89 24 4 25 88 26 82 27 83 28 87 29 84 30 86 31 85 32 21 33
REMARK SMILES IDX 22 34 23 35 24 36 25 37 26 38 27 39 28 40 29 41 30 42 31 43
REMARK SMILES IDX 32 44 78 45 33 46 77 47 34 48 35 49 36 50 71 51 37 52 76 53
REMARK SMILES IDX 70 54 72 55 38 56 75 57 69 58 68 59 39 61 61 62 46 63 60 64
REMARK SMILES IDX 47 65 50 66 59 67 73 68 48 69 49 70 58 72 74 73 51 74 40 75
REMARK SMILES IDX 41 76 45 77 42 78 44 79 43 80 62 81 63 82 67 83 64 84 66 85
REMARK SMILES IDX 65 86 52 87 53 88 57 89 54 90 56 91 55 92
REMARK H PARENT 6 18 72 60 50 71
REMARK Flexibility Score: inf
ROOT
ATOM      1  C   UNL     1      -4.870   0.367   1.651  1.00  0.00     0.188 C 
ENDROOT
BRANCH   1   2
ATOM      2  O   UNL     1      -5.453  -0.917   1.873  1.00  0.00    -0.376 OA
BRANCH   2   3
ATOM      3  C   UNL     1      -5.304  -1.851   0.795  1.00  0.00     0.202 C 
BRANCH   3   4
ATOM      4  C   UNL     1      -6.045  -1.540  -0.515  1.00  0.00     0.261 C 
BRANCH   4   5
ATOM      5  O   UNL     1      -5.263  -1.623  -1.748  1.00  0.00    -0.463 OA
BRANCH   5   6
ATOM      6  C   UNL     1      -5.250  -0.510  -2.552  1.00  0.00     0.306 C 
ATOM      7  O   UNL     1      -5.806   0.557  -2.302  1.00  0.00    -0.252 OA
BRANCH   6   8
ATOM      8  C   UNL     1      -4.486  -0.707  -3.859  1.00  0.00     0.129 C 
BRANCH   8   9
ATOM      9  C   UNL     1      -2.959  -0.641  -3.885  1.00  0.00     0.066 C 
BRANCH   9  10
ATOM     10  C   UNL     1      -2.221  -1.936  -3.642  1.00  0.00     0.019 A 
ATOM     11  N   UNL     1      -2.145  -2.638  -2.455  1.00  0.00    -0.335 N 
ATOM     12  C   UNL     1      -1.769  -3.952  -2.724  1.00  0.00     0.049 A 
ATOM     13  C   UNL     1      -1.378  -2.621  -4.504  1.00  0.00     0.024 A 
ATOM     14  C   UNL     1      -1.080  -3.876  -3.922  1.00  0.00     0.029 A 
BRANCH  11  15
ATOM     15  C   UNL     1      -2.304  -2.129  -1.100  1.00  0.00     0.222 C 
BRANCH  15  16
ATOM     16  C   UNL     1      -2.413  -0.632  -0.981  1.00  0.00     0.244 C 
ATOM     17  N   UNL     1      -1.431   0.274  -0.974  1.00  0.00    -0.325 N 
ATOM     18  H   UNL     1      -1.764   1.187  -1.129  1.00  0.00     0.169 HD
ATOM     19  O   UNL     1      -3.503  -0.067  -0.865  1.00  0.00    -0.273 OA
BRANCH  17  20
ATOM     20  C   UNL     1      -0.067   0.236  -0.803  1.00  0.00     0.041 A 
ATOM     21  C   UNL     1       4.034   0.491   0.349  1.00  0.00     0.044 C 
ATOM     22  C   UNL     1       2.611   0.418  -0.099  1.00  0.00    -0.051 A 
ATOM     23  C   UNL     1       2.052  -0.816  -0.460  1.00  0.00     0.005 A 
ATOM     24  C   UNL     1       1.828   1.571  -0.132  1.00  0.00     0.005 A 
ATOM     25  C   UNL     1       0.713  -0.907  -0.825  1.00  0.00     0.026 A 
ATOM     26  C   UNL     1       0.497   1.479  -0.495  1.00  0.00     0.026 A 
ENDBRANCH  17  20
ENDBRANCH  15  16
ENDBRANCH  11  15
BRANCH  12  27
ATOM     27  C   UNL     1      -2.064  -5.136  -1.897  1.00  0.00    -0.002 A 
ATOM     28  C   UNL     1      -1.093  -6.119  -1.670  1.00  0.00     0.010 A 
ATOM     29  C   UNL     1      -3.373  -5.386  -1.454  1.00  0.00     0.010 A 
ATOM     30  C   UNL     1      -1.423  -7.323  -1.033  1.00  0.00     0.001 A 
ATOM     31  C   UNL     1      -3.707  -6.593  -0.827  1.00  0.00     0.001 A 
ATOM     32  C   UNL     1      -2.732  -7.565  -0.622  1.00  0.00     0.000 A 
ENDBRANCH  12  27
ENDBRANCH   9  10
ENDBRANCH   8   9
ENDBRANCH   6   8
ENDBRANCH   5   6
ENDBRANCH   4   5
ENDBRANCH   3   4
ENDBRANCH   2   3
ENDBRANCH   1   2
BRANCH   1  33
ATOM     33  C   UNL     1      -3.370   0.549   2.003  1.00  0.00     0.188 C 
BRANCH  33  34
ATOM     34  O   UNL     1      -2.467  -0.518   1.738  1.00  0.00    -0.377 OA
BRANCH  34  35
ATOM     35  C   UNL     1      -2.479  -1.650   2.592  1.00  0.00     0.188 C 
BRANCH  35  36
ATOM     36  C   UNL     1      -3.236  -1.526   3.905  1.00  0.00     0.188 C 
BRANCH  36  37
ATOM     37  O   UNL     1      -2.474  -1.077   5.013  1.00  0.00    -0.376 OA
BRANCH  37  38
ATOM     38  C   UNL     1      -1.367  -1.882   5.408  1.00  0.00     0.202 C 
BRANCH  38  39
ATOM     39  C   UNL     1      -1.528  -3.422   5.363  1.00  0.00     0.261 C 
BRANCH  39  40
ATOM     40  O   UNL     1      -2.885  -3.862   5.625  1.00  0.00    -0.460 OA
BRANCH  40  41
ATOM     41  C   UNL     1      -3.298  -4.965   4.910  1.00  0.00     0.338 C 
ATOM     42  O   UNL     1      -2.556  -5.792   4.438  1.00  0.00    -0.246 OA
BRANCH  41  43
ATOM     43  C   UNL     1      -4.786  -4.919   4.599  1.00  0.00     0.060 A 
ATOM     44  C   UNL     1      -5.375  -5.844   3.715  1.00  0.00     0.016 A 
ATOM     45  C   UNL     1      -5.587  -3.874   5.027  1.00  0.00     0.016 A 
ATOM     46  C   UNL     1      -6.709  -5.676   3.201  1.00  0.00     0.010 A 
ATOM     47  C   UNL     1      -6.882  -3.704   4.495  1.00  0.00     0.010 A 
ATOM     48  C   UNL     1      -7.493  -4.565   3.541  1.00  0.00    -0.014 A 
BRANCH  48  49
ATOM     49  C   UNL     1      -8.795  -4.110   2.874  1.00  0.00     0.031 A 
ATOM     50  C   UNL     1      -8.888  -2.653   2.659  1.00  0.00     0.074 A 
ATOM     51  C   UNL     1      -9.879  -4.612   2.193  1.00  0.00     0.049 A 
ATOM     52  N   UNL     1      -8.679  -2.104   1.502  1.00  0.00    -0.248 NA
ATOM     53  C   UNL     1      -9.266  -1.747   3.735  1.00  0.00     0.031 C 
ATOM     54  C   UNL     1     -10.116  -5.987   1.785  1.00  0.00     0.029 A 
ATOM     55  N   UNL     1     -10.989  -3.911   1.612  1.00  0.00    -0.354 N 
ATOM     56  C   UNL     1      -9.101  -0.804   1.639  1.00  0.00     0.074 A 
ATOM     57  C   UNL     1      -9.181  -0.594   3.072  1.00  0.00     0.031 C 
ATOM     58  C   UNL     1     -11.157  -6.019   0.920  1.00  0.00     0.029 A 
ATOM     59  C   UNL     1     -11.733  -4.672   0.718  1.00  0.00     0.049 A 
ATOM     60  H   UNL     1     -11.204  -2.975   1.827  1.00  0.00     0.167 HD
ATOM     61  C   UNL     1      -9.565  -0.080   0.578  1.00  0.00     0.031 A 
ATOM     62  C   UNL     1     -12.552  -4.344  -0.339  1.00  0.00     0.031 A 
ATOM     63  C   UNL     1      -9.208  -0.596  -0.771  1.00  0.00     0.049 A 
ATOM     64  C   UNL     1     -11.653  -4.668  -1.481  1.00  0.00     0.074 A 
ATOM     65  C   UNL     1      -8.805  -0.011  -1.963  1.00  0.00     0.029 A 
ATOM     66  N   UNL     1      -9.133  -1.962  -1.036  1.00  0.00    -0.354 N 
ATOM     67  N   UNL     1     -10.711  -3.815  -1.696  1.00  0.00    -0.248 NA
ATOM     68  C   UNL     1     -11.660  -5.790  -2.401  1.00  0.00     0.031 C 
ATOM     69  C   UNL     1      -8.531  -1.032  -2.930  1.00  0.00     0.029 A 
ATOM     70  C   UNL     1      -8.720  -2.266  -2.338  1.00  0.00     0.049 A 
ATOM     71  H   UNL     1      -9.350  -2.651  -0.367  1.00  0.00     0.167 HD
ATOM     72  C   UNL     1      -9.893  -4.310  -2.640  1.00  0.00     0.074 A 
ATOM     73  C   UNL     1     -10.529  -5.535  -3.087  1.00  0.00     0.031 C 
ATOM     74  C   UNL     1      -8.715  -3.671  -2.814  1.00  0.00     0.031 A 
BRANCH  61  75
ATOM     75  C   UNL     1     -10.451   1.157   0.801  1.00  0.00    -0.014 A 
ATOM     76  C   UNL     1     -10.906   1.911  -0.291  1.00  0.00     0.009 A 
ATOM     77  C   UNL     1     -10.975   1.576   2.047  1.00  0.00     0.009 A 
ATOM     78  C   UNL     1     -11.732   3.040  -0.142  1.00  0.00     0.001 A 
ATOM     79  C   UNL     1     -11.766   2.721   2.217  1.00  0.00     0.001 A 
ATOM     80  C   UNL     1     -12.140   3.462   1.115  1.00  0.00     0.000 A 
ENDBRANCH  61  75
BRANCH  62  81
ATOM     81  C   UNL     1     -13.379  -3.114  -0.739  1.00  0.00    -0.014 A 
ATOM     82  C   UNL     1     -14.774  -3.247  -0.775  1.00  0.00     0.009 A 
ATOM     83  C   UNL     1     -12.849  -2.023  -1.478  1.00  0.00     0.009 A 
ATOM     84  C   UNL     1     -15.574  -2.403  -1.579  1.00  0.00     0.001 A 
ATOM     85  C   UNL     1     -13.634  -1.218  -2.320  1.00  0.00     0.001 A 
ATOM     86  C   UNL     1     -15.002  -1.419  -2.382  1.00  0.00     0.000 A 
ENDBRANCH  62  81
BRANCH  74  87
ATOM     87  C   UNL     1      -7.560  -4.426  -3.399  1.00  0.00    -0.014 A 
ATOM     88  C   UNL     1      -7.416  -5.822  -3.242  1.00  0.00     0.009 A 
ATOM     89  C   UNL     1      -6.501  -3.762  -4.013  1.00  0.00     0.009 A 
ATOM     90  C   UNL     1      -6.316  -6.524  -3.745  1.00  0.00     0.001 A 
ATOM     91  C   UNL     1      -5.367  -4.448  -4.474  1.00  0.00     0.001 A 
ATOM     92  C   UNL     1      -5.284  -5.832  -4.360  1.00  0.00     0.000 A 
ENDBRANCH  74  87
ENDBRANCH  48  49
ENDBRANCH  41  43
ENDBRANCH  40  41
ENDBRANCH  39  40
ENDBRANCH  38  39
ENDBRANCH  37  38
ENDBRANCH  36  37
ENDBRANCH  35  36
ENDBRANCH  34  35
ENDBRANCH  33  34
ENDBRANCH   1  33
TORSDOF 26
