REMARK SMILES O=C(OCCOCCOCCOCCOC(=O)[C@]1(NC(=O)c2nc(C3CC3)n[nH]2)CCSC1)c1ccc(-c2c3nc(c(-c4ccccc4)c4ccc([nH]4)c(-c4ccccc4)c4nc(c(-c5ccccc5)c5ccc2[nH]5)C=C4)C=C3)cc1
REMARK SMILES IDX 10 1 9 2 8 3 7 4 6 5 5 6 4 7 3 8 2 9 1 10 34 11 35 12 81 13
REMARK SMILES IDX 36 14 80 15 37 16 38 17 39 18 74 19 40 20 79 21 73 22 75 23
REMARK SMILES IDX 41 24 78 25 72 26 71 27 42 29 64 30 49 31 63 32 50 33 53 34
REMARK SMILES IDX 62 35 76 36 51 37 52 38 61 40 77 41 54 42 43 43 44 44 48 45
REMARK SMILES IDX 45 46 47 47 46 48 65 49 66 50 70 51 67 52 69 53 68 54 55 55
REMARK SMILES IDX 56 56 60 57 57 58 59 59 58 60 11 61 12 62 13 63 14 64 15 65
REMARK SMILES IDX 16 66 17 67 18 68 30 69 33 70 31 71 32 72 19 73 20 74 21 76
REMARK SMILES IDX 22 77 23 78 29 79 24 80 28 81 25 83 26 84 27 85
REMARK H PARENT 75 28 53 39 19 75 29 82
REMARK Flexibility Score: inf
ROOT
ATOM      1  C   UNL     1       4.263   2.273  -1.981  1.00  0.00     0.188 C 
ENDROOT
BRANCH   1   2
ATOM      2  O   UNL     1       2.938   2.272  -2.516  1.00  0.00    -0.377 OA
BRANCH   2   3
ATOM      3  C   UNL     1       1.918   1.597  -1.777  1.00  0.00     0.188 C 
BRANCH   3   4
ATOM      4  C   UNL     1       2.233   0.150  -1.437  1.00  0.00     0.188 C 
BRANCH   4   5
ATOM      5  O   UNL     1       3.442   0.098  -0.702  1.00  0.00    -0.376 OA
BRANCH   5   6
ATOM      6  C   UNL     1       4.433  -0.803  -1.161  1.00  0.00     0.202 C 
BRANCH   6   7
ATOM      7  C   UNL     1       4.231  -2.221  -0.669  1.00  0.00     0.261 C 
BRANCH   7   8
ATOM      8  O   UNL     1       3.049  -2.513   0.104  1.00  0.00    -0.460 OA
BRANCH   8   9
ATOM      9  C   UNL     1       2.372  -1.814   1.040  1.00  0.00     0.338 C 
ATOM     10  O   UNL     1       1.151  -1.952   1.109  1.00  0.00    -0.246 OA
BRANCH   9  11
ATOM     11  C   UNL     1       3.038  -1.050   2.132  1.00  0.00     0.060 A 
ATOM     12  C   UNL     1       4.150  -0.224   1.989  1.00  0.00     0.016 A 
ATOM     13  C   UNL     1       2.438  -1.133   3.401  1.00  0.00     0.016 A 
ATOM     14  C   UNL     1       4.691   0.463   3.057  1.00  0.00     0.010 A 
ATOM     15  C   UNL     1       2.987  -0.467   4.497  1.00  0.00     0.010 A 
ATOM     16  C   UNL     1       4.146   0.295   4.321  1.00  0.00    -0.014 A 
BRANCH  16  17
ATOM     17  C   UNL     1       5.012   0.671   5.443  1.00  0.00     0.031 A 
ATOM     18  C   UNL     1       5.794  -0.435   6.086  1.00  0.00     0.074 A 
ATOM     19  C   UNL     1       5.250   1.967   5.702  1.00  0.00     0.049 A 
ATOM     20  N   UNL     1       6.592  -0.398   7.115  1.00  0.00    -0.248 NA
ATOM     21  C   UNL     1       5.676  -1.770   5.464  1.00  0.00     0.031 C 
ATOM     22  C   UNL     1       4.688   3.097   4.956  1.00  0.00     0.029 A 
ATOM     23  N   UNL     1       6.063   2.548   6.631  1.00  0.00    -0.354 N 
ATOM     24  C   UNL     1       7.027  -1.706   7.291  1.00  0.00     0.074 A 
ATOM     25  C   UNL     1       6.416  -2.515   6.266  1.00  0.00     0.031 C 
ATOM     26  C   UNL     1       5.183   4.240   5.458  1.00  0.00     0.029 A 
ATOM     27  C   UNL     1       6.024   3.919   6.605  1.00  0.00     0.049 A 
ATOM     28  H   UNL     1       6.622   2.034   7.258  1.00  0.00     0.167 HD
ATOM     29  C   UNL     1       7.855  -2.180   8.247  1.00  0.00     0.031 A 
ATOM     30  C   UNL     1       6.571   4.799   7.461  1.00  0.00     0.031 A 
ATOM     31  C   UNL     1       8.429  -1.333   9.252  1.00  0.00     0.049 A 
ATOM     32  C   UNL     1       7.365   4.236   8.608  1.00  0.00     0.074 A 
ATOM     33  C   UNL     1       9.206  -1.674  10.339  1.00  0.00     0.029 A 
ATOM     34  N   UNL     1       8.275   0.049   9.275  1.00  0.00    -0.354 N 
ATOM     35  N   UNL     1       7.685   2.985   8.856  1.00  0.00    -0.248 NA
ATOM     36  C   UNL     1       7.859   5.194   9.601  1.00  0.00     0.031 C 
ATOM     37  C   UNL     1       9.471  -0.501  11.056  1.00  0.00     0.029 A 
ATOM     38  C   UNL     1       8.922   0.577  10.373  1.00  0.00     0.049 A 
ATOM     39  H   UNL     1       7.778   0.573   8.607  1.00  0.00     0.167 HD
ATOM     40  C   UNL     1       8.437   3.006  10.020  1.00  0.00     0.074 A 
ATOM     41  C   UNL     1       8.540   4.400  10.415  1.00  0.00     0.031 C 
ATOM     42  C   UNL     1       8.992   1.978  10.710  1.00  0.00     0.031 A 
BRANCH  29  43
ATOM     43  C   UNL     1       8.060  -3.668   8.294  1.00  0.00    -0.014 A 
ATOM     44  C   UNL     1       8.797  -4.352   7.313  1.00  0.00     0.009 A 
ATOM     45  C   UNL     1       7.439  -4.408   9.312  1.00  0.00     0.009 A 
ATOM     46  C   UNL     1       8.869  -5.748   7.328  1.00  0.00     0.001 A 
ATOM     47  C   UNL     1       7.537  -5.800   9.341  1.00  0.00     0.001 A 
ATOM     48  C   UNL     1       8.241  -6.470   8.342  1.00  0.00     0.000 A 
ENDBRANCH  29  43
BRANCH  30  49
ATOM     49  C   UNL     1       6.311   6.257   7.320  1.00  0.00    -0.014 A 
ATOM     50  C   UNL     1       7.353   7.162   7.078  1.00  0.00     0.009 A 
ATOM     51  C   UNL     1       5.003   6.757   7.447  1.00  0.00     0.009 A 
ATOM     52  C   UNL     1       7.096   8.535   6.996  1.00  0.00     0.001 A 
ATOM     53  C   UNL     1       4.743   8.125   7.332  1.00  0.00     0.001 A 
ATOM     54  C   UNL     1       5.793   9.014   7.119  1.00  0.00     0.000 A 
ENDBRANCH  30  49
BRANCH  42  55
ATOM     55  C   UNL     1       9.795   2.341  11.923  1.00  0.00    -0.014 A 
ATOM     56  C   UNL     1       9.178   2.787  13.100  1.00  0.00     0.009 A 
ATOM     57  C   UNL     1      11.188   2.175  11.895  1.00  0.00     0.009 A 
ATOM     58  C   UNL     1       9.950   3.096  14.220  1.00  0.00     0.001 A 
ATOM     59  C   UNL     1      11.952   2.449  13.026  1.00  0.00     0.001 A 
ATOM     60  C   UNL     1      11.334   2.919  14.184  1.00  0.00     0.000 A 
ENDBRANCH  42  55
ENDBRANCH  16  17
ENDBRANCH   9  11
ENDBRANCH   8   9
ENDBRANCH   7   8
ENDBRANCH   6   7
ENDBRANCH   5   6
ENDBRANCH   4   5
ENDBRANCH   3   4
ENDBRANCH   2   3
ENDBRANCH   1   2
BRANCH   1  61
ATOM     61  C   UNL     1       4.537   2.759  -0.556  1.00  0.00     0.188 C 
BRANCH  61  62
ATOM     62  O   UNL     1       3.373   3.126   0.150  1.00  0.00    -0.376 OA
BRANCH  62  63
ATOM     63  C   UNL     1       3.002   4.487   0.010  1.00  0.00     0.202 C 
BRANCH  63  64
ATOM     64  C   UNL     1       2.462   4.999  -1.337  1.00  0.00     0.261 C 
BRANCH  64  65
ATOM     65  O   UNL     1       3.195   5.003  -2.595  1.00  0.00    -0.461 OA
BRANCH  65  66
ATOM     66  C   UNL     1       4.530   5.138  -2.797  1.00  0.00     0.332 C 
ATOM     67  O   UNL     1       5.374   5.245  -1.912  1.00  0.00    -0.249 OA
BRANCH  66  68
ATOM     68  C   UNL     1       4.859   5.163  -4.318  1.00  0.00     0.148 C 
ATOM     69  C   UNL     1       4.099   4.068  -5.133  1.00  0.00     0.052 C 
ATOM     70  C   UNL     1       6.357   4.869  -4.567  1.00  0.00     0.110 C 
ATOM     71  C   UNL     1       4.876   2.752  -5.238  1.00  0.00     0.072 C 
ATOM     72  S   UNL     1       6.588   3.085  -4.787  1.00  0.00    -0.159 SA
BRANCH  68  73
ATOM     73  N   UNL     1       4.568   6.501  -4.929  1.00  0.00    -0.333 N 
ATOM     74  C   UNL     1       3.821   7.573  -4.500  1.00  0.00     0.289 C 
ATOM     75  H   UNL     1       4.995   6.639  -5.805  1.00  0.00     0.165 HD
ATOM     76  O   UNL     1       3.236   8.209  -5.381  1.00  0.00    -0.266 OA
BRANCH  74  77
ATOM     77  C   UNL     1       3.704   7.938  -3.108  1.00  0.00     0.214 A 
ATOM     78  N   UNL     1       4.587   7.821  -2.129  1.00  0.00    -0.207 NA
ATOM     79  N   UNL     1       2.568   8.489  -2.592  1.00  0.00    -0.255 N 
ATOM     80  C   UNL     1       3.860   8.126  -0.998  1.00  0.00     0.154 A 
ATOM     81  N   UNL     1       2.613   8.548  -1.252  1.00  0.00    -0.158 NA
ATOM     82  H   UNL     1       1.810   8.805  -3.135  1.00  0.00     0.192 HD
BRANCH  80  83
ATOM     83  C   UNL     1       4.274   7.804   0.443  1.00  0.00     0.060 C 
ATOM     84  C   UNL     1       5.451   6.875   0.701  1.00  0.00     0.012 C 
ATOM     85  C   UNL     1       5.555   8.310   1.058  1.00  0.00     0.012 C 
ENDBRANCH  80  83
ENDBRANCH  74  77
ENDBRANCH  68  73
ENDBRANCH  66  68
ENDBRANCH  65  66
ENDBRANCH  64  65
ENDBRANCH  63  64
ENDBRANCH  62  63
ENDBRANCH  61  62
ENDBRANCH   1  61
TORSDOF 23
