REMARK SMILES CC(C)=Cc1c(C(=O)OCCOCCOCCOCCOC(=O)c2ccc(-c3c4nc(c(-c5ccccc5)c5ccc([nH]5)c(-c5ccccc5)c5nc(c(-c6ccccc6)c6ccc3[nH]6)C=C5)C=C4)cc2)nnn1-c1ccc(C(C)C)cc1
REMARK SMILES IDX 15 1 14 2 13 3 12 4 11 5 10 6 9 7 7 8 8 9 6 10 5 11 74 12
REMARK SMILES IDX 72 13 73 14 4 15 1 16 2 17 3 18 75 19 76 20 83 21 77 22
REMARK SMILES IDX 82 23 78 24 79 25 80 26 81 27 16 28 17 29 18 30 19 31 20 32
REMARK SMILES IDX 21 33 22 34 23 35 24 36 25 37 71 38 26 39 70 40 27 41 28 42
REMARK SMILES IDX 29 43 64 44 30 45 69 46 63 47 65 48 31 49 68 50 62 51 61 52
REMARK SMILES IDX 32 54 54 55 39 56 53 57 40 58 43 59 52 60 66 61 41 62 42 63
REMARK SMILES IDX 51 65 67 66 44 67 33 68 34 69 38 70 35 71 37 72 36 73 55 74
REMARK SMILES IDX 56 75 60 76 57 77 59 78 58 79 45 80 46 81 50 82 47 83 49 84
REMARK SMILES IDX 48 85
REMARK H PARENT 65 53 43 64
REMARK Flexibility Score: inf
ROOT
ATOM      1  O   UNL     1      -1.999   0.722  -4.260  1.00  0.00    -0.377 OA
ENDROOT
BRANCH   1   2
ATOM      2  C   UNL     1      -0.796   1.233  -4.822  1.00  0.00     0.188 C 
BRANCH   2   3
ATOM      3  C   UNL     1      -0.337   0.821  -6.242  1.00  0.00     0.188 C 
BRANCH   3   4
ATOM      4  O   UNL     1      -1.314   0.127  -6.986  1.00  0.00    -0.376 OA
BRANCH   4   5
ATOM      5  C   UNL     1      -1.249  -1.262  -7.202  1.00  0.00     0.202 C 
BRANCH   5   6
ATOM      6  C   UNL     1      -0.878  -2.250  -6.085  1.00  0.00     0.261 C 
BRANCH   6   7
ATOM      7  O   UNL     1      -0.096  -1.747  -5.000  1.00  0.00    -0.458 OA
BRANCH   7   8
ATOM      8  C   UNL     1       1.250  -1.702  -5.192  1.00  0.00     0.361 C 
ATOM      9  O   UNL     1       1.816  -2.136  -6.195  1.00  0.00    -0.244 OA
BRANCH   8  10
ATOM     10  C   UNL     1       1.924  -0.947  -4.153  1.00  0.00     0.198 A 
ATOM     11  C   UNL     1       1.770  -1.014  -2.772  1.00  0.00     0.102 A 
ATOM     12  N   UNL     1       2.767  -0.149  -2.324  1.00  0.00    -0.213 N 
ATOM     13  N   UNL     1       2.756   0.103  -4.464  1.00  0.00    -0.122 NA
ATOM     14  N   UNL     1       3.145   0.671  -3.333  1.00  0.00    -0.061 NA
BRANCH  11  15
ATOM     15  C   UNL     1       0.933  -1.794  -1.923  1.00  0.00     0.030 C 
ATOM     16  C   UNL     1       0.459  -0.066  -0.077  1.00  0.00     0.039 C 
ATOM     17  C   UNL     1       0.372  -1.410  -0.755  1.00  0.00    -0.074 C 
ATOM     18  C   UNL     1      -0.473  -2.404   0.006  1.00  0.00     0.039 C 
ENDBRANCH  11  15
BRANCH  12  19
ATOM     19  C   UNL     1       3.474  -0.140  -1.103  1.00  0.00     0.067 A 
ATOM     20  C   UNL     1       3.881   1.074  -0.542  1.00  0.00     0.029 A 
ATOM     21  C   UNL     1       3.744  -1.350  -0.457  1.00  0.00     0.029 A 
ATOM     22  C   UNL     1       4.470   1.073   0.724  1.00  0.00     0.006 A 
ATOM     23  C   UNL     1       4.369  -1.343   0.785  1.00  0.00     0.006 A 
ATOM     24  C   UNL     1       4.709  -0.133   1.404  1.00  0.00    -0.045 A 
BRANCH  24  25
ATOM     25  C   UNL     1       5.283  -0.167   2.807  1.00  0.00     0.013 C 
ATOM     26  C   UNL     1       6.626   0.557   2.901  1.00  0.00     0.012 C 
ATOM     27  C   UNL     1       4.275   0.391   3.814  1.00  0.00     0.012 C 
ENDBRANCH  24  25
ENDBRANCH  12  19
ENDBRANCH   8  10
ENDBRANCH   7   8
ENDBRANCH   6   7
ENDBRANCH   5   6
ENDBRANCH   4   5
ENDBRANCH   3   4
ENDBRANCH   2   3
ENDBRANCH   1   2
BRANCH   1  28
ATOM     28  C   UNL     1      -3.163   0.574  -5.064  1.00  0.00     0.188 C 
BRANCH  28  29
ATOM     29  C   UNL     1      -3.516   1.560  -6.213  1.00  0.00     0.188 C 
BRANCH  29  30
ATOM     30  O   UNL     1      -2.486   2.434  -6.630  1.00  0.00    -0.376 OA
BRANCH  30  31
ATOM     31  C   UNL     1      -2.394   3.811  -6.323  1.00  0.00     0.202 C 
BRANCH  31  32
ATOM     32  C   UNL     1      -2.631   4.354  -4.917  1.00  0.00     0.261 C 
BRANCH  32  33
ATOM     33  O   UNL     1      -3.413   3.505  -4.113  1.00  0.00    -0.460 OA
BRANCH  33  34
ATOM     34  C   UNL     1      -4.723   3.530  -4.404  1.00  0.00     0.338 C 
ATOM     35  O   UNL     1      -5.274   4.198  -5.271  1.00  0.00    -0.246 OA
BRANCH  34  36
ATOM     36  C   UNL     1      -5.415   2.639  -3.459  1.00  0.00     0.060 A 
ATOM     37  C   UNL     1      -6.801   2.691  -3.572  1.00  0.00     0.016 A 
ATOM     38  C   UNL     1      -4.758   2.408  -2.241  1.00  0.00     0.016 A 
ATOM     39  C   UNL     1      -7.479   3.044  -2.440  1.00  0.00     0.010 A 
ATOM     40  C   UNL     1      -5.426   2.782  -1.115  1.00  0.00     0.010 A 
ATOM     41  C   UNL     1      -6.731   3.235  -1.274  1.00  0.00    -0.014 A 
BRANCH  41  42
ATOM     42  C   UNL     1      -7.353   3.936  -0.188  1.00  0.00     0.031 A 
ATOM     43  C   UNL     1      -8.194   3.037   0.611  1.00  0.00     0.074 A 
ATOM     44  C   UNL     1      -7.082   5.226   0.075  1.00  0.00     0.049 A 
ATOM     45  N   UNL     1      -9.480   2.951   0.595  1.00  0.00    -0.248 NA
ATOM     46  C   UNL     1      -7.509   1.936   1.309  1.00  0.00     0.031 C 
ATOM     47  C   UNL     1      -6.048   6.095  -0.495  1.00  0.00     0.029 A 
ATOM     48  N   UNL     1      -7.638   6.006   1.029  1.00  0.00    -0.354 N 
ATOM     49  C   UNL     1      -9.768   1.909   1.462  1.00  0.00     0.074 A 
ATOM     50  C   UNL     1      -8.546   1.169   1.635  1.00  0.00     0.031 C 
ATOM     51  C   UNL     1      -5.896   7.181   0.303  1.00  0.00     0.029 A 
ATOM     52  C   UNL     1      -6.907   7.138   1.349  1.00  0.00     0.049 A 
ATOM     53  H   UNL     1      -8.495   5.787   1.462  1.00  0.00     0.167 HD
ATOM     54  C   UNL     1     -10.873   1.941   2.251  1.00  0.00     0.031 A 
ATOM     55  C   UNL     1      -7.086   7.899   2.457  1.00  0.00     0.031 A 
ATOM     56  C   UNL     1     -11.832   2.913   1.792  1.00  0.00     0.049 A 
ATOM     57  C   UNL     1      -8.435   7.580   2.996  1.00  0.00     0.074 A 
ATOM     58  C   UNL     1     -12.558   3.092   0.631  1.00  0.00     0.029 A 
ATOM     59  N   UNL     1     -11.838   4.130   2.435  1.00  0.00    -0.354 N 
ATOM     60  N   UNL     1      -9.540   7.870   2.368  1.00  0.00    -0.248 NA
ATOM     61  C   UNL     1      -8.543   6.507   3.976  1.00  0.00     0.031 C 
ATOM     62  C   UNL     1     -12.572   4.502   0.415  1.00  0.00     0.029 A 
ATOM     63  C   UNL     1     -11.906   5.112   1.480  1.00  0.00     0.049 A 
ATOM     64  H   UNL     1     -11.801   4.271   3.409  1.00  0.00     0.167 HD
ATOM     65  C   UNL     1     -10.358   6.761   2.547  1.00  0.00     0.074 A 
ATOM     66  C   UNL     1      -9.727   5.995   3.622  1.00  0.00     0.031 C 
ATOM     67  C   UNL     1     -11.293   6.417   1.612  1.00  0.00     0.031 A 
BRANCH  54  68
ATOM     68  C   UNL     1     -10.845   1.441   3.671  1.00  0.00    -0.014 A 
ATOM     69  C   UNL     1     -12.044   1.415   4.395  1.00  0.00     0.009 A 
ATOM     70  C   UNL     1      -9.655   1.253   4.407  1.00  0.00     0.009 A 
ATOM     71  C   UNL     1     -12.043   1.270   5.787  1.00  0.00     0.001 A 
ATOM     72  C   UNL     1      -9.651   1.063   5.787  1.00  0.00     0.001 A 
ATOM     73  C   UNL     1     -10.848   1.100   6.482  1.00  0.00     0.000 A 
ENDBRANCH  54  68
BRANCH  55  74
ATOM     74  C   UNL     1      -6.046   8.566   3.273  1.00  0.00    -0.014 A 
ATOM     75  C   UNL     1      -6.383   9.560   4.206  1.00  0.00     0.009 A 
ATOM     76  C   UNL     1      -4.744   8.033   3.331  1.00  0.00     0.009 A 
ATOM     77  C   UNL     1      -5.461   9.980   5.176  1.00  0.00     0.001 A 
ATOM     78  C   UNL     1      -3.825   8.452   4.298  1.00  0.00     0.001 A 
ATOM     79  C   UNL     1      -4.188   9.417   5.230  1.00  0.00     0.000 A 
ENDBRANCH  55  74
BRANCH  67  80
ATOM     80  C   UNL     1     -11.521   7.382   0.471  1.00  0.00    -0.014 A 
ATOM     81  C   UNL     1     -10.544   7.657  -0.504  1.00  0.00     0.009 A 
ATOM     82  C   UNL     1     -12.808   7.903   0.285  1.00  0.00     0.009 A 
ATOM     83  C   UNL     1     -10.843   8.449  -1.619  1.00  0.00     0.001 A 
ATOM     84  C   UNL     1     -13.111   8.680  -0.836  1.00  0.00     0.001 A 
ATOM     85  C   UNL     1     -12.129   8.956  -1.786  1.00  0.00     0.000 A 
ENDBRANCH  67  80
ENDBRANCH  41  42
ENDBRANCH  34  36
ENDBRANCH  33  34
ENDBRANCH  32  33
ENDBRANCH  31  32
ENDBRANCH  30  31
ENDBRANCH  29  30
ENDBRANCH  28  29
ENDBRANCH   1  28
TORSDOF 23
