REMARK SMILES CC[C@@](C)([NH3+])C(=O)Nc1cc(C(=O)OCCOCCOCCOCCOC(=O)c2ccc(-c3c4nc(c(-c5ccccc5)c5ccc([nH]5)c(-c5ccccc5)c5nc(c(-c6ccccc6)c6ccc3[nH]6)C=C5)C=C4)cc2)cc(C(F)(F)F)c1
REMARK SMILES IDX 19 1 18 2 17 3 16 4 15 5 14 6 12 7 13 8 11 9 9 10 10 11
REMARK SMILES IDX 83 12 78 13 77 14 8 15 6 16 7 17 3 19 4 20 2 21 1 22 5 23
REMARK SMILES IDX 79 27 80 28 81 29 82 30 20 31 21 32 22 33 23 34 24 35 25 36
REMARK SMILES IDX 26 37 27 38 28 39 29 40 30 41 76 42 31 43 75 44 32 45 33 46
REMARK SMILES IDX 34 47 69 48 35 49 74 50 68 51 70 52 36 53 73 54 67 55 66 56
REMARK SMILES IDX 37 58 59 59 44 60 58 61 45 62 48 63 57 64 71 65 46 66 47 67
REMARK SMILES IDX 56 69 72 70 49 71 38 72 39 73 43 74 40 75 42 76 41 77 60 78
REMARK SMILES IDX 61 79 65 80 62 81 64 82 63 83 50 84 51 85 55 86 52 87 54 88
REMARK SMILES IDX 53 89
REMARK H PARENT 8 18 5 24 5 25 5 26 70 57 48 68
REMARK Flexibility Score: inf
ROOT
ATOM      1  C   UNL     1       4.321   0.736  -8.507  1.00  0.00     0.188 C 
ENDROOT
BRANCH   1   2
ATOM      2  C   UNL     1       4.909  -0.674  -8.306  1.00  0.00     0.188 C 
BRANCH   2   3
ATOM      3  O   UNL     1       5.090  -1.364  -9.531  1.00  0.00    -0.376 OA
BRANCH   3   4
ATOM      4  C   UNL     1       4.203  -2.409  -9.887  1.00  0.00     0.202 C 
BRANCH   4   5
ATOM      5  C   UNL     1       2.679  -2.198  -9.910  1.00  0.00     0.261 C 
BRANCH   5   6
ATOM      6  O   UNL     1       2.130  -1.344  -8.906  1.00  0.00    -0.460 OA
BRANCH   6   7
ATOM      7  C   UNL     1       1.944  -1.844  -7.667  1.00  0.00     0.338 C 
ATOM      8  O   UNL     1       2.160  -2.978  -7.285  1.00  0.00    -0.246 OA
BRANCH   7   9
ATOM      9  C   UNL     1       1.677  -0.677  -6.792  1.00  0.00     0.062 A 
ATOM     10  C   UNL     1       2.290   0.602  -4.847  1.00  0.00     0.042 A 
ATOM     11  C   UNL     1       2.416  -0.555  -5.609  1.00  0.00     0.041 A 
ATOM     12  C   UNL     1       1.518   1.666  -5.314  1.00  0.00     0.039 A 
ATOM     13  C   UNL     1       0.729   1.538  -6.464  1.00  0.00     0.058 A 
ATOM     14  C   UNL     1       0.818   0.353  -7.207  1.00  0.00     0.029 A 
BRANCH  10  15
ATOM     15  N   UNL     1       2.960   0.688  -3.627  1.00  0.00    -0.321 N 
ATOM     16  C   UNL     1       2.462   1.046  -2.395  1.00  0.00     0.285 C 
ATOM     17  O   UNL     1       3.296   1.306  -1.519  1.00  0.00    -0.267 OA
ATOM     18  H   UNL     1       3.918   0.462  -3.651  1.00  0.00     0.170 HD
BRANCH  16  19
ATOM     19  C   UNL     1       0.912   0.981  -2.081  1.00  0.00     0.171 C 
ATOM     20  C   UNL     1       0.293  -0.339  -2.576  1.00  0.00     0.090 C 
BRANCH  19  21
ATOM     21  C   UNL     1       0.675   1.126  -0.551  1.00  0.00     0.075 C 
ATOM     22  C   UNL     1       1.149  -0.045   0.304  1.00  0.00     0.011 C 
ENDBRANCH  19  21
BRANCH  19  23
ATOM     23  N   UNL     1       0.211   2.133  -2.703  1.00  0.00    -0.345 N 
ATOM     24  H   UNL     1      -0.786   2.078  -2.492  1.00  0.00     0.345 HD
ATOM     25  H   UNL     1       0.347   2.108  -3.713  1.00  0.00     0.345 HD
ATOM     26  H   UNL     1       0.590   3.003  -2.330  1.00  0.00     0.345 HD
ENDBRANCH  19  23
ENDBRANCH  16  19
ENDBRANCH  10  15
BRANCH  13  27
ATOM     27  C   UNL     1      -0.188   2.656  -6.893  1.00  0.00     0.416 C 
ATOM     28  F   UNL     1       0.322   3.405  -7.904  1.00  0.00    -0.166 F 
ATOM     29  F   UNL     1      -1.392   2.193  -7.330  1.00  0.00    -0.166 F 
ATOM     30  F   UNL     1      -0.478   3.523  -5.883  1.00  0.00    -0.166 F 
ENDBRANCH  13  27
ENDBRANCH   7   9
ENDBRANCH   6   7
ENDBRANCH   5   6
ENDBRANCH   4   5
ENDBRANCH   3   4
ENDBRANCH   2   3
ENDBRANCH   1   2
BRANCH   1  31
ATOM     31  O   UNL     1       3.709   0.954  -9.767  1.00  0.00    -0.377 OA
BRANCH  31  32
ATOM     32  C   UNL     1       4.540   1.028 -10.927  1.00  0.00     0.188 C 
BRANCH  32  33
ATOM     33  C   UNL     1       6.079   0.830 -10.884  1.00  0.00     0.188 C 
BRANCH  33  34
ATOM     34  O   UNL     1       6.697   1.147  -9.646  1.00  0.00    -0.376 OA
BRANCH  34  35
ATOM     35  C   UNL     1       7.477   2.328  -9.574  1.00  0.00     0.202 C 
BRANCH  35  36
ATOM     36  C   UNL     1       6.696   3.645  -9.657  1.00  0.00     0.261 C 
BRANCH  36  37
ATOM     37  O   UNL     1       5.897   3.815 -10.838  1.00  0.00    -0.460 OA
BRANCH  37  38
ATOM     38  C   UNL     1       6.549   3.872 -12.019  1.00  0.00     0.338 C 
ATOM     39  O   UNL     1       7.752   3.815 -12.206  1.00  0.00    -0.246 OA
BRANCH  38  40
ATOM     40  C   UNL     1       5.532   3.832 -13.087  1.00  0.00     0.060 A 
ATOM     41  C   UNL     1       5.548   2.776 -14.008  1.00  0.00     0.016 A 
ATOM     42  C   UNL     1       4.557   4.828 -13.164  1.00  0.00     0.016 A 
ATOM     43  C   UNL     1       4.598   2.729 -15.029  1.00  0.00     0.010 A 
ATOM     44  C   UNL     1       3.621   4.791 -14.199  1.00  0.00     0.010 A 
ATOM     45  C   UNL     1       3.657   3.758 -15.153  1.00  0.00    -0.014 A 
BRANCH  45  46
ATOM     46  C   UNL     1       2.831   3.866 -16.379  1.00  0.00     0.031 A 
ATOM     47  C   UNL     1       3.286   4.805 -17.462  1.00  0.00     0.074 A 
ATOM     48  C   UNL     1       1.701   3.154 -16.529  1.00  0.00     0.049 A 
ATOM     49  N   UNL     1       2.698   5.123 -18.586  1.00  0.00    -0.248 NA
ATOM     50  C   UNL     1       4.577   5.479 -17.244  1.00  0.00     0.031 C 
ATOM     51  C   UNL     1       1.176   2.181 -15.573  1.00  0.00     0.029 A 
ATOM     52  N   UNL     1       0.782   3.157 -17.549  1.00  0.00    -0.354 N 
ATOM     53  C   UNL     1       3.538   6.044 -19.200  1.00  0.00     0.074 A 
ATOM     54  C   UNL     1       4.663   6.252 -18.316  1.00  0.00     0.031 C 
ATOM     55  C   UNL     1       0.017   1.691 -16.046  1.00  0.00     0.029 A 
ATOM     56  C   UNL     1      -0.300   2.344 -17.316  1.00  0.00     0.049 A 
ATOM     57  H   UNL     1       0.888   3.691 -18.370  1.00  0.00     0.167 HD
ATOM     58  C   UNL     1       3.385   6.663 -20.394  1.00  0.00     0.031 A 
ATOM     59  C   UNL     1      -1.429   2.171 -18.031  1.00  0.00     0.031 A 
ATOM     60  C   UNL     1       2.259   6.468 -21.265  1.00  0.00     0.049 A 
ATOM     61  C   UNL     1      -1.613   2.933 -19.319  1.00  0.00     0.074 A 
ATOM     62  C   UNL     1       2.025   7.030 -22.508  1.00  0.00     0.029 A 
ATOM     63  N   UNL     1       1.171   5.658 -20.980  1.00  0.00    -0.354 N 
ATOM     64  N   UNL     1      -0.795   3.772 -19.910  1.00  0.00    -0.248 NA
ATOM     65  C   UNL     1      -2.875   2.719 -20.042  1.00  0.00     0.031 C 
ATOM     66  C   UNL     1       0.764   6.613 -22.944  1.00  0.00     0.029 A 
ATOM     67  C   UNL     1       0.246   5.734 -22.006  1.00  0.00     0.049 A 
ATOM     68  H   UNL     1       1.071   5.110 -20.168  1.00  0.00     0.167 HD
ATOM     69  C   UNL     1      -1.430   4.159 -21.084  1.00  0.00     0.074 A 
ATOM     70  C   UNL     1      -2.692   3.452 -21.131  1.00  0.00     0.031 C 
ATOM     71  C   UNL     1      -1.006   5.022 -22.040  1.00  0.00     0.031 A 
BRANCH  58  72
ATOM     72  C   UNL     1       4.443   7.647 -20.806  1.00  0.00    -0.014 A 
ATOM     73  C   UNL     1       5.729   7.229 -21.182  1.00  0.00     0.009 A 
ATOM     74  C   UNL     1       4.133   9.015 -20.856  1.00  0.00     0.009 A 
ATOM     75  C   UNL     1       6.691   8.164 -21.569  1.00  0.00     0.001 A 
ATOM     76  C   UNL     1       5.086   9.945 -21.272  1.00  0.00     0.001 A 
ATOM     77  C   UNL     1       6.367   9.520 -21.620  1.00  0.00     0.000 A 
ENDBRANCH  58  72
BRANCH  59  78
ATOM     78  C   UNL     1      -2.500   1.266 -17.533  1.00  0.00    -0.014 A 
ATOM     79  C   UNL     1      -2.819   0.083 -18.217  1.00  0.00     0.009 A 
ATOM     80  C   UNL     1      -3.237   1.603 -16.386  1.00  0.00     0.009 A 
ATOM     81  C   UNL     1      -3.872  -0.726 -17.780  1.00  0.00     0.001 A 
ATOM     82  C   UNL     1      -4.266   0.775 -15.933  1.00  0.00     0.001 A 
ATOM     83  C   UNL     1      -4.591  -0.382 -16.637  1.00  0.00     0.000 A 
ENDBRANCH  59  78
BRANCH  71  84
ATOM     84  C   UNL     1      -1.890   5.220 -23.242  1.00  0.00    -0.014 A 
ATOM     85  C   UNL     1      -3.101   5.922 -23.154  1.00  0.00     0.009 A 
ATOM     86  C   UNL     1      -1.472   4.742 -24.494  1.00  0.00     0.009 A 
ATOM     87  C   UNL     1      -3.891   6.112 -24.290  1.00  0.00     0.001 A 
ATOM     88  C   UNL     1      -2.247   4.962 -25.634  1.00  0.00     0.001 A 
ATOM     89  C   UNL     1      -3.460   5.638 -25.529  1.00  0.00     0.000 A 
ENDBRANCH  71  84
ENDBRANCH  45  46
ENDBRANCH  38  40
ENDBRANCH  37  38
ENDBRANCH  36  37
ENDBRANCH  35  36
ENDBRANCH  34  35
ENDBRANCH  33  34
ENDBRANCH  32  33
ENDBRANCH  31  32
ENDBRANCH   1  31
TORSDOF 25
