REMARK SMILES O=C(/C=C\C(F)(C(F)(F)F)C(F)(F)F)OCCOCCOCCOCCOC(=O)c1ccc(-c2c3nc(c(-c4ccccc4)c4ccc([nH]4)c(-c4ccccc4)c4nc(c(-c5ccccc5)c5ccc2[nH]5)C=C4)C=C3)cc1
REMARK SMILES IDX 21 1 20 2 19 3 18 4 17 5 16 6 15 7 2 8 1 9 3 10 4 11 5 12
REMARK SMILES IDX 6 13 7 14 8 15 9 16 10 17 11 18 12 19 13 20 14 21 22 22
REMARK SMILES IDX 23 23 24 24 25 25 26 26 27 27 28 28 29 29 30 30 31 31 77 32
REMARK SMILES IDX 32 33 76 34 33 35 34 36 35 37 70 38 36 39 75 40 69 41 71 42
REMARK SMILES IDX 37 43 74 44 68 45 67 46 38 48 60 49 45 50 59 51 46 52 49 53
REMARK SMILES IDX 58 54 72 55 47 56 48 57 57 59 73 60 50 61 39 62 40 63 44 64
REMARK SMILES IDX 41 65 43 66 42 67 61 68 62 69 66 70 63 71 65 72 64 73 51 74
REMARK SMILES IDX 52 75 56 76 53 77 55 78 54 79
REMARK H PARENT 71 47 49 58
REMARK Flexibility Score: inf
ROOT
ATOM      1  O   UNL     1       2.827   0.776   3.028  1.00  0.00    -0.377 OA
ENDROOT
BRANCH   1   2
ATOM      2  C   UNL     1       2.073  -0.249   2.402  1.00  0.00     0.188 C 
BRANCH   2   3
ATOM      3  C   UNL     1       2.920  -1.220   1.583  1.00  0.00     0.188 C 
BRANCH   3   4
ATOM      4  O   UNL     1       3.820  -0.685   0.625  1.00  0.00    -0.376 OA
BRANCH   4   5
ATOM      5  C   UNL     1       4.407   0.587   0.815  1.00  0.00     0.202 C 
BRANCH   5   6
ATOM      6  C   UNL     1       3.597   1.762   0.273  1.00  0.00     0.261 C 
BRANCH   6   7
ATOM      7  O   UNL     1       2.728   1.613  -0.879  1.00  0.00    -0.460 OA
BRANCH   7   8
ATOM      8  C   UNL     1       2.276   0.513  -1.490  1.00  0.00     0.330 C 
ATOM      9  O   UNL     1       1.083   0.377  -1.750  1.00  0.00    -0.247 OA
BRANCH   8  10
ATOM     10  C   UNL     1       3.202  -0.529  -1.969  1.00  0.00     0.093 C 
ATOM     11  C   UNL     1       4.476  -0.627  -2.384  1.00  0.00     0.040 C 
BRANCH  11  12
ATOM     12  C   UNL     1       5.635   0.343  -2.619  1.00  0.00     0.317 C 
ATOM     13  F   UNL     1       6.316   0.484  -1.435  1.00  0.00    -0.219 F 
BRANCH  12  14
ATOM     14  C   UNL     1       6.630  -0.248  -3.614  1.00  0.00     0.435 C 
ATOM     15  F   UNL     1       6.100  -0.403  -4.847  1.00  0.00    -0.167 F 
ATOM     16  F   UNL     1       7.751   0.494  -3.738  1.00  0.00    -0.167 F 
ATOM     17  F   UNL     1       7.035  -1.484  -3.213  1.00  0.00    -0.167 F 
ENDBRANCH  12  14
BRANCH  12  18
ATOM     18  C   UNL     1       5.324   1.721  -3.172  1.00  0.00     0.435 C 
ATOM     19  F   UNL     1       4.757   1.669  -4.396  1.00  0.00    -0.167 F 
ATOM     20  F   UNL     1       4.480   2.416  -2.383  1.00  0.00    -0.167 F 
ATOM     21  F   UNL     1       6.436   2.487  -3.273  1.00  0.00    -0.167 F 
ENDBRANCH  12  18
ENDBRANCH  11  12
ENDBRANCH   8  10
ENDBRANCH   7   8
ENDBRANCH   6   7
ENDBRANCH   5   6
ENDBRANCH   4   5
ENDBRANCH   3   4
ENDBRANCH   2   3
ENDBRANCH   1   2
BRANCH   1  22
ATOM     22  C   UNL     1       3.506   0.480   4.240  1.00  0.00     0.188 C 
BRANCH  22  23
ATOM     23  C   UNL     1       4.519  -0.683   4.245  1.00  0.00     0.188 C 
BRANCH  23  24
ATOM     24  O   UNL     1       4.023  -1.994   4.515  1.00  0.00    -0.376 OA
BRANCH  24  25
ATOM     25  C   UNL     1       2.969  -2.153   5.458  1.00  0.00     0.202 C 
BRANCH  25  26
ATOM     26  C   UNL     1       3.276  -1.801   6.919  1.00  0.00     0.261 C 
BRANCH  26  27
ATOM     27  O   UNL     1       3.571  -0.401   7.085  1.00  0.00    -0.460 OA
BRANCH  27  28
ATOM     28  C   UNL     1       4.859  -0.099   7.369  1.00  0.00     0.338 C 
ATOM     29  O   UNL     1       5.754  -0.892   7.634  1.00  0.00    -0.246 OA
BRANCH  28  30
ATOM     30  C   UNL     1       5.119   1.336   7.099  1.00  0.00     0.060 A 
ATOM     31  C   UNL     1       6.366   1.677   6.552  1.00  0.00     0.016 A 
ATOM     32  C   UNL     1       4.179   2.337   7.368  1.00  0.00     0.016 A 
ATOM     33  C   UNL     1       6.715   3.014   6.368  1.00  0.00     0.010 A 
ATOM     34  C   UNL     1       4.533   3.681   7.197  1.00  0.00     0.010 A 
ATOM     35  C   UNL     1       5.827   4.022   6.763  1.00  0.00    -0.014 A 
BRANCH  35  36
ATOM     36  C   UNL     1       6.377   5.369   7.060  1.00  0.00     0.031 A 
ATOM     37  C   UNL     1       6.876   5.610   8.463  1.00  0.00     0.074 A 
ATOM     38  C   UNL     1       6.491   6.334   6.132  1.00  0.00     0.049 A 
ATOM     39  N   UNL     1       7.432   6.675   8.980  1.00  0.00    -0.248 NA
ATOM     40  C   UNL     1       6.727   4.490   9.408  1.00  0.00     0.031 C 
ATOM     41  C   UNL     1       6.102   6.223   4.729  1.00  0.00     0.029 A 
ATOM     42  N   UNL     1       6.985   7.610   6.248  1.00  0.00    -0.354 N 
ATOM     43  C   UNL     1       7.696   6.351  10.306  1.00  0.00     0.074 A 
ATOM     44  C   UNL     1       7.210   5.008  10.524  1.00  0.00     0.031 C 
ATOM     45  C   UNL     1       6.375   7.388   4.111  1.00  0.00     0.029 A 
ATOM     46  C   UNL     1       6.937   8.329   5.080  1.00  0.00     0.049 A 
ATOM     47  H   UNL     1       7.341   7.976   7.090  1.00  0.00     0.167 HD
ATOM     48  C   UNL     1       8.295   7.094  11.264  1.00  0.00     0.031 A 
ATOM     49  C   UNL     1       7.302   9.602   4.827  1.00  0.00     0.031 A 
ATOM     50  C   UNL     1       8.758   8.438  11.071  1.00  0.00     0.049 A 
ATOM     51  C   UNL     1       7.886  10.446   5.932  1.00  0.00     0.074 A 
ATOM     52  C   UNL     1       9.375   9.277  11.981  1.00  0.00     0.029 A 
ATOM     53  N   UNL     1       8.639   9.145   9.886  1.00  0.00    -0.354 N 
ATOM     54  N   UNL     1       8.157  10.118   7.173  1.00  0.00    -0.248 NA
ATOM     55  C   UNL     1       8.225  11.837   5.593  1.00  0.00     0.031 C 
ATOM     56  C   UNL     1       9.586  10.512  11.358  1.00  0.00     0.029 A 
ATOM     57  C   UNL     1       9.149  10.420  10.046  1.00  0.00     0.049 A 
ATOM     58  H   UNL     1       8.249   8.792   9.053  1.00  0.00     0.167 HD
ATOM     59  C   UNL     1       8.730  11.247   7.749  1.00  0.00     0.074 A 
ATOM     60  C   UNL     1       8.771  12.267   6.722  1.00  0.00     0.031 C 
ATOM     61  C   UNL     1       9.189  11.422   9.013  1.00  0.00     0.031 A 
BRANCH  48  62
ATOM     62  C   UNL     1       8.430   6.465  12.620  1.00  0.00    -0.014 A 
ATOM     63  C   UNL     1       9.340   5.420  12.851  1.00  0.00     0.009 A 
ATOM     64  C   UNL     1       7.611   6.902  13.671  1.00  0.00     0.009 A 
ATOM     65  C   UNL     1       9.393   4.795  14.099  1.00  0.00     0.001 A 
ATOM     66  C   UNL     1       7.687   6.294  14.925  1.00  0.00     0.001 A 
ATOM     67  C   UNL     1       8.568   5.234  15.134  1.00  0.00     0.000 A 
ENDBRANCH  48  62
BRANCH  49  68
ATOM     68  C   UNL     1       7.133  10.172   3.465  1.00  0.00    -0.014 A 
ATOM     69  C   UNL     1       8.251  10.446   2.662  1.00  0.00     0.009 A 
ATOM     70  C   UNL     1       5.854  10.480   2.976  1.00  0.00     0.009 A 
ATOM     71  C   UNL     1       8.093  11.036   1.406  1.00  0.00     0.001 A 
ATOM     72  C   UNL     1       5.698  11.049   1.709  1.00  0.00     0.001 A 
ATOM     73  C   UNL     1       6.817  11.334   0.929  1.00  0.00     0.000 A 
ENDBRANCH  49  68
BRANCH  61  74
ATOM     74  C   UNL     1       9.822  12.743   9.348  1.00  0.00    -0.014 A 
ATOM     75  C   UNL     1       9.053  13.904   9.514  1.00  0.00     0.009 A 
ATOM     76  C   UNL     1      11.210  12.810   9.555  1.00  0.00     0.009 A 
ATOM     77  C   UNL     1       9.665  15.113   9.853  1.00  0.00     0.001 A 
ATOM     78  C   UNL     1      11.815  14.014   9.920  1.00  0.00     0.001 A 
ATOM     79  C   UNL     1      11.043  15.166  10.060  1.00  0.00     0.000 A 
ENDBRANCH  61  74
ENDBRANCH  35  36
ENDBRANCH  28  30
ENDBRANCH  27  28
ENDBRANCH  26  27
ENDBRANCH  25  26
ENDBRANCH  24  25
ENDBRANCH  23  24
ENDBRANCH  22  23
ENDBRANCH   1  22
TORSDOF 23
