REMARK SMILES O=C(OCCOCCOCCOCCOC(=O)c1ccc(-n2cc(CSc3nc4ccccc4c(=O)n3-c3ccc(Br)cc3)nn2)cc1)c1ccc(-c2c3nc(c(-c4ccccc4)c4ccc([nH]4)c(-c4ccccc4)c4nc(c(-c5ccccc5)c5ccc2[nH]5)C=C4)C=C3)cc1
REMARK SMILES IDX 10 1 9 2 8 3 7 4 6 5 5 6 4 7 3 8 2 9 1 10 49 11 50 12 96 13
REMARK SMILES IDX 51 14 95 15 52 16 53 17 54 18 89 19 55 20 94 21 88 22 90 23
REMARK SMILES IDX 56 24 93 25 87 26 86 27 57 29 79 30 64 31 78 32 65 33 68 34
REMARK SMILES IDX 77 35 91 36 66 37 67 38 76 40 92 41 69 42 58 43 59 44 63 45
REMARK SMILES IDX 60 46 62 47 61 48 80 49 81 50 85 51 82 52 84 53 83 54 70 55
REMARK SMILES IDX 71 56 75 57 72 58 74 59 73 60 11 61 12 62 13 63 14 64 15 65
REMARK SMILES IDX 16 66 17 67 18 68 19 69 48 70 20 71 47 72 21 73 22 74 23 75
REMARK SMILES IDX 46 76 24 77 45 78 25 79 26 80 27 81 28 82 37 83 29 84 35 85
REMARK SMILES IDX 30 86 34 87 36 88 31 89 33 90 32 91 38 92 39 93 44 94 40 95
REMARK SMILES IDX 43 96 41 97 42 98
REMARK H PARENT 90 28 68 39
REMARK Flexibility Score: inf
ROOT
ATOM      1  C   UNL     1       4.108  -3.030  -1.467  1.00  0.00     0.188 C 
ENDROOT
BRANCH   1   2
ATOM      2  O   UNL     1       2.775  -2.766  -1.836  1.00  0.00    -0.377 OA
BRANCH   2   3
ATOM      3  C   UNL     1       2.271  -1.553  -1.310  1.00  0.00     0.188 C 
BRANCH   3   4
ATOM      4  C   UNL     1       2.999  -0.240  -1.665  1.00  0.00     0.188 C 
BRANCH   4   5
ATOM      5  O   UNL     1       4.277   0.215  -1.233  1.00  0.00    -0.376 OA
BRANCH   5   6
ATOM      6  C   UNL     1       5.109  -0.217  -0.179  1.00  0.00     0.202 C 
BRANCH   6   7
ATOM      7  C   UNL     1       4.644  -0.293   1.274  1.00  0.00     0.261 C 
BRANCH   7   8
ATOM      8  O   UNL     1       3.286  -0.664   1.452  1.00  0.00    -0.460 OA
BRANCH   8   9
ATOM      9  C   UNL     1       2.200   0.131   1.415  1.00  0.00     0.338 C 
ATOM     10  O   UNL     1       1.108  -0.373   1.677  1.00  0.00    -0.246 OA
BRANCH   9  11
ATOM     11  C   UNL     1       2.213   1.565   1.014  1.00  0.00     0.060 A 
ATOM     12  C   UNL     1       3.327   2.404   0.928  1.00  0.00     0.016 A 
ATOM     13  C   UNL     1       0.937   2.105   0.760  1.00  0.00     0.016 A 
ATOM     14  C   UNL     1       3.159   3.770   0.843  1.00  0.00     0.010 A 
ATOM     15  C   UNL     1       0.761   3.466   0.640  1.00  0.00     0.010 A 
ATOM     16  C   UNL     1       1.870   4.282   0.799  1.00  0.00    -0.014 A 
BRANCH  16  17
ATOM     17  C   UNL     1       1.722   5.706   0.980  1.00  0.00     0.031 A 
ATOM     18  C   UNL     1       2.209   6.527  -0.148  1.00  0.00     0.074 A 
ATOM     19  C   UNL     1       1.151   6.185   2.100  1.00  0.00     0.049 A 
ATOM     20  N   UNL     1       3.193   7.362  -0.148  1.00  0.00    -0.248 NA
ATOM     21  C   UNL     1       1.615   6.286  -1.471  1.00  0.00     0.031 C 
ATOM     22  C   UNL     1       0.437   5.439   3.143  1.00  0.00     0.029 A 
ATOM     23  N   UNL     1       0.982   7.476   2.480  1.00  0.00    -0.354 N 
ATOM     24  C   UNL     1       3.228   7.900  -1.430  1.00  0.00     0.074 A 
ATOM     25  C   UNL     1       2.350   7.092  -2.238  1.00  0.00     0.031 C 
ATOM     26  C   UNL     1      -0.308   6.301   3.869  1.00  0.00     0.029 A 
ATOM     27  C   UNL     1      -0.008   7.655   3.435  1.00  0.00     0.049 A 
ATOM     28  H   UNL     1       1.513   8.218   2.111  1.00  0.00     0.167 HD
ATOM     29  C   UNL     1       3.773   9.123  -1.670  1.00  0.00     0.031 A 
ATOM     30  C   UNL     1      -0.596   8.830   3.766  1.00  0.00     0.031 A 
ATOM     31  C   UNL     1       4.626   9.552  -0.594  1.00  0.00     0.049 A 
ATOM     32  C   UNL     1       0.289   9.921   3.291  1.00  0.00     0.074 A 
ATOM     33  C   UNL     1       5.790   9.075  -0.026  1.00  0.00     0.029 A 
ATOM     34  N   UNL     1       4.092  10.435   0.314  1.00  0.00    -0.354 N 
ATOM     35  N   UNL     1       1.462  10.163   3.804  1.00  0.00    -0.248 NA
ATOM     36  C   UNL     1       0.083  10.434   1.944  1.00  0.00     0.031 C 
ATOM     37  C   UNL     1       5.647   9.327   1.369  1.00  0.00     0.029 A 
ATOM     38  C   UNL     1       4.441  10.001   1.566  1.00  0.00     0.049 A 
ATOM     39  H   UNL     1       3.557  11.234   0.103  1.00  0.00     0.167 HD
ATOM     40  C   UNL     1       2.273  10.448   2.715  1.00  0.00     0.074 A 
ATOM     41  C   UNL     1       1.349  10.702   1.610  1.00  0.00     0.031 C 
ATOM     42  C   UNL     1       3.609  10.165   2.738  1.00  0.00     0.031 A 
BRANCH  29  43
ATOM     43  C   UNL     1       3.187  10.097  -2.659  1.00  0.00    -0.014 A 
ATOM     44  C   UNL     1       3.841  11.322  -2.869  1.00  0.00     0.009 A 
ATOM     45  C   UNL     1       1.874   9.984  -3.156  1.00  0.00     0.009 A 
ATOM     46  C   UNL     1       3.185  12.401  -3.474  1.00  0.00     0.001 A 
ATOM     47  C   UNL     1       1.230  11.044  -3.797  1.00  0.00     0.001 A 
ATOM     48  C   UNL     1       1.877  12.264  -3.929  1.00  0.00     0.000 A 
ENDBRANCH  29  43
BRANCH  30  49
ATOM     49  C   UNL     1      -2.005   9.057   4.153  1.00  0.00    -0.014 A 
ATOM     50  C   UNL     1      -2.399  10.261   4.755  1.00  0.00     0.009 A 
ATOM     51  C   UNL     1      -3.017   8.194   3.692  1.00  0.00     0.009 A 
ATOM     52  C   UNL     1      -3.755  10.603   4.859  1.00  0.00     0.001 A 
ATOM     53  C   UNL     1      -4.370   8.533   3.799  1.00  0.00     0.001 A 
ATOM     54  C   UNL     1      -4.738   9.745   4.369  1.00  0.00     0.000 A 
ENDBRANCH  30  49
BRANCH  42  55
ATOM     55  C   UNL     1       4.217   9.739   4.053  1.00  0.00    -0.014 A 
ATOM     56  C   UNL     1       3.827   8.573   4.737  1.00  0.00     0.009 A 
ATOM     57  C   UNL     1       5.325  10.451   4.532  1.00  0.00     0.009 A 
ATOM     58  C   UNL     1       4.509   8.153   5.884  1.00  0.00     0.001 A 
ATOM     59  C   UNL     1       6.019  10.020   5.664  1.00  0.00     0.001 A 
ATOM     60  C   UNL     1       5.608   8.875   6.344  1.00  0.00     0.000 A 
ENDBRANCH  42  55
ENDBRANCH  16  17
ENDBRANCH   9  11
ENDBRANCH   8   9
ENDBRANCH   7   8
ENDBRANCH   6   7
ENDBRANCH   5   6
ENDBRANCH   4   5
ENDBRANCH   3   4
ENDBRANCH   2   3
ENDBRANCH   1   2
BRANCH   1  61
ATOM     61  C   UNL     1       5.104  -2.671  -2.585  1.00  0.00     0.188 C 
BRANCH  61  62
ATOM     62  O   UNL     1       4.638  -2.037  -3.761  1.00  0.00    -0.376 OA
BRANCH  62  63
ATOM     63  C   UNL     1       3.534  -2.578  -4.473  1.00  0.00     0.202 C 
BRANCH  63  64
ATOM     64  C   UNL     1       3.213  -4.089  -4.571  1.00  0.00     0.261 C 
BRANCH  64  65
ATOM     65  O   UNL     1       3.655  -4.950  -3.513  1.00  0.00    -0.460 OA
BRANCH  65  66
ATOM     66  C   UNL     1       4.781  -5.665  -3.740  1.00  0.00     0.338 C 
ATOM     67  O   UNL     1       5.448  -5.697  -4.762  1.00  0.00    -0.246 OA
BRANCH  66  68
ATOM     68  C   UNL     1       5.216  -6.255  -2.456  1.00  0.00     0.060 A 
ATOM     69  C   UNL     1       6.368  -5.741  -1.836  1.00  0.00     0.018 A 
ATOM     70  C   UNL     1       4.487  -7.281  -1.853  1.00  0.00     0.018 A 
ATOM     71  C   UNL     1       6.773  -6.204  -0.590  1.00  0.00     0.029 A 
ATOM     72  C   UNL     1       4.964  -7.839  -0.664  1.00  0.00     0.029 A 
ATOM     73  C   UNL     1       6.105  -7.296  -0.043  1.00  0.00     0.066 A 
BRANCH  73  74
ATOM     74  N   UNL     1       6.779  -8.016   0.958  1.00  0.00    -0.220 N 
ATOM     75  C   UNL     1       7.155  -9.323   0.814  1.00  0.00     0.141 A 
ATOM     76  N   UNL     1       7.440  -7.466   1.998  1.00  0.00    -0.062 NA
ATOM     77  C   UNL     1       8.099  -9.547   1.788  1.00  0.00     0.093 A 
ATOM     78  N   UNL     1       8.190  -8.415   2.557  1.00  0.00    -0.134 NA
BRANCH  77  79
ATOM     79  C   UNL     1       8.745 -10.825   2.156  1.00  0.00     0.138 C 
BRANCH  79  80
ATOM     80  S   UNL     1      10.370 -11.327   1.595  1.00  0.00    -0.081 SA
BRANCH  80  81
ATOM     81  C   UNL     1      10.927 -10.528   0.150  1.00  0.00     0.176 A 
ATOM     82  N   UNL     1      12.220 -10.362   0.149  1.00  0.00    -0.223 NA
ATOM     83  N   UNL     1      10.149 -10.098  -0.912  1.00  0.00    -0.255 N 
ATOM     84  C   UNL     1      12.799  -9.622  -0.890  1.00  0.00     0.079 A 
ATOM     85  C   UNL     1      10.570  -8.882  -1.466  1.00  0.00     0.266 A 
ATOM     86  C   UNL     1      14.168  -9.681  -1.150  1.00  0.00     0.029 A 
ATOM     87  C   UNL     1      12.024  -8.727  -1.612  1.00  0.00     0.066 A 
ATOM     88  O   UNL     1       9.840  -7.961  -1.828  1.00  0.00    -0.268 OA
ATOM     89  C   UNL     1      14.748  -8.803  -2.075  1.00  0.00     0.002 A 
ATOM     90  C   UNL     1      12.591  -7.805  -2.496  1.00  0.00     0.016 A 
ATOM     91  C   UNL     1      13.966  -7.840  -2.719  1.00  0.00     0.001 A 
BRANCH  83  92
ATOM     92  C   UNL     1       8.993 -10.752  -1.487  1.00  0.00     0.051 A 
ATOM     93  C   UNL     1       8.435 -10.260  -2.687  1.00  0.00     0.028 A 
ATOM     94  C   UNL     1       8.373 -11.886  -0.951  1.00  0.00     0.028 A 
ATOM     95  C   UNL     1       7.196 -10.693  -3.168  1.00  0.00     0.018 A 
ATOM     96  C   UNL     1       7.098 -12.288  -1.383  1.00  0.00     0.018 A 
ATOM     97  C   UNL     1       6.494 -11.652  -2.461  1.00  0.00     0.018 A 
ATOM     98  Br  UNL     1       4.713 -12.052  -2.932  1.00  0.00    -0.051 Br
ENDBRANCH  83  92
ENDBRANCH  80  81
ENDBRANCH  79  80
ENDBRANCH  77  79
ENDBRANCH  73  74
ENDBRANCH  66  68
ENDBRANCH  65  66
ENDBRANCH  64  65
ENDBRANCH  63  64
ENDBRANCH  62  63
ENDBRANCH  61  62
ENDBRANCH   1  61
TORSDOF 25
