REMARK SMILES COc1c(Cl)cc(C(=O)OCCOCCOCCOCCOC(=O)c2ccc(-c3c4nc(c(-c5ccccc5)c5ccc([nH]5)c(-c5ccccc5)c5nc(c(-c6ccccc6)c6ccc3[nH]6)C=C5)C=C4)cc2)cc1NC(=S)NC(=O)c1ccccc1F
REMARK SMILES IDX 15 1 14 2 13 3 12 4 11 5 10 6 8 7 9 8 7 9 3 10 4 11 74 12
REMARK SMILES IDX 5 13 6 14 73 15 2 16 1 17 75 18 76 20 77 21 78 22 79 23
REMARK SMILES IDX 80 25 81 26 82 27 86 28 83 29 85 30 87 31 84 32 16 33 17 34
REMARK SMILES IDX 18 35 19 36 20 37 21 38 22 39 23 40 24 41 25 42 26 43 72 44
REMARK SMILES IDX 27 45 71 46 28 47 29 48 30 49 65 50 31 51 70 52 64 53 66 54
REMARK SMILES IDX 32 55 69 56 63 57 62 58 33 60 55 61 40 62 54 63 41 64 44 65
REMARK SMILES IDX 53 66 67 67 42 68 43 69 52 71 68 72 45 73 34 74 35 75 39 76
REMARK SMILES IDX 36 77 38 78 37 79 56 80 57 81 61 82 58 83 60 84 59 85 46 86
REMARK SMILES IDX 47 87 51 88 48 89 50 90 49 91
REMARK H PARENT 75 19 78 24 66 59 44 70
REMARK Flexibility Score: inf
ROOT
ATOM      1  C   UNL     1       1.897   6.467   3.558  1.00  0.00     0.188 C 
ENDROOT
BRANCH   1   2
ATOM      2  C   UNL     1       3.142   7.142   2.974  1.00  0.00     0.188 C 
BRANCH   2   3
ATOM      3  O   UNL     1       3.150   8.551   2.847  1.00  0.00    -0.376 OA
BRANCH   3   4
ATOM      4  C   UNL     1       2.265   9.167   1.912  1.00  0.00     0.202 C 
BRANCH   4   5
ATOM      5  C   UNL     1       1.852   8.530   0.561  1.00  0.00     0.261 C 
BRANCH   5   6
ATOM      6  O   UNL     1       1.444   7.137   0.606  1.00  0.00    -0.460 OA
BRANCH   6   7
ATOM      7  C   UNL     1       1.779   6.142  -0.485  1.00  0.00     0.338 C 
ATOM      8  O   UNL     1       2.448   6.873  -1.262  1.00  0.00    -0.246 OA
BRANCH   7   9
ATOM      9  C   UNL     1       1.200   4.069  -0.562  1.00  0.00     0.063 A 
ATOM     10  C   UNL     1       0.059   1.171  -0.689  1.00  0.00     0.160 A 
ATOM     11  C   UNL     1       1.428   1.419  -0.588  1.00  0.00     0.086 A 
ATOM     12  C   UNL     1      -0.726   2.301  -0.667  1.00  0.00     0.085 A 
ATOM     13  Cl  UNL     1       2.647   0.222  -0.272  1.00  0.00    -0.080 Cl
ATOM     14  C   UNL     1       1.945   2.769  -0.646  1.00  0.00     0.040 A 
ATOM     15  C   UNL     1      -0.122   3.478  -0.321  1.00  0.00     0.045 A 
BRANCH  10  16
ATOM     16  O   UNL     1      -0.634   0.001  -0.735  1.00  0.00    -0.493 OA
ATOM     17  C   UNL     1       0.011  -1.200  -0.338  1.00  0.00     0.278 C 
ENDBRANCH  10  16
BRANCH  12  18
ATOM     18  N   UNL     1      -2.119   2.392  -0.815  1.00  0.00    -0.329 N 
ATOM     19  H   UNL     1      -2.570   1.522  -0.914  1.00  0.00     0.169 HD
BRANCH  18  20
ATOM     20  C   UNL     1      -2.966   3.464  -0.848  1.00  0.00     0.177 C 
ATOM     21  S   UNL     1      -4.595   3.126  -1.093  1.00  0.00    -0.040 S 
BRANCH  20  22
ATOM     22  N   UNL     1      -2.654   4.825  -0.660  1.00  0.00    -0.299 N 
ATOM     23  C   UNL     1      -1.718   5.896  -0.408  1.00  0.00     0.260 C 
ATOM     24  H   UNL     1      -3.522   5.282  -0.744  1.00  0.00     0.172 HD
ATOM     25  O   UNL     1      -2.146   6.988  -0.037  1.00  0.00    -0.269 OA
BRANCH  23  26
ATOM     26  C   UNL     1      -0.252   5.730  -0.473  1.00  0.00     0.075 A 
ATOM     27  C   UNL     1       0.678   5.279   1.056  1.00  0.00     0.017 A 
ATOM     28  C   UNL     1       0.541   5.507  -2.068  1.00  0.00     0.135 A 
ATOM     29  C   UNL     1       2.460   4.832   0.933  1.00  0.00     0.001 A 
ATOM     30  C   UNL     1       2.264   4.979  -2.202  1.00  0.00     0.040 A 
ATOM     31  F   UNL     1      -0.165   5.714  -3.187  1.00  0.00    -0.206 F 
ATOM     32  C   UNL     1       3.272   4.766  -0.697  1.00  0.00     0.003 A 
ENDBRANCH  23  26
ENDBRANCH  20  22
ENDBRANCH  18  20
ENDBRANCH  12  18
ENDBRANCH   7   9
ENDBRANCH   6   7
ENDBRANCH   5   6
ENDBRANCH   4   5
ENDBRANCH   3   4
ENDBRANCH   2   3
ENDBRANCH   1   2
BRANCH   1  33
ATOM     33  O   UNL     1       0.704   7.201   3.433  1.00  0.00    -0.377 OA
BRANCH  33  34
ATOM     34  C   UNL     1       0.375   8.051   4.522  1.00  0.00     0.188 C 
BRANCH  34  35
ATOM     35  C   UNL     1       1.444   8.423   5.581  1.00  0.00     0.188 C 
BRANCH  35  36
ATOM     36  O   UNL     1       2.418   7.448   5.919  1.00  0.00    -0.376 OA
BRANCH  36  37
ATOM     37  C   UNL     1       2.195   6.453   6.911  1.00  0.00     0.202 C 
BRANCH  37  38
ATOM     38  C   UNL     1       0.912   5.596   6.944  1.00  0.00     0.261 C 
BRANCH  38  39
ATOM     39  O   UNL     1      -0.332   6.282   6.795  1.00  0.00    -0.460 OA
BRANCH  39  40
ATOM     40  C   UNL     1      -0.649   7.176   7.754  1.00  0.00     0.338 C 
ATOM     41  O   UNL     1      -0.008   7.445   8.752  1.00  0.00    -0.246 OA
BRANCH  40  42
ATOM     42  C   UNL     1      -1.834   7.924   7.290  1.00  0.00     0.060 A 
ATOM     43  C   UNL     1      -1.705   9.293   7.025  1.00  0.00     0.016 A 
ATOM     44  C   UNL     1      -3.059   7.277   7.112  1.00  0.00     0.016 A 
ATOM     45  C   UNL     1      -2.808  10.032   6.612  1.00  0.00     0.010 A 
ATOM     46  C   UNL     1      -4.176   8.028   6.738  1.00  0.00     0.010 A 
ATOM     47  C   UNL     1      -4.059   9.413   6.525  1.00  0.00    -0.014 A 
BRANCH  47  48
ATOM     48  C   UNL     1      -5.268  10.260   6.443  1.00  0.00     0.031 A 
ATOM     49  C   UNL     1      -6.000  10.572   7.718  1.00  0.00     0.074 A 
ATOM     50  C   UNL     1      -5.679  10.781   5.276  1.00  0.00     0.049 A 
ATOM     51  N   UNL     1      -7.099  11.255   7.900  1.00  0.00    -0.248 NA
ATOM     52  C   UNL     1      -5.408  10.039   8.957  1.00  0.00     0.031 C 
ATOM     53  C   UNL     1      -5.011  10.609   3.988  1.00  0.00     0.029 A 
ATOM     54  N   UNL     1      -6.769  11.563   4.993  1.00  0.00    -0.354 N 
ATOM     55  C   UNL     1      -7.339  11.220   9.268  1.00  0.00     0.074 A 
ATOM     56  C   UNL     1      -6.290  10.425   9.865  1.00  0.00     0.031 C 
ATOM     57  C   UNL     1      -5.716  11.259   3.045  1.00  0.00     0.029 A 
ATOM     58  C   UNL     1      -6.902  11.855   3.659  1.00  0.00     0.049 A 
ATOM     59  H   UNL     1      -7.396  11.884   5.681  1.00  0.00     0.167 HD
ATOM     60  C   UNL     1      -8.344  11.800   9.964  1.00  0.00     0.031 A 
ATOM     61  C   UNL     1      -7.885  12.505   3.008  1.00  0.00     0.031 A 
ATOM     62  C   UNL     1      -9.398  12.571   9.361  1.00  0.00     0.049 A 
ATOM     63  C   UNL     1      -9.049  13.055   3.792  1.00  0.00     0.074 A 
ATOM     64  C   UNL     1     -10.461  13.207   9.977  1.00  0.00     0.029 A 
ATOM     65  N   UNL     1      -9.527  12.799   7.999  1.00  0.00    -0.354 N 
ATOM     66  N   UNL     1      -9.263  13.031   5.086  1.00  0.00    -0.248 NA
ATOM     67  C   UNL     1     -10.104  13.729   3.022  1.00  0.00     0.031 C 
ATOM     68  C   UNL     1     -11.275  13.756   8.981  1.00  0.00     0.029 A 
ATOM     69  C   UNL     1     -10.673  13.536   7.752  1.00  0.00     0.049 A 
ATOM     70  H   UNL     1      -8.898  12.485   7.311  1.00  0.00     0.167 HD
ATOM     71  C   UNL     1     -10.456  13.715   5.288  1.00  0.00     0.074 A 
ATOM     72  C   UNL     1     -10.911  14.154   3.984  1.00  0.00     0.031 C 
ATOM     73  C   UNL     1     -11.114  13.963   6.448  1.00  0.00     0.031 A 
BRANCH  60  74
ATOM     74  C   UNL     1      -8.377  11.570  11.450  1.00  0.00    -0.014 A 
ATOM     75  C   UNL     1      -7.405  12.119  12.303  1.00  0.00     0.009 A 
ATOM     76  C   UNL     1      -9.409  10.799  12.008  1.00  0.00     0.009 A 
ATOM     77  C   UNL     1      -7.444  11.865  13.677  1.00  0.00     0.001 A 
ATOM     78  C   UNL     1      -9.466  10.577  13.384  1.00  0.00     0.001 A 
ATOM     79  C   UNL     1      -8.478  11.100  14.216  1.00  0.00     0.000 A 
ENDBRANCH  60  74
BRANCH  61  80
ATOM     80  C   UNL     1      -7.830  12.648   1.529  1.00  0.00    -0.014 A 
ATOM     81  C   UNL     1      -7.669  13.909   0.934  1.00  0.00     0.009 A 
ATOM     82  C   UNL     1      -7.955  11.521   0.701  1.00  0.00     0.009 A 
ATOM     83  C   UNL     1      -7.661  14.040  -0.457  1.00  0.00     0.001 A 
ATOM     84  C   UNL     1      -7.912  11.650  -0.689  1.00  0.00     0.001 A 
ATOM     85  C   UNL     1      -7.776  12.911  -1.266  1.00  0.00     0.000 A 
ENDBRANCH  61  80
BRANCH  73  86
ATOM     86  C   UNL     1     -12.373  14.786   6.370  1.00  0.00    -0.014 A 
ATOM     87  C   UNL     1     -13.547  14.285   5.786  1.00  0.00     0.009 A 
ATOM     88  C   UNL     1     -12.393  16.071   6.937  1.00  0.00     0.009 A 
ATOM     89  C   UNL     1     -14.702  15.070   5.737  1.00  0.00     0.001 A 
ATOM     90  C   UNL     1     -13.559  16.838   6.920  1.00  0.00     0.001 A 
ATOM     91  C   UNL     1     -14.709  16.342   6.310  1.00  0.00     0.000 A 
ENDBRANCH  73  86
ENDBRANCH  47  48
ENDBRANCH  40  42
ENDBRANCH  39  40
ENDBRANCH  38  39
ENDBRANCH  37  38
ENDBRANCH  36  37
ENDBRANCH  35  36
ENDBRANCH  34  35
ENDBRANCH  33  34
ENDBRANCH   1  33
TORSDOF 25
