REMARK SMILES O=C(OCCOCCOCCOCCOC(=O)[C@H]1C[C@@H](O)CN1C(=O)c1cc(F)c(F)cc1Cl)c1ccc(-c2c3nc(c(-c4ccccc4)c4ccc([nH]4)c(-c4ccccc4)c4nc(c(-c5ccccc5)c5ccc2[nH]5)C=C4)C=C3)cc1
REMARK SMILES IDX 9 1 8 2 7 3 6 4 5 5 4 6 3 7 2 8 1 9 35 10 36 11 82 12 37 13
REMARK SMILES IDX 81 14 38 15 39 16 40 17 75 18 41 19 80 20 74 21 76 22 42 23
REMARK SMILES IDX 79 24 73 25 72 26 43 28 65 29 50 30 64 31 51 32 54 33 63 34
REMARK SMILES IDX 77 35 52 36 53 37 62 39 78 40 55 41 44 42 45 43 49 44 46 45
REMARK SMILES IDX 48 46 47 47 66 48 67 49 71 50 68 51 70 52 69 53 56 54 57 55
REMARK SMILES IDX 61 56 58 57 60 58 59 59 10 60 11 61 12 62 13 63 14 64 15 65
REMARK SMILES IDX 16 66 17 67 18 68 19 69 23 70 20 71 22 72 24 73 25 74 26 75
REMARK SMILES IDX 27 76 33 77 28 78 32 79 34 80 29 81 30 82 31 83 21 84
REMARK H PARENT 76 27 54 38 21 85
REMARK Flexibility Score: inf
ROOT
ATOM      1  O   UNL     1       2.220   0.174  -3.104  1.00  0.00    -0.377 OA
ENDROOT
BRANCH   1   2
ATOM      2  C   UNL     1       1.605   0.675  -1.928  1.00  0.00     0.188 C 
BRANCH   2   3
ATOM      3  C   UNL     1       2.032  -0.059  -0.663  1.00  0.00     0.188 C 
BRANCH   3   4
ATOM      4  O   UNL     1       3.390   0.257  -0.329  1.00  0.00    -0.376 OA
BRANCH   4   5
ATOM      5  C   UNL     1       4.225  -0.879  -0.139  1.00  0.00     0.202 C 
BRANCH   5   6
ATOM      6  C   UNL     1       4.229  -1.467   1.265  1.00  0.00     0.261 C 
BRANCH   6   7
ATOM      7  O   UNL     1       2.997  -1.317   1.978  1.00  0.00    -0.460 OA
BRANCH   7   8
ATOM      8  C   UNL     1       2.461  -0.207   2.538  1.00  0.00     0.338 C 
ATOM      9  O   UNL     1       1.390  -0.330   3.133  1.00  0.00    -0.246 OA
BRANCH   8  10
ATOM     10  C   UNL     1       3.027   1.180   2.412  1.00  0.00     0.060 A 
ATOM     11  C   UNL     1       2.132   2.239   2.664  1.00  0.00     0.016 A 
ATOM     12  C   UNL     1       4.347   1.509   2.084  1.00  0.00     0.016 A 
ATOM     13  C   UNL     1       2.549   3.572   2.618  1.00  0.00     0.010 A 
ATOM     14  C   UNL     1       4.759   2.837   1.980  1.00  0.00     0.010 A 
ATOM     15  C   UNL     1       3.875   3.870   2.294  1.00  0.00    -0.014 A 
BRANCH  15  16
ATOM     16  C   UNL     1       4.434   5.203   2.579  1.00  0.00     0.031 A 
ATOM     17  C   UNL     1       4.549   6.257   1.531  1.00  0.00     0.074 A 
ATOM     18  C   UNL     1       4.906   5.385   3.828  1.00  0.00     0.049 A 
ATOM     19  N   UNL     1       4.931   7.499   1.673  1.00  0.00    -0.248 NA
ATOM     20  C   UNL     1       4.208   5.880   0.151  1.00  0.00     0.031 C 
ATOM     21  C   UNL     1       4.884   4.364   4.883  1.00  0.00     0.029 A 
ATOM     22  N   UNL     1       5.498   6.464   4.424  1.00  0.00    -0.354 N 
ATOM     23  C   UNL     1       4.848   8.067   0.410  1.00  0.00     0.074 A 
ATOM     24  C   UNL     1       4.427   7.020  -0.498  1.00  0.00     0.031 C 
ATOM     25  C   UNL     1       5.430   4.868   5.996  1.00  0.00     0.029 A 
ATOM     26  C   UNL     1       5.831   6.244   5.738  1.00  0.00     0.049 A 
ATOM     27  H   UNL     1       5.668   7.314   3.957  1.00  0.00     0.167 HD
ATOM     28  C   UNL     1       5.092   9.354   0.067  1.00  0.00     0.031 A 
ATOM     29  C   UNL     1       6.368   7.074   6.649  1.00  0.00     0.031 A 
ATOM     30  C   UNL     1       5.547  10.351   1.006  1.00  0.00     0.049 A 
ATOM     31  C   UNL     1       6.599   8.498   6.247  1.00  0.00     0.074 A 
ATOM     32  C   UNL     1       5.779  11.697   0.787  1.00  0.00     0.029 A 
ATOM     33  N   UNL     1       5.848  10.103   2.339  1.00  0.00    -0.354 N 
ATOM     34  N   UNL     1       6.404   9.059   5.077  1.00  0.00    -0.248 NA
ATOM     35  C   UNL     1       7.076   9.415   7.287  1.00  0.00     0.031 C 
ATOM     36  C   UNL     1       6.277  12.249   1.969  1.00  0.00     0.029 A 
ATOM     37  C   UNL     1       6.285  11.267   2.947  1.00  0.00     0.049 A 
ATOM     38  H   UNL     1       5.764   9.229   2.784  1.00  0.00     0.167 HD
ATOM     39  C   UNL     1       6.700  10.401   5.245  1.00  0.00     0.074 A 
ATOM     40  C   UNL     1       7.078  10.571   6.636  1.00  0.00     0.031 C 
ATOM     41  C   UNL     1       6.658  11.402   4.334  1.00  0.00     0.031 A 
BRANCH  28  42
ATOM     42  C   UNL     1       4.857   9.783  -1.357  1.00  0.00    -0.014 A 
ATOM     43  C   UNL     1       5.928  10.235  -2.145  1.00  0.00     0.009 A 
ATOM     44  C   UNL     1       3.554   9.882  -1.871  1.00  0.00     0.009 A 
ATOM     45  C   UNL     1       5.698  10.799  -3.403  1.00  0.00     0.001 A 
ATOM     46  C   UNL     1       3.329  10.422  -3.140  1.00  0.00     0.001 A 
ATOM     47  C   UNL     1       4.399  10.892  -3.900  1.00  0.00     0.000 A 
ENDBRANCH  28  42
BRANCH  29  48
ATOM     48  C   UNL     1       6.587   6.581   8.034  1.00  0.00    -0.014 A 
ATOM     49  C   UNL     1       7.566   5.610   8.303  1.00  0.00     0.009 A 
ATOM     50  C   UNL     1       5.737   6.990   9.072  1.00  0.00     0.009 A 
ATOM     51  C   UNL     1       7.674   5.044   9.576  1.00  0.00     0.001 A 
ATOM     52  C   UNL     1       5.867   6.444  10.351  1.00  0.00     0.001 A 
ATOM     53  C   UNL     1       6.827   5.464  10.599  1.00  0.00     0.000 A 
ENDBRANCH  29  48
BRANCH  41  54
ATOM     54  C   UNL     1       7.018  12.780   4.809  1.00  0.00    -0.014 A 
ATOM     55  C   UNL     1       6.026  13.772   4.872  1.00  0.00     0.009 A 
ATOM     56  C   UNL     1       8.348  13.122   5.093  1.00  0.00     0.009 A 
ATOM     57  C   UNL     1       6.362  15.086   5.196  1.00  0.00     0.001 A 
ATOM     58  C   UNL     1       8.676  14.431   5.447  1.00  0.00     0.001 A 
ATOM     59  C   UNL     1       7.686  15.413   5.487  1.00  0.00     0.000 A 
ENDBRANCH  41  54
ENDBRANCH  15  16
ENDBRANCH   8  10
ENDBRANCH   7   8
ENDBRANCH   6   7
ENDBRANCH   5   6
ENDBRANCH   4   5
ENDBRANCH   3   4
ENDBRANCH   2   3
ENDBRANCH   1   2
BRANCH   1  60
ATOM     60  C   UNL     1       3.631   0.287  -3.184  1.00  0.00     0.188 C 
BRANCH  60  61
ATOM     61  C   UNL     1       4.276   1.659  -2.979  1.00  0.00     0.188 C 
BRANCH  61  62
ATOM     62  O   UNL     1       3.407   2.739  -3.291  1.00  0.00    -0.376 OA
BRANCH  62  63
ATOM     63  C   UNL     1       3.477   3.213  -4.630  1.00  0.00     0.202 C 
BRANCH  63  64
ATOM     64  C   UNL     1       2.852   2.295  -5.698  1.00  0.00     0.261 C 
BRANCH  64  65
ATOM     65  O   UNL     1       3.507   1.036  -5.996  1.00  0.00    -0.462 OA
BRANCH  65  66
ATOM     66  C   UNL     1       4.841   1.013  -6.247  1.00  0.00     0.329 C 
ATOM     67  O   UNL     1       5.534   2.015  -6.299  1.00  0.00    -0.250 OA
BRANCH  66  68
ATOM     68  C   UNL     1       5.395  -0.440  -6.459  1.00  0.00     0.198 C 
ATOM     69  C   UNL     1       6.778  -0.288  -7.123  1.00  0.00     0.071 C 
ATOM     70  N   UNL     1       5.716  -1.326  -5.295  1.00  0.00    -0.322 N 
ATOM     71  C   UNL     1       7.731  -0.236  -5.930  1.00  0.00     0.136 C 
ATOM     72  C   UNL     1       7.150  -1.293  -4.997  1.00  0.00     0.152 C 
BRANCH  70  73
ATOM     73  C   UNL     1       4.813  -2.309  -4.876  1.00  0.00     0.256 C 
ATOM     74  O   UNL     1       3.695  -2.378  -5.380  1.00  0.00    -0.269 OA
BRANCH  73  75
ATOM     75  C   UNL     1       5.154  -3.282  -3.774  1.00  0.00     0.061 A 
ATOM     76  C   UNL     1       5.844  -2.847  -2.631  1.00  0.00     0.057 A 
ATOM     77  C   UNL     1       4.677  -4.613  -3.782  1.00  0.00     0.056 A 
ATOM     78  C   UNL     1       6.078  -3.711  -1.560  1.00  0.00     0.159 A 
ATOM     79  C   UNL     1       4.897  -5.467  -2.685  1.00  0.00     0.063 A 
ATOM     80  Cl  UNL     1       3.835  -5.317  -5.118  1.00  0.00    -0.083 Cl
ATOM     81  F   UNL     1       6.726  -3.249  -0.481  1.00  0.00    -0.204 F 
ATOM     82  C   UNL     1       5.602  -5.011  -1.583  1.00  0.00     0.160 A 
ATOM     83  F   UNL     1       5.802  -5.823  -0.536  1.00  0.00    -0.204 F 
ENDBRANCH  73  75
ENDBRANCH  70  73
BRANCH  71  84
ATOM     84  O   UNL     1       7.733   1.018  -5.248  1.00  0.00    -0.391 OA
ATOM     85  H   UNL     1       6.836   1.217  -4.936  1.00  0.00     0.211 HD
ENDBRANCH  71  84
ENDBRANCH  66  68
ENDBRANCH  65  66
ENDBRANCH  64  65
ENDBRANCH  63  64
ENDBRANCH  62  63
ENDBRANCH  61  62
ENDBRANCH  60  61
ENDBRANCH   1  60
TORSDOF 23
