REMARK SMILES CCC[NH2+][C@]1(C(=O)OCCOCCOCCOCCOC(=O)c2ccc(-c3c4nc(c(-c5ccccc5)c5ccc([nH]5)c(-c5ccccc5)c5nc(c(-c6ccccc6)c6ccc3[nH]6)C=C5)C=C4)cc2)CC[C@H]([N@@H+]2CCC[C@H]3CCC[C@@H]32)C1
REMARK SMILES IDX 13 1 12 2 11 3 10 4 9 5 8 6 6 7 7 8 5 9 71 10 83 11 72 12
REMARK SMILES IDX 73 13 4 14 3 17 2 18 1 19 74 20 75 21 82 22 76 24 78 25
REMARK SMILES IDX 81 26 77 27 79 28 80 29 14 30 15 31 16 32 17 33 18 34 19 35
REMARK SMILES IDX 20 36 21 37 22 38 23 39 24 40 70 41 25 42 69 43 26 44 27 45
REMARK SMILES IDX 28 46 63 47 29 48 68 49 62 50 64 51 30 52 67 53 61 54 60 55
REMARK SMILES IDX 31 57 53 58 38 59 52 60 39 61 42 62 51 63 65 64 40 65 41 66
REMARK SMILES IDX 50 68 66 69 43 70 32 71 33 72 37 73 34 74 36 75 35 76 54 77
REMARK SMILES IDX 55 78 59 79 56 80 58 81 57 82 44 83 45 84 49 85 46 86 48 87
REMARK SMILES IDX 47 88
REMARK H PARENT 4 15 4 16 74 23 64 56 42 67
REMARK Flexibility Score: inf
ROOT
ATOM      1  C   UNL     1       1.837   2.779   0.523  1.00  0.00     0.188 C 
ENDROOT
BRANCH   1   2
ATOM      2  C   UNL     1       1.737   1.232   0.672  1.00  0.00     0.188 C 
BRANCH   2   3
ATOM      3  O   UNL     1       0.757   0.613  -0.146  1.00  0.00    -0.376 OA
BRANCH   3   4
ATOM      4  C   UNL     1      -0.517   0.361   0.428  1.00  0.00     0.202 C 
BRANCH   4   5
ATOM      5  C   UNL     1      -1.269   1.579   0.996  1.00  0.00     0.261 C 
BRANCH   5   6
ATOM      6  O   UNL     1      -0.594   2.249   2.092  1.00  0.00    -0.459 OA
BRANCH   6   7
ATOM      7  C   UNL     1      -0.531   1.560   3.260  1.00  0.00     0.368 C 
ATOM      8  O   UNL     1      -1.107   0.485   3.392  1.00  0.00    -0.245 OA
BRANCH   7   9
ATOM      9  C   UNL     1       0.408   2.227   4.349  1.00  0.00     0.200 C 
ATOM     10  C   UNL     1       1.882   2.253   3.940  1.00  0.00     0.087 C 
ATOM     11  C   UNL     1       0.133   3.719   4.620  1.00  0.00     0.146 C 
ATOM     12  C   UNL     1       2.566   3.384   4.690  1.00  0.00     0.072 C 
ATOM     13  C   UNL     1       1.453   4.310   5.214  1.00  0.00     0.191 C 
BRANCH   9  14
ATOM     14  N   UNL     1       0.197   1.589   5.665  1.00  0.00    -0.332 N 
ATOM     15  H   UNL     1       0.781   2.079   6.343  1.00  0.00     0.347 HD
ATOM     16  H   UNL     1      -0.806   1.656   5.838  1.00  0.00     0.347 HD
BRANCH  14  17
ATOM     17  C   UNL     1       0.508   0.167   5.760  1.00  0.00     0.261 C 
BRANCH  17  18
ATOM     18  C   UNL     1      -0.320  -0.469   6.883  1.00  0.00     0.058 C 
ATOM     19  C   UNL     1      -1.829  -0.270   6.743  1.00  0.00     0.010 C 
ENDBRANCH  17  18
ENDBRANCH  14  17
ENDBRANCH   9  14
BRANCH  13  20
ATOM     20  N   UNL     1       1.425   5.008   6.552  1.00  0.00    -0.330 N 
ATOM     21  C   UNL     1       2.175   6.287   6.406  1.00  0.00     0.262 C 
ATOM     22  C   UNL     1       1.997   4.473   7.818  1.00  0.00     0.187 C 
ATOM     23  H   UNL     1       0.416   4.968   6.701  1.00  0.00     0.348 HD
ATOM     24  C   UNL     1       3.709   6.098   6.375  1.00  0.00     0.062 C 
ATOM     25  C   UNL     1       3.358   3.834   7.670  1.00  0.00     0.048 C 
ATOM     26  C   UNL     1       1.300   3.631   8.884  1.00  0.00     0.065 C 
ATOM     27  C   UNL     1       4.334   4.830   7.036  1.00  0.00     0.015 C 
ATOM     28  C   UNL     1       3.727   3.238   9.030  1.00  0.00     0.010 C 
ATOM     29  C   UNL     1       2.462   3.372   9.878  1.00  0.00     0.007 C 
ENDBRANCH  13  20
ENDBRANCH   7   9
ENDBRANCH   6   7
ENDBRANCH   5   6
ENDBRANCH   4   5
ENDBRANCH   3   4
ENDBRANCH   2   3
ENDBRANCH   1   2
BRANCH   1  30
ATOM     30  O   UNL     1       1.728   3.435  -0.732  1.00  0.00    -0.377 OA
BRANCH  30  31
ATOM     31  C   UNL     1       1.107   2.726  -1.786  1.00  0.00     0.188 C 
BRANCH  31  32
ATOM     32  C   UNL     1       2.054   1.725  -2.472  1.00  0.00     0.188 C 
BRANCH  32  33
ATOM     33  O   UNL     1       3.170   1.373  -1.675  1.00  0.00    -0.376 OA
BRANCH  33  34
ATOM     34  C   UNL     1       4.392   2.083  -1.768  1.00  0.00     0.202 C 
BRANCH  34  35
ATOM     35  C   UNL     1       4.516   3.612  -1.934  1.00  0.00     0.261 C 
BRANCH  35  36
ATOM     36  O   UNL     1       3.470   4.319  -2.602  1.00  0.00    -0.460 OA
BRANCH  36  37
ATOM     37  C   UNL     1       3.399   4.216  -3.938  1.00  0.00     0.338 C 
ATOM     38  O   UNL     1       4.155   3.597  -4.674  1.00  0.00    -0.246 OA
BRANCH  37  39
ATOM     39  C   UNL     1       2.107   4.796  -4.360  1.00  0.00     0.060 A 
ATOM     40  C   UNL     1       1.212   3.977  -5.063  1.00  0.00     0.016 A 
ATOM     41  C   UNL     1       1.758   6.111  -4.033  1.00  0.00     0.016 A 
ATOM     42  C   UNL     1      -0.013   4.481  -5.483  1.00  0.00     0.010 A 
ATOM     43  C   UNL     1       0.547   6.633  -4.497  1.00  0.00     0.010 A 
ATOM     44  C   UNL     1      -0.315   5.831  -5.266  1.00  0.00    -0.014 A 
BRANCH  44  45
ATOM     45  C   UNL     1      -1.366   6.441  -6.110  1.00  0.00     0.031 A 
ATOM     46  C   UNL     1      -0.931   7.071  -7.406  1.00  0.00     0.074 A 
ATOM     47  C   UNL     1      -2.669   6.348  -5.798  1.00  0.00     0.049 A 
ATOM     48  N   UNL     1      -1.653   7.609  -8.354  1.00  0.00    -0.248 NA
ATOM     49  C   UNL     1       0.519   7.087  -7.671  1.00  0.00     0.031 C 
ATOM     50  C   UNL     1      -3.214   5.705  -4.604  1.00  0.00     0.029 A 
ATOM     51  N   UNL     1      -3.773   6.791  -6.480  1.00  0.00    -0.354 N 
ATOM     52  C   UNL     1      -0.747   8.027  -9.321  1.00  0.00     0.074 A 
ATOM     53  C   UNL     1       0.577   7.717  -8.833  1.00  0.00     0.031 C 
ATOM     54  C   UNL     1      -4.556   5.793  -4.640  1.00  0.00     0.029 A 
ATOM     55  C   UNL     1      -4.958   6.521  -5.842  1.00  0.00     0.049 A 
ATOM     56  H   UNL     1      -3.720   7.258  -7.345  1.00  0.00     0.167 HD
ATOM     57  C   UNL     1      -0.993   8.609 -10.517  1.00  0.00     0.031 A 
ATOM     58  C   UNL     1      -6.219   6.838  -6.191  1.00  0.00     0.031 A 
ATOM     59  C   UNL     1      -2.309   8.935 -10.993  1.00  0.00     0.049 A 
ATOM     60  C   UNL     1      -6.462   7.571  -7.486  1.00  0.00     0.074 A 
ATOM     61  C   UNL     1      -2.670   9.526 -12.190  1.00  0.00     0.029 A 
ATOM     62  N   UNL     1      -3.479   8.707 -10.286  1.00  0.00    -0.354 N 
ATOM     63  N   UNL     1      -5.601   7.941  -8.405  1.00  0.00    -0.248 NA
ATOM     64  C   UNL     1      -7.856   7.917  -7.796  1.00  0.00     0.031 C 
ATOM     65  C   UNL     1      -4.056   9.717 -12.178  1.00  0.00     0.029 A 
ATOM     66  C   UNL     1      -4.564   9.176 -11.008  1.00  0.00     0.049 A 
ATOM     67  H   UNL     1      -3.532   8.277  -9.402  1.00  0.00     0.167 HD
ATOM     68  C   UNL     1      -6.352   8.533  -9.414  1.00  0.00     0.074 A 
ATOM     69  C   UNL     1      -7.739   8.452  -9.003  1.00  0.00     0.031 C 
ATOM     70  C   UNL     1      -5.936   9.094 -10.577  1.00  0.00     0.031 A 
BRANCH  57  71
ATOM     71  C   UNL     1       0.195   8.970 -11.364  1.00  0.00    -0.014 A 
ATOM     72  C   UNL     1       0.991   7.987 -11.973  1.00  0.00     0.009 A 
ATOM     73  C   UNL     1       0.515  10.322 -11.565  1.00  0.00     0.009 A 
ATOM     74  C   UNL     1       2.105   8.350 -12.734  1.00  0.00     0.001 A 
ATOM     75  C   UNL     1       1.609  10.682 -12.354  1.00  0.00     0.001 A 
ATOM     76  C   UNL     1       2.408   9.696 -12.929  1.00  0.00     0.000 A 
ENDBRANCH  57  71
BRANCH  58  77
ATOM     77  C   UNL     1      -7.355   6.487  -5.297  1.00  0.00    -0.014 A 
ATOM     78  C   UNL     1      -8.324   5.552  -5.693  1.00  0.00     0.009 A 
ATOM     79  C   UNL     1      -7.495   7.117  -4.050  1.00  0.00     0.009 A 
ATOM     80  C   UNL     1      -9.423   5.280  -4.875  1.00  0.00     0.001 A 
ATOM     81  C   UNL     1      -8.577   6.819  -3.219  1.00  0.00     0.001 A 
ATOM     82  C   UNL     1      -9.546   5.910  -3.637  1.00  0.00     0.000 A 
ENDBRANCH  58  77
BRANCH  70  83
ATOM     83  C   UNL     1      -6.997   9.627 -11.502  1.00  0.00    -0.014 A 
ATOM     84  C   UNL     1      -7.751  10.765 -11.178  1.00  0.00     0.009 A 
ATOM     85  C   UNL     1      -7.226   8.991 -12.733  1.00  0.00     0.009 A 
ATOM     86  C   UNL     1      -8.746  11.224 -12.043  1.00  0.00     0.001 A 
ATOM     87  C   UNL     1      -8.195   9.474 -13.613  1.00  0.00     0.001 A 
ATOM     88  C   UNL     1      -8.964  10.581 -13.261  1.00  0.00     0.000 A 
ENDBRANCH  70  83
ENDBRANCH  44  45
ENDBRANCH  37  39
ENDBRANCH  36  37
ENDBRANCH  35  36
ENDBRANCH  34  35
ENDBRANCH  33  34
ENDBRANCH  32  33
ENDBRANCH  31  32
ENDBRANCH  30  31
ENDBRANCH   1  30
TORSDOF 24
