REMARK SMILES O=C(OCCOCCOCCOCCOC(=O)[C@@H]1C[C@@H](O)CN1C(=O)c1ccccc1)c1ccc(-c2c3nc(c(-c4ccccc4)c4ccc([nH]4)c(-c4ccccc4)c4nc(c(-c5ccccc5)c5ccc2[nH]5)C=C4)C=C3)cc1
REMARK SMILES IDX 9 1 8 2 7 3 6 4 5 5 4 6 3 7 2 8 1 9 32 10 33 11 79 12 34 13
REMARK SMILES IDX 78 14 35 15 36 16 37 17 72 18 38 19 77 20 71 21 73 22 39 23
REMARK SMILES IDX 76 24 70 25 69 26 40 28 62 29 47 30 61 31 48 32 51 33 60 34
REMARK SMILES IDX 74 35 49 36 50 37 59 39 75 40 52 41 41 42 42 43 46 44 43 45
REMARK SMILES IDX 45 46 44 47 63 48 64 49 68 50 65 51 67 52 66 53 53 54 54 55
REMARK SMILES IDX 58 56 55 57 57 58 56 59 10 60 11 61 12 62 13 63 14 64 15 65
REMARK SMILES IDX 16 66 17 67 18 68 19 69 23 70 20 71 22 72 24 73 25 74 26 75
REMARK SMILES IDX 27 76 31 77 28 78 30 79 29 80 21 81
REMARK H PARENT 73 27 51 38 21 82
REMARK Flexibility Score: inf
ROOT
ATOM      1  O   UNL     1       4.036   3.178   3.949  1.00  0.00    -0.377 OA
ENDROOT
BRANCH   1   2
ATOM      2  C   UNL     1       3.592   4.106   2.969  1.00  0.00     0.188 C 
BRANCH   2   3
ATOM      3  C   UNL     1       3.052   3.495   1.690  1.00  0.00     0.188 C 
BRANCH   3   4
ATOM      4  O   UNL     1       1.906   2.726   2.022  1.00  0.00    -0.376 OA
BRANCH   4   5
ATOM      5  C   UNL     1       1.796   1.483   1.335  1.00  0.00     0.202 C 
BRANCH   5   6
ATOM      6  C   UNL     1       1.074   1.634   0.001  1.00  0.00     0.261 C 
BRANCH   6   7
ATOM      7  O   UNL     1       1.206   2.953  -0.559  1.00  0.00    -0.460 OA
BRANCH   7   8
ATOM      8  C   UNL     1       0.462   4.053  -0.292  1.00  0.00     0.338 C 
ATOM      9  O   UNL     1       0.749   5.107  -0.876  1.00  0.00    -0.246 OA
BRANCH   8  10
ATOM     10  C   UNL     1      -0.707   4.090   0.639  1.00  0.00     0.060 A 
ATOM     11  C   UNL     1      -0.856   3.307   1.783  1.00  0.00     0.016 A 
ATOM     12  C   UNL     1      -1.688   5.066   0.391  1.00  0.00     0.016 A 
ATOM     13  C   UNL     1      -1.922   3.457   2.647  1.00  0.00     0.010 A 
ATOM     14  C   UNL     1      -2.778   5.228   1.253  1.00  0.00     0.010 A 
ATOM     15  C   UNL     1      -2.894   4.408   2.380  1.00  0.00    -0.014 A 
BRANCH  15  16
ATOM     16  C   UNL     1      -4.104   4.351   3.207  1.00  0.00     0.031 A 
ATOM     17  C   UNL     1      -5.299   3.669   2.621  1.00  0.00     0.074 A 
ATOM     18  C   UNL     1      -4.045   4.718   4.499  1.00  0.00     0.049 A 
ATOM     19  N   UNL     1      -6.497   3.533   3.114  1.00  0.00    -0.248 NA
ATOM     20  C   UNL     1      -5.112   3.031   1.302  1.00  0.00     0.031 C 
ATOM     21  C   UNL     1      -2.845   5.201   5.191  1.00  0.00     0.029 A 
ATOM     22  N   UNL     1      -5.005   4.701   5.472  1.00  0.00    -0.354 N 
ATOM     23  C   UNL     1      -7.216   2.842   2.148  1.00  0.00     0.074 A 
ATOM     24  C   UNL     1      -6.325   2.570   1.047  1.00  0.00     0.031 C 
ATOM     25  C   UNL     1      -3.143   5.427   6.481  1.00  0.00     0.029 A 
ATOM     26  C   UNL     1      -4.566   5.185   6.680  1.00  0.00     0.049 A 
ATOM     27  H   UNL     1      -5.921   4.374   5.321  1.00  0.00     0.167 HD
ATOM     28  C   UNL     1      -8.520   2.493   2.184  1.00  0.00     0.031 A 
ATOM     29  C   UNL     1      -5.266   5.450   7.797  1.00  0.00     0.031 A 
ATOM     30  C   UNL     1      -9.368   2.790   3.303  1.00  0.00     0.049 A 
ATOM     31  C   UNL     1      -6.746   5.175   7.759  1.00  0.00     0.074 A 
ATOM     32  C   UNL     1     -10.722   2.568   3.449  1.00  0.00     0.029 A 
ATOM     33  N   UNL     1      -8.920   3.379   4.479  1.00  0.00    -0.354 N 
ATOM     34  N   UNL     1      -7.457   4.610   6.809  1.00  0.00    -0.248 NA
ATOM     35  C   UNL     1      -7.525   5.590   8.930  1.00  0.00     0.031 C 
ATOM     36  C   UNL     1     -11.105   3.080   4.693  1.00  0.00     0.029 A 
ATOM     37  C   UNL     1      -9.977   3.556   5.348  1.00  0.00     0.049 A 
ATOM     38  H   UNL     1      -7.987   3.633   4.665  1.00  0.00     0.167 HD
ATOM     39  C   UNL     1      -8.762   4.584   7.274  1.00  0.00     0.074 A 
ATOM     40  C   UNL     1      -8.738   5.166   8.604  1.00  0.00     0.031 C 
ATOM     41  C   UNL     1      -9.887   4.133   6.666  1.00  0.00     0.031 A 
BRANCH  28  42
ATOM     42  C   UNL     1      -9.100   1.869   0.950  1.00  0.00    -0.014 A 
ATOM     43  C   UNL     1      -8.802   0.552   0.569  1.00  0.00     0.009 A 
ATOM     44  C   UNL     1      -9.944   2.637   0.133  1.00  0.00     0.009 A 
ATOM     45  C   UNL     1      -9.317   0.028  -0.620  1.00  0.00     0.001 A 
ATOM     46  C   UNL     1     -10.478   2.103  -1.041  1.00  0.00     0.001 A 
ATOM     47  C   UNL     1     -10.157   0.802  -1.421  1.00  0.00     0.000 A 
ENDBRANCH  28  42
BRANCH  29  48
ATOM     48  C   UNL     1      -4.623   6.096   8.974  1.00  0.00    -0.014 A 
ATOM     49  C   UNL     1      -4.598   5.467  10.228  1.00  0.00     0.009 A 
ATOM     50  C   UNL     1      -4.072   7.385   8.861  1.00  0.00     0.009 A 
ATOM     51  C   UNL     1      -4.075   6.127  11.345  1.00  0.00     0.001 A 
ATOM     52  C   UNL     1      -3.517   8.028   9.970  1.00  0.00     0.001 A 
ATOM     53  C   UNL     1      -3.534   7.405  11.215  1.00  0.00     0.000 A 
ENDBRANCH  29  48
BRANCH  41  54
ATOM     54  C   UNL     1     -11.158   4.217   7.457  1.00  0.00    -0.014 A 
ATOM     55  C   UNL     1     -11.791   5.446   7.687  1.00  0.00     0.009 A 
ATOM     56  C   UNL     1     -11.752   3.036   7.927  1.00  0.00     0.009 A 
ATOM     57  C   UNL     1     -12.986   5.493   8.405  1.00  0.00     0.001 A 
ATOM     58  C   UNL     1     -12.963   3.083   8.612  1.00  0.00     0.001 A 
ATOM     59  C   UNL     1     -13.574   4.312   8.858  1.00  0.00     0.000 A 
ENDBRANCH  41  54
ENDBRANCH  15  16
ENDBRANCH   8  10
ENDBRANCH   7   8
ENDBRANCH   6   7
ENDBRANCH   5   6
ENDBRANCH   4   5
ENDBRANCH   3   4
ENDBRANCH   2   3
ENDBRANCH   1   2
BRANCH   1  60
ATOM     60  C   UNL     1       3.135   2.179   4.407  1.00  0.00     0.188 C 
BRANCH  60  61
ATOM     61  C   UNL     1       2.109   2.474   5.503  1.00  0.00     0.188 C 
BRANCH  61  62
ATOM     62  O   UNL     1       1.639   3.788   5.673  1.00  0.00    -0.376 OA
BRANCH  62  63
ATOM     63  C   UNL     1       2.539   4.801   6.104  1.00  0.00     0.202 C 
BRANCH  63  64
ATOM     64  C   UNL     1       3.812   4.517   6.931  1.00  0.00     0.261 C 
BRANCH  64  65
ATOM     65  O   UNL     1       4.780   3.608   6.348  1.00  0.00    -0.462 OA
BRANCH  65  66
ATOM     66  C   UNL     1       5.039   2.480   7.056  1.00  0.00     0.329 C 
ATOM     67  O   UNL     1       4.553   2.269   8.168  1.00  0.00    -0.250 OA
BRANCH  66  68
ATOM     68  C   UNL     1       5.852   1.368   6.332  1.00  0.00     0.198 C 
ATOM     69  C   UNL     1       6.718   0.683   7.405  1.00  0.00     0.071 C 
ATOM     70  N   UNL     1       6.758   1.497   5.144  1.00  0.00    -0.322 N 
ATOM     71  C   UNL     1       7.752  -0.055   6.584  1.00  0.00     0.136 C 
ATOM     72  C   UNL     1       8.081   0.986   5.511  1.00  0.00     0.152 C 
BRANCH  70  73
ATOM     73  C   UNL     1       6.327   1.148   3.851  1.00  0.00     0.254 C 
ATOM     74  O   UNL     1       5.355   0.430   3.639  1.00  0.00    -0.269 OA
BRANCH  73  75
ATOM     75  C   UNL     1       7.218   1.450   2.698  1.00  0.00     0.040 A 
ATOM     76  C   UNL     1       7.445   2.757   2.262  1.00  0.00     0.014 A 
ATOM     77  C   UNL     1       7.779   0.369   2.001  1.00  0.00     0.014 A 
ATOM     78  C   UNL     1       8.246   2.976   1.133  1.00  0.00     0.001 A 
ATOM     79  C   UNL     1       8.597   0.595   0.893  1.00  0.00     0.001 A 
ATOM     80  C   UNL     1       8.827   1.898   0.457  1.00  0.00     0.000 A 
ENDBRANCH  73  75
ENDBRANCH  70  73
BRANCH  71  81
ATOM     81  O   UNL     1       7.174  -1.234   6.011  1.00  0.00    -0.391 OA
ATOM     82  H   UNL     1       6.387  -0.992   5.498  1.00  0.00     0.211 HD
ENDBRANCH  71  81
ENDBRANCH  66  68
ENDBRANCH  65  66
ENDBRANCH  64  65
ENDBRANCH  63  64
ENDBRANCH  62  63
ENDBRANCH  61  62
ENDBRANCH  60  61
ENDBRANCH   1  60
TORSDOF 23
