REMARK SMILES C[C@@H](NC(=O)c1cc(C(=O)OCCOCCOCCOCCOC(=O)c2ccc(-c3c4nc(c(-c5ccccc5)c5ccc([nH]5)c(-c5ccccc5)c5nc(c(-c6ccccc6)c6ccc3[nH]6)C=C5)C=C4)cc2)n(C)n1)c1ccccc1
REMARK SMILES IDX 16 1 15 2 14 3 13 4 12 5 11 6 9 7 10 8 8 9 6 10 7 11 76 12
REMARK SMILES IDX 74 13 75 14 4 15 3 16 5 18 2 19 1 20 77 21 78 22 82 23 79 24
REMARK SMILES IDX 81 25 80 26 17 27 18 28 19 29 20 30 21 31 22 32 23 33 24 34
REMARK SMILES IDX 25 35 26 36 27 37 73 38 28 39 72 40 29 41 30 42 31 43 66 44
REMARK SMILES IDX 32 45 71 46 65 47 67 48 33 49 70 50 64 51 63 52 34 54 56 55
REMARK SMILES IDX 41 56 55 57 42 58 45 59 54 60 68 61 43 62 44 63 53 65 69 66
REMARK SMILES IDX 46 67 35 68 36 69 40 70 37 71 39 72 38 73 57 74 58 75 62 76
REMARK SMILES IDX 59 77 61 78 60 79 47 80 48 81 52 82 49 83 51 84 50 85
REMARK H PARENT 3 17 67 53 45 64
REMARK Flexibility Score: inf
ROOT
ATOM      1  C   UNL     1      -6.054   0.696  -0.845  1.00  0.00     0.188 C 
ENDROOT
BRANCH   1   2
ATOM      2  C   UNL     1      -5.458   1.553  -1.970  1.00  0.00     0.188 C 
BRANCH   2   3
ATOM      3  O   UNL     1      -6.471   2.024  -2.845  1.00  0.00    -0.376 OA
BRANCH   3   4
ATOM      4  C   UNL     1      -6.838   1.197  -3.940  1.00  0.00     0.202 C 
BRANCH   4   5
ATOM      5  C   UNL     1      -6.832  -0.334  -3.795  1.00  0.00     0.261 C 
BRANCH   5   6
ATOM      6  O   UNL     1      -5.584  -0.964  -3.427  1.00  0.00    -0.459 OA
BRANCH   6   7
ATOM      7  C   UNL     1      -4.494  -0.867  -4.227  1.00  0.00     0.356 C 
ATOM      8  O   UNL     1      -4.463  -0.209  -5.262  1.00  0.00    -0.244 OA
BRANCH   7   9
ATOM      9  C   UNL     1      -3.369  -1.583  -3.656  1.00  0.00     0.146 A 
ATOM     10  C   UNL     1      -1.298  -2.369  -3.174  1.00  0.00     0.151 A 
ATOM     11  C   UNL     1      -2.012  -1.382  -3.906  1.00  0.00     0.071 A 
ATOM     12  N   UNL     1      -2.169  -3.161  -2.522  1.00  0.00    -0.167 NA
ATOM     13  N   UNL     1      -3.389  -2.650  -2.785  1.00  0.00    -0.260 N 
ATOM     14  C   UNL     1      -4.516  -3.378  -2.242  1.00  0.00     0.174 C 
BRANCH  10  15
ATOM     15  C   UNL     1       0.138  -2.716  -3.205  1.00  0.00     0.272 C 
ATOM     16  N   UNL     1       1.081  -2.117  -2.392  1.00  0.00    -0.344 N 
ATOM     17  H   UNL     1       1.907  -2.644  -2.297  1.00  0.00     0.164 HD
ATOM     18  O   UNL     1       0.550  -3.623  -3.934  1.00  0.00    -0.267 OA
BRANCH  16  19
ATOM     19  C   UNL     1       1.103  -0.862  -1.642  1.00  0.00     0.109 C 
ATOM     20  C   UNL     1       2.275  -0.835  -0.649  1.00  0.00     0.036 C 
BRANCH  19  21
ATOM     21  C   UNL     1      -0.186  -0.583  -0.922  1.00  0.00    -0.026 A 
ATOM     22  C   UNL     1      -0.901   0.584  -1.220  1.00  0.00     0.006 A 
ATOM     23  C   UNL     1      -0.738  -1.540  -0.058  1.00  0.00     0.006 A 
ATOM     24  C   UNL     1      -2.201   0.729  -0.757  1.00  0.00     0.000 A 
ATOM     25  C   UNL     1      -2.044  -1.402   0.384  1.00  0.00     0.000 A 
ATOM     26  C   UNL     1      -2.776  -0.281   0.012  1.00  0.00     0.000 A 
ENDBRANCH  19  21
ENDBRANCH  16  19
ENDBRANCH  10  15
ENDBRANCH   7   9
ENDBRANCH   6   7
ENDBRANCH   5   6
ENDBRANCH   4   5
ENDBRANCH   3   4
ENDBRANCH   2   3
ENDBRANCH   1   2
BRANCH   1  27
ATOM     27  O   UNL     1      -7.437   0.948  -0.673  1.00  0.00    -0.377 OA
BRANCH  27  28
ATOM     28  C   UNL     1      -7.809   2.114   0.052  1.00  0.00     0.188 C 
BRANCH  28  29
ATOM     29  C   UNL     1      -6.858   3.308   0.320  1.00  0.00     0.188 C 
BRANCH  29  30
ATOM     30  O   UNL     1      -5.510   2.926   0.566  1.00  0.00    -0.376 OA
BRANCH  30  31
ATOM     31  C   UNL     1      -4.836   3.558   1.644  1.00  0.00     0.202 C 
BRANCH  31  32
ATOM     32  C   UNL     1      -4.585   2.518   2.740  1.00  0.00     0.261 C 
BRANCH  32  33
ATOM     33  O   UNL     1      -5.778   1.809   3.119  1.00  0.00    -0.460 OA
BRANCH  33  34
ATOM     34  C   UNL     1      -6.740   2.553   3.706  1.00  0.00     0.338 C 
ATOM     35  O   UNL     1      -6.676   3.728   4.019  1.00  0.00    -0.246 OA
BRANCH  34  36
ATOM     36  C   UNL     1      -7.978   1.753   3.735  1.00  0.00     0.060 A 
ATOM     37  C   UNL     1      -9.154   2.342   3.252  1.00  0.00     0.016 A 
ATOM     38  C   UNL     1      -7.977   0.430   4.189  1.00  0.00     0.016 A 
ATOM     39  C   UNL     1     -10.329   1.599   3.200  1.00  0.00     0.010 A 
ATOM     40  C   UNL     1      -9.167  -0.297   4.185  1.00  0.00     0.010 A 
ATOM     41  C   UNL     1     -10.349   0.293   3.707  1.00  0.00    -0.014 A 
BRANCH  41  42
ATOM     42  C   UNL     1     -11.655  -0.341   3.979  1.00  0.00     0.031 A 
ATOM     43  C   UNL     1     -12.324  -0.004   5.282  1.00  0.00     0.074 A 
ATOM     44  C   UNL     1     -12.245  -1.162   3.095  1.00  0.00     0.049 A 
ATOM     45  N   UNL     1     -13.482  -0.390   5.746  1.00  0.00    -0.248 NA
ATOM     46  C   UNL     1     -11.584   0.903   6.178  1.00  0.00     0.031 C 
ATOM     47  C   UNL     1     -11.712  -1.528   1.784  1.00  0.00     0.029 A 
ATOM     48  N   UNL     1     -13.437  -1.836   3.176  1.00  0.00    -0.354 N 
ATOM     49  C   UNL     1     -13.617   0.241   6.975  1.00  0.00     0.074 A 
ATOM     50  C   UNL     1     -12.413   1.008   7.202  1.00  0.00     0.031 C 
ATOM     51  C   UNL     1     -12.572  -2.373   1.187  1.00  0.00     0.029 A 
ATOM     52  C   UNL     1     -13.702  -2.620   2.081  1.00  0.00     0.049 A 
ATOM     53  H   UNL     1     -14.045  -1.764   3.947  1.00  0.00     0.167 HD
ATOM     54  C   UNL     1     -14.653   0.190   7.842  1.00  0.00     0.031 A 
ATOM     55  C   UNL     1     -14.736  -3.451   1.843  1.00  0.00     0.031 A 
ATOM     56  C   UNL     1     -15.822  -0.619   7.644  1.00  0.00     0.049 A 
ATOM     57  C   UNL     1     -15.833  -3.571   2.871  1.00  0.00     0.074 A 
ATOM     58  C   UNL     1     -16.922  -0.762   8.469  1.00  0.00     0.029 A 
ATOM     59  N   UNL     1     -16.029  -1.438   6.546  1.00  0.00    -0.354 N 
ATOM     60  N   UNL     1     -15.969  -2.943   4.015  1.00  0.00    -0.248 NA
ATOM     61  C   UNL     1     -16.924  -4.509   2.568  1.00  0.00     0.031 C 
ATOM     62  C   UNL     1     -17.771  -1.714   7.895  1.00  0.00     0.029 A 
ATOM     63  C   UNL     1     -17.229  -2.113   6.683  1.00  0.00     0.049 A 
ATOM     64  H   UNL     1     -15.414  -1.527   5.782  1.00  0.00     0.167 HD
ATOM     65  C   UNL     1     -17.172  -3.386   4.553  1.00  0.00     0.074 A 
ATOM     66  C   UNL     1     -17.732  -4.327   3.604  1.00  0.00     0.031 C 
ATOM     67  C   UNL     1     -17.764  -3.045   5.724  1.00  0.00     0.031 A 
BRANCH  54  68
ATOM     68  C   UNL     1     -14.528   1.000   9.099  1.00  0.00    -0.014 A 
ATOM     69  C   UNL     1     -14.610   2.402   9.071  1.00  0.00     0.009 A 
ATOM     70  C   UNL     1     -14.313   0.355  10.325  1.00  0.00     0.009 A 
ATOM     71  C   UNL     1     -14.445   3.143  10.243  1.00  0.00     0.001 A 
ATOM     72  C   UNL     1     -14.175   1.097  11.499  1.00  0.00     0.001 A 
ATOM     73  C   UNL     1     -14.231   2.489  11.456  1.00  0.00     0.000 A 
ENDBRANCH  54  68
BRANCH  55  74
ATOM     74  C   UNL     1     -14.782  -4.253   0.591  1.00  0.00    -0.014 A 
ATOM     75  C   UNL     1     -15.744  -3.994  -0.397  1.00  0.00     0.009 A 
ATOM     76  C   UNL     1     -13.877  -5.309   0.394  1.00  0.00     0.009 A 
ATOM     77  C   UNL     1     -15.816  -4.792  -1.543  1.00  0.00     0.001 A 
ATOM     78  C   UNL     1     -13.934  -6.087  -0.764  1.00  0.00     0.001 A 
ATOM     79  C   UNL     1     -14.909  -5.834  -1.727  1.00  0.00     0.000 A 
ENDBRANCH  55  74
BRANCH  67  80
ATOM     80  C   UNL     1     -19.101  -3.660   6.028  1.00  0.00    -0.014 A 
ATOM     81  C   UNL     1     -19.219  -5.009   6.394  1.00  0.00     0.009 A 
ATOM     82  C   UNL     1     -20.252  -2.857   6.003  1.00  0.00     0.009 A 
ATOM     83  C   UNL     1     -20.470  -5.548   6.700  1.00  0.00     0.001 A 
ATOM     84  C   UNL     1     -21.496  -3.391   6.339  1.00  0.00     0.001 A 
ATOM     85  C   UNL     1     -21.605  -4.739   6.678  1.00  0.00     0.000 A 
ENDBRANCH  67  80
ENDBRANCH  41  42
ENDBRANCH  34  36
ENDBRANCH  33  34
ENDBRANCH  32  33
ENDBRANCH  31  32
ENDBRANCH  30  31
ENDBRANCH  29  30
ENDBRANCH  28  29
ENDBRANCH  27  28
ENDBRANCH   1  27
TORSDOF 23
