REMARK SMILES O=C(OCCOCCOCCOCCOC(=O)[C@@H]1CN(C(=O)CCC(F)(F)F)C[C@H]1c1ccc2c(c1)OCO2)c1ccc(-c2c3nc(c(-c4ccccc4)c4ccc([nH]4)c(-c4ccccc4)c4nc(c(-c5ccccc5)c5ccc2[nH]5)C=C4)C=C3)cc1
REMARK SMILES IDX 10 1 9 2 8 3 7 4 6 5 5 6 4 7 3 8 2 9 1 10 40 11 41 12 87 13
REMARK SMILES IDX 42 14 86 15 43 16 44 17 45 18 80 19 46 20 85 21 79 22 81 23
REMARK SMILES IDX 47 24 84 25 78 26 77 27 48 29 70 30 55 31 69 32 56 33 59 34
REMARK SMILES IDX 68 35 82 36 57 37 58 38 67 40 83 41 60 42 49 43 50 44 54 45
REMARK SMILES IDX 51 46 53 47 52 48 71 49 72 50 76 51 73 52 75 53 74 54 61 55
REMARK SMILES IDX 62 56 66 57 63 58 65 59 64 60 11 61 12 62 13 63 14 64 15 65
REMARK SMILES IDX 16 66 17 67 18 68 19 69 30 70 20 71 29 72 31 73 32 74 36 75
REMARK SMILES IDX 33 76 35 77 34 78 37 79 39 80 38 81 21 82 22 83 23 84 24 85
REMARK SMILES IDX 25 86 26 87 27 88 28 89
REMARK H PARENT 81 28 59 39
REMARK Flexibility Score: inf
ROOT
ATOM      1  C   UNL     1       4.327  -0.608   3.425  1.00  0.00     0.188 C 
ENDROOT
BRANCH   1   2
ATOM      2  O   UNL     1       2.925  -0.479   3.635  1.00  0.00    -0.377 OA
BRANCH   2   3
ATOM      3  C   UNL     1       2.091  -0.514   2.483  1.00  0.00     0.188 C 
BRANCH   3   4
ATOM      4  C   UNL     1       2.500   0.458   1.386  1.00  0.00     0.188 C 
BRANCH   4   5
ATOM      5  O   UNL     1       3.774   0.066   0.907  1.00  0.00    -0.376 OA
BRANCH   5   6
ATOM      6  C   UNL     1       4.655   1.056   0.405  1.00  0.00     0.202 C 
BRANCH   6   7
ATOM      7  C   UNL     1       4.164   1.816  -0.818  1.00  0.00     0.261 C 
BRANCH   7   8
ATOM      8  O   UNL     1       2.815   1.530  -1.232  1.00  0.00    -0.460 OA
BRANCH   8   9
ATOM      9  C   UNL     1       2.288   0.499  -1.928  1.00  0.00     0.338 C 
ATOM     10  O   UNL     1       1.102   0.553  -2.250  1.00  0.00    -0.246 OA
BRANCH   9  11
ATOM     11  C   UNL     1       3.048  -0.709  -2.348  1.00  0.00     0.060 A 
ATOM     12  C   UNL     1       4.006  -1.352  -1.574  1.00  0.00     0.016 A 
ATOM     13  C   UNL     1       2.652  -1.340  -3.536  1.00  0.00     0.016 A 
ATOM     14  C   UNL     1       4.636  -2.510  -1.973  1.00  0.00     0.010 A 
ATOM     15  C   UNL     1       3.228  -2.553  -3.926  1.00  0.00     0.010 A 
ATOM     16  C   UNL     1       4.237  -3.127  -3.143  1.00  0.00    -0.014 A 
BRANCH  16  17
ATOM     17  C   UNL     1       5.005  -4.304  -3.559  1.00  0.00     0.031 A 
ATOM     18  C   UNL     1       5.952  -4.134  -4.700  1.00  0.00     0.074 A 
ATOM     19  C   UNL     1       4.965  -5.425  -2.815  1.00  0.00     0.049 A 
ATOM     20  N   UNL     1       6.651  -5.034  -5.329  1.00  0.00    -0.248 NA
ATOM     21  C   UNL     1       6.148  -2.757  -5.194  1.00  0.00     0.031 C 
ATOM     22  C   UNL     1       4.207  -5.593  -1.567  1.00  0.00     0.029 A 
ATOM     23  N   UNL     1       5.601  -6.623  -2.978  1.00  0.00    -0.354 N 
ATOM     24  C   UNL     1       7.316  -4.344  -6.332  1.00  0.00     0.074 A 
ATOM     25  C   UNL     1       6.966  -2.949  -6.217  1.00  0.00     0.031 C 
ATOM     26  C   UNL     1       4.434  -6.823  -1.078  1.00  0.00     0.029 A 
ATOM     27  C   UNL     1       5.264  -7.554  -2.024  1.00  0.00     0.049 A 
ATOM     28  H   UNL     1       6.238  -6.803  -3.707  1.00  0.00     0.167 HD
ATOM     29  C   UNL     1       8.125  -4.859  -7.282  1.00  0.00     0.031 A 
ATOM     30  C   UNL     1       5.545  -8.868  -1.976  1.00  0.00     0.031 A 
ATOM     31  C   UNL     1       8.445  -6.256  -7.350  1.00  0.00     0.049 A 
ATOM     32  C   UNL     1       6.344  -9.437  -3.118  1.00  0.00     0.074 A 
ATOM     33  C   UNL     1       9.199  -6.928  -8.290  1.00  0.00     0.029 A 
ATOM     34  N   UNL     1       8.014  -7.195  -6.421  1.00  0.00    -0.354 N 
ATOM     35  N   UNL     1       6.910  -8.807  -4.122  1.00  0.00    -0.248 NA
ATOM     36  C   UNL     1       6.515 -10.893  -3.144  1.00  0.00     0.031 C 
ATOM     37  C   UNL     1       9.174  -8.287  -7.961  1.00  0.00     0.029 A 
ATOM     38  C   UNL     1       8.455  -8.451  -6.785  1.00  0.00     0.049 A 
ATOM     39  H   UNL     1       7.475  -6.994  -5.622  1.00  0.00     0.167 HD
ATOM     40  C   UNL     1       7.509  -9.787  -4.897  1.00  0.00     0.074 A 
ATOM     41  C   UNL     1       7.266 -11.050  -4.225  1.00  0.00     0.031 C 
ATOM     42  C   UNL     1       8.184  -9.670  -6.067  1.00  0.00     0.031 A 
BRANCH  29  43
ATOM     43  C   UNL     1       8.599  -3.931  -8.359  1.00  0.00    -0.014 A 
ATOM     44  C   UNL     1       9.593  -2.968  -8.130  1.00  0.00     0.009 A 
ATOM     45  C   UNL     1       8.013  -4.014  -9.631  1.00  0.00     0.009 A 
ATOM     46  C   UNL     1       9.973  -2.092  -9.151  1.00  0.00     0.001 A 
ATOM     47  C   UNL     1       8.410  -3.155 -10.655  1.00  0.00     0.001 A 
ATOM     48  C   UNL     1       9.385  -2.190 -10.412  1.00  0.00     0.000 A 
ENDBRANCH  29  43
BRANCH  30  49
ATOM     49  C   UNL     1       4.968  -9.742  -0.917  1.00  0.00    -0.014 A 
ATOM     50  C   UNL     1       5.790 -10.465  -0.042  1.00  0.00     0.009 A 
ATOM     51  C   UNL     1       3.574  -9.898  -0.810  1.00  0.00     0.009 A 
ATOM     52  C   UNL     1       5.234 -11.351   0.887  1.00  0.00     0.001 A 
ATOM     53  C   UNL     1       3.019 -10.755   0.143  1.00  0.00     0.001 A 
ATOM     54  C   UNL     1       3.850 -11.494   0.980  1.00  0.00     0.000 A 
ENDBRANCH  30  49
BRANCH  42  55
ATOM     55  C   UNL     1       8.716 -10.938  -6.662  1.00  0.00    -0.014 A 
ATOM     56  C   UNL     1       7.858 -11.855  -7.286  1.00  0.00     0.009 A 
ATOM     57  C   UNL     1      10.097 -11.179  -6.652  1.00  0.00     0.009 A 
ATOM     58  C   UNL     1       8.377 -13.009  -7.871  1.00  0.00     0.001 A 
ATOM     59  C   UNL     1      10.615 -12.316  -7.266  1.00  0.00     0.001 A 
ATOM     60  C   UNL     1       9.754 -13.234  -7.867  1.00  0.00     0.000 A 
ENDBRANCH  42  55
ENDBRANCH  16  17
ENDBRANCH   9  11
ENDBRANCH   8   9
ENDBRANCH   7   8
ENDBRANCH   6   7
ENDBRANCH   5   6
ENDBRANCH   4   5
ENDBRANCH   3   4
ENDBRANCH   2   3
ENDBRANCH   1   2
BRANCH   1  61
ATOM     61  C   UNL     1       4.902  -1.980   3.039  1.00  0.00     0.188 C 
BRANCH  61  62
ATOM     62  O   UNL     1       3.971  -2.858   2.450  1.00  0.00    -0.376 OA
BRANCH  62  63
ATOM     63  C   UNL     1       3.229  -3.725   3.296  1.00  0.00     0.202 C 
BRANCH  63  64
ATOM     64  C   UNL     1       3.075  -3.555   4.832  1.00  0.00     0.261 C 
BRANCH  64  65
ATOM     65  O   UNL     1       3.550  -2.328   5.416  1.00  0.00    -0.463 OA
BRANCH  65  66
ATOM     66  C   UNL     1       4.247  -2.411   6.580  1.00  0.00     0.311 C 
ATOM     67  O   UNL     1       4.463  -3.454   7.163  1.00  0.00    -0.252 OA
BRANCH  66  68
ATOM     68  C   UNL     1       4.833  -1.077   7.049  1.00  0.00     0.128 C 
ATOM     69  C   UNL     1       3.989   0.177   6.812  1.00  0.00     0.135 C 
ATOM     70  C   UNL     1       6.211  -0.769   6.415  1.00  0.00     0.055 C 
ATOM     71  N   UNL     1       4.941   1.253   6.531  1.00  0.00    -0.341 N 
ATOM     72  C   UNL     1       6.309   0.761   6.460  1.00  0.00     0.128 C 
BRANCH  70  73
ATOM     73  C   UNL     1       7.312  -1.577   7.060  1.00  0.00    -0.038 A 
ATOM     74  C   UNL     1       7.541  -2.893   6.579  1.00  0.00     0.008 A 
ATOM     75  C   UNL     1       8.004  -1.131   8.191  1.00  0.00     0.054 A 
ATOM     76  C   UNL     1       8.377  -3.780   7.256  1.00  0.00     0.051 A 
ATOM     77  C   UNL     1       8.819  -2.031   8.841  1.00  0.00     0.166 A 
ATOM     78  C   UNL     1       8.984  -3.322   8.400  1.00  0.00     0.165 A 
ATOM     79  O   UNL     1       9.490  -1.785   9.997  1.00  0.00    -0.454 OA
ATOM     80  O   UNL     1       9.763  -4.057   9.236  1.00  0.00    -0.454 OA
ATOM     81  C   UNL     1       9.985  -3.105  10.297  1.00  0.00     0.468 C 
ENDBRANCH  70  73
BRANCH  71  82
ATOM     82  C   UNL     1       4.695   2.595   6.350  1.00  0.00     0.222 C 
ATOM     83  O   UNL     1       5.606   3.397   6.134  1.00  0.00    -0.275 OA
BRANCH  82  84
ATOM     84  C   UNL     1       3.264   3.094   6.414  1.00  0.00     0.109 C 
BRANCH  84  85
ATOM     85  C   UNL     1       2.892   3.848   5.139  1.00  0.00     0.125 C 
BRANCH  85  86
ATOM     86  C   UNL     1       2.768   2.915   3.966  1.00  0.00     0.389 C 
ATOM     87  F   UNL     1       1.839   1.968   4.213  1.00  0.00    -0.171 F 
ATOM     88  F   UNL     1       2.374   3.586   2.860  1.00  0.00    -0.171 F 
ATOM     89  F   UNL     1       3.935   2.311   3.673  1.00  0.00    -0.171 F 
ENDBRANCH  85  86
ENDBRANCH  84  85
ENDBRANCH  82  84
ENDBRANCH  71  82
ENDBRANCH  66  68
ENDBRANCH  65  66
ENDBRANCH  64  65
ENDBRANCH  63  64
ENDBRANCH  62  63
ENDBRANCH  61  62
ENDBRANCH   1  61
TORSDOF 25
