REMARK SMILES COc1ccc([C@H](C(=O)OCCOCCOCCOCCOC(=O)c2ccc(-c3c4nc(c(-c5ccccc5)c5ccc([nH]5)c(-c5ccccc5)c5nc(c(-c6ccccc6)c6ccc3[nH]6)C=C5)C=C4)cc2)[NH+]2CCOCC2)c(OC)n1
REMARK SMILES IDX 16 1 15 2 14 3 13 4 12 5 11 6 10 7 8 8 9 9 7 10 6 11 3 12
REMARK SMILES IDX 4 13 82 14 5 15 79 16 2 17 1 18 80 19 81 20 73 21 74 22
REMARK SMILES IDX 78 23 75 25 77 26 76 27 17 28 18 29 19 30 20 31 21 32 22 33
REMARK SMILES IDX 23 34 24 35 25 36 26 37 72 38 27 39 71 40 28 41 29 42 30 43
REMARK SMILES IDX 65 44 31 45 70 46 64 47 66 48 32 49 69 50 63 51 62 52 33 54
REMARK SMILES IDX 55 55 40 56 54 57 41 58 44 59 53 60 67 61 42 62 43 63 52 65
REMARK SMILES IDX 68 66 45 67 34 68 35 69 39 70 36 71 38 72 37 73 56 74 57 75
REMARK SMILES IDX 61 76 58 77 60 78 59 79 46 80 47 81 51 82 48 83 50 84 49 85
REMARK H PARENT 73 24 66 53 44 64
REMARK Flexibility Score: inf
ROOT
ATOM      1  O   UNL     1       4.012  -1.271  -3.333  1.00  0.00    -0.377 OA
ENDROOT
BRANCH   1   2
ATOM      2  C   UNL     1       2.797  -0.736  -3.828  1.00  0.00     0.188 C 
BRANCH   2   3
ATOM      3  C   UNL     1       1.720  -0.360  -2.796  1.00  0.00     0.188 C 
BRANCH   3   4
ATOM      4  O   UNL     1       1.950  -0.915  -1.506  1.00  0.00    -0.376 OA
BRANCH   4   5
ATOM      5  C   UNL     1       1.321  -2.162  -1.249  1.00  0.00     0.202 C 
BRANCH   5   6
ATOM      6  C   UNL     1       1.978  -3.372  -1.924  1.00  0.00     0.261 C 
BRANCH   6   7
ATOM      7  O   UNL     1       1.850  -3.569  -3.352  1.00  0.00    -0.459 OA
BRANCH   7   8
ATOM      8  C   UNL     1       0.760  -3.153  -4.062  1.00  0.00     0.370 C 
ATOM      9  O   UNL     1      -0.197  -2.568  -3.579  1.00  0.00    -0.245 OA
BRANCH   8  10
ATOM     10  C   UNL     1       0.926  -3.550  -5.537  1.00  0.00     0.332 C 
BRANCH  10  11
ATOM     11  C   UNL     1       0.486  -4.983  -5.817  1.00  0.00     0.083 A 
ATOM     12  C   UNL     1      -1.006  -6.925  -6.962  1.00  0.00     0.216 A 
ATOM     13  C   UNL     1       0.144  -6.525  -7.622  1.00  0.00     0.069 A 
ATOM     14  N   UNL     1      -1.341  -6.557  -5.711  1.00  0.00    -0.177 NA
ATOM     15  C   UNL     1       0.932  -5.564  -7.014  1.00  0.00     0.022 A 
ATOM     16  C   UNL     1      -0.587  -5.595  -5.155  1.00  0.00     0.226 A 
BRANCH  12  17
ATOM     17  O   UNL     1      -2.040  -7.411  -7.723  1.00  0.00    -0.481 OA
ATOM     18  C   UNL     1      -1.988  -8.822  -7.786  1.00  0.00     0.280 C 
ENDBRANCH  12  17
BRANCH  16  19
ATOM     19  O   UNL     1      -1.175  -4.985  -4.080  1.00  0.00    -0.481 OA
ATOM     20  C   UNL     1      -0.822  -5.610  -2.853  1.00  0.00     0.280 C 
ENDBRANCH  16  19
ENDBRANCH  10  11
BRANCH  10  21
ATOM     21  N   UNL     1       0.287  -2.647  -6.537  1.00  0.00    -0.315 N 
ATOM     22  C   UNL     1       0.856  -1.331  -6.819  1.00  0.00     0.292 C 
ATOM     23  C   UNL     1      -1.177  -2.638  -6.655  1.00  0.00     0.292 C 
ATOM     24  H   UNL     1       0.632  -3.227  -7.302  1.00  0.00     0.349 HD
ATOM     25  C   UNL     1       0.084  -0.150  -6.201  1.00  0.00     0.221 C 
ATOM     26  C   UNL     1      -1.863  -1.445  -5.984  1.00  0.00     0.221 C 
ATOM     27  O   UNL     1      -1.319  -0.215  -6.477  1.00  0.00    -0.370 OA
ENDBRANCH  10  21
ENDBRANCH   8  10
ENDBRANCH   7   8
ENDBRANCH   6   7
ENDBRANCH   5   6
ENDBRANCH   4   5
ENDBRANCH   3   4
ENDBRANCH   2   3
ENDBRANCH   1   2
BRANCH   1  28
ATOM     28  C   UNL     1       4.673  -0.579  -2.280  1.00  0.00     0.188 C 
BRANCH  28  29
ATOM     29  C   UNL     1       4.337   0.905  -2.019  1.00  0.00     0.188 C 
BRANCH  29  30
ATOM     30  O   UNL     1       3.833   1.588  -3.154  1.00  0.00    -0.376 OA
BRANCH  30  31
ATOM     31  C   UNL     1       4.689   2.389  -3.943  1.00  0.00     0.202 C 
BRANCH  31  32
ATOM     32  C   UNL     1       5.931   1.752  -4.580  1.00  0.00     0.261 C 
BRANCH  32  33
ATOM     33  O   UNL     1       6.793   0.999  -3.718  1.00  0.00    -0.460 OA
BRANCH  33  34
ATOM     34  C   UNL     1       7.368   1.641  -2.672  1.00  0.00     0.338 C 
ATOM     35  O   UNL     1       7.295   2.813  -2.401  1.00  0.00    -0.246 OA
BRANCH  34  36
ATOM     36  C   UNL     1       7.901   0.583  -1.771  1.00  0.00     0.060 A 
ATOM     37  C   UNL     1       7.461   0.555  -0.440  1.00  0.00     0.016 A 
ATOM     38  C   UNL     1       8.753  -0.415  -2.253  1.00  0.00     0.016 A 
ATOM     39  C   UNL     1       7.895  -0.453   0.417  1.00  0.00     0.010 A 
ATOM     40  C   UNL     1       9.219  -1.404  -1.383  1.00  0.00     0.010 A 
ATOM     41  C   UNL     1       8.820  -1.402  -0.035  1.00  0.00    -0.014 A 
BRANCH  41  42
ATOM     42  C   UNL     1       9.562  -2.191   0.976  1.00  0.00     0.031 A 
ATOM     43  C   UNL     1      10.858  -1.619   1.486  1.00  0.00     0.074 A 
ATOM     44  C   UNL     1       9.069  -3.328   1.495  1.00  0.00     0.049 A 
ATOM     45  N   UNL     1      11.656  -2.068   2.419  1.00  0.00    -0.248 NA
ATOM     46  C   UNL     1      11.306  -0.362   0.862  1.00  0.00     0.031 C 
ATOM     47  C   UNL     1       7.801  -3.953   1.126  1.00  0.00     0.029 A 
ATOM     48  N   UNL     1       9.584  -4.151   2.466  1.00  0.00    -0.354 N 
ATOM     49  C   UNL     1      12.694  -1.148   2.495  1.00  0.00     0.074 A 
ATOM     50  C   UNL     1      12.447  -0.138   1.492  1.00  0.00     0.031 C 
ATOM     51  C   UNL     1       7.634  -5.064   1.867  1.00  0.00     0.029 A 
ATOM     52  C   UNL     1       8.792  -5.237   2.743  1.00  0.00     0.049 A 
ATOM     53  H   UNL     1      10.440  -3.978   2.920  1.00  0.00     0.167 HD
ATOM     54  C   UNL     1      13.757  -1.136   3.333  1.00  0.00     0.031 A 
ATOM     55  C   UNL     1       8.989  -6.257   3.602  1.00  0.00     0.031 A 
ATOM     56  C   UNL     1      14.021  -2.154   4.312  1.00  0.00     0.049 A 
ATOM     57  C   UNL     1      10.228  -6.269   4.461  1.00  0.00     0.074 A 
ATOM     58  C   UNL     1      15.071  -2.237   5.209  1.00  0.00     0.029 A 
ATOM     59  N   UNL     1      13.231  -3.276   4.513  1.00  0.00    -0.354 N 
ATOM     60  N   UNL     1      11.189  -5.380   4.545  1.00  0.00    -0.248 NA
ATOM     61  C   UNL     1      10.399  -7.424   5.355  1.00  0.00     0.031 C 
ATOM     62  C   UNL     1      14.951  -3.443   5.908  1.00  0.00     0.029 A 
ATOM     63  C   UNL     1      13.788  -4.074   5.497  1.00  0.00     0.049 A 
ATOM     64  H   UNL     1      12.398  -3.475   4.028  1.00  0.00     0.167 HD
ATOM     65  C   UNL     1      12.062  -5.854   5.518  1.00  0.00     0.074 A 
ATOM     66  C   UNL     1      11.501  -7.095   6.011  1.00  0.00     0.031 C 
ATOM     67  C   UNL     1      13.225  -5.315   5.964  1.00  0.00     0.031 A 
BRANCH  54  68
ATOM     68  C   UNL     1      14.735  -0.004   3.185  1.00  0.00    -0.014 A 
ATOM     69  C   UNL     1      14.399   1.308   3.556  1.00  0.00     0.009 A 
ATOM     70  C   UNL     1      16.016  -0.258   2.672  1.00  0.00     0.009 A 
ATOM     71  C   UNL     1      15.316   2.348   3.384  1.00  0.00     0.001 A 
ATOM     72  C   UNL     1      16.941   0.777   2.532  1.00  0.00     0.001 A 
ATOM     73  C   UNL     1      16.588   2.080   2.878  1.00  0.00     0.000 A 
ENDBRANCH  54  68
BRANCH  55  74
ATOM     74  C   UNL     1       8.002  -7.367   3.689  1.00  0.00    -0.014 A 
ATOM     75  C   UNL     1       7.243  -7.570   4.852  1.00  0.00     0.009 A 
ATOM     76  C   UNL     1       7.845  -8.259   2.616  1.00  0.00     0.009 A 
ATOM     77  C   UNL     1       6.371  -8.658   4.949  1.00  0.00     0.001 A 
ATOM     78  C   UNL     1       6.950  -9.328   2.704  1.00  0.00     0.001 A 
ATOM     79  C   UNL     1       6.222  -9.533   3.874  1.00  0.00     0.000 A 
ENDBRANCH  55  74
BRANCH  67  80
ATOM     80  C   UNL     1      13.947  -6.054   7.058  1.00  0.00    -0.014 A 
ATOM     81  C   UNL     1      14.561  -7.295   6.824  1.00  0.00     0.009 A 
ATOM     82  C   UNL     1      14.027  -5.491   8.342  1.00  0.00     0.009 A 
ATOM     83  C   UNL     1      15.190  -7.981   7.864  1.00  0.00     0.001 A 
ATOM     84  C   UNL     1      14.689  -6.162   9.372  1.00  0.00     0.001 A 
ATOM     85  C   UNL     1      15.256  -7.413   9.136  1.00  0.00     0.000 A 
ENDBRANCH  67  80
ENDBRANCH  41  42
ENDBRANCH  34  36
ENDBRANCH  33  34
ENDBRANCH  32  33
ENDBRANCH  31  32
ENDBRANCH  30  31
ENDBRANCH  29  30
ENDBRANCH  28  29
ENDBRANCH   1  28
TORSDOF 24
