REMARK SMILES COc1ccc(N2C(=O)/C(=C/c3c(C(=O)OCCOCCOCCOCCOC(=O)c4ccc(-c5c6nc(c(-c7ccccc7)c7ccc([nH]7)c(-c7ccccc7)c7nc(c(-c8ccccc8)c8ccc5[nH]8)C=C7)C=C6)cc4)[nH]c4cc(OC)ccc34)SC2=S)cc1
REMARK SMILES IDX 21 1 20 2 19 3 18 4 17 5 16 6 14 7 15 8 13 9 12 10 87 11
REMARK SMILES IDX 79 12 80 13 86 14 81 16 85 17 82 18 11 19 7 20 8 21 89 22
REMARK SMILES IDX 9 23 10 24 88 25 90 26 6 27 3 28 4 29 92 30 5 31 91 32 2 33
REMARK SMILES IDX 1 34 83 35 84 36 22 37 23 38 24 39 25 40 26 41 27 42 28 43
REMARK SMILES IDX 29 44 30 45 31 46 32 47 78 48 33 49 77 50 34 51 35 52 36 53
REMARK SMILES IDX 71 54 37 55 76 56 70 57 72 58 38 59 75 60 69 61 68 62 39 64
REMARK SMILES IDX 61 65 46 66 60 67 47 68 50 69 59 70 73 71 48 72 49 73 58 75
REMARK SMILES IDX 74 76 51 77 40 78 41 79 45 80 42 81 44 82 43 83 62 84 63 85
REMARK SMILES IDX 67 86 64 87 66 88 65 89 52 90 53 91 57 92 54 93 56 94 55 95
REMARK H PARENT 79 15 72 63 50 74
REMARK Flexibility Score: inf
ROOT
ATOM      1  C   UNL     1       2.213  -8.224   7.919  1.00  0.00     0.188 C 
ENDROOT
BRANCH   1   2
ATOM      2  C   UNL     1       3.569  -8.071   7.236  1.00  0.00     0.188 C 
BRANCH   2   3
ATOM      3  O   UNL     1       4.504  -7.281   7.977  1.00  0.00    -0.376 OA
BRANCH   3   4
ATOM      4  C   UNL     1       5.122  -6.209   7.259  1.00  0.00     0.202 C 
BRANCH   4   5
ATOM      5  C   UNL     1       6.104  -6.620   6.158  1.00  0.00     0.261 C 
BRANCH   5   6
ATOM      6  O   UNL     1       5.460  -7.517   5.241  1.00  0.00    -0.459 OA
BRANCH   6   7
ATOM      7  C   UNL     1       6.134  -8.674   5.021  1.00  0.00     0.355 C 
ATOM      8  O   UNL     1       7.344  -8.815   5.173  1.00  0.00    -0.244 OA
BRANCH   7   9
ATOM      9  C   UNL     1       5.221  -9.783   4.860  1.00  0.00     0.133 A 
ATOM     10  C   UNL     1       3.932  -9.976   4.356  1.00  0.00     0.016 A 
ATOM     11  C   UNL     1       3.530 -11.318   4.715  1.00  0.00     0.008 A 
ATOM     12  N   UNL     1       5.586 -10.967   5.465  1.00  0.00    -0.348 N 
ATOM     13  C   UNL     1       4.537 -11.839   5.525  1.00  0.00     0.050 A 
ATOM     14  C   UNL     1       2.374 -12.109   4.521  1.00  0.00     0.015 A 
ATOM     15  H   UNL     1       6.488 -11.160   5.809  1.00  0.00     0.167 HD
ATOM     16  C   UNL     1       4.407 -13.023   6.257  1.00  0.00     0.073 A 
ATOM     17  C   UNL     1       2.243 -13.331   5.205  1.00  0.00     0.047 A 
ATOM     18  C   UNL     1       3.235 -13.754   6.084  1.00  0.00     0.120 A 
BRANCH  10  19
ATOM     19  C   UNL     1       3.038  -8.979   3.819  1.00  0.00     0.032 C 
ATOM     20  N   UNL     1       3.002  -5.725   2.248  1.00  0.00    -0.261 N 
ATOM     21  C   UNL     1       2.330  -6.818   2.799  1.00  0.00     0.270 C 
ATOM     22  C   UNL     1       4.360  -5.919   2.017  1.00  0.00     0.152 C 
ATOM     23  O   UNL     1       1.151  -6.891   3.120  1.00  0.00    -0.268 OA
ATOM     24  C   UNL     1       3.293  -7.954   2.991  1.00  0.00     0.081 C 
ATOM     25  S   UNL     1       4.744  -7.629   2.141  1.00  0.00    -0.054 SA
ATOM     26  S   UNL     1       5.585  -4.795   1.803  1.00  0.00    -0.051 S 
BRANCH  20  27
ATOM     27  C   UNL     1       2.344  -4.477   2.003  1.00  0.00     0.051 A 
ATOM     28  C   UNL     1       1.276  -1.891   1.558  1.00  0.00     0.119 A 
ATOM     29  C   UNL     1       0.949  -2.616   2.707  1.00  0.00     0.048 A 
ATOM     30  C   UNL     1       2.091  -2.484   0.603  1.00  0.00     0.048 A 
ATOM     31  C   UNL     1       1.455  -3.909   2.921  1.00  0.00     0.030 A 
ATOM     32  C   UNL     1       2.615  -3.762   0.825  1.00  0.00     0.030 A 
BRANCH  28  33
ATOM     33  O   UNL     1       0.730  -0.641   1.471  1.00  0.00    -0.497 OA
ATOM     34  C   UNL     1       1.290   0.230   0.494  1.00  0.00     0.278 C 
ENDBRANCH  28  33
ENDBRANCH  20  27
ENDBRANCH  10  19
BRANCH  18  35
ATOM     35  O   UNL     1       3.034 -14.836   6.897  1.00  0.00    -0.497 OA
ATOM     36  C   UNL     1       3.344 -16.053   6.224  1.00  0.00     0.278 C 
ENDBRANCH  18  35
ENDBRANCH   7   9
ENDBRANCH   6   7
ENDBRANCH   5   6
ENDBRANCH   4   5
ENDBRANCH   3   4
ENDBRANCH   2   3
ENDBRANCH   1   2
BRANCH   1  37
ATOM     37  O   UNL     1       1.214  -7.278   7.522  1.00  0.00    -0.377 OA
BRANCH  37  38
ATOM     38  C   UNL     1       1.593  -5.910   7.456  1.00  0.00     0.188 C 
BRANCH  38  39
ATOM     39  C   UNL     1       2.038  -5.224   8.759  1.00  0.00     0.188 C 
BRANCH  39  40
ATOM     40  O   UNL     1       2.329  -6.109   9.829  1.00  0.00    -0.376 OA
BRANCH  40  41
ATOM     41  C   UNL     1       1.349  -6.155  10.866  1.00  0.00     0.202 C 
BRANCH  41  42
ATOM     42  C   UNL     1       0.023  -6.837  10.490  1.00  0.00     0.261 C 
BRANCH  42  43
ATOM     43  O   UNL     1      -0.739  -6.160   9.477  1.00  0.00    -0.460 OA
BRANCH  43  44
ATOM     44  C   UNL     1      -1.187  -4.923   9.775  1.00  0.00     0.338 C 
ATOM     45  O   UNL     1      -1.051  -4.313  10.819  1.00  0.00    -0.246 OA
BRANCH  44  46
ATOM     46  C   UNL     1      -1.736  -4.338   8.541  1.00  0.00     0.060 A 
ATOM     47  C   UNL     1      -1.163  -3.162   8.043  1.00  0.00     0.016 A 
ATOM     48  C   UNL     1      -2.819  -4.938   7.892  1.00  0.00     0.016 A 
ATOM     49  C   UNL     1      -1.689  -2.571   6.896  1.00  0.00     0.010 A 
ATOM     50  C   UNL     1      -3.366  -4.326   6.763  1.00  0.00     0.010 A 
ATOM     51  C   UNL     1      -2.817  -3.131   6.276  1.00  0.00    -0.014 A 
BRANCH  51  52
ATOM     52  C   UNL     1      -3.507  -2.374   5.208  1.00  0.00     0.031 A 
ATOM     53  C   UNL     1      -4.480  -1.302   5.602  1.00  0.00     0.074 A 
ATOM     54  C   UNL     1      -3.253  -2.624   3.913  1.00  0.00     0.049 A 
ATOM     55  N   UNL     1      -5.157  -0.479   4.844  1.00  0.00    -0.248 NA
ATOM     56  C   UNL     1      -4.733  -1.147   7.044  1.00  0.00     0.031 C 
ATOM     57  C   UNL     1      -2.321  -3.634   3.420  1.00  0.00     0.029 A 
ATOM     58  N   UNL     1      -3.722  -2.012   2.778  1.00  0.00    -0.354 N 
ATOM     59  C   UNL     1      -5.955   0.254   5.712  1.00  0.00     0.074 A 
ATOM     60  C   UNL     1      -5.649  -0.190   7.054  1.00  0.00     0.031 C 
ATOM     61  C   UNL     1      -2.214  -3.509   2.086  1.00  0.00     0.029 A 
ATOM     62  C   UNL     1      -3.093  -2.436   1.631  1.00  0.00     0.049 A 
ATOM     63  H   UNL     1      -4.437  -1.336   2.785  1.00  0.00     0.167 HD
ATOM     64  C   UNL     1      -6.893   1.182   5.412  1.00  0.00     0.031 A 
ATOM     65  C   UNL     1      -3.199  -1.980   0.368  1.00  0.00     0.031 A 
ATOM     66  C   UNL     1      -7.217   1.601   4.077  1.00  0.00     0.049 A 
ATOM     67  C   UNL     1      -4.207  -0.902   0.068  1.00  0.00     0.074 A 
ATOM     68  C   UNL     1      -8.184   2.499   3.663  1.00  0.00     0.029 A 
ATOM     69  N   UNL     1      -6.580   1.139   2.936  1.00  0.00    -0.354 N 
ATOM     70  N   UNL     1      -4.955  -0.212   0.894  1.00  0.00    -0.248 NA
ATOM     71  C   UNL     1      -4.411  -0.569  -1.351  1.00  0.00     0.031 C 
ATOM     72  C   UNL     1      -8.159   2.550   2.264  1.00  0.00     0.029 A 
ATOM     73  C   UNL     1      -7.150   1.713   1.814  1.00  0.00     0.049 A 
ATOM     74  H   UNL     1      -5.833   0.498   2.926  1.00  0.00     0.167 HD
ATOM     75  C   UNL     1      -5.739   0.612   0.097  1.00  0.00     0.074 A 
ATOM     76  C   UNL     1      -5.329   0.384  -1.274  1.00  0.00     0.031 C 
ATOM     77  C   UNL     1      -6.736   1.454   0.461  1.00  0.00     0.031 A 
BRANCH  64  78
ATOM     78  C   UNL     1      -7.700   1.719   6.556  1.00  0.00    -0.014 A 
ATOM     79  C   UNL     1      -7.180   2.673   7.442  1.00  0.00     0.009 A 
ATOM     80  C   UNL     1      -9.002   1.235   6.759  1.00  0.00     0.009 A 
ATOM     81  C   UNL     1      -7.940   3.109   8.530  1.00  0.00     0.001 A 
ATOM     82  C   UNL     1      -9.766   1.686   7.835  1.00  0.00     0.001 A 
ATOM     83  C   UNL     1      -9.231   2.616   8.725  1.00  0.00     0.000 A 
ENDBRANCH  64  78
BRANCH  65  84
ATOM     84  C   UNL     1      -2.309  -2.498  -0.707  1.00  0.00    -0.014 A 
ATOM     85  C   UNL     1      -1.373  -1.638  -1.303  1.00  0.00     0.009 A 
ATOM     86  C   UNL     1      -2.380  -3.825  -1.154  1.00  0.00     0.009 A 
ATOM     87  C   UNL     1      -0.532  -2.089  -2.322  1.00  0.00     0.001 A 
ATOM     88  C   UNL     1      -1.518  -4.283  -2.155  1.00  0.00     0.001 A 
ATOM     89  C   UNL     1      -0.598  -3.415  -2.741  1.00  0.00     0.000 A 
ENDBRANCH  65  84
BRANCH  77  90
ATOM     90  C   UNL     1      -7.482   2.143  -0.644  1.00  0.00    -0.014 A 
ATOM     91  C   UNL     1      -8.415   1.433  -1.417  1.00  0.00     0.009 A 
ATOM     92  C   UNL     1      -7.296   3.511  -0.883  1.00  0.00     0.009 A 
ATOM     93  C   UNL     1      -9.129   2.076  -2.428  1.00  0.00     0.001 A 
ATOM     94  C   UNL     1      -8.027   4.157  -1.881  1.00  0.00     0.001 A 
ATOM     95  C   UNL     1      -8.938   3.438  -2.656  1.00  0.00     0.000 A 
ENDBRANCH  77  90
ENDBRANCH  51  52
ENDBRANCH  44  46
ENDBRANCH  43  44
ENDBRANCH  42  43
ENDBRANCH  41  42
ENDBRANCH  40  41
ENDBRANCH  39  40
ENDBRANCH  38  39
ENDBRANCH  37  38
ENDBRANCH   1  37
TORSDOF 24
