REMARK SMILES O=C(OCCOCCOCCOCCOC(=O)c1ccc(F)cc1-c1ccc(F)c(Cl)c1)c1ccc(-c2c3nc(c(-c4ccccc4)c4ccc([nH]4)c(-c4ccccc4)c4nc(c(-c5ccccc5)c5ccc2[nH]5)C=C4)C=C3)cc1
REMARK SMILES IDX 8 1 7 2 6 3 5 4 4 5 3 6 2 7 1 8 33 9 34 10 80 11 35 12 79 13
REMARK SMILES IDX 36 14 37 15 38 16 73 17 39 18 78 19 72 20 74 21 40 22 77 23
REMARK SMILES IDX 71 24 70 25 41 27 63 28 48 29 62 30 49 31 52 32 61 33 75 34
REMARK SMILES IDX 50 35 51 36 60 38 76 39 53 40 42 41 43 42 47 43 44 44 46 45
REMARK SMILES IDX 45 46 64 47 65 48 69 49 66 50 68 51 67 52 54 53 55 54 59 55
REMARK SMILES IDX 56 56 58 57 57 58 9 59 10 60 11 61 12 62 13 63 14 64 15 65
REMARK SMILES IDX 16 66 17 67 18 68 19 69 24 70 20 71 23 72 21 73 22 74 25 75
REMARK SMILES IDX 26 76 32 77 27 78 30 79 28 80 31 81 29 82
REMARK H PARENT 74 26 52 37
REMARK Flexibility Score: inf
ROOT
ATOM      1  C   UNL     1       1.551  -0.182   2.804  1.00  0.00     0.188 C 
ENDROOT
BRANCH   1   2
ATOM      2  C   UNL     1       1.964   0.615   1.562  1.00  0.00     0.188 C 
BRANCH   2   3
ATOM      3  O   UNL     1       3.249   0.166   1.167  1.00  0.00    -0.376 OA
BRANCH   3   4
ATOM      4  C   UNL     1       4.134   1.009   0.459  1.00  0.00     0.202 C 
BRANCH   4   5
ATOM      5  C   UNL     1       3.694   1.421  -0.939  1.00  0.00     0.261 C 
BRANCH   5   6
ATOM      6  O   UNL     1       2.334   1.083  -1.256  1.00  0.00    -0.460 OA
BRANCH   6   7
ATOM      7  C   UNL     1       1.861  -0.100  -1.718  1.00  0.00     0.338 C 
ATOM      8  O   UNL     1       0.676  -0.211  -2.020  1.00  0.00    -0.246 OA
BRANCH   7   9
ATOM      9  C   UNL     1       2.748  -1.267  -1.929  1.00  0.00     0.060 A 
ATOM     10  C   UNL     1       3.576  -1.786  -0.940  1.00  0.00     0.016 A 
ATOM     11  C   UNL     1       2.631  -1.972  -3.127  1.00  0.00     0.016 A 
ATOM     12  C   UNL     1       4.431  -2.841  -1.182  1.00  0.00     0.010 A 
ATOM     13  C   UNL     1       3.369  -3.144  -3.321  1.00  0.00     0.010 A 
ATOM     14  C   UNL     1       4.299  -3.564  -2.357  1.00  0.00    -0.014 A 
BRANCH  14  15
ATOM     15  C   UNL     1       5.176  -4.731  -2.568  1.00  0.00     0.031 A 
ATOM     16  C   UNL     1       6.099  -4.710  -3.745  1.00  0.00     0.074 A 
ATOM     17  C   UNL     1       5.185  -5.744  -1.679  1.00  0.00     0.049 A 
ATOM     18  N   UNL     1       6.793  -5.683  -4.264  1.00  0.00    -0.248 NA
ATOM     19  C   UNL     1       6.246  -3.421  -4.446  1.00  0.00     0.031 C 
ATOM     20  C   UNL     1       4.413  -5.797  -0.429  1.00  0.00     0.029 A 
ATOM     21  N   UNL     1       5.885  -6.921  -1.674  1.00  0.00    -0.354 N 
ATOM     22  C   UNL     1       7.394  -5.145  -5.394  1.00  0.00     0.074 A 
ATOM     23  C   UNL     1       6.998  -3.760  -5.481  1.00  0.00     0.031 C 
ATOM     24  C   UNL     1       4.717  -6.922   0.235  1.00  0.00     0.029 A 
ATOM     25  C   UNL     1       5.598  -7.726  -0.596  1.00  0.00     0.049 A 
ATOM     26  H   UNL     1       6.532  -7.168  -2.375  1.00  0.00     0.167 HD
ATOM     27  C   UNL     1       8.189  -5.777  -6.285  1.00  0.00     0.031 A 
ATOM     28  C   UNL     1       5.952  -9.001  -0.351  1.00  0.00     0.031 A 
ATOM     29  C   UNL     1       8.582  -7.150  -6.140  1.00  0.00     0.049 A 
ATOM     30  C   UNL     1       6.771  -9.701  -1.399  1.00  0.00     0.074 A 
ATOM     31  C   UNL     1       9.359  -7.922  -6.981  1.00  0.00     0.029 A 
ATOM     32  N   UNL     1       8.229  -7.951  -5.061  1.00  0.00    -0.354 N 
ATOM     33  N   UNL     1       7.275  -9.218  -2.511  1.00  0.00    -0.248 NA
ATOM     34  C   UNL     1       7.046 -11.124  -1.178  1.00  0.00     0.031 C 
ATOM     35  C   UNL     1       9.429  -9.209  -6.438  1.00  0.00     0.029 A 
ATOM     36  C   UNL     1       8.749  -9.219  -5.228  1.00  0.00     0.049 A 
ATOM     37  H   UNL     1       7.687  -7.659  -4.293  1.00  0.00     0.167 HD
ATOM     38  C   UNL     1       7.936 -10.274  -3.118  1.00  0.00     0.074 A 
ATOM     39  C   UNL     1       7.796 -11.414  -2.232  1.00  0.00     0.031 C 
ATOM     40  C   UNL     1       8.587 -10.314  -4.306  1.00  0.00     0.031 A 
BRANCH  27  41
ATOM     41  C   UNL     1       8.595  -5.017  -7.513  1.00  0.00    -0.014 A 
ATOM     42  C   UNL     1       9.530  -3.972  -7.469  1.00  0.00     0.009 A 
ATOM     43  C   UNL     1       8.017  -5.360  -8.746  1.00  0.00     0.009 A 
ATOM     44  C   UNL     1       9.857  -3.269  -8.632  1.00  0.00     0.001 A 
ATOM     45  C   UNL     1       8.365  -4.675  -9.910  1.00  0.00     0.001 A 
ATOM     46  C   UNL     1       9.279  -3.624  -9.851  1.00  0.00     0.000 A 
ENDBRANCH  27  41
BRANCH  28  47
ATOM     47  C   UNL     1       5.445  -9.724   0.850  1.00  0.00    -0.014 A 
ATOM     48  C   UNL     1       6.328 -10.236   1.813  1.00  0.00     0.009 A 
ATOM     49  C   UNL     1       4.068  -9.948   1.019  1.00  0.00     0.009 A 
ATOM     50  C   UNL     1       5.848 -10.986   2.891  1.00  0.00     0.001 A 
ATOM     51  C   UNL     1       3.586 -10.663   2.118  1.00  0.00     0.001 A 
ATOM     52  C   UNL     1       4.478 -11.196   3.045  1.00  0.00     0.000 A 
ENDBRANCH  28  47
BRANCH  40  53
ATOM     53  C   UNL     1       9.222 -11.620  -4.678  1.00  0.00    -0.014 A 
ATOM     54  C   UNL     1       8.445 -12.715  -5.084  1.00  0.00     0.009 A 
ATOM     55  C   UNL     1      10.620 -11.733  -4.665  1.00  0.00     0.009 A 
ATOM     56  C   UNL     1       9.060 -13.914  -5.441  1.00  0.00     0.001 A 
ATOM     57  C   UNL     1      11.232 -12.922  -5.057  1.00  0.00     0.001 A 
ATOM     58  C   UNL     1      10.451 -14.013  -5.435  1.00  0.00     0.000 A 
ENDBRANCH  40  53
ENDBRANCH  14  15
ENDBRANCH   7   9
ENDBRANCH   6   7
ENDBRANCH   5   6
ENDBRANCH   4   5
ENDBRANCH   3   4
ENDBRANCH   2   3
ENDBRANCH   1   2
BRANCH   1  59
ATOM     59  O   UNL     1       2.310   0.117   3.974  1.00  0.00    -0.377 OA
BRANCH  59  60
ATOM     60  C   UNL     1       3.724   0.153   3.813  1.00  0.00     0.188 C 
BRANCH  60  61
ATOM     61  C   UNL     1       4.453  -1.126   3.329  1.00  0.00     0.188 C 
BRANCH  61  62
ATOM     62  O   UNL     1       3.626  -2.274   3.221  1.00  0.00    -0.376 OA
BRANCH  62  63
ATOM     63  C   UNL     1       3.776  -3.207   4.288  1.00  0.00     0.202 C 
BRANCH  63  64
ATOM     64  C   UNL     1       3.268  -2.710   5.646  1.00  0.00     0.261 C 
BRANCH  64  65
ATOM     65  O   UNL     1       3.909  -1.533   6.188  1.00  0.00    -0.460 OA
BRANCH  65  66
ATOM     66  C   UNL     1       5.246  -1.478   6.393  1.00  0.00     0.338 C 
ATOM     67  O   UNL     1       6.054  -2.371   6.211  1.00  0.00    -0.246 OA
BRANCH  66  68
ATOM     68  C   UNL     1       5.569  -0.078   6.805  1.00  0.00     0.068 A 
ATOM     69  C   UNL     1       4.775   0.451   7.848  1.00  0.00     0.019 A 
ATOM     70  C   UNL     1       6.508   0.754   6.138  1.00  0.00    -0.001 A 
ATOM     71  C   UNL     1       4.918   1.775   8.257  1.00  0.00     0.040 A 
ATOM     72  C   UNL     1       6.665   2.074   6.622  1.00  0.00     0.048 A 
ATOM     73  C   UNL     1       5.877   2.568   7.654  1.00  0.00     0.123 A 
ATOM     74  F   UNL     1       6.021   3.843   8.036  1.00  0.00    -0.207 F 
BRANCH  70  75
ATOM     75  C   UNL     1       7.223   0.443   4.877  1.00  0.00    -0.016 A 
ATOM     76  C   UNL     1       6.944   1.213   3.720  1.00  0.00     0.012 A 
ATOM     77  C   UNL     1       8.240  -0.516   4.790  1.00  0.00     0.032 A 
ATOM     78  C   UNL     1       7.628   1.017   2.520  1.00  0.00     0.041 A 
ATOM     79  C   UNL     1       8.945  -0.697   3.590  1.00  0.00     0.077 A 
ATOM     80  C   UNL     1       8.632   0.063   2.463  1.00  0.00     0.141 A 
ATOM     81  Cl  UNL     1      10.231  -1.841   3.526  1.00  0.00    -0.081 Cl
ATOM     82  F   UNL     1       9.297  -0.097   1.310  1.00  0.00    -0.205 F 
ENDBRANCH  70  75
ENDBRANCH  66  68
ENDBRANCH  65  66
ENDBRANCH  64  65
ENDBRANCH  63  64
ENDBRANCH  62  63
ENDBRANCH  61  62
ENDBRANCH  60  61
ENDBRANCH  59  60
ENDBRANCH   1  59
TORSDOF 21
