REMARK SMILES O=C(OCCOCCOCCOCCOC(=O)[C@@]1([C@H]2CCO[C@@]3(CCOC3)C2)CCOC1)c1ccc(-c2c3nc(c(-c4ccccc4)c4ccc([nH]4)c(-c4ccccc4)c4nc(c(-c5ccccc5)c5ccc2[nH]5)C=C4)C=C3)cc1
REMARK SMILES IDX 8 1 7 2 6 3 5 4 4 5 3 6 2 7 1 8 33 9 34 10 80 11 35 12 79 13
REMARK SMILES IDX 36 14 37 15 38 16 73 17 39 18 78 19 72 20 74 21 40 22 77 23
REMARK SMILES IDX 71 24 70 25 41 27 63 28 48 29 62 30 49 31 52 32 61 33 75 34
REMARK SMILES IDX 50 35 51 36 60 38 76 39 53 40 42 41 43 42 47 43 44 44 46 45
REMARK SMILES IDX 45 46 64 47 65 48 69 49 66 50 68 51 67 52 54 53 55 54 59 55
REMARK SMILES IDX 56 56 58 57 57 58 9 59 10 60 11 61 12 62 13 63 14 64 15 65
REMARK SMILES IDX 16 66 17 67 18 68 29 69 32 70 30 71 31 72 19 73 20 74 28 75
REMARK SMILES IDX 21 76 23 77 22 78 24 79 27 80 25 81 26 82
REMARK H PARENT 74 26 52 37
REMARK Flexibility Score: inf
ROOT
ATOM      1  C   UNL     1       3.529  -1.259  -0.122  1.00  0.00     0.188 C 
ENDROOT
BRANCH   1   2
ATOM      2  C   UNL     1       2.062  -1.191   0.276  1.00  0.00     0.188 C 
BRANCH   2   3
ATOM      3  O   UNL     1       1.737  -2.234   1.203  1.00  0.00    -0.376 OA
BRANCH   3   4
ATOM      4  C   UNL     1       0.552  -2.973   0.901  1.00  0.00     0.202 C 
BRANCH   4   5
ATOM      5  C   UNL     1      -0.756  -2.274   1.252  1.00  0.00     0.261 C 
BRANCH   5   6
ATOM      6  O   UNL     1      -0.692  -0.847   1.159  1.00  0.00    -0.460 OA
BRANCH   6   7
ATOM      7  C   UNL     1      -0.231   0.052   2.062  1.00  0.00     0.338 C 
ATOM      8  O   UNL     1      -0.373   1.245   1.792  1.00  0.00    -0.246 OA
BRANCH   7   9
ATOM      9  C   UNL     1       0.503  -0.287   3.331  1.00  0.00     0.060 A 
ATOM     10  C   UNL     1       0.881  -1.563   3.760  1.00  0.00     0.016 A 
ATOM     11  C   UNL     1       0.872   0.802   4.145  1.00  0.00     0.016 A 
ATOM     12  C   UNL     1       1.619  -1.768   4.917  1.00  0.00     0.010 A 
ATOM     13  C   UNL     1       1.534   0.607   5.358  1.00  0.00     0.010 A 
ATOM     14  C   UNL     1       1.873  -0.690   5.752  1.00  0.00    -0.014 A 
BRANCH  14  15
ATOM     15  C   UNL     1       2.130  -1.000   7.162  1.00  0.00     0.031 A 
ATOM     16  C   UNL     1       0.922  -1.155   8.036  1.00  0.00     0.074 A 
ATOM     17  C   UNL     1       3.370  -1.255   7.600  1.00  0.00     0.049 A 
ATOM     18  N   UNL     1       0.842  -1.304   9.328  1.00  0.00    -0.248 NA
ATOM     19  C   UNL     1      -0.383  -1.157   7.345  1.00  0.00     0.031 C 
ATOM     20  C   UNL     1       4.569  -1.311   6.764  1.00  0.00     0.029 A 
ATOM     21  N   UNL     1       3.819  -1.522   8.863  1.00  0.00    -0.354 N 
ATOM     22  C   UNL     1      -0.518  -1.372   9.604  1.00  0.00     0.074 A 
ATOM     23  C   UNL     1      -1.229  -1.279   8.355  1.00  0.00     0.031 C 
ATOM     24  C   UNL     1       5.629  -1.570   7.549  1.00  0.00     0.029 A 
ATOM     25  C   UNL     1       5.184  -1.626   8.938  1.00  0.00     0.049 A 
ATOM     26  H   UNL     1       3.223  -1.629   9.639  1.00  0.00     0.167 HD
ATOM     27  C   UNL     1      -1.117  -1.462  10.813  1.00  0.00     0.031 A 
ATOM     28  C   UNL     1       5.972  -1.691  10.027  1.00  0.00     0.031 A 
ATOM     29  C   UNL     1      -0.368  -1.496  12.034  1.00  0.00     0.049 A 
ATOM     30  C   UNL     1       5.301  -1.664  11.375  1.00  0.00     0.074 A 
ATOM     31  C   UNL     1      -0.822  -1.488  13.336  1.00  0.00     0.029 A 
ATOM     32  N   UNL     1       1.022  -1.535  12.083  1.00  0.00    -0.354 N 
ATOM     33  N   UNL     1       4.016  -1.628  11.654  1.00  0.00    -0.248 NA
ATOM     34  C   UNL     1       6.174  -1.668  12.554  1.00  0.00     0.031 C 
ATOM     35  C   UNL     1       0.298  -1.470  14.175  1.00  0.00     0.029 A 
ATOM     36  C   UNL     1       1.447  -1.533  13.395  1.00  0.00     0.049 A 
ATOM     37  H   UNL     1       1.614  -1.560  11.298  1.00  0.00     0.167 HD
ATOM     38  C   UNL     1       3.924  -1.623  13.039  1.00  0.00     0.074 A 
ATOM     39  C   UNL     1       5.285  -1.667  13.540  1.00  0.00     0.031 C 
ATOM     40  C   UNL     1       2.821  -1.588  13.829  1.00  0.00     0.031 A 
BRANCH  27  41
ATOM     41  C   UNL     1      -2.616  -1.380  10.826  1.00  0.00    -0.014 A 
ATOM     42  C   UNL     1      -3.422  -2.418  10.330  1.00  0.00     0.009 A 
ATOM     43  C   UNL     1      -3.229  -0.189  11.245  1.00  0.00     0.009 A 
ATOM     44  C   UNL     1      -4.803  -2.241  10.200  1.00  0.00     0.001 A 
ATOM     45  C   UNL     1      -4.612  -0.026  11.141  1.00  0.00     0.001 A 
ATOM     46  C   UNL     1      -5.396  -1.045  10.603  1.00  0.00     0.000 A 
ENDBRANCH  27  41
BRANCH  28  47
ATOM     47  C   UNL     1       7.450  -1.694   9.870  1.00  0.00    -0.014 A 
ATOM     48  C   UNL     1       8.213  -2.826  10.185  1.00  0.00     0.009 A 
ATOM     49  C   UNL     1       8.105  -0.564   9.348  1.00  0.00     0.009 A 
ATOM     50  C   UNL     1       9.598  -2.826   9.982  1.00  0.00     0.001 A 
ATOM     51  C   UNL     1       9.483  -0.576   9.120  1.00  0.00     0.001 A 
ATOM     52  C   UNL     1      10.229  -1.707   9.441  1.00  0.00     0.000 A 
ENDBRANCH  28  47
BRANCH  40  53
ATOM     53  C   UNL     1       3.043  -1.647  15.310  1.00  0.00    -0.014 A 
ATOM     54  C   UNL     1       3.462  -0.519  16.028  1.00  0.00     0.009 A 
ATOM     55  C   UNL     1       2.716  -2.825  16.001  1.00  0.00     0.009 A 
ATOM     56  C   UNL     1       3.562  -0.575  17.418  1.00  0.00     0.001 A 
ATOM     57  C   UNL     1       2.792  -2.868  17.391  1.00  0.00     0.001 A 
ATOM     58  C   UNL     1       3.218  -1.744  18.098  1.00  0.00     0.000 A 
ENDBRANCH  40  53
ENDBRANCH  14  15
ENDBRANCH   7   9
ENDBRANCH   6   7
ENDBRANCH   5   6
ENDBRANCH   4   5
ENDBRANCH   3   4
ENDBRANCH   2   3
ENDBRANCH   1   2
BRANCH   1  59
ATOM     59  O   UNL     1       3.845  -2.409  -0.890  1.00  0.00    -0.377 OA
BRANCH  59  60
ATOM     60  C   UNL     1       3.500  -3.662  -0.318  1.00  0.00     0.188 C 
BRANCH  60  61
ATOM     61  C   UNL     1       4.136  -4.081   1.001  1.00  0.00     0.188 C 
BRANCH  61  62
ATOM     62  O   UNL     1       5.153  -3.193   1.429  1.00  0.00    -0.376 OA
BRANCH  62  63
ATOM     63  C   UNL     1       6.469  -3.560   1.037  1.00  0.00     0.202 C 
BRANCH  63  64
ATOM     64  C   UNL     1       6.842  -3.386  -0.452  1.00  0.00     0.261 C 
BRANCH  64  65
ATOM     65  O   UNL     1       6.026  -4.045  -1.454  1.00  0.00    -0.463 OA
BRANCH  65  66
ATOM     66  C   UNL     1       5.955  -5.393  -1.453  1.00  0.00     0.314 C 
ATOM     67  O   UNL     1       6.585  -6.080  -0.655  1.00  0.00    -0.252 OA
BRANCH  66  68
ATOM     68  C   UNL     1       4.954  -5.992  -2.486  1.00  0.00     0.096 C 
ATOM     69  C   UNL     1       5.742  -7.122  -3.196  1.00  0.00     0.050 C 
ATOM     70  C   UNL     1       3.918  -6.846  -1.743  1.00  0.00     0.179 C 
ATOM     71  C   UNL     1       4.705  -8.190  -3.473  1.00  0.00     0.161 C 
ATOM     72  O   UNL     1       3.632  -7.995  -2.549  1.00  0.00    -0.380 OA
BRANCH  68  73
ATOM     73  C   UNL     1       4.274  -5.125  -3.627  1.00  0.00     0.014 C 
ATOM     74  C   UNL     1       2.932  -4.359  -3.521  1.00  0.00     0.033 C 
ATOM     75  C   UNL     1       5.255  -4.186  -4.308  1.00  0.00     0.043 C 
ATOM     76  C   UNL     1       2.520  -3.674  -4.854  1.00  0.00     0.161 C 
ATOM     77  C   UNL     1       4.736  -3.861  -5.718  1.00  0.00     0.094 C 
ATOM     78  O   UNL     1       3.592  -3.027  -5.561  1.00  0.00    -0.372 OA
ATOM     79  C   UNL     1       5.876  -3.237  -6.509  1.00  0.00     0.066 C 
ATOM     80  C   UNL     1       4.477  -5.053  -6.653  1.00  0.00     0.195 C 
ATOM     81  C   UNL     1       6.692  -4.474  -6.886  1.00  0.00     0.163 C 
ATOM     82  O   UNL     1       5.769  -5.577  -6.978  1.00  0.00    -0.378 OA
ENDBRANCH  68  73
ENDBRANCH  66  68
ENDBRANCH  65  66
ENDBRANCH  64  65
ENDBRANCH  63  64
ENDBRANCH  62  63
ENDBRANCH  61  62
ENDBRANCH  60  61
ENDBRANCH  59  60
ENDBRANCH   1  59
TORSDOF 21
