REMARK SMILES Cc1ccc(OCC(=O)NC(=S)Nc2ccc(C(=O)OCCOCCOCCOCCOC(=O)c3ccc(-c4c5nc(c(-c6ccccc6)c6ccc([nH]6)c(-c6ccccc6)c6nc(c(-c7ccccc7)c7ccc4[nH]7)C=C6)C=C5)cc3)cc2)cc1
REMARK SMILES IDX 24 1 23 2 22 3 21 4 20 5 18 6 19 7 17 8 14 9 15 10 84 11
REMARK SMILES IDX 16 12 83 13 13 14 11 16 12 17 10 18 8 19 9 20 7 22 6 23 5 24
REMARK SMILES IDX 1 25 2 26 3 27 86 28 4 29 85 30 25 31 26 32 27 33 28 34
REMARK SMILES IDX 29 35 30 36 31 37 32 38 33 39 34 40 35 41 36 42 82 43 37 44
REMARK SMILES IDX 81 45 38 46 39 47 40 48 75 49 41 50 80 51 74 52 76 53 42 54
REMARK SMILES IDX 79 55 73 56 72 57 43 59 65 60 50 61 64 62 51 63 54 64 63 65
REMARK SMILES IDX 77 66 52 67 53 68 62 70 78 71 55 72 44 73 45 74 49 75 46 76
REMARK SMILES IDX 48 77 47 78 66 79 67 80 71 81 68 82 70 83 69 84 56 85 57 86
REMARK SMILES IDX 61 87 58 88 60 89 59 90
REMARK H PARENT 13 15 10 21 76 58 54 69
REMARK Flexibility Score: inf
ROOT
ATOM      1  C   UNL     1      -1.499   0.366  -5.345  1.00  0.00     0.188 C 
ENDROOT
BRANCH   1   2
ATOM      2  O   UNL     1      -1.125   1.837  -5.278  1.00  0.00    -0.376 OA
BRANCH   2   3
ATOM      3  C   UNL     1      -1.912   3.214  -5.391  1.00  0.00     0.202 C 
BRANCH   3   4
ATOM      4  C   UNL     1      -3.501   4.040  -5.018  1.00  0.00     0.261 C 
BRANCH   4   5
ATOM      5  O   UNL     1      -5.106   3.601  -4.277  1.00  0.00    -0.460 OA
BRANCH   5   6
ATOM      6  C   UNL     1      -6.224   2.534  -4.051  1.00  0.00     0.338 C 
ATOM      7  O   UNL     1      -7.281   2.526  -4.691  1.00  0.00    -0.246 OA
BRANCH   6   8
ATOM      8  C   UNL     1      -6.338   1.490  -2.859  1.00  0.00     0.060 A 
ATOM      9  C   UNL     1      -6.101   0.077  -0.375  1.00  0.00     0.040 A 
ATOM     10  C   UNL     1      -5.427  -0.362  -1.514  1.00  0.00     0.027 A 
ATOM     11  C   UNL     1      -7.018   1.121  -0.515  1.00  0.00     0.027 A 
ATOM     12  C   UNL     1      -5.583   0.298  -2.751  1.00  0.00     0.018 A 
ATOM     13  C   UNL     1      -7.144   1.812  -1.751  1.00  0.00     0.018 A 
BRANCH   9  14
ATOM     14  N   UNL     1      -5.881  -0.655   0.812  1.00  0.00    -0.332 N 
ATOM     15  H   UNL     1      -5.644  -1.597   0.657  1.00  0.00     0.169 HD
BRANCH  14  16
ATOM     16  C   UNL     1      -5.933  -0.315   2.117  1.00  0.00     0.177 C 
ATOM     17  S   UNL     1      -6.556  -1.422   3.211  1.00  0.00    -0.040 S 
BRANCH  16  18
ATOM     18  N   UNL     1      -5.409   0.840   2.626  1.00  0.00    -0.300 N 
ATOM     19  C   UNL     1      -4.390   1.726   2.314  1.00  0.00     0.264 C 
ATOM     20  O   UNL     1      -4.249   2.727   3.026  1.00  0.00    -0.271 OA
ATOM     21  H   UNL     1      -5.887   1.120   3.439  1.00  0.00     0.172 HD
BRANCH  19  22
ATOM     22  C   UNL     1      -3.430   1.442   1.177  1.00  0.00     0.329 C 
BRANCH  22  23
ATOM     23  O   UNL     1      -2.721   0.226   1.362  1.00  0.00    -0.484 OA
BRANCH  23  24
ATOM     24  C   UNL     1      -1.393   0.209   1.029  1.00  0.00     0.120 A 
ATOM     25  C   UNL     1       2.796  -0.330   0.099  1.00  0.00     0.044 C 
ATOM     26  C   UNL     1       1.343  -0.137   0.421  1.00  0.00    -0.051 A 
ATOM     27  C   UNL     1       0.436  -1.186   0.241  1.00  0.00     0.007 A 
ATOM     28  C   UNL     1       0.872   1.078   0.934  1.00  0.00     0.007 A 
ATOM     29  C   UNL     1      -0.918  -1.011   0.545  1.00  0.00     0.047 A 
ATOM     30  C   UNL     1      -0.487   1.252   1.233  1.00  0.00     0.047 A 
ENDBRANCH  23  24
ENDBRANCH  22  23
ENDBRANCH  19  22
ENDBRANCH  16  18
ENDBRANCH  14  16
ENDBRANCH   9  14
ENDBRANCH   6   8
ENDBRANCH   5   6
ENDBRANCH   4   5
ENDBRANCH   3   4
ENDBRANCH   2   3
ENDBRANCH   1   2
BRANCH   1  31
ATOM     31  C   UNL     1      -1.079  -0.680  -4.237  1.00  0.00     0.188 C 
BRANCH  31  32
ATOM     32  O   UNL     1       0.045  -1.518  -4.400  1.00  0.00    -0.377 OA
BRANCH  32  33
ATOM     33  C   UNL     1       0.611  -1.677  -5.679  1.00  0.00     0.188 C 
BRANCH  33  34
ATOM     34  C   UNL     1      -0.242  -2.228  -6.834  1.00  0.00     0.188 C 
BRANCH  34  35
ATOM     35  O   UNL     1      -1.230  -3.171  -6.460  1.00  0.00    -0.376 OA
BRANCH  35  36
ATOM     36  C   UNL     1      -2.077  -3.672  -7.509  1.00  0.00     0.202 C 
BRANCH  36  37
ATOM     37  C   UNL     1      -1.593  -3.629  -8.981  1.00  0.00     0.261 C 
BRANCH  37  38
ATOM     38  O   UNL     1      -2.261  -2.561  -9.691  1.00  0.00    -0.460 OA
BRANCH  38  39
ATOM     39  C   UNL     1      -1.629  -1.360  -9.734  1.00  0.00     0.338 C 
ATOM     40  O   UNL     1      -0.457  -1.179  -9.999  1.00  0.00    -0.246 OA
BRANCH  39  41
ATOM     41  C   UNL     1      -2.514  -0.357  -9.059  1.00  0.00     0.060 A 
ATOM     42  C   UNL     1      -2.034   0.916  -8.793  1.00  0.00     0.016 A 
ATOM     43  C   UNL     1      -3.682  -0.776  -8.412  1.00  0.00     0.016 A 
ATOM     44  C   UNL     1      -2.647   1.668  -7.775  1.00  0.00     0.010 A 
ATOM     45  C   UNL     1      -4.145  -0.113  -7.271  1.00  0.00     0.010 A 
ATOM     46  C   UNL     1      -3.566   1.088  -6.855  1.00  0.00    -0.014 A 
BRANCH  46  47
ATOM     47  C   UNL     1      -4.122   1.756  -5.515  1.00  0.00     0.031 A 
ATOM     48  C   UNL     1      -5.347   2.692  -6.448  1.00  0.00     0.074 A 
ATOM     49  C   UNL     1      -3.561   1.874  -3.979  1.00  0.00     0.049 A 
ATOM     50  N   UNL     1      -5.503   4.001  -6.448  1.00  0.00    -0.248 NA
ATOM     51  C   UNL     1      -6.239   2.158  -7.507  1.00  0.00     0.031 C 
ATOM     52  C   UNL     1      -4.058   2.606  -2.612  1.00  0.00     0.029 A 
ATOM     53  N   UNL     1      -2.245   1.706  -3.304  1.00  0.00    -0.354 N 
ATOM     54  C   UNL     1      -6.763   4.297  -6.856  1.00  0.00     0.074 A 
ATOM     55  C   UNL     1      -7.038   3.210  -7.773  1.00  0.00     0.031 C 
ATOM     56  C   UNL     1      -3.175   2.861  -1.657  1.00  0.00     0.029 A 
ATOM     57  C   UNL     1      -1.940   2.630  -2.257  1.00  0.00     0.049 A 
ATOM     58  H   UNL     1      -1.617   0.994  -3.565  1.00  0.00     0.167 HD
ATOM     59  C   UNL     1      -7.560   5.184  -6.162  1.00  0.00     0.031 A 
ATOM     60  C   UNL     1      -0.939   3.571  -2.190  1.00  0.00     0.031 A 
ATOM     61  C   UNL     1      -7.002   5.675  -4.845  1.00  0.00     0.049 A 
ATOM     62  C   UNL     1      -1.565   4.998  -2.098  1.00  0.00     0.074 A 
ATOM     63  C   UNL     1      -7.385   5.369  -3.538  1.00  0.00     0.029 A 
ATOM     64  N   UNL     1      -5.783   6.370  -4.691  1.00  0.00    -0.354 N 
ATOM     65  N   UNL     1      -2.745   5.298  -2.592  1.00  0.00    -0.248 NA
ATOM     66  C   UNL     1      -0.986   6.147  -1.411  1.00  0.00     0.031 C 
ATOM     67  C   UNL     1      -6.372   5.771  -2.629  1.00  0.00     0.029 A 
ATOM     68  C   UNL     1      -5.365   6.403  -3.341  1.00  0.00     0.049 A 
ATOM     69  H   UNL     1      -5.284   6.781  -5.434  1.00  0.00     0.167 HD
ATOM     70  C   UNL     1      -3.082   6.609  -2.367  1.00  0.00     0.074 A 
ATOM     71  C   UNL     1      -1.950   7.081  -1.572  1.00  0.00     0.031 C 
ATOM     72  C   UNL     1      -4.237   7.215  -2.825  1.00  0.00     0.031 A 
BRANCH  59  73
ATOM     73  C   UNL     1      -9.060   5.184  -6.476  1.00  0.00    -0.014 A 
ATOM     74  C   UNL     1     -10.035   5.317  -5.470  1.00  0.00     0.009 A 
ATOM     75  C   UNL     1      -9.562   4.993  -7.778  1.00  0.00     0.009 A 
ATOM     76  C   UNL     1     -11.403   5.116  -5.715  1.00  0.00     0.001 A 
ATOM     77  C   UNL     1     -10.923   4.755  -8.029  1.00  0.00     0.001 A 
ATOM     78  C   UNL     1     -11.844   4.795  -6.990  1.00  0.00     0.000 A 
ENDBRANCH  59  73
BRANCH  60  79
ATOM     79  C   UNL     1       0.369   3.203  -2.832  1.00  0.00    -0.014 A 
ATOM     80  C   UNL     1       0.864   1.905  -2.574  1.00  0.00     0.009 A 
ATOM     81  C   UNL     1       0.986   3.921  -3.865  1.00  0.00     0.009 A 
ATOM     82  C   UNL     1       1.794   1.280  -3.409  1.00  0.00     0.001 A 
ATOM     83  C   UNL     1       1.910   3.286  -4.720  1.00  0.00     0.001 A 
ATOM     84  C   UNL     1       2.286   1.959  -4.512  1.00  0.00     0.000 A 
ENDBRANCH  60  79
BRANCH  72  85
ATOM     85  C   UNL     1      -4.537   8.693  -2.646  1.00  0.00    -0.014 A 
ATOM     86  C   UNL     1      -3.561   9.692  -2.584  1.00  0.00     0.009 A 
ATOM     87  C   UNL     1      -5.885   9.130  -2.654  1.00  0.00     0.009 A 
ATOM     88  C   UNL     1      -3.912  11.046  -2.486  1.00  0.00     0.001 A 
ATOM     89  C   UNL     1      -6.239  10.478  -2.603  1.00  0.00     0.001 A 
ATOM     90  C   UNL     1      -5.247  11.439  -2.507  1.00  0.00     0.000 A 
ENDBRANCH  72  85
ENDBRANCH  46  47
ENDBRANCH  39  41
ENDBRANCH  38  39
ENDBRANCH  37  38
ENDBRANCH  36  37
ENDBRANCH  35  36
ENDBRANCH  34  35
ENDBRANCH  33  34
ENDBRANCH  32  33
ENDBRANCH  31  32
ENDBRANCH   1  31
TORSDOF 26
