REMARK SMILES COCCC(=O)N[C@H](C)CC(=O)OCCOCCOCCOCCOC(=O)c1ccc(-c2c3nc(c(-c4ccccc4)c4ccc([nH]4)c(-c4ccccc4)c4nc(c(-c5ccccc5)c5ccc2[nH]5)C=C4)C=C3)cc1
REMARK SMILES IDX 17 1 16 2 15 3 14 4 13 5 11 6 12 7 10 8 8 9 9 10 7 11 5 12
REMARK SMILES IDX 6 13 4 15 3 16 2 17 1 18 18 19 19 20 20 21 21 22 22 23 23 24
REMARK SMILES IDX 24 25 25 26 26 27 27 28 28 29 29 30 75 31 30 32 74 33 31 34
REMARK SMILES IDX 32 35 33 36 68 37 34 38 73 39 67 40 69 41 35 42 72 43 66 44
REMARK SMILES IDX 65 45 36 47 58 48 43 49 57 50 44 51 47 52 56 53 70 54 45 55
REMARK SMILES IDX 46 56 55 58 71 59 48 60 37 61 38 62 42 63 39 64 41 65 40 66
REMARK SMILES IDX 59 67 60 68 64 69 61 70 63 71 62 72 49 73 50 74 54 75 51 76
REMARK SMILES IDX 53 77 52 78
REMARK H PARENT 7 14 69 46 47 57
REMARK Flexibility Score: inf
ROOT
ATOM      1  C   UNL     1      -3.498   0.864   1.700  1.00  0.00     0.188 C 
ENDROOT
BRANCH   1   2
ATOM      2  O   UNL     1      -4.101   0.950   2.976  1.00  0.00    -0.376 OA
BRANCH   2   3
ATOM      3  C   UNL     1      -3.504   0.302   4.091  1.00  0.00     0.202 C 
BRANCH   3   4
ATOM      4  C   UNL     1      -2.784  -1.057   3.997  1.00  0.00     0.261 C 
BRANCH   4   5
ATOM      5  O   UNL     1      -1.679  -1.179   3.073  1.00  0.00    -0.463 OA
BRANCH   5   6
ATOM      6  C   UNL     1      -1.837  -2.080   2.072  1.00  0.00     0.307 C 
ATOM      7  O   UNL     1      -2.871  -2.713   1.878  1.00  0.00    -0.252 OA
BRANCH   6   8
ATOM      8  C   UNL     1      -0.596  -2.349   1.240  1.00  0.00     0.147 C 
BRANCH   8   9
ATOM      9  C   UNL     1       0.355  -1.183   0.938  1.00  0.00     0.090 C 
ATOM     10  C   UNL     1       1.498  -1.092   1.946  1.00  0.00     0.031 C 
BRANCH   9  11
ATOM     11  N   UNL     1       0.902  -1.317  -0.424  1.00  0.00    -0.353 N 
ATOM     12  C   UNL     1       0.941  -0.455  -1.478  1.00  0.00     0.222 C 
ATOM     13  O   UNL     1       1.398  -0.871  -2.545  1.00  0.00    -0.275 OA
ATOM     14  H   UNL     1       1.316  -2.192  -0.606  1.00  0.00     0.163 HD
BRANCH  12  15
ATOM     15  C   UNL     1       0.445   0.967  -1.361  1.00  0.00     0.128 C 
BRANCH  15  16
ATOM     16  C   UNL     1      -0.762   1.227  -2.258  1.00  0.00     0.169 C 
BRANCH  16  17
ATOM     17  O   UNL     1      -1.999   0.814  -1.676  1.00  0.00    -0.384 OA
ATOM     18  C   UNL     1      -2.286  -0.569  -1.839  1.00  0.00     0.194 C 
ENDBRANCH  16  17
ENDBRANCH  15  16
ENDBRANCH  12  15
ENDBRANCH   9  11
ENDBRANCH   8   9
ENDBRANCH   6   8
ENDBRANCH   5   6
ENDBRANCH   4   5
ENDBRANCH   3   4
ENDBRANCH   2   3
ENDBRANCH   1   2
BRANCH   1  19
ATOM     19  C   UNL     1      -2.099   1.442   1.499  1.00  0.00     0.188 C 
BRANCH  19  20
ATOM     20  O   UNL     1      -1.238   1.371   2.619  1.00  0.00    -0.377 OA
BRANCH  20  21
ATOM     21  C   UNL     1      -1.132   2.503   3.475  1.00  0.00     0.188 C 
BRANCH  21  22
ATOM     22  C   UNL     1      -2.224   3.591   3.464  1.00  0.00     0.188 C 
BRANCH  22  23
ATOM     23  O   UNL     1      -2.650   3.998   2.175  1.00  0.00    -0.376 OA
BRANCH  23  24
ATOM     24  C   UNL     1      -2.018   5.107   1.555  1.00  0.00     0.202 C 
BRANCH  24  25
ATOM     25  C   UNL     1      -0.510   5.016   1.264  1.00  0.00     0.261 C 
BRANCH  25  26
ATOM     26  O   UNL     1       0.357   4.856   2.400  1.00  0.00    -0.460 OA
BRANCH  26  27
ATOM     27  C   UNL     1       0.286   5.774   3.389  1.00  0.00     0.338 C 
ATOM     28  O   UNL     1      -0.377   6.788   3.408  1.00  0.00    -0.246 OA
BRANCH  27  29
ATOM     29  C   UNL     1       1.021   5.233   4.555  1.00  0.00     0.060 A 
ATOM     30  C   UNL     1       0.325   5.022   5.752  1.00  0.00     0.016 A 
ATOM     31  C   UNL     1       2.387   4.955   4.474  1.00  0.00     0.016 A 
ATOM     32  C   UNL     1       1.002   4.572   6.886  1.00  0.00     0.010 A 
ATOM     33  C   UNL     1       3.069   4.526   5.617  1.00  0.00     0.010 A 
ATOM     34  C   UNL     1       2.387   4.369   6.838  1.00  0.00    -0.014 A 
BRANCH  34  35
ATOM     35  C   UNL     1       3.149   4.193   8.099  1.00  0.00     0.031 A 
ATOM     36  C   UNL     1       3.837   5.394   8.692  1.00  0.00     0.074 A 
ATOM     37  C   UNL     1       3.208   3.007   8.728  1.00  0.00     0.049 A 
ATOM     38  N   UNL     1       4.591   5.479   9.758  1.00  0.00    -0.248 NA
ATOM     39  C   UNL     1       3.647   6.671   7.984  1.00  0.00     0.031 C 
ATOM     40  C   UNL     1       2.538   1.782   8.296  1.00  0.00     0.029 A 
ATOM     41  N   UNL     1       3.872   2.642   9.874  1.00  0.00    -0.354 N 
ATOM     42  C   UNL     1       4.972   6.813   9.843  1.00  0.00     0.074 A 
ATOM     43  C   UNL     1       4.394   7.493   8.705  1.00  0.00     0.031 C 
ATOM     44  C   UNL     1       2.830   0.797   9.164  1.00  0.00     0.029 A 
ATOM     45  C   UNL     1       3.737   1.312  10.189  1.00  0.00     0.049 A 
ATOM     46  H   UNL     1       4.395   3.275  10.418  1.00  0.00     0.167 HD
ATOM     47  C   UNL     1       5.729   7.421  10.787  1.00  0.00     0.031 A 
ATOM     48  C   UNL     1       4.301   0.590  11.177  1.00  0.00     0.031 A 
ATOM     49  C   UNL     1       6.322   6.743  11.908  1.00  0.00     0.049 A 
ATOM     50  C   UNL     1       5.225   1.268  12.157  1.00  0.00     0.074 A 
ATOM     51  C   UNL     1       7.105   7.272  12.919  1.00  0.00     0.029 A 
ATOM     52  N   UNL     1       6.207   5.385  12.159  1.00  0.00    -0.354 N 
ATOM     53  N   UNL     1       5.566   2.532  12.237  1.00  0.00    -0.248 NA
ATOM     54  C   UNL     1       5.836   0.416  13.188  1.00  0.00     0.031 C 
ATOM     55  C   UNL     1       7.518   6.222  13.745  1.00  0.00     0.029 A 
ATOM     56  C   UNL     1       6.929   5.052  13.292  1.00  0.00     0.049 A 
ATOM     57  H   UNL     1       5.688   4.751  11.613  1.00  0.00     0.167 HD
ATOM     58  C   UNL     1       6.400   2.632  13.345  1.00  0.00     0.074 A 
ATOM     59  C   UNL     1       6.502   1.304  13.913  1.00  0.00     0.031 C 
ATOM     60  C   UNL     1       7.023   3.726  13.849  1.00  0.00     0.031 A 
BRANCH  47  61
ATOM     61  C   UNL     1       5.992   8.893  10.619  1.00  0.00    -0.014 A 
ATOM     62  C   UNL     1       4.971   9.843  10.783  1.00  0.00     0.009 A 
ATOM     63  C   UNL     1       7.288   9.337  10.317  1.00  0.00     0.009 A 
ATOM     64  C   UNL     1       5.237  11.204  10.611  1.00  0.00     0.001 A 
ATOM     65  C   UNL     1       7.558  10.699  10.178  1.00  0.00     0.001 A 
ATOM     66  C   UNL     1       6.530  11.630  10.314  1.00  0.00     0.000 A 
ENDBRANCH  47  61
BRANCH  48  67
ATOM     67  C   UNL     1       4.031  -0.870  11.285  1.00  0.00    -0.014 A 
ATOM     68  C   UNL     1       3.314  -1.388  12.375  1.00  0.00     0.009 A 
ATOM     69  C   UNL     1       4.517  -1.758  10.312  1.00  0.00     0.009 A 
ATOM     70  C   UNL     1       3.115  -2.765  12.502  1.00  0.00     0.001 A 
ATOM     71  C   UNL     1       4.287  -3.131  10.424  1.00  0.00     0.001 A 
ATOM     72  C   UNL     1       3.596  -3.635  11.524  1.00  0.00     0.000 A 
ENDBRANCH  48  67
BRANCH  60  73
ATOM     73  C   UNL     1       7.832   3.548  15.106  1.00  0.00    -0.014 A 
ATOM     74  C   UNL     1       9.046   2.844  15.106  1.00  0.00     0.009 A 
ATOM     75  C   UNL     1       7.391   4.138  16.302  1.00  0.00     0.009 A 
ATOM     76  C   UNL     1       9.781   2.703  16.286  1.00  0.00     0.001 A 
ATOM     77  C   UNL     1       8.145   4.025  17.471  1.00  0.00     0.001 A 
ATOM     78  C   UNL     1       9.333   3.298  17.465  1.00  0.00     0.000 A 
ENDBRANCH  60  73
ENDBRANCH  34  35
ENDBRANCH  27  29
ENDBRANCH  26  27
ENDBRANCH  25  26
ENDBRANCH  24  25
ENDBRANCH  23  24
ENDBRANCH  22  23
ENDBRANCH  21  22
ENDBRANCH  20  21
ENDBRANCH  19  20
ENDBRANCH   1  19
TORSDOF 25
