REMARK SMILES C[C@@H](C(=O)OCCOCCOCCOCCOC(=O)c1ccc(-c2c3nc(c(-c4ccccc4)c4ccc([nH]4)c(-c4ccccc4)c4nc(c(-c5ccccc5)c5ccc2[nH]5)C=C4)C=C3)cc1)N1C(=O)/C(=C/c2ccc(-c3ccc([N+](=O)[O-])cc3Cl)o2)SC1=S
REMARK SMILES IDX 10 1 9 2 8 3 7 4 6 5 5 6 3 7 4 8 2 9 1 10 68 11 69 12 89 13
REMARK SMILES IDX 70 14 71 15 88 16 90 17 72 18 73 19 74 20 87 21 75 22 76 23
REMARK SMILES IDX 77 24 78 25 85 26 79 27 84 28 86 29 80 30 81 31 82 32 83 33
REMARK SMILES IDX 11 34 12 35 13 36 14 37 15 38 16 39 17 40 18 41 19 42 20 43
REMARK SMILES IDX 21 44 67 45 22 46 66 47 23 48 24 49 25 50 60 51 26 52 65 53
REMARK SMILES IDX 59 54 61 55 27 56 64 57 58 58 57 59 28 61 50 62 35 63 49 64
REMARK SMILES IDX 36 65 39 66 48 67 62 68 37 69 38 70 47 72 63 73 40 74 29 75
REMARK SMILES IDX 30 76 34 77 31 78 33 79 32 80 51 81 52 82 56 83 53 84 55 85
REMARK SMILES IDX 54 86 41 87 42 88 46 89 43 90 45 91 44 92
REMARK H PARENT 61 60 39 71
REMARK Flexibility Score: inf
ROOT
ATOM      1  C   UNL     1       1.113  -1.961  -2.052  1.00  0.00     0.188 C 
ENDROOT
BRANCH   1   2
ATOM      2  C   UNL     1       0.140  -1.702  -3.222  1.00  0.00     0.188 C 
BRANCH   2   3
ATOM      3  O   UNL     1       0.620  -1.480  -4.542  1.00  0.00    -0.376 OA
BRANCH   3   4
ATOM      4  C   UNL     1       1.875  -0.859  -4.757  1.00  0.00     0.202 C 
BRANCH   4   5
ATOM      5  C   UNL     1       2.212   0.496  -4.102  1.00  0.00     0.261 C 
BRANCH   5   6
ATOM      6  O   UNL     1       1.807   0.710  -2.735  1.00  0.00    -0.462 OA
BRANCH   6   7
ATOM      7  C   UNL     1       0.622   1.347  -2.557  1.00  0.00     0.329 C 
ATOM      8  O   UNL     1      -0.084   1.735  -3.485  1.00  0.00    -0.250 OA
BRANCH   7   9
ATOM      9  C   UNL     1       0.245   1.603  -1.078  1.00  0.00     0.199 C 
ATOM     10  C   UNL     1       1.022   0.904   0.042  1.00  0.00     0.044 C 
BRANCH   9  11
ATOM     11  N   UNL     1      -1.238   1.482  -0.980  1.00  0.00    -0.279 N 
ATOM     12  C   UNL     1      -1.865   0.247  -0.872  1.00  0.00     0.267 C 
ATOM     13  C   UNL     1      -2.081   2.560  -1.189  1.00  0.00     0.149 C 
ATOM     14  O   UNL     1      -1.327  -0.834  -0.673  1.00  0.00    -0.268 OA
ATOM     15  C   UNL     1      -3.336   0.370  -1.065  1.00  0.00     0.084 C 
ATOM     16  S   UNL     1      -3.747   2.019  -1.306  1.00  0.00    -0.054 SA
ATOM     17  S   UNL     1      -1.693   4.180  -1.307  1.00  0.00    -0.052 S 
ATOM     18  C   UNL     1      -4.157  -0.692  -1.037  1.00  0.00     0.068 C 
BRANCH  18  19
ATOM     19  C   UNL     1      -5.559  -0.594  -1.259  1.00  0.00     0.128 A 
ATOM     20  C   UNL     1      -6.247  -0.096  -2.361  1.00  0.00     0.051 A 
ATOM     21  O   UNL     1      -6.500  -1.010  -0.340  1.00  0.00    -0.457 OA
ATOM     22  C   UNL     1      -7.628  -0.142  -2.070  1.00  0.00     0.051 A 
ATOM     23  C   UNL     1      -7.736  -0.678  -0.807  1.00  0.00     0.136 A 
BRANCH  23  24
ATOM     24  C   UNL     1      -8.877  -0.931   0.064  1.00  0.00     0.036 A 
ATOM     25  C   UNL     1     -10.009  -1.560  -0.490  1.00  0.00     0.020 A 
ATOM     26  C   UNL     1      -8.944  -0.488   1.399  1.00  0.00     0.058 A 
ATOM     27  C   UNL     1     -11.184  -1.723   0.251  1.00  0.00     0.086 A 
ATOM     28  C   UNL     1     -10.117  -0.646   2.149  1.00  0.00     0.106 A 
ATOM     29  Cl  UNL     1      -7.636   0.343   2.173  1.00  0.00    -0.083 Cl
ATOM     30  C   UNL     1     -11.236  -1.251   1.566  1.00  0.00     0.270 A 
BRANCH  30  31
ATOM     31  N   UNL     1     -12.486  -1.360   2.329  1.00  0.00     0.062 N 
ATOM     32  O   UNL     1     -13.461  -1.877   1.765  1.00  0.00    -0.258 OA
ATOM     33  O   UNL     1     -12.494  -0.921   3.487  1.00  0.00    -0.258 OA
ENDBRANCH  30  31
ENDBRANCH  23  24
ENDBRANCH  18  19
ENDBRANCH   9  11
ENDBRANCH   7   9
ENDBRANCH   6   7
ENDBRANCH   5   6
ENDBRANCH   4   5
ENDBRANCH   3   4
ENDBRANCH   2   3
ENDBRANCH   1   2
BRANCH   1  34
ATOM     34  O   UNL     1       2.477  -2.049  -2.418  1.00  0.00    -0.377 OA
BRANCH  34  35
ATOM     35  C   UNL     1       2.981  -3.363  -2.592  1.00  0.00     0.188 C 
BRANCH  35  36
ATOM     36  C   UNL     1       2.088  -4.363  -3.349  1.00  0.00     0.188 C 
BRANCH  36  37
ATOM     37  O   UNL     1       0.778  -4.482  -2.808  1.00  0.00    -0.376 OA
BRANCH  37  38
ATOM     38  C   UNL     1       0.478  -5.557  -1.932  1.00  0.00     0.202 C 
BRANCH  38  39
ATOM     39  C   UNL     1       1.125  -5.548  -0.537  1.00  0.00     0.261 C 
BRANCH  39  40
ATOM     40  O   UNL     1       2.559  -5.494  -0.494  1.00  0.00    -0.460 OA
BRANCH  40  41
ATOM     41  C   UNL     1       3.250  -6.474  -1.110  1.00  0.00     0.338 C 
ATOM     42  O   UNL     1       2.795  -7.465  -1.656  1.00  0.00    -0.246 OA
BRANCH  41  43
ATOM     43  C   UNL     1       4.660  -6.040  -1.202  1.00  0.00     0.060 A 
ATOM     44  C   UNL     1       5.252  -5.934  -2.468  1.00  0.00     0.016 A 
ATOM     45  C   UNL     1       5.386  -5.711  -0.054  1.00  0.00     0.016 A 
ATOM     46  C   UNL     1       6.582  -5.532  -2.588  1.00  0.00     0.010 A 
ATOM     47  C   UNL     1       6.728  -5.337  -0.173  1.00  0.00     0.010 A 
ATOM     48  C   UNL     1       7.340  -5.281  -1.438  1.00  0.00    -0.014 A 
BRANCH  48  49
ATOM     49  C   UNL     1       8.815  -5.181  -1.544  1.00  0.00     0.031 A 
ATOM     50  C   UNL     1       9.629  -6.417  -1.273  1.00  0.00     0.074 A 
ATOM     51  C   UNL     1       9.424  -4.035  -1.900  1.00  0.00     0.049 A 
ATOM     52  N   UNL     1      10.927  -6.574  -1.265  1.00  0.00    -0.248 NA
ATOM     53  C   UNL     1       8.871  -7.643  -0.968  1.00  0.00     0.031 C 
ATOM     54  C   UNL     1       8.748  -2.787  -2.246  1.00  0.00     0.029 A 
ATOM     55  N   UNL     1      10.759  -3.744  -2.024  1.00  0.00    -0.354 N 
ATOM     56  C   UNL     1      11.140  -7.909  -0.943  1.00  0.00     0.074 A 
ATOM     57  C   UNL     1       9.842  -8.511  -0.735  1.00  0.00     0.031 C 
ATOM     58  C   UNL     1       9.677  -1.858  -2.539  1.00  0.00     0.029 A 
ATOM     59  C   UNL     1      11.008  -2.437  -2.363  1.00  0.00     0.049 A 
ATOM     60  H   UNL     1      11.471  -4.409  -1.884  1.00  0.00     0.167 HD
ATOM     61  C   UNL     1      12.312  -8.577  -0.833  1.00  0.00     0.031 A 
ATOM     62  C   UNL     1      12.178  -1.780  -2.492  1.00  0.00     0.031 A 
ATOM     63  C   UNL     1      13.604  -7.974  -1.021  1.00  0.00     0.049 A 
ATOM     64  C   UNL     1      13.471  -2.522  -2.269  1.00  0.00     0.074 A 
ATOM     65  C   UNL     1      14.851  -8.568  -0.943  1.00  0.00     0.029 A 
ATOM     66  N   UNL     1      13.814  -6.636  -1.312  1.00  0.00    -0.354 N 
ATOM     67  N   UNL     1      13.662  -3.789  -1.990  1.00  0.00    -0.248 NA
ATOM     68  C   UNL     1      14.711  -1.741  -2.386  1.00  0.00     0.031 C 
ATOM     69  C   UNL     1      15.818  -7.574  -1.118  1.00  0.00     0.029 A 
ATOM     70  C   UNL     1      15.172  -6.376  -1.382  1.00  0.00     0.049 A 
ATOM     71  H   UNL     1      13.103  -5.968  -1.449  1.00  0.00     0.167 HD
ATOM     72  C   UNL     1      15.041  -3.964  -1.933  1.00  0.00     0.074 A 
ATOM     73  C   UNL     1      15.637  -2.676  -2.221  1.00  0.00     0.031 C 
ATOM     74  C   UNL     1      15.750  -5.089  -1.671  1.00  0.00     0.031 A 
BRANCH  61  75
ATOM     75  C   UNL     1      12.247 -10.028  -0.442  1.00  0.00    -0.014 A 
ATOM     76  C   UNL     1      11.745 -11.004  -1.317  1.00  0.00     0.009 A 
ATOM     77  C   UNL     1      12.720 -10.426   0.819  1.00  0.00     0.009 A 
ATOM     78  C   UNL     1      11.684 -12.343  -0.923  1.00  0.00     0.001 A 
ATOM     79  C   UNL     1      12.690 -11.769   1.197  1.00  0.00     0.001 A 
ATOM     80  C   UNL     1      12.162 -12.725   0.330  1.00  0.00     0.000 A 
ENDBRANCH  61  75
BRANCH  62  81
ATOM     81  C   UNL     1      12.191  -0.330  -2.827  1.00  0.00    -0.014 A 
ATOM     82  C   UNL     1      12.707   0.119  -4.053  1.00  0.00     0.009 A 
ATOM     83  C   UNL     1      11.720   0.619  -1.905  1.00  0.00     0.009 A 
ATOM     84  C   UNL     1      12.776   1.486  -4.336  1.00  0.00     0.001 A 
ATOM     85  C   UNL     1      11.759   1.982  -2.204  1.00  0.00     0.001 A 
ATOM     86  C   UNL     1      12.298   2.416  -3.414  1.00  0.00     0.000 A 
ENDBRANCH  62  81
BRANCH  74  87
ATOM     87  C   UNL     1      17.251  -4.994  -1.730  1.00  0.00    -0.014 A 
ATOM     88  C   UNL     1      17.983  -4.295  -0.758  1.00  0.00     0.009 A 
ATOM     89  C   UNL     1      17.946  -5.659  -2.753  1.00  0.00     0.009 A 
ATOM     90  C   UNL     1      19.377  -4.233  -0.832  1.00  0.00     0.001 A 
ATOM     91  C   UNL     1      19.340  -5.626  -2.805  1.00  0.00     0.001 A 
ATOM     92  C   UNL     1      20.054  -4.903  -1.851  1.00  0.00     0.000 A 
ENDBRANCH  74  87
ENDBRANCH  48  49
ENDBRANCH  41  43
ENDBRANCH  40  41
ENDBRANCH  39  40
ENDBRANCH  38  39
ENDBRANCH  37  38
ENDBRANCH  36  37
ENDBRANCH  35  36
ENDBRANCH  34  35
ENDBRANCH   1  34
TORSDOF 24
