REMARK SMILES CCN1C[C@@]2(C(=O)OCCOCCOCCOCCOC(=O)c3ccc(-c4c5nc(c(-c6ccccc6)c6ccc([nH]6)c(-c6ccccc6)c6nc(c(-c7ccccc7)c7ccc4[nH]7)C=C6)C=C5)cc3)CN(c3ccc(-c4ccccc4)nn3)C[C@H]2C1=O
REMARK SMILES IDX 14 1 13 2 12 3 11 4 10 5 9 6 8 7 6 8 7 9 5 10 3 11 4 12
REMARK SMILES IDX 87 13 86 14 88 15 71 16 85 17 72 18 2 19 1 20 73 21 74 22
REMARK SMILES IDX 84 23 75 24 83 25 76 26 77 27 78 28 82 29 79 30 81 31 80 32
REMARK SMILES IDX 15 33 16 34 17 35 18 36 19 37 20 38 21 39 22 40 23 41 24 42
REMARK SMILES IDX 70 43 25 44 69 45 26 46 27 47 28 48 63 49 29 50 68 51 62 52
REMARK SMILES IDX 64 53 30 54 67 55 61 56 60 57 31 59 53 60 38 61 52 62 39 63
REMARK SMILES IDX 42 64 51 65 65 66 40 67 41 68 50 70 66 71 43 72 32 73 33 74
REMARK SMILES IDX 37 75 34 76 36 77 35 78 54 79 55 80 59 81 56 82 58 83 57 84
REMARK SMILES IDX 44 85 45 86 49 87 46 88 48 89 47 90
REMARK H PARENT 64 58 42 69
REMARK Flexibility Score: inf
ROOT
ATOM      1  O   UNL     1       1.647  -5.596   4.041  1.00  0.00    -0.377 OA
ENDROOT
BRANCH   1   2
ATOM      2  C   UNL     1       2.738  -4.856   3.533  1.00  0.00     0.188 C 
BRANCH   2   3
ATOM      3  C   UNL     1       2.757  -3.351   3.889  1.00  0.00     0.188 C 
BRANCH   3   4
ATOM      4  O   UNL     1       2.129  -2.864   5.069  1.00  0.00    -0.376 OA
BRANCH   4   5
ATOM      5  C   UNL     1       0.712  -2.898   5.255  1.00  0.00     0.202 C 
BRANCH   5   6
ATOM      6  C   UNL     1      -0.273  -2.894   4.075  1.00  0.00     0.261 C 
BRANCH   6   7
ATOM      7  O   UNL     1       0.237  -3.716   3.038  1.00  0.00    -0.463 OA
BRANCH   7   8
ATOM      8  C   UNL     1      -0.120  -3.523   1.742  1.00  0.00     0.316 C 
ATOM      9  O   UNL     1      -1.048  -2.819   1.378  1.00  0.00    -0.251 OA
BRANCH   8  10
ATOM     10  C   UNL     1       0.917  -4.344   0.897  1.00  0.00     0.116 C 
ATOM     11  N   UNL     1       0.989  -2.607  -0.833  1.00  0.00    -0.341 N 
ATOM     12  C   UNL     1       1.443  -2.892   0.502  1.00  0.00     0.141 C 
ATOM     13  C   UNL     1       0.809  -3.805  -1.501  1.00  0.00     0.228 C 
ATOM     14  C   UNL     1       1.369  -4.817  -0.546  1.00  0.00     0.119 C 
ATOM     15  O   UNL     1       0.364  -3.986  -2.621  1.00  0.00    -0.274 OA
ATOM     16  C   UNL     1      -0.235  -5.423   0.968  1.00  0.00     0.139 C 
ATOM     17  C   UNL     1       1.090  -6.285  -0.800  1.00  0.00     0.133 C 
ATOM     18  N   UNL     1       0.202  -6.611   0.269  1.00  0.00    -0.353 N 
BRANCH  11  19
ATOM     19  C   UNL     1       0.491  -1.320  -1.293  1.00  0.00     0.116 C 
ATOM     20  C   UNL     1       0.969  -0.115  -0.496  1.00  0.00     0.027 C 
ENDBRANCH  11  19
BRANCH  18  21
ATOM     21  C   UNL     1      -0.056  -7.879   0.721  1.00  0.00     0.151 A 
ATOM     22  C   UNL     1      -1.194  -8.142   1.476  1.00  0.00     0.051 A 
ATOM     23  N   UNL     1       0.800  -8.894   0.479  1.00  0.00    -0.132 NA
ATOM     24  C   UNL     1      -1.441  -9.414   1.978  1.00  0.00     0.035 A 
ATOM     25  N   UNL     1       0.572 -10.172   0.987  1.00  0.00    -0.148 NA
ATOM     26  C   UNL     1      -0.538 -10.425   1.709  1.00  0.00     0.093 A 
BRANCH  26  27
ATOM     27  C   UNL     1      -0.802 -11.807   2.106  1.00  0.00     0.002 A 
ATOM     28  C   UNL     1       0.042 -12.506   2.981  1.00  0.00     0.010 A 
ATOM     29  C   UNL     1      -1.951 -12.460   1.622  1.00  0.00     0.010 A 
ATOM     30  C   UNL     1      -0.263 -13.815   3.368  1.00  0.00     0.001 A 
ATOM     31  C   UNL     1      -2.250 -13.768   2.000  1.00  0.00     0.001 A 
ATOM     32  C   UNL     1      -1.407 -14.444   2.876  1.00  0.00     0.000 A 
ENDBRANCH  26  27
ENDBRANCH  18  21
ENDBRANCH   8  10
ENDBRANCH   7   8
ENDBRANCH   6   7
ENDBRANCH   5   6
ENDBRANCH   4   5
ENDBRANCH   3   4
ENDBRANCH   2   3
ENDBRANCH   1   2
BRANCH   1  33
ATOM     33  C   UNL     1       1.729  -6.110   5.365  1.00  0.00     0.188 C 
BRANCH  33  34
ATOM     34  C   UNL     1       2.859  -5.658   6.312  1.00  0.00     0.188 C 
BRANCH  34  35
ATOM     35  O   UNL     1       4.134  -5.564   5.702  1.00  0.00    -0.376 OA
BRANCH  35  36
ATOM     36  C   UNL     1       5.040  -6.651   5.793  1.00  0.00     0.202 C 
BRANCH  36  37
ATOM     37  C   UNL     1       4.629  -8.020   5.228  1.00  0.00     0.261 C 
BRANCH  37  38
ATOM     38  O   UNL     1       3.407  -8.590   5.716  1.00  0.00    -0.460 OA
BRANCH  38  39
ATOM     39  C   UNL     1       3.282  -8.798   7.041  1.00  0.00     0.338 C 
ATOM     40  O   UNL     1       4.104  -8.578   7.909  1.00  0.00    -0.246 OA
BRANCH  39  41
ATOM     41  C   UNL     1       1.877  -9.184   7.291  1.00  0.00     0.060 A 
ATOM     42  C   UNL     1       1.097  -8.405   8.155  1.00  0.00     0.016 A 
ATOM     43  C   UNL     1       1.345 -10.324   6.684  1.00  0.00     0.016 A 
ATOM     44  C   UNL     1      -0.202  -8.804   8.467  1.00  0.00     0.010 A 
ATOM     45  C   UNL     1       0.049 -10.729   7.006  1.00  0.00     0.010 A 
ATOM     46  C   UNL     1      -0.708  -9.999   7.939  1.00  0.00    -0.014 A 
BRANCH  46  47
ATOM     47  C   UNL     1      -1.919 -10.611   8.534  1.00  0.00     0.031 A 
ATOM     48  C   UNL     1      -1.731 -11.699   9.557  1.00  0.00     0.074 A 
ATOM     49  C   UNL     1      -3.153 -10.205   8.195  1.00  0.00     0.049 A 
ATOM     50  N   UNL     1      -2.626 -12.418  10.184  1.00  0.00    -0.248 NA
ATOM     51  C   UNL     1      -0.339 -12.020   9.918  1.00  0.00     0.031 C 
ATOM     52  C   UNL     1      -3.466  -9.123   7.264  1.00  0.00     0.029 A 
ATOM     53  N   UNL     1      -4.378 -10.668   8.603  1.00  0.00    -0.354 N 
ATOM     54  C   UNL     1      -1.906 -13.281  11.002  1.00  0.00     0.074 A 
ATOM     55  C   UNL     1      -0.504 -13.025  10.762  1.00  0.00     0.031 C 
ATOM     56  C   UNL     1      -4.802  -9.004   7.173  1.00  0.00     0.029 A 
ATOM     57  C   UNL     1      -5.434 -10.026   8.006  1.00  0.00     0.049 A 
ATOM     58  H   UNL     1      -4.490 -11.391   9.262  1.00  0.00     0.167 HD
ATOM     59  C   UNL     1      -2.369 -14.201  11.881  1.00  0.00     0.031 A 
ATOM     60  C   UNL     1      -6.758 -10.253   8.109  1.00  0.00     0.031 A 
ATOM     61  C   UNL     1      -3.764 -14.476  12.095  1.00  0.00     0.049 A 
ATOM     62  C   UNL     1      -7.249 -11.354   9.012  1.00  0.00     0.074 A 
ATOM     63  C   UNL     1      -4.343 -15.389  12.959  1.00  0.00     0.029 A 
ATOM     64  N   UNL     1      -4.801 -13.843  11.427  1.00  0.00    -0.354 N 
ATOM     65  N   UNL     1      -6.563 -12.156   9.792  1.00  0.00    -0.248 NA
ATOM     66  C   UNL     1      -8.702 -11.573   9.055  1.00  0.00     0.031 C 
ATOM     67  C   UNL     1      -5.728 -15.355  12.764  1.00  0.00     0.029 A 
ATOM     68  C   UNL     1      -6.016 -14.365  11.837  1.00  0.00     0.049 A 
ATOM     69  H   UNL     1      -4.690 -13.129  10.758  1.00  0.00     0.167 HD
ATOM     70  C   UNL     1      -7.502 -12.946  10.447  1.00  0.00     0.074 A 
ATOM     71  C   UNL     1      -8.805 -12.518   9.979  1.00  0.00     0.031 C 
ATOM     72  C   UNL     1      -7.305 -13.929  11.361  1.00  0.00     0.031 A 
BRANCH  59  73
ATOM     73  C   UNL     1      -1.343 -15.006  12.634  1.00  0.00    -0.014 A 
ATOM     74  C   UNL     1      -0.503 -14.414  13.592  1.00  0.00     0.009 A 
ATOM     75  C   UNL     1      -1.210 -16.379  12.376  1.00  0.00     0.009 A 
ATOM     76  C   UNL     1       0.482 -15.168  14.234  1.00  0.00     0.001 A 
ATOM     77  C   UNL     1      -0.249 -17.139  13.047  1.00  0.00     0.001 A 
ATOM     78  C   UNL     1       0.606 -16.529  13.963  1.00  0.00     0.000 A 
ENDBRANCH  59  73
BRANCH  60  79
ATOM     79  C   UNL     1      -7.719  -9.420   7.339  1.00  0.00    -0.014 A 
ATOM     80  C   UNL     1      -8.581  -8.531   8.000  1.00  0.00     0.009 A 
ATOM     81  C   UNL     1      -7.790  -9.516   5.940  1.00  0.00     0.009 A 
ATOM     82  C   UNL     1      -9.508  -7.774   7.280  1.00  0.00     0.001 A 
ATOM     83  C   UNL     1      -8.696  -8.735   5.220  1.00  0.00     0.001 A 
ATOM     84  C   UNL     1      -9.560  -7.872   5.890  1.00  0.00     0.000 A 
ENDBRANCH  60  79
BRANCH  72  85
ATOM     85  C   UNL     1      -8.527 -14.574  11.958  1.00  0.00    -0.014 A 
ATOM     86  C   UNL     1      -9.362 -15.415  11.207  1.00  0.00     0.009 A 
ATOM     87  C   UNL     1      -8.824 -14.362  13.315  1.00  0.00     0.009 A 
ATOM     88  C   UNL     1     -10.490 -15.997  11.792  1.00  0.00     0.001 A 
ATOM     89  C   UNL     1      -9.930 -14.973  13.906  1.00  0.00     0.001 A 
ATOM     90  C   UNL     1     -10.769 -15.780  13.141  1.00  0.00     0.000 A 
ENDBRANCH  72  85
ENDBRANCH  46  47
ENDBRANCH  39  41
ENDBRANCH  38  39
ENDBRANCH  37  38
ENDBRANCH  36  37
ENDBRANCH  35  36
ENDBRANCH  34  35
ENDBRANCH  33  34
ENDBRANCH   1  33
TORSDOF 23
