REMARK SMILES C[C@@H]1C(=O)NC(=O)CN1C(=O)NC1(CC(=O)OCCOCCOCCOCCOC(=O)c2ccc(-c3c4nc(c(-c5ccccc5)c5ccc([nH]5)c(-c5ccccc5)c5nc(c(-c6ccccc6)c6ccc3[nH]6)C=C5)C=C4)cc2)CCC1
REMARK SMILES IDX 22 1 21 2 20 3 19 4 18 5 17 6 15 7 16 8 14 9 13 10 80 11
REMARK SMILES IDX 82 12 81 13 12 14 10 15 11 16 9 18 1 19 2 20 3 21 4 22 5 23
REMARK SMILES IDX 8 24 6 25 7 27 23 28 24 29 25 30 26 31 27 32 28 33 29 34
REMARK SMILES IDX 30 35 31 36 32 37 33 38 79 39 34 40 78 41 35 42 36 43 37 44
REMARK SMILES IDX 72 45 38 46 77 47 71 48 73 49 39 50 76 51 70 52 69 53 40 55
REMARK SMILES IDX 62 56 47 57 61 58 48 59 51 60 60 61 74 62 49 63 50 64 59 66
REMARK SMILES IDX 75 67 52 68 41 69 42 70 46 71 43 72 45 73 44 74 63 75 64 76
REMARK SMILES IDX 68 77 65 78 67 79 66 80 53 81 54 82 58 83 55 84 57 85 56 86
REMARK H PARENT 12 17 5 26 73 54 51 65
REMARK Flexibility Score: inf
ROOT
ATOM      1  C   UNL     1      -4.765   0.261  -2.942  1.00  0.00     0.188 C 
ENDROOT
BRANCH   1   2
ATOM      2  C   UNL     1      -4.537   1.304  -4.056  1.00  0.00     0.188 C 
BRANCH   2   3
ATOM      3  O   UNL     1      -5.194   1.161  -5.306  1.00  0.00    -0.376 OA
BRANCH   3   4
ATOM      4  C   UNL     1      -5.502  -0.140  -5.773  1.00  0.00     0.202 C 
BRANCH   4   5
ATOM      5  C   UNL     1      -4.376  -1.186  -5.912  1.00  0.00     0.261 C 
BRANCH   5   6
ATOM      6  O   UNL     1      -3.318  -1.191  -4.922  1.00  0.00    -0.463 OA
BRANCH   6   7
ATOM      7  C   UNL     1      -2.095  -0.739  -5.294  1.00  0.00     0.308 C 
ATOM      8  O   UNL     1      -1.856  -0.264  -6.399  1.00  0.00    -0.252 OA
BRANCH   7   9
ATOM      9  C   UNL     1      -0.984  -0.987  -4.276  1.00  0.00     0.151 C 
BRANCH   9  10
ATOM     10  C   UNL     1      -1.242  -0.929  -2.751  1.00  0.00     0.052 C 
ATOM     11  C   UNL     1      -0.266  -1.742  -1.837  1.00  0.00     0.029 C 
ATOM     12  C   UNL     1      -2.316  -1.961  -2.192  1.00  0.00     0.029 C 
ATOM     13  C   UNL     1      -1.176  -2.961  -1.992  1.00  0.00     0.005 C 
BRANCH  10  14
ATOM     14  N   UNL     1      -1.527   0.474  -2.345  1.00  0.00    -0.332 N 
ATOM     15  C   UNL     1      -1.098   1.521  -1.625  1.00  0.00     0.318 C 
ATOM     16  O   UNL     1      -1.952   2.414  -1.543  1.00  0.00    -0.249 OA
ATOM     17  H   UNL     1      -2.369   0.741  -2.780  1.00  0.00     0.165 HD
BRANCH  15  18
ATOM     18  N   UNL     1       0.110   1.663  -1.032  1.00  0.00    -0.304 N 
ATOM     19  C   UNL     1       1.856   0.222   0.003  1.00  0.00     0.042 C 
ATOM     20  C   UNL     1       1.322   0.883  -1.275  1.00  0.00     0.174 C 
ATOM     21  C   UNL     1       2.419   1.751  -1.905  1.00  0.00     0.249 C 
ATOM     22  O   UNL     1       3.392   1.258  -2.475  1.00  0.00    -0.272 OA
ATOM     23  N   UNL     1       2.368   3.098  -1.662  1.00  0.00    -0.293 N 
ATOM     24  C   UNL     1       0.339   2.910  -0.272  1.00  0.00     0.222 C 
ATOM     25  C   UNL     1       1.458   3.757  -0.874  1.00  0.00     0.246 C 
ATOM     26  H   UNL     1       3.057   3.651  -2.097  1.00  0.00     0.173 HD
ATOM     27  O   UNL     1       1.651   4.928  -0.554  1.00  0.00    -0.273 OA
ENDBRANCH  15  18
ENDBRANCH  10  14
ENDBRANCH   9  10
ENDBRANCH   7   9
ENDBRANCH   6   7
ENDBRANCH   5   6
ENDBRANCH   4   5
ENDBRANCH   3   4
ENDBRANCH   2   3
ENDBRANCH   1   2
BRANCH   1  28
ATOM     28  O   UNL     1      -5.847  -0.623  -3.147  1.00  0.00    -0.377 OA
BRANCH  28  29
ATOM     29  C   UNL     1      -6.951  -0.409  -2.292  1.00  0.00     0.188 C 
BRANCH  29  30
ATOM     30  C   UNL     1      -7.514   1.020  -2.309  1.00  0.00     0.188 C 
BRANCH  30  31
ATOM     31  O   UNL     1      -6.523   2.006  -2.043  1.00  0.00    -0.376 OA
BRANCH  31  32
ATOM     32  C   UNL     1      -6.489   2.626  -0.768  1.00  0.00     0.202 C 
BRANCH  32  33
ATOM     33  C   UNL     1      -5.940   1.807   0.413  1.00  0.00     0.261 C 
BRANCH  33  34
ATOM     34  O   UNL     1      -6.486   0.494   0.595  1.00  0.00    -0.460 OA
BRANCH  34  35
ATOM     35  C   UNL     1      -7.790   0.400   0.929  1.00  0.00     0.338 C 
ATOM     36  O   UNL     1      -8.571   1.318   1.114  1.00  0.00    -0.246 OA
BRANCH  35  37
ATOM     37  C   UNL     1      -8.172  -1.025   0.830  1.00  0.00     0.060 A 
ATOM     38  C   UNL     1      -9.179  -1.386  -0.075  1.00  0.00     0.016 A 
ATOM     39  C   UNL     1      -7.513  -2.002   1.582  1.00  0.00     0.016 A 
ATOM     40  C   UNL     1      -9.544  -2.724  -0.218  1.00  0.00     0.010 A 
ATOM     41  C   UNL     1      -7.906  -3.338   1.468  1.00  0.00     0.010 A 
ATOM     42  C   UNL     1      -8.946  -3.697   0.592  1.00  0.00    -0.014 A 
BRANCH  42  43
ATOM     43  C   UNL     1      -9.588  -5.026   0.710  1.00  0.00     0.031 A 
ATOM     44  C   UNL     1     -10.596  -5.215   1.810  1.00  0.00     0.074 A 
ATOM     45  C   UNL     1      -9.322  -6.026  -0.147  1.00  0.00     0.049 A 
ATOM     46  N   UNL     1     -11.291  -6.275   2.131  1.00  0.00    -0.248 NA
ATOM     47  C   UNL     1     -10.853  -4.042   2.663  1.00  0.00     0.031 C 
ATOM     48  C   UNL     1      -8.415  -5.947  -1.290  1.00  0.00     0.029 A 
ATOM     49  N   UNL     1      -9.803  -7.310  -0.183  1.00  0.00    -0.354 N 
ATOM     50  C   UNL     1     -12.064  -5.896   3.222  1.00  0.00     0.074 A 
ATOM     51  C   UNL     1     -11.726  -4.525   3.531  1.00  0.00     0.031 C 
ATOM     52  C   UNL     1      -8.403  -7.137  -1.916  1.00  0.00     0.029 A 
ATOM     53  C   UNL     1      -9.275  -8.067  -1.200  1.00  0.00     0.049 A 
ATOM     54  H   UNL     1     -10.464  -7.657   0.459  1.00  0.00     0.167 HD
ATOM     55  C   UNL     1     -12.979  -6.622   3.906  1.00  0.00     0.031 A 
ATOM     56  C   UNL     1      -9.466  -9.366  -1.502  1.00  0.00     0.031 A 
ATOM     57  C   UNL     1     -13.286  -7.997   3.622  1.00  0.00     0.049 A 
ATOM     58  C   UNL     1     -10.407 -10.189  -0.659  1.00  0.00     0.074 A 
ATOM     59  C   UNL     1     -14.191  -8.828   4.256  1.00  0.00     0.029 A 
ATOM     60  N   UNL     1     -12.680  -8.747   2.625  1.00  0.00    -0.354 N 
ATOM     61  N   UNL     1     -11.147  -9.819   0.359  1.00  0.00    -0.248 NA
ATOM     62  C   UNL     1     -10.543 -11.609  -1.015  1.00  0.00     0.031 C 
ATOM     63  C   UNL     1     -14.084 -10.101   3.686  1.00  0.00     0.029 A 
ATOM     64  C   UNL     1     -13.168 -10.042   2.647  1.00  0.00     0.049 A 
ATOM     65  H   UNL     1     -12.003  -8.408   1.995  1.00  0.00     0.167 HD
ATOM     66  C   UNL     1     -11.861 -10.948   0.742  1.00  0.00     0.074 A 
ATOM     67  C   UNL     1     -11.472 -12.013  -0.160  1.00  0.00     0.031 C 
ATOM     68  C   UNL     1     -12.765 -11.091   1.744  1.00  0.00     0.031 A 
BRANCH  55  69
ATOM     69  C   UNL     1     -13.662  -5.943   5.061  1.00  0.00    -0.014 A 
ATOM     70  C   UNL     1     -14.565  -4.885   4.863  1.00  0.00     0.009 A 
ATOM     71  C   UNL     1     -13.381  -6.356   6.373  1.00  0.00     0.009 A 
ATOM     72  C   UNL     1     -15.131  -4.224   5.954  1.00  0.00     0.001 A 
ATOM     73  C   UNL     1     -13.976  -5.716   7.461  1.00  0.00     0.001 A 
ATOM     74  C   UNL     1     -14.839  -4.642   7.252  1.00  0.00     0.000 A 
ENDBRANCH  55  69
BRANCH  56  75
ATOM     75  C   UNL     1      -8.749  -9.977  -2.653  1.00  0.00    -0.014 A 
ATOM     76  C   UNL     1      -9.449 -10.379  -3.801  1.00  0.00     0.009 A 
ATOM     77  C   UNL     1      -7.359 -10.173  -2.605  1.00  0.00     0.009 A 
ATOM     78  C   UNL     1      -8.776 -10.980  -4.867  1.00  0.00     0.001 A 
ATOM     79  C   UNL     1      -6.685 -10.748  -3.685  1.00  0.00     0.001 A 
ATOM     80  C   UNL     1      -7.394 -11.159  -4.811  1.00  0.00     0.000 A 
ENDBRANCH  56  75
BRANCH  68  81
ATOM     81  C   UNL     1     -13.431 -12.432   1.892  1.00  0.00    -0.014 A 
ATOM     82  C   UNL     1     -12.730 -13.554   2.361  1.00  0.00     0.009 A 
ATOM     83  C   UNL     1     -14.799 -12.559   1.602  1.00  0.00     0.009 A 
ATOM     84  C   UNL     1     -13.379 -14.783   2.502  1.00  0.00     0.001 A 
ATOM     85  C   UNL     1     -15.453 -13.779   1.776  1.00  0.00     0.001 A 
ATOM     86  C   UNL     1     -14.740 -14.893   2.216  1.00  0.00     0.000 A 
ENDBRANCH  68  81
ENDBRANCH  42  43
ENDBRANCH  35  37
ENDBRANCH  34  35
ENDBRANCH  33  34
ENDBRANCH  32  33
ENDBRANCH  31  32
ENDBRANCH  30  31
ENDBRANCH  29  30
ENDBRANCH  28  29
ENDBRANCH   1  28
TORSDOF 23
