REMARK SMILES Cc1ccc(-c2nc(C)cc(N3CCCC[C@H]3C(=O)OCCOCCOCCOCCOC(=O)c3ccc(-c4c5nc(c(-c6ccccc6)c6ccc([nH]6)c(-c6ccccc6)c6nc(c(-c7ccccc7)c7ccc4[nH]7)C=C6)C=C5)cc3)n2)cc1
REMARK SMILES IDX 26 1 25 2 24 3 23 4 22 5 21 6 20 7 18 8 19 9 17 10 12 11
REMARK SMILES IDX 13 12 14 13 16 14 15 15 11 16 6 17 7 18 83 19 8 20 9 21
REMARK SMILES IDX 10 22 5 23 1 24 2 25 3 26 85 27 4 28 84 29 27 30 28 31 29 32
REMARK SMILES IDX 30 33 31 34 32 35 33 36 34 37 35 38 36 39 82 40 37 41 81 42
REMARK SMILES IDX 38 43 39 44 40 45 75 46 41 47 80 48 74 49 76 50 42 51 79 52
REMARK SMILES IDX 73 53 72 54 43 56 65 57 50 58 64 59 51 60 54 61 63 62 77 63
REMARK SMILES IDX 52 64 53 65 62 67 78 68 55 69 44 70 45 71 49 72 46 73 48 74
REMARK SMILES IDX 47 75 66 76 67 77 71 78 68 79 70 80 69 81 56 82 57 83 61 84
REMARK SMILES IDX 58 85 60 86 59 87
REMARK H PARENT 76 55 54 66
REMARK Flexibility Score: inf
ROOT
ATOM      1  O   UNL     1      -8.000   1.047  -4.729  1.00  0.00    -0.377 OA
ENDROOT
BRANCH   1   2
ATOM      2  C   UNL     1      -6.943   0.783  -3.825  1.00  0.00     0.188 C 
BRANCH   2   3
ATOM      3  C   UNL     1      -7.057  -0.387  -2.814  1.00  0.00     0.188 C 
BRANCH   3   4
ATOM      4  O   UNL     1      -8.310  -0.836  -2.317  1.00  0.00    -0.376 OA
BRANCH   4   5
ATOM      5  C   UNL     1      -9.227   0.179  -1.958  1.00  0.00     0.202 C 
BRANCH   5   6
ATOM      6  C   UNL     1      -8.768   1.149  -0.871  1.00  0.00     0.261 C 
BRANCH   6   7
ATOM      7  O   UNL     1      -7.704   1.985  -1.342  1.00  0.00    -0.462 OA
BRANCH   7   8
ATOM      8  C   UNL     1      -6.884   2.547  -0.414  1.00  0.00     0.328 C 
ATOM      9  O   UNL     1      -7.160   2.671   0.762  1.00  0.00    -0.250 OA
BRANCH   8  10
ATOM     10  C   UNL     1      -5.468   2.783  -1.015  1.00  0.00     0.193 C 
ATOM     11  N   UNL     1      -4.909   1.522  -1.547  1.00  0.00    -0.343 N 
ATOM     12  C   UNL     1      -3.991   1.483  -2.695  1.00  0.00     0.119 C 
ATOM     13  C   UNL     1      -4.123   2.599  -3.722  1.00  0.00     0.022 C 
ATOM     14  C   UNL     1      -5.401   3.964  -1.988  1.00  0.00     0.037 C 
ATOM     15  C   UNL     1      -5.165   3.668  -3.461  1.00  0.00     0.005 C 
BRANCH  11  16
ATOM     16  C   UNL     1      -4.525   0.638  -0.527  1.00  0.00     0.133 A 
ATOM     17  C   UNL     1      -2.764  -0.261   0.621  1.00  0.00     0.161 A 
ATOM     18  N   UNL     1      -3.509  -0.949   1.494  1.00  0.00    -0.233 NA
ATOM     19  N   UNL     1      -3.226   0.499  -0.371  1.00  0.00    -0.211 NA
ATOM     20  C   UNL     1      -4.841  -0.805   1.336  1.00  0.00     0.043 A 
ATOM     21  C   UNL     1      -5.741  -1.475   2.334  1.00  0.00     0.067 C 
ATOM     22  C   UNL     1      -5.385  -0.023   0.328  1.00  0.00     0.070 A 
BRANCH  17  23
ATOM     23  C   UNL     1      -1.315  -0.255   0.646  1.00  0.00     0.019 A 
ATOM     24  C   UNL     1       2.918  -0.083  -0.086  1.00  0.00     0.044 C 
ATOM     25  C   UNL     1       1.447  -0.135   0.181  1.00  0.00    -0.051 A 
ATOM     26  C   UNL     1       0.797  -1.371   0.317  1.00  0.00     0.004 A 
ATOM     27  C   UNL     1       0.714   1.047   0.282  1.00  0.00     0.004 A 
ATOM     28  C   UNL     1      -0.576  -1.433   0.555  1.00  0.00     0.012 A 
ATOM     29  C   UNL     1      -0.651   0.984   0.517  1.00  0.00     0.012 A 
ENDBRANCH  17  23
ENDBRANCH  11  16
ENDBRANCH   8  10
ENDBRANCH   7   8
ENDBRANCH   6   7
ENDBRANCH   5   6
ENDBRANCH   4   5
ENDBRANCH   3   4
ENDBRANCH   2   3
ENDBRANCH   1   2
BRANCH   1  30
ATOM     30  C   UNL     1      -7.925   0.259  -5.897  1.00  0.00     0.188 C 
BRANCH  30  31
ATOM     31  C   UNL     1      -8.003  -1.192  -5.487  1.00  0.00     0.188 C 
BRANCH  31  32
ATOM     32  O   UNL     1      -6.696  -1.734  -5.550  1.00  0.00    -0.376 OA
BRANCH  32  33
ATOM     33  C   UNL     1      -6.534  -2.662  -6.623  1.00  0.00     0.202 C 
BRANCH  33  34
ATOM     34  C   UNL     1      -7.096  -2.207  -8.000  1.00  0.00     0.261 C 
BRANCH  34  35
ATOM     35  O   UNL     1      -8.552  -2.367  -8.050  1.00  0.00    -0.460 OA
BRANCH  35  36
ATOM     36  C   UNL     1      -9.268  -1.416  -8.730  1.00  0.00     0.338 C 
ATOM     37  O   UNL     1      -8.843  -0.796  -9.685  1.00  0.00    -0.246 OA
BRANCH  36  38
ATOM     38  C   UNL     1     -10.499  -0.980  -7.945  1.00  0.00     0.060 A 
ATOM     39  C   UNL     1     -10.991   0.315  -8.174  1.00  0.00     0.016 A 
ATOM     40  C   UNL     1     -10.852  -1.604  -6.750  1.00  0.00     0.016 A 
ATOM     41  C   UNL     1     -11.550   1.069  -7.119  1.00  0.00     0.010 A 
ATOM     42  C   UNL     1     -11.275  -0.808  -5.673  1.00  0.00     0.010 A 
ATOM     43  C   UNL     1     -11.551   0.566  -5.814  1.00  0.00    -0.014 A 
BRANCH  43  44
ATOM     44  C   UNL     1     -11.540   1.433  -4.585  1.00  0.00     0.031 A 
ATOM     45  C   UNL     1     -12.213   1.008  -3.295  1.00  0.00     0.074 A 
ATOM     46  C   UNL     1     -10.649   2.466  -4.510  1.00  0.00     0.049 A 
ATOM     47  N   UNL     1     -12.186   1.670  -2.180  1.00  0.00    -0.248 NA
ATOM     48  C   UNL     1     -12.971  -0.232  -3.138  1.00  0.00     0.031 C 
ATOM     49  C   UNL     1     -10.074   3.042  -3.290  1.00  0.00     0.029 A 
ATOM     50  N   UNL     1      -9.973   3.178  -5.511  1.00  0.00    -0.354 N 
ATOM     51  C   UNL     1     -12.598   0.856  -1.141  1.00  0.00     0.074 A 
ATOM     52  C   UNL     1     -13.140  -0.301  -1.811  1.00  0.00     0.031 C 
ATOM     53  C   UNL     1      -9.197   4.011  -3.568  1.00  0.00     0.029 A 
ATOM     54  C   UNL     1      -9.425   4.354  -4.941  1.00  0.00     0.049 A 
ATOM     55  H   UNL     1      -9.892   2.906  -6.454  1.00  0.00     0.167 HD
ATOM     56  C   UNL     1     -12.329   1.210   0.158  1.00  0.00     0.031 A 
ATOM     57  C   UNL     1      -9.886   5.592  -5.289  1.00  0.00     0.031 A 
ATOM     58  C   UNL     1     -11.818   2.595   0.273  1.00  0.00     0.049 A 
ATOM     59  C   UNL     1     -10.681   6.261  -4.172  1.00  0.00     0.074 A 
ATOM     60  C   UNL     1     -10.737   3.209   0.894  1.00  0.00     0.029 A 
ATOM     61  N   UNL     1     -12.421   3.599  -0.486  1.00  0.00    -0.354 N 
ATOM     62  N   UNL     1     -11.165   5.586  -3.154  1.00  0.00    -0.248 NA
ATOM     63  C   UNL     1     -10.934   7.692  -4.019  1.00  0.00     0.031 C 
ATOM     64  C   UNL     1     -10.608   4.527   0.370  1.00  0.00     0.029 A 
ATOM     65  C   UNL     1     -11.683   4.762  -0.469  1.00  0.00     0.049 A 
ATOM     66  H   UNL     1     -13.269   3.490  -0.973  1.00  0.00     0.167 HD
ATOM     67  C   UNL     1     -11.717   6.422  -2.232  1.00  0.00     0.074 A 
ATOM     68  C   UNL     1     -11.583   7.735  -2.836  1.00  0.00     0.031 C 
ATOM     69  C   UNL     1     -12.229   5.983  -1.044  1.00  0.00     0.031 A 
BRANCH  56  70
ATOM     70  C   UNL     1     -12.373   0.258   1.364  1.00  0.00    -0.014 A 
ATOM     71  C   UNL     1     -11.929   0.693   2.633  1.00  0.00     0.009 A 
ATOM     72  C   UNL     1     -12.775  -1.090   1.323  1.00  0.00     0.009 A 
ATOM     73  C   UNL     1     -11.862  -0.151   3.758  1.00  0.00     0.001 A 
ATOM     74  C   UNL     1     -12.741  -1.937   2.449  1.00  0.00     0.001 A 
ATOM     75  C   UNL     1     -12.274  -1.470   3.667  1.00  0.00     0.000 A 
ENDBRANCH  56  70
BRANCH  57  76
ATOM     76  C   UNL     1      -9.835   5.762  -6.776  1.00  0.00    -0.014 A 
ATOM     77  C   UNL     1      -8.511   5.811  -7.277  1.00  0.00     0.009 A 
ATOM     78  C   UNL     1     -10.803   5.107  -7.560  1.00  0.00     0.009 A 
ATOM     79  C   UNL     1      -8.108   4.954  -8.309  1.00  0.00     0.001 A 
ATOM     80  C   UNL     1     -10.395   4.274  -8.618  1.00  0.00     0.001 A 
ATOM     81  C   UNL     1      -9.043   4.138  -8.937  1.00  0.00     0.000 A 
ENDBRANCH  57  76
BRANCH  69  82
ATOM     82  C   UNL     1     -13.318   6.667  -0.251  1.00  0.00    -0.014 A 
ATOM     83  C   UNL     1     -14.127   7.681  -0.770  1.00  0.00     0.009 A 
ATOM     84  C   UNL     1     -13.711   6.117   0.997  1.00  0.00     0.009 A 
ATOM     85  C   UNL     1     -15.255   8.133  -0.074  1.00  0.00     0.001 A 
ATOM     86  C   UNL     1     -14.861   6.529   1.668  1.00  0.00     0.001 A 
ATOM     87  C   UNL     1     -15.632   7.547   1.132  1.00  0.00     0.000 A 
ENDBRANCH  69  82
ENDBRANCH  43  44
ENDBRANCH  36  38
ENDBRANCH  35  36
ENDBRANCH  34  35
ENDBRANCH  33  34
ENDBRANCH  32  33
ENDBRANCH  31  32
ENDBRANCH  30  31
ENDBRANCH   1  30
TORSDOF 22
