REMARK SMILES CCC(CC)(NC(=O)Nc1cc(Cl)cc(Cl)c1)C(=O)OCCOCCOCCOCCOC(=O)c1ccc(-c2c3nc(c(-c4ccccc4)c4ccc([nH]4)c(-c4ccccc4)c4nc(c(-c5ccccc5)c5ccc2[nH]5)C=C4)C=C3)cc1
REMARK SMILES IDX 26 1 25 2 24 3 23 4 22 5 21 6 20 7 18 8 19 9 3 10 2 11 1 12
REMARK SMILES IDX 4 13 5 14 6 15 7 16 8 18 9 19 10 21 11 22 17 23 12 24 15 25
REMARK SMILES IDX 13 26 14 27 16 28 27 29 28 30 29 31 30 32 31 33 32 34 33 35
REMARK SMILES IDX 34 36 35 37 36 38 82 39 37 40 81 41 38 42 39 43 40 44 75 45
REMARK SMILES IDX 41 46 80 47 74 48 76 49 42 50 79 51 73 52 72 53 43 55 65 56
REMARK SMILES IDX 50 57 64 58 51 59 54 60 63 61 77 62 52 63 53 64 62 66 78 67
REMARK SMILES IDX 55 68 44 69 45 70 49 71 46 72 48 73 47 74 66 75 67 76 71 77
REMARK SMILES IDX 68 78 70 79 69 80 56 81 57 82 61 83 58 84 60 85 59 86
REMARK H PARENT 6 17 9 20 76 54 54 65
REMARK Flexibility Score: inf
ROOT
ATOM      1  O   UNL     1       3.212  -0.930   5.770  1.00  0.00    -0.377 OA
ENDROOT
BRANCH   1   2
ATOM      2  C   UNL     1       3.188  -1.339   4.408  1.00  0.00     0.188 C 
BRANCH   2   3
ATOM      3  C   UNL     1       4.374  -0.897   3.496  1.00  0.00     0.188 C 
BRANCH   3   4
ATOM      4  O   UNL     1       4.787   0.464   3.780  1.00  0.00    -0.376 OA
BRANCH   4   5
ATOM      5  C   UNL     1       4.918   1.725   3.071  1.00  0.00     0.202 C 
BRANCH   5   6
ATOM      6  C   UNL     1       3.943   3.072   3.347  1.00  0.00     0.261 C 
BRANCH   6   7
ATOM      7  O   UNL     1       2.485   3.512   2.850  1.00  0.00    -0.461 OA
BRANCH   7   8
ATOM      8  C   UNL     1       1.602   3.533   1.741  1.00  0.00     0.331 C 
ATOM      9  O   UNL     1       1.667   4.431   0.899  1.00  0.00    -0.249 OA
BRANCH   8  10
ATOM     10  C   UNL     1       0.341   2.440   1.725  1.00  0.00     0.139 C 
BRANCH  10  11
ATOM     11  C   UNL     1       0.093   1.059   0.973  1.00  0.00     0.037 C 
ATOM     12  C   UNL     1       0.253   0.881  -0.512  1.00  0.00     0.007 C 
ENDBRANCH  10  11
BRANCH  10  13
ATOM     13  C   UNL     1      -0.922   3.321   1.559  1.00  0.00     0.037 C 
ATOM     14  C   UNL     1      -2.286   2.681   1.804  1.00  0.00     0.007 C 
ENDBRANCH  10  13
BRANCH  10  15
ATOM     15  N   UNL     1       0.572   1.971   3.035  1.00  0.00    -0.322 N 
ATOM     16  C   UNL     1       1.719   1.311   3.239  1.00  0.00     0.320 C 
ATOM     17  H   UNL     1      -0.077   2.121   3.761  1.00  0.00     0.166 HD
ATOM     18  O   UNL     1       2.015   1.135   4.419  1.00  0.00    -0.248 OA
ATOM     19  N   UNL     1       2.553   0.900   2.205  1.00  0.00    -0.308 N 
ATOM     20  H   UNL     1       2.947   0.058   2.529  1.00  0.00     0.171 HD
BRANCH  19  21
ATOM     21  C   UNL     1       3.145   1.090   0.871  1.00  0.00     0.045 A 
ATOM     22  C   UNL     1       3.501   2.291   0.230  1.00  0.00     0.046 A 
ATOM     23  C   UNL     1       3.750  -0.036   0.282  1.00  0.00     0.046 A 
ATOM     24  C   UNL     1       4.239   2.369  -0.964  1.00  0.00     0.044 A 
ATOM     25  C   UNL     1       4.624   0.050  -0.822  1.00  0.00     0.044 A 
ATOM     26  Cl  UNL     1       4.511   3.903  -1.701  1.00  0.00    -0.084 Cl
ATOM     27  C   UNL     1       4.832   1.245  -1.485  1.00  0.00     0.041 A 
ATOM     28  Cl  UNL     1       5.518  -1.339  -1.304  1.00  0.00    -0.084 Cl
ENDBRANCH  19  21
ENDBRANCH  10  15
ENDBRANCH   8  10
ENDBRANCH   7   8
ENDBRANCH   6   7
ENDBRANCH   5   6
ENDBRANCH   4   5
ENDBRANCH   3   4
ENDBRANCH   2   3
ENDBRANCH   1   2
BRANCH   1  29
ATOM     29  C   UNL     1       4.365  -0.240   6.236  1.00  0.00     0.188 C 
BRANCH  29  30
ATOM     30  C   UNL     1       5.644  -1.095   6.219  1.00  0.00     0.188 C 
BRANCH  30  31
ATOM     31  O   UNL     1       5.656  -2.327   6.935  1.00  0.00    -0.376 OA
BRANCH  31  32
ATOM     32  C   UNL     1       4.457  -3.086   7.016  1.00  0.00     0.202 C 
BRANCH  32  33
ATOM     33  C   UNL     1       3.492  -2.682   8.152  1.00  0.00     0.261 C 
BRANCH  33  34
ATOM     34  O   UNL     1       3.736  -1.405   8.766  1.00  0.00    -0.460 OA
BRANCH  34  35
ATOM     35  C   UNL     1       4.942  -1.247   9.373  1.00  0.00     0.338 C 
ATOM     36  O   UNL     1       5.727  -2.109   9.684  1.00  0.00    -0.246 OA
BRANCH  35  37
ATOM     37  C   UNL     1       5.236   0.210   9.473  1.00  0.00     0.060 A 
ATOM     38  C   UNL     1       6.478   0.675   9.016  1.00  0.00     0.016 A 
ATOM     39  C   UNL     1       4.324   1.098  10.046  1.00  0.00     0.016 A 
ATOM     40  C   UNL     1       6.858   1.996   9.230  1.00  0.00     0.010 A 
ATOM     41  C   UNL     1       4.724   2.411  10.317  1.00  0.00     0.010 A 
ATOM     42  C   UNL     1       6.028   2.829   9.988  1.00  0.00    -0.014 A 
BRANCH  42  43
ATOM     43  C   UNL     1       6.688   3.901  10.774  1.00  0.00     0.031 A 
ATOM     44  C   UNL     1       7.153   3.539  12.166  1.00  0.00     0.074 A 
ATOM     45  C   UNL     1       6.982   5.104  10.253  1.00  0.00     0.049 A 
ATOM     46  N   UNL     1       7.799   4.260  13.046  1.00  0.00    -0.248 NA
ATOM     47  C   UNL     1       6.852   2.170  12.622  1.00  0.00     0.031 C 
ATOM     48  C   UNL     1       6.669   5.543   8.895  1.00  0.00     0.029 A 
ATOM     49  N   UNL     1       7.635   6.172  10.815  1.00  0.00    -0.354 N 
ATOM     50  C   UNL     1       7.961   3.437  14.156  1.00  0.00     0.074 A 
ATOM     51  C   UNL     1       7.322   2.179  13.857  1.00  0.00     0.031 C 
ATOM     52  C   UNL     1       7.137   6.794   8.727  1.00  0.00     0.029 A 
ATOM     53  C   UNL     1       7.753   7.249   9.973  1.00  0.00     0.049 A 
ATOM     54  H   UNL     1       7.984   6.166  11.735  1.00  0.00     0.167 HD
ATOM     55  C   UNL     1       8.593   3.697  15.324  1.00  0.00     0.031 A 
ATOM     56  C   UNL     1       8.291   8.465  10.193  1.00  0.00     0.031 A 
ATOM     57  C   UNL     1       9.226   4.949  15.627  1.00  0.00     0.049 A 
ATOM     58  C   UNL     1       8.911   8.764  11.535  1.00  0.00     0.074 A 
ATOM     59  C   UNL     1       9.896   5.320  16.779  1.00  0.00     0.029 A 
ATOM     60  N   UNL     1       9.260   6.038  14.771  1.00  0.00    -0.354 N 
ATOM     61  N   UNL     1       9.062   7.979  12.575  1.00  0.00    -0.248 NA
ATOM     62  C   UNL     1       9.450  10.119  11.723  1.00  0.00     0.031 C 
ATOM     63  C   UNL     1      10.277   6.659  16.645  1.00  0.00     0.029 A 
ATOM     64  C   UNL     1       9.917   7.093  15.379  1.00  0.00     0.049 A 
ATOM     65  H   UNL     1       8.875   6.058  13.865  1.00  0.00     0.167 HD
ATOM     66  C   UNL     1       9.753   8.729  13.522  1.00  0.00     0.074 A 
ATOM     67  C   UNL     1       9.998  10.026  12.927  1.00  0.00     0.031 C 
ATOM     68  C   UNL     1      10.157   8.375  14.768  1.00  0.00     0.031 A 
BRANCH  55  69
ATOM     69  C   UNL     1       8.570   2.621  16.377  1.00  0.00    -0.014 A 
ATOM     70  C   UNL     1       9.279   1.418  16.224  1.00  0.00     0.009 A 
ATOM     71  C   UNL     1       7.821   2.822  17.546  1.00  0.00     0.009 A 
ATOM     72  C   UNL     1       9.204   0.424  17.203  1.00  0.00     0.001 A 
ATOM     73  C   UNL     1       7.776   1.842  18.539  1.00  0.00     0.001 A 
ATOM     74  C   UNL     1       8.457   0.639  18.362  1.00  0.00     0.000 A 
ENDBRANCH  55  69
BRANCH  56  75
ATOM     75  C   UNL     1       8.264   9.503   9.127  1.00  0.00    -0.014 A 
ATOM     76  C   UNL     1       9.453   9.958   8.534  1.00  0.00     0.009 A 
ATOM     77  C   UNL     1       7.047  10.072   8.721  1.00  0.00     0.009 A 
ATOM     78  C   UNL     1       9.425  10.982   7.583  1.00  0.00     0.001 A 
ATOM     79  C   UNL     1       7.018  11.071   7.746  1.00  0.00     0.001 A 
ATOM     80  C   UNL     1       8.208  11.534   7.186  1.00  0.00     0.000 A 
ENDBRANCH  56  75
BRANCH  68  81
ATOM     81  C   UNL     1      10.967   9.379  15.543  1.00  0.00    -0.014 A 
ATOM     82  C   UNL     1      10.406  10.569  16.031  1.00  0.00     0.009 A 
ATOM     83  C   UNL     1      12.319   9.105  15.815  1.00  0.00     0.009 A 
ATOM     84  C   UNL     1      11.195  11.487  16.728  1.00  0.00     0.001 A 
ATOM     85  C   UNL     1      13.094  10.006  16.544  1.00  0.00     0.001 A 
ATOM     86  C   UNL     1      12.536  11.203  16.987  1.00  0.00     0.000 A 
ENDBRANCH  68  81
ENDBRANCH  42  43
ENDBRANCH  35  37
ENDBRANCH  34  35
ENDBRANCH  33  34
ENDBRANCH  32  33
ENDBRANCH  31  32
ENDBRANCH  30  31
ENDBRANCH  29  30
ENDBRANCH   1  29
TORSDOF 24
