REMARK SMILES CC(=O)Oc1ccc([C@H]2Nc3c(C(=O)OCCOCCOCCOCCOC(=O)c4ccc(-c5c6nc(c(-c7ccccc7)c7ccc([nH]7)c(-c7ccccc7)c7nc(c(-c8ccccc8)c8ccc5[nH]8)C=C7)C=C6)cc4)ccc([N+](=O)[O-])c3[C@H]3C=CC[C@@H]32)cc1
REMARK SMILES IDX 20 1 19 2 18 3 17 4 16 5 15 6 13 7 14 8 12 9 9 10 10 11
REMARK SMILES IDX 89 12 11 13 85 15 88 16 84 17 86 18 87 19 78 20 80 21 79 22
REMARK SMILES IDX 8 23 5 24 6 25 91 26 7 27 90 28 4 29 2 30 1 31 3 32 81 33
REMARK SMILES IDX 82 34 83 35 21 36 22 37 23 38 24 39 25 40 26 41 27 42 28 43
REMARK SMILES IDX 29 44 30 45 31 46 77 47 32 48 76 49 33 50 34 51 35 52 70 53
REMARK SMILES IDX 36 54 75 55 69 56 71 57 37 58 74 59 68 60 67 61 38 63 60 64
REMARK SMILES IDX 45 65 59 66 46 67 49 68 58 69 72 70 47 71 48 72 57 74 73 75
REMARK SMILES IDX 50 76 39 77 40 78 44 79 41 80 43 81 42 82 61 83 62 84 66 85
REMARK SMILES IDX 63 86 65 87 64 88 51 89 52 90 56 91 53 92 55 93 54 94
REMARK H PARENT 10 14 71 62 49 73
REMARK Flexibility Score: inf
ROOT
ATOM      1  C   UNL     1       1.882  12.279  -1.585  1.00  0.00     0.188 C 
ENDROOT
BRANCH   1   2
ATOM      2  C   UNL     1       2.529  11.448  -2.716  1.00  0.00     0.188 C 
BRANCH   2   3
ATOM      3  O   UNL     1       3.234  12.255  -3.655  1.00  0.00    -0.376 OA
BRANCH   3   4
ATOM      4  C   UNL     1       2.665  12.427  -4.941  1.00  0.00     0.202 C 
BRANCH   4   5
ATOM      5  C   UNL     1       1.374  13.235  -4.987  1.00  0.00     0.261 C 
BRANCH   5   6
ATOM      6  O   UNL     1       0.321  12.798  -4.117  1.00  0.00    -0.460 OA
BRANCH   6   7
ATOM      7  C   UNL     1      -0.237  11.562  -4.173  1.00  0.00     0.340 C 
ATOM      8  O   UNL     1       0.068  10.640  -4.904  1.00  0.00    -0.246 OA
BRANCH   7   9
ATOM      9  C   UNL     1      -1.294  11.588  -3.126  1.00  0.00     0.084 A 
ATOM     10  C   UNL     1      -0.982   8.535  -0.764  1.00  0.00     0.114 C 
ATOM     11  N   UNL     1      -0.672   9.487  -1.875  1.00  0.00    -0.377 N 
ATOM     12  C   UNL     1      -2.498   8.637  -0.543  1.00  0.00     0.031 C 
ATOM     13  C   UNL     1      -1.460  10.665  -2.053  1.00  0.00     0.060 A 
ATOM     14  H   UNL     1       0.078   9.301  -2.485  1.00  0.00     0.161 HD
ATOM     15  C   UNL     1      -2.661  10.032   0.080  1.00  0.00     0.056 C 
ATOM     16  C   UNL     1      -3.317   7.672   0.309  1.00  0.00     0.034 C 
ATOM     17  C   UNL     1      -2.495  10.982  -1.087  1.00  0.00     0.061 A 
ATOM     18  C   UNL     1      -3.920   9.869   0.863  1.00  0.00    -0.022 C 
ATOM     19  C   UNL     1      -4.272   8.587   0.996  1.00  0.00    -0.030 C 
ATOM     20  C   UNL     1      -2.137  12.721  -3.258  1.00  0.00     0.025 A 
ATOM     21  C   UNL     1      -3.285  12.139  -1.262  1.00  0.00     0.275 A 
ATOM     22  C   UNL     1      -3.121  13.004  -2.335  1.00  0.00     0.087 A 
BRANCH  10  23
ATOM     23  C   UNL     1      -0.413   7.113  -0.829  1.00  0.00    -0.025 A 
ATOM     24  C   UNL     1       0.408   4.453  -0.241  1.00  0.00     0.130 A 
ATOM     25  C   UNL     1       1.246   5.524   0.058  1.00  0.00     0.047 A 
ATOM     26  C   UNL     1      -0.818   4.692  -0.852  1.00  0.00     0.047 A 
ATOM     27  C   UNL     1       0.841   6.840  -0.238  1.00  0.00     0.010 A 
ATOM     28  C   UNL     1      -1.199   6.003  -1.186  1.00  0.00     0.010 A 
BRANCH  24  29
ATOM     29  O   UNL     1       0.836   3.170   0.178  1.00  0.00    -0.427 OA
BRANCH  29  30
ATOM     30  C   UNL     1       0.479   2.013  -0.522  1.00  0.00     0.308 C 
ATOM     31  C   UNL     1       1.068   0.806   0.153  1.00  0.00     0.139 C 
ATOM     32  O   UNL     1      -0.200   1.953  -1.537  1.00  0.00    -0.252 OA
ENDBRANCH  29  30
ENDBRANCH  24  29
ENDBRANCH  10  23
BRANCH  21  33
ATOM     33  N   UNL     1      -4.365  12.485  -0.368  1.00  0.00     0.063 N 
ATOM     34  O   UNL     1      -5.506  12.162  -0.722  1.00  0.00    -0.258 OA
ATOM     35  O   UNL     1      -4.067  13.117   0.654  1.00  0.00    -0.258 OA
ENDBRANCH  21  33
ENDBRANCH   7   9
ENDBRANCH   6   7
ENDBRANCH   5   6
ENDBRANCH   4   5
ENDBRANCH   3   4
ENDBRANCH   2   3
ENDBRANCH   1   2
BRANCH   1  36
ATOM     36  O   UNL     1       2.670  13.194  -0.823  1.00  0.00    -0.377 OA
BRANCH  36  37
ATOM     37  C   UNL     1       3.746  13.833  -1.495  1.00  0.00     0.188 C 
BRANCH  37  38
ATOM     38  C   UNL     1       5.027  12.976  -1.498  1.00  0.00     0.188 C 
BRANCH  38  39
ATOM     39  O   UNL     1       4.820  11.624  -1.128  1.00  0.00    -0.376 OA
BRANCH  39  40
ATOM     40  C   UNL     1       4.808  11.224   0.232  1.00  0.00     0.202 C 
BRANCH  40  41
ATOM     41  C   UNL     1       4.195  12.060   1.371  1.00  0.00     0.261 C 
BRANCH  41  42
ATOM     42  O   UNL     1       4.427  13.471   1.367  1.00  0.00    -0.460 OA
BRANCH  42  43
ATOM     43  C   UNL     1       5.694  13.907   1.500  1.00  0.00     0.338 C 
ATOM     44  O   UNL     1       6.698  13.240   1.659  1.00  0.00    -0.246 OA
BRANCH  43  45
ATOM     45  C   UNL     1       5.663  15.356   1.212  1.00  0.00     0.060 A 
ATOM     46  C   UNL     1       6.432  15.854   0.152  1.00  0.00     0.016 A 
ATOM     47  C   UNL     1       4.846  16.208   1.960  1.00  0.00     0.016 A 
ATOM     48  C   UNL     1       6.411  17.214  -0.143  1.00  0.00     0.010 A 
ATOM     49  C   UNL     1       4.851  17.576   1.688  1.00  0.00     0.010 A 
ATOM     50  C   UNL     1       5.663  18.084   0.659  1.00  0.00    -0.014 A 
BRANCH  50  51
ATOM     51  C   UNL     1       5.926  19.537   0.582  1.00  0.00     0.031 A 
ATOM     52  C   UNL     1       6.930  20.116   1.539  1.00  0.00     0.074 A 
ATOM     53  C   UNL     1       5.319  20.314  -0.330  1.00  0.00     0.049 A 
ATOM     54  N   UNL     1       7.316  21.356   1.687  1.00  0.00    -0.248 NA
ATOM     55  C   UNL     1       7.586  19.165   2.452  1.00  0.00     0.031 C 
ATOM     56  C   UNL     1       4.372  19.854  -1.343  1.00  0.00     0.029 A 
ATOM     57  N   UNL     1       5.417  21.665  -0.543  1.00  0.00    -0.354 N 
ATOM     58  C   UNL     1       8.254  21.333   2.712  1.00  0.00     0.074 A 
ATOM     59  C   UNL     1       8.356  19.966   3.170  1.00  0.00     0.031 C 
ATOM     60  C   UNL     1       3.967  20.912  -2.068  1.00  0.00     0.029 A 
ATOM     61  C   UNL     1       4.601  22.122  -1.547  1.00  0.00     0.049 A 
ATOM     62  H   UNL     1       6.015  22.251  -0.025  1.00  0.00     0.167 HD
ATOM     63  C   UNL     1       8.969  22.360   3.225  1.00  0.00     0.031 A 
ATOM     64  C   UNL     1       4.379  23.379  -1.977  1.00  0.00     0.031 A 
ATOM     65  C   UNL     1       8.846  23.722   2.784  1.00  0.00     0.049 A 
ATOM     66  C   UNL     1       5.119  24.519  -1.327  1.00  0.00     0.074 A 
ATOM     67  C   UNL     1       9.527  24.838   3.234  1.00  0.00     0.029 A 
ATOM     68  N   UNL     1       7.973  24.152   1.797  1.00  0.00    -0.354 N 
ATOM     69  N   UNL     1       6.021  24.486  -0.375  1.00  0.00    -0.248 NA
ATOM     70  C   UNL     1       4.814  25.870  -1.819  1.00  0.00     0.031 C 
ATOM     71  C   UNL     1       9.021  25.955   2.561  1.00  0.00     0.029 A 
ATOM     72  C   UNL     1       8.076  25.524   1.644  1.00  0.00     0.049 A 
ATOM     73  H   UNL     1       7.370  23.569   1.282  1.00  0.00     0.167 HD
ATOM     74  C   UNL     1       6.414  25.805  -0.177  1.00  0.00     0.074 A 
ATOM     75  C   UNL     1       5.663  26.610  -1.118  1.00  0.00     0.031 C 
ATOM     76  C   UNL     1       7.318  26.306   0.701  1.00  0.00     0.031 A 
BRANCH  63  77
ATOM     77  C   UNL     1       9.912  22.046   4.352  1.00  0.00    -0.014 A 
ATOM     78  C   UNL     1      11.087  21.307   4.141  1.00  0.00     0.009 A 
ATOM     79  C   UNL     1       9.624  22.510   5.645  1.00  0.00     0.009 A 
ATOM     80  C   UNL     1      11.936  21.010   5.209  1.00  0.00     0.001 A 
ATOM     81  C   UNL     1      10.491  22.238   6.705  1.00  0.00     0.001 A 
ATOM     82  C   UNL     1      11.640  21.480   6.488  1.00  0.00     0.000 A 
ENDBRANCH  63  77
BRANCH  64  83
ATOM     83  C   UNL     1       3.398  23.635  -3.064  1.00  0.00    -0.014 A 
ATOM     84  C   UNL     1       3.822  24.099  -4.319  1.00  0.00     0.009 A 
ATOM     85  C   UNL     1       2.025  23.442  -2.843  1.00  0.00     0.009 A 
ATOM     86  C   UNL     1       2.890  24.390  -5.319  1.00  0.00     0.001 A 
ATOM     87  C   UNL     1       1.098  23.704  -3.854  1.00  0.00     0.001 A 
ATOM     88  C   UNL     1       1.530  24.188  -5.087  1.00  0.00     0.000 A 
ENDBRANCH  64  83
BRANCH  76  89
ATOM     89  C   UNL     1       7.579  27.787   0.655  1.00  0.00    -0.014 A 
ATOM     90  C   UNL     1       6.627  28.714   1.108  1.00  0.00     0.009 A 
ATOM     91  C   UNL     1       8.819  28.256   0.193  1.00  0.00     0.009 A 
ATOM     92  C   UNL     1       6.900  30.083   1.064  1.00  0.00     0.001 A 
ATOM     93  C   UNL     1       9.101  29.623   0.182  1.00  0.00     0.001 A 
ATOM     94  C   UNL     1       8.137  30.535   0.607  1.00  0.00     0.000 A 
ENDBRANCH  76  89
ENDBRANCH  50  51
ENDBRANCH  43  45
ENDBRANCH  42  43
ENDBRANCH  41  42
ENDBRANCH  40  41
ENDBRANCH  39  40
ENDBRANCH  38  39
ENDBRANCH  37  38
ENDBRANCH  36  37
ENDBRANCH   1  36
TORSDOF 24
