REMARK SMILES CC(C)(CNC(=O)NCc1cccs1)C(=O)OCCOCCOCCOCCOC(=O)c1ccc(-c2c3nc(c(-c4ccccc4)c4ccc([nH]4)c(-c4ccccc4)c4nc(c(-c5ccccc5)c5ccc2[nH]5)C=C4)C=C3)cc1
REMARK SMILES IDX 22 1 21 2 20 3 19 4 18 5 17 6 15 7 16 8 2 9 1 10 3 11 4 12
REMARK SMILES IDX 5 13 6 14 7 16 8 17 9 19 10 20 11 21 14 22 12 23 13 24 23 25
REMARK SMILES IDX 24 26 25 27 26 28 27 29 28 30 29 31 30 32 31 33 32 34 33 35
REMARK SMILES IDX 79 36 34 37 78 38 35 39 36 40 37 41 72 42 38 43 77 44 71 45
REMARK SMILES IDX 73 46 39 47 76 48 70 49 69 50 40 52 62 53 47 54 61 55 48 56
REMARK SMILES IDX 51 57 60 58 74 59 49 60 50 61 59 63 75 64 52 65 41 66 42 67
REMARK SMILES IDX 46 68 43 69 45 70 44 71 63 72 64 73 68 74 65 75 67 76 66 77
REMARK SMILES IDX 53 78 54 79 58 80 55 81 57 82 56 83
REMARK H PARENT 5 15 8 18 73 51 51 62
REMARK Flexibility Score: inf
ROOT
ATOM      1  C   UNL     1       0.411   2.400  -2.589  1.00  0.00     0.188 C 
ENDROOT
BRANCH   1   2
ATOM      2  C   UNL     1       1.921   2.365  -2.854  1.00  0.00     0.188 C 
BRANCH   2   3
ATOM      3  O   UNL     1       2.354   2.330  -4.206  1.00  0.00    -0.376 OA
BRANCH   3   4
ATOM      4  C   UNL     1       2.003   1.196  -5.000  1.00  0.00     0.202 C 
BRANCH   4   5
ATOM      5  C   UNL     1       2.206  -0.216  -4.429  1.00  0.00     0.261 C 
BRANCH   5   6
ATOM      6  O   UNL     1       1.292  -0.592  -3.369  1.00  0.00    -0.463 OA
BRANCH   6   7
ATOM      7  C   UNL     1       1.870  -0.929  -2.188  1.00  0.00     0.313 C 
ATOM      8  O   UNL     1       3.079  -0.852  -1.981  1.00  0.00    -0.252 OA
BRANCH   7   9
ATOM      9  C   UNL     1       0.917  -1.467  -1.114  1.00  0.00     0.080 C 
ATOM     10  C   UNL     1       1.175  -0.667   0.177  1.00  0.00     0.025 C 
ATOM     11  C   UNL     1       1.375  -2.925  -0.885  1.00  0.00     0.025 C 
BRANCH   9  12
ATOM     12  C   UNL     1      -0.590  -1.522  -1.474  1.00  0.00     0.135 C 
BRANCH  12  13
ATOM     13  N   UNL     1      -1.345  -0.301  -1.250  1.00  0.00    -0.337 N 
ATOM     14  C   UNL     1      -2.460   0.221  -1.765  1.00  0.00     0.315 C 
ATOM     15  H   UNL     1      -0.941   0.273  -0.560  1.00  0.00     0.165 HD
ATOM     16  O   UNL     1      -2.997   1.135  -1.130  1.00  0.00    -0.249 OA
ATOM     17  N   UNL     1      -3.043  -0.162  -2.896  1.00  0.00    -0.333 N 
ATOM     18  H   UNL     1      -3.924   0.260  -3.018  1.00  0.00     0.165 HD
BRANCH  17  19
ATOM     19  C   UNL     1      -2.708  -1.041  -3.992  1.00  0.00     0.164 C 
BRANCH  19  20
ATOM     20  C   UNL     1      -3.646  -2.207  -3.952  1.00  0.00     0.024 A 
ATOM     21  C   UNL     1      -3.381  -3.528  -3.648  1.00  0.00     0.017 A 
ATOM     22  S   UNL     1      -5.311  -1.973  -4.317  1.00  0.00    -0.147 S 
ATOM     23  C   UNL     1      -4.555  -4.337  -3.673  1.00  0.00     0.012 A 
ATOM     24  C   UNL     1      -5.677  -3.611  -4.003  1.00  0.00     0.065 A 
ENDBRANCH  19  20
ENDBRANCH  17  19
ENDBRANCH  12  13
ENDBRANCH   9  12
ENDBRANCH   7   9
ENDBRANCH   6   7
ENDBRANCH   5   6
ENDBRANCH   4   5
ENDBRANCH   3   4
ENDBRANCH   2   3
ENDBRANCH   1   2
BRANCH   1  25
ATOM     25  O   UNL     1      -0.356   1.710  -3.558  1.00  0.00    -0.377 OA
BRANCH  25  26
ATOM     26  C   UNL     1      -1.209   2.454  -4.423  1.00  0.00     0.188 C 
BRANCH  26  27
ATOM     27  C   UNL     1      -1.014   3.971  -4.548  1.00  0.00     0.188 C 
BRANCH  27  28
ATOM     28  O   UNL     1      -1.408   4.783  -3.438  1.00  0.00    -0.376 OA
BRANCH  28  29
ATOM     29  C   UNL     1      -2.510   4.363  -2.632  1.00  0.00     0.202 C 
BRANCH  29  30
ATOM     30  C   UNL     1      -3.886   4.647  -3.232  1.00  0.00     0.261 C 
BRANCH  30  31
ATOM     31  O   UNL     1      -4.225   3.678  -4.239  1.00  0.00    -0.460 OA
BRANCH  31  32
ATOM     32  C   UNL     1      -4.152   4.109  -5.517  1.00  0.00     0.338 C 
ATOM     33  O   UNL     1      -3.882   5.229  -5.912  1.00  0.00    -0.246 OA
BRANCH  32  34
ATOM     34  C   UNL     1      -4.316   2.958  -6.427  1.00  0.00     0.060 A 
ATOM     35  C   UNL     1      -3.491   2.890  -7.557  1.00  0.00     0.016 A 
ATOM     36  C   UNL     1      -5.320   2.008  -6.221  1.00  0.00     0.016 A 
ATOM     37  C   UNL     1      -3.716   1.915  -8.527  1.00  0.00     0.010 A 
ATOM     38  C   UNL     1      -5.553   1.039  -7.197  1.00  0.00     0.010 A 
ATOM     39  C   UNL     1      -4.786   1.024  -8.375  1.00  0.00    -0.014 A 
BRANCH  39  40
ATOM     40  C   UNL     1      -5.262   0.237  -9.533  1.00  0.00     0.031 A 
ATOM     41  C   UNL     1      -6.380   0.804 -10.363  1.00  0.00     0.074 A 
ATOM     42  C   UNL     1      -4.724  -0.956  -9.837  1.00  0.00     0.049 A 
ATOM     43  N   UNL     1      -7.044   0.257 -11.347  1.00  0.00    -0.248 NA
ATOM     44  C   UNL     1      -6.809   2.175 -10.034  1.00  0.00     0.031 C 
ATOM     45  C   UNL     1      -3.596  -1.578  -9.148  1.00  0.00     0.029 A 
ATOM     46  N   UNL     1      -5.074  -1.861 -10.806  1.00  0.00    -0.354 N 
ATOM     47  C   UNL     1      -7.976   1.208 -11.744  1.00  0.00     0.074 A 
ATOM     48  C   UNL     1      -7.804   2.360 -10.888  1.00  0.00     0.031 C 
ATOM     49  C   UNL     1      -3.357  -2.778  -9.707  1.00  0.00     0.029 A 
ATOM     50  C   UNL     1      -4.341  -3.020 -10.761  1.00  0.00     0.049 A 
ATOM     51  H   UNL     1      -5.783  -1.695 -11.469  1.00  0.00     0.167 HD
ATOM     52  C   UNL     1      -8.897   1.129 -12.732  1.00  0.00     0.031 A 
ATOM     53  C   UNL     1      -4.477  -4.158 -11.468  1.00  0.00     0.031 A 
ATOM     54  C   UNL     1      -9.081  -0.025 -13.568  1.00  0.00     0.049 A 
ATOM     55  C   UNL     1      -5.572  -4.261 -12.498  1.00  0.00     0.074 A 
ATOM     56  C   UNL     1      -9.992  -0.212 -14.592  1.00  0.00     0.029 A 
ATOM     57  N   UNL     1      -8.339  -1.191 -13.468  1.00  0.00    -0.354 N 
ATOM     58  N   UNL     1      -6.449  -3.358 -12.864  1.00  0.00    -0.248 NA
ATOM     59  C   UNL     1      -5.697  -5.543 -13.207  1.00  0.00     0.031 C 
ATOM     60  C   UNL     1      -9.830  -1.512 -15.083  1.00  0.00     0.029 A 
ATOM     61  C   UNL     1      -8.785  -2.111 -14.398  1.00  0.00     0.049 A 
ATOM     62  H   UNL     1      -7.605  -1.341 -12.830  1.00  0.00     0.167 HD
ATOM     63  C   UNL     1      -7.207  -3.950 -13.868  1.00  0.00     0.074 A 
ATOM     64  C   UNL     1      -6.686  -5.288 -14.054  1.00  0.00     0.031 C 
ATOM     65  C   UNL     1      -8.240  -3.432 -14.575  1.00  0.00     0.031 A 
BRANCH  52  66
ATOM     66  C   UNL     1      -9.803   2.310 -12.927  1.00  0.00    -0.014 A 
ATOM     67  C   UNL     1      -9.334   3.500 -13.504  1.00  0.00     0.009 A 
ATOM     68  C   UNL     1     -11.150   2.223 -12.543  1.00  0.00     0.009 A 
ATOM     69  C   UNL     1     -10.191   4.591 -13.664  1.00  0.00     0.001 A 
ATOM     70  C   UNL     1     -12.010   3.307 -12.727  1.00  0.00     0.001 A 
ATOM     71  C   UNL     1     -11.528   4.492 -13.280  1.00  0.00     0.000 A 
ENDBRANCH  52  66
BRANCH  53  72
ATOM     72  C   UNL     1      -3.576  -5.310 -11.205  1.00  0.00    -0.014 A 
ATOM     73  C   UNL     1      -2.616  -5.697 -12.152  1.00  0.00     0.009 A 
ATOM     74  C   UNL     1      -3.684  -6.039 -10.010  1.00  0.00     0.009 A 
ATOM     75  C   UNL     1      -1.798  -6.804 -11.916  1.00  0.00     0.001 A 
ATOM     76  C   UNL     1      -2.847  -7.130  -9.766  1.00  0.00     0.001 A 
ATOM     77  C   UNL     1      -1.910  -7.517 -10.723  1.00  0.00     0.000 A 
ENDBRANCH  53  72
BRANCH  65  78
ATOM     78  C   UNL     1      -8.843  -4.285 -15.653  1.00  0.00    -0.014 A 
ATOM     79  C   UNL     1      -9.709  -5.344 -15.344  1.00  0.00     0.009 A 
ATOM     80  C   UNL     1      -8.601  -3.970 -16.999  1.00  0.00     0.009 A 
ATOM     81  C   UNL     1     -10.308  -6.083 -16.367  1.00  0.00     0.001 A 
ATOM     82  C   UNL     1      -9.219  -4.694 -18.018  1.00  0.00     0.001 A 
ATOM     83  C   UNL     1     -10.068  -5.753 -17.701  1.00  0.00     0.000 A 
ENDBRANCH  65  78
ENDBRANCH  39  40
ENDBRANCH  32  34
ENDBRANCH  31  32
ENDBRANCH  30  31
ENDBRANCH  29  30
ENDBRANCH  28  29
ENDBRANCH  27  28
ENDBRANCH  26  27
ENDBRANCH  25  26
ENDBRANCH   1  25
TORSDOF 24
