REMARK SMILES O=C(OCCOCCOCCOCCOC(=O)c1cc(S[C@H]2CCOC2=O)cs1)c1ccc(-c2c3nc(c(-c4ccccc4)c4ccc([nH]4)c(-c4ccccc4)c4nc(c(-c5ccccc5)c5ccc2[nH]5)C=C4)C=C3)cc1
REMARK SMILES IDX 9 1 8 2 7 3 6 4 5 5 4 6 3 7 2 8 1 9 30 10 31 11 77 12 32 13
REMARK SMILES IDX 76 14 33 15 34 16 35 17 70 18 36 19 75 20 69 21 71 22 37 23
REMARK SMILES IDX 74 24 68 25 67 26 38 28 60 29 45 30 59 31 46 32 49 33 58 34
REMARK SMILES IDX 72 35 47 36 48 37 57 39 73 40 50 41 39 42 40 43 44 44 41 45
REMARK SMILES IDX 43 46 42 47 61 48 62 49 66 50 63 51 65 52 64 53 51 54 52 55
REMARK SMILES IDX 56 56 53 57 55 58 54 59 10 60 11 61 12 62 13 63 14 64 15 65
REMARK SMILES IDX 16 66 17 67 18 68 19 69 29 70 20 71 28 72 21 73 22 74 23 75
REMARK SMILES IDX 26 76 24 77 25 78 27 79
REMARK H PARENT 71 27 49 38
REMARK Flexibility Score: inf
ROOT
ATOM      1  O   UNL     1       2.579   3.192   2.529  1.00  0.00    -0.377 OA
ENDROOT
BRANCH   1   2
ATOM      2  C   UNL     1       1.823   2.100   1.994  1.00  0.00     0.188 C 
BRANCH   2   3
ATOM      3  C   UNL     1       2.198   1.683   0.569  1.00  0.00     0.188 C 
BRANCH   3   4
ATOM      4  O   UNL     1       3.499   1.086   0.552  1.00  0.00    -0.376 OA
BRANCH   4   5
ATOM      5  C   UNL     1       4.267   1.351  -0.621  1.00  0.00     0.202 C 
BRANCH   5   6
ATOM      6  C   UNL     1       4.046   0.335  -1.744  1.00  0.00     0.261 C 
BRANCH   6   7
ATOM      7  O   UNL     1       2.682  -0.110  -1.802  1.00  0.00    -0.460 OA
BRANCH   7   8
ATOM      8  C   UNL     1       2.145  -1.212  -1.221  1.00  0.00     0.338 C 
ATOM      9  O   UNL     1       0.953  -1.452  -1.408  1.00  0.00    -0.246 OA
BRANCH   8  10
ATOM     10  C   UNL     1       2.930  -2.191  -0.404  1.00  0.00     0.060 A 
ATOM     11  C   UNL     1       4.062  -1.885   0.351  1.00  0.00     0.016 A 
ATOM     12  C   UNL     1       2.445  -3.510  -0.349  1.00  0.00     0.016 A 
ATOM     13  C   UNL     1       4.757  -2.862   1.049  1.00  0.00     0.010 A 
ATOM     14  C   UNL     1       3.109  -4.493   0.394  1.00  0.00     0.010 A 
ATOM     15  C   UNL     1       4.292  -4.173   1.067  1.00  0.00    -0.014 A 
BRANCH  15  16
ATOM     16  C   UNL     1       5.155  -5.197   1.685  1.00  0.00     0.031 A 
ATOM     17  C   UNL     1       5.951  -6.092   0.783  1.00  0.00     0.074 A 
ATOM     18  C   UNL     1       5.347  -5.194   3.017  1.00  0.00     0.049 A 
ATOM     19  N   UNL     1       6.786  -7.047   1.091  1.00  0.00    -0.248 NA
ATOM     20  C   UNL     1       5.803  -5.864  -0.666  1.00  0.00     0.031 C 
ATOM     21  C   UNL     1       4.719  -4.263   3.960  1.00  0.00     0.029 A 
ATOM     22  N   UNL     1       6.160  -5.965   3.803  1.00  0.00    -0.354 N 
ATOM     23  C   UNL     1       7.247  -7.544  -0.121  1.00  0.00     0.074 A 
ATOM     24  C   UNL     1       6.596  -6.795  -1.171  1.00  0.00     0.031 C 
ATOM     25  C   UNL     1       5.199  -4.497   5.192  1.00  0.00     0.029 A 
ATOM     26  C   UNL     1       6.112  -5.632   5.136  1.00  0.00     0.049 A 
ATOM     27  H   UNL     1       6.725  -6.688   3.448  1.00  0.00     0.167 HD
ATOM     28  C   UNL     1       8.133  -8.543  -0.334  1.00  0.00     0.031 A 
ATOM     29  C   UNL     1       6.721  -6.207   6.190  1.00  0.00     0.031 A 
ATOM     30  C   UNL     1       8.755  -9.286   0.725  1.00  0.00     0.049 A 
ATOM     31  C   UNL     1       7.611  -7.392   5.929  1.00  0.00     0.074 A 
ATOM     32  C   UNL     1       9.591 -10.382   0.643  1.00  0.00     0.029 A 
ATOM     33  N   UNL     1       8.603  -8.991   2.073  1.00  0.00    -0.354 N 
ATOM     34  N   UNL     1       7.972  -7.917   4.782  1.00  0.00    -0.248 NA
ATOM     35  C   UNL     1       8.161  -8.075   7.106  1.00  0.00     0.031 C 
ATOM     36  C   UNL     1       9.914 -10.776   1.947  1.00  0.00     0.029 A 
ATOM     37  C   UNL     1       9.319  -9.893   2.836  1.00  0.00     0.049 A 
ATOM     38  H   UNL     1       8.066  -8.248   2.432  1.00  0.00     0.167 HD
ATOM     39  C   UNL     1       8.797  -8.988   5.097  1.00  0.00     0.074 A 
ATOM     40  C   UNL     1       8.908  -9.014   6.543  1.00  0.00     0.031 C 
ATOM     41  C   UNL     1       9.399  -9.881   4.274  1.00  0.00     0.031 A 
BRANCH  28  42
ATOM     42  C   UNL     1       8.402  -8.919  -1.762  1.00  0.00    -0.014 A 
ATOM     43  C   UNL     1       9.192  -8.112  -2.596  1.00  0.00     0.009 A 
ATOM     44  C   UNL     1       7.825 -10.084  -2.290  1.00  0.00     0.009 A 
ATOM     45  C   UNL     1       9.368  -8.448  -3.941  1.00  0.00     0.001 A 
ATOM     46  C   UNL     1       8.022 -10.428  -3.628  1.00  0.00     0.001 A 
ATOM     47  C   UNL     1       8.785  -9.605  -4.455  1.00  0.00     0.000 A 
ENDBRANCH  28  42
BRANCH  29  48
ATOM     48  C   UNL     1       6.455  -5.732   7.575  1.00  0.00    -0.014 A 
ATOM     49  C   UNL     1       7.479  -5.194   8.370  1.00  0.00     0.009 A 
ATOM     50  C   UNL     1       5.170  -5.854   8.130  1.00  0.00     0.009 A 
ATOM     51  C   UNL     1       7.228  -4.819   9.694  1.00  0.00     0.001 A 
ATOM     52  C   UNL     1       4.913  -5.448   9.441  1.00  0.00     0.001 A 
ATOM     53  C   UNL     1       5.946  -4.943  10.226  1.00  0.00     0.000 A 
ENDBRANCH  29  48
BRANCH  41  54
ATOM     54  C   UNL     1      10.241 -10.935   4.929  1.00  0.00    -0.014 A 
ATOM     55  C   UNL     1       9.650 -12.008   5.613  1.00  0.00     0.009 A 
ATOM     56  C   UNL     1      11.638 -10.870   4.827  1.00  0.00     0.009 A 
ATOM     57  C   UNL     1      10.449 -12.980   6.216  1.00  0.00     0.001 A 
ATOM     58  C   UNL     1      12.432 -11.859   5.407  1.00  0.00     0.001 A 
ATOM     59  C   UNL     1      11.838 -12.907   6.108  1.00  0.00     0.000 A 
ENDBRANCH  41  54
ENDBRANCH  15  16
ENDBRANCH   8  10
ENDBRANCH   7   8
ENDBRANCH   6   7
ENDBRANCH   5   6
ENDBRANCH   4   5
ENDBRANCH   3   4
ENDBRANCH   2   3
ENDBRANCH   1   2
BRANCH   1  60
ATOM     60  C   UNL     1       3.997   3.094   2.415  1.00  0.00     0.188 C 
BRANCH  60  61
ATOM     61  C   UNL     1       4.709   1.928   3.131  1.00  0.00     0.188 C 
BRANCH  61  62
ATOM     62  O   UNL     1       3.834   0.997   3.757  1.00  0.00    -0.376 OA
BRANCH  62  63
ATOM     63  C   UNL     1       3.887   0.960   5.180  1.00  0.00     0.202 C 
BRANCH  63  64
ATOM     64  C   UNL     1       3.145   2.107   5.877  1.00  0.00     0.261 C 
BRANCH  64  65
ATOM     65  O   UNL     1       3.580   3.425   5.519  1.00  0.00    -0.459 OA
BRANCH  65  66
ATOM     66  C   UNL     1       4.856   3.797   5.813  1.00  0.00     0.348 C 
ATOM     67  O   UNL     1       5.646   3.115   6.455  1.00  0.00    -0.245 OA
BRANCH  66  68
ATOM     68  C   UNL     1       5.123   5.044   5.125  1.00  0.00     0.113 A 
ATOM     69  C   UNL     1       4.200   5.966   4.665  1.00  0.00     0.042 A 
ATOM     70  S   UNL     1       6.709   5.471   4.649  1.00  0.00    -0.136 S 
ATOM     71  C   UNL     1       4.798   7.056   3.985  1.00  0.00     0.020 A 
ATOM     72  C   UNL     1       6.151   6.870   3.823  1.00  0.00     0.080 A 
BRANCH  71  73
ATOM     73  S   UNL     1       3.926   8.460   3.385  1.00  0.00    -0.110 SA
BRANCH  73  74
ATOM     74  C   UNL     1       2.746   8.848   4.718  1.00  0.00     0.165 C 
ATOM     75  C   UNL     1       1.453   8.069   4.604  1.00  0.00     0.068 C 
ATOM     76  C   UNL     1       3.254   8.540   6.101  1.00  0.00     0.319 C 
ATOM     77  C   UNL     1       1.158   7.609   6.011  1.00  0.00     0.234 C 
ATOM     78  O   UNL     1       2.342   7.787   6.783  1.00  0.00    -0.465 OA
ATOM     79  O   UNL     1       4.312   8.907   6.587  1.00  0.00    -0.251 OA
ENDBRANCH  73  74
ENDBRANCH  71  73
ENDBRANCH  66  68
ENDBRANCH  65  66
ENDBRANCH  64  65
ENDBRANCH  63  64
ENDBRANCH  62  63
ENDBRANCH  61  62
ENDBRANCH  60  61
ENDBRANCH   1  60
TORSDOF 22
