REMARK SMILES O=C(OCCOCCOCCOCCOC(=O)c1cc(S[C@H]2CCOC3(CCC3)C2)ccn1)c1ccc(-c2c3nc(c(-c4ccccc4)c4ccc([nH]4)c(-c4ccccc4)c4nc(c(-c5ccccc5)c5ccc2[nH]5)C=C4)C=C3)cc1
REMARK SMILES IDX 9 1 8 2 7 3 6 4 5 5 4 6 3 7 2 8 1 9 34 10 35 11 81 12 36 13
REMARK SMILES IDX 80 14 37 15 38 16 39 17 74 18 40 19 79 20 73 21 75 22 41 23
REMARK SMILES IDX 78 24 72 25 71 26 42 28 64 29 49 30 63 31 50 32 53 33 62 34
REMARK SMILES IDX 76 35 51 36 52 37 61 39 77 40 54 41 43 42 44 43 48 44 45 45
REMARK SMILES IDX 47 46 46 47 65 48 66 49 70 50 67 51 69 52 68 53 55 54 56 55
REMARK SMILES IDX 60 56 57 57 59 58 58 59 10 60 11 61 12 62 13 63 14 64 15 65
REMARK SMILES IDX 16 66 17 67 18 68 19 69 33 70 20 71 32 72 31 73 21 74 22 75
REMARK SMILES IDX 23 76 30 77 24 78 26 79 25 80 27 81 29 82 28 83
REMARK H PARENT 75 27 53 38
REMARK Flexibility Score: inf
ROOT
ATOM      1  O   UNL     1       7.039  -7.883 -10.783  1.00  0.00    -0.377 OA
ENDROOT
BRANCH   1   2
ATOM      2  C   UNL     1       8.184  -8.697 -10.519  1.00  0.00     0.188 C 
BRANCH   2   3
ATOM      3  C   UNL     1       8.185 -10.058 -11.219  1.00  0.00     0.188 C 
BRANCH   3   4
ATOM      4  O   UNL     1       8.318  -9.892 -12.634  1.00  0.00    -0.376 OA
BRANCH   4   5
ATOM      5  C   UNL     1       7.530 -10.782 -13.425  1.00  0.00     0.202 C 
BRANCH   5   6
ATOM      6  C   UNL     1       8.250 -12.083 -13.775  1.00  0.00     0.261 C 
BRANCH   6   7
ATOM      7  O   UNL     1       9.034 -12.565 -12.675  1.00  0.00    -0.460 OA
BRANCH   7   8
ATOM      8  C   UNL     1      10.331 -12.283 -12.395  1.00  0.00     0.338 C 
ATOM      9  O   UNL     1      10.824 -12.776 -11.381  1.00  0.00    -0.246 OA
BRANCH   8  10
ATOM     10  C   UNL     1      11.223 -11.447 -13.263  1.00  0.00     0.060 A 
ATOM     11  C   UNL     1      10.812 -10.444 -14.144  1.00  0.00     0.016 A 
ATOM     12  C   UNL     1      12.606 -11.674 -13.135  1.00  0.00     0.016 A 
ATOM     13  C   UNL     1      11.718  -9.755 -14.941  1.00  0.00     0.010 A 
ATOM     14  C   UNL     1      13.530 -10.969 -13.912  1.00  0.00     0.010 A 
ATOM     15  C   UNL     1      13.076 -10.038 -14.850  1.00  0.00    -0.014 A 
BRANCH  15  16
ATOM     16  C   UNL     1      13.961  -9.499 -15.895  1.00  0.00     0.031 A 
ATOM     17  C   UNL     1      14.333 -10.410 -17.026  1.00  0.00     0.074 A 
ATOM     18  C   UNL     1      14.290  -8.196 -15.903  1.00  0.00     0.049 A 
ATOM     19  N   UNL     1      15.104 -10.186 -18.055  1.00  0.00    -0.248 NA
ATOM     20  C   UNL     1      13.734 -11.757 -17.002  1.00  0.00     0.031 C 
ATOM     21  C   UNL     1      13.842  -7.206 -14.922  1.00  0.00     0.029 A 
ATOM     22  N   UNL     1      15.044  -7.477 -16.789  1.00  0.00    -0.354 N 
ATOM     23  C   UNL     1      15.108 -11.371 -18.780  1.00  0.00     0.074 A 
ATOM     24  C   UNL     1      14.267 -12.311 -18.077  1.00  0.00     0.031 C 
ATOM     25  C   UNL     1      14.313  -5.999 -15.277  1.00  0.00     0.029 A 
ATOM     26  C   UNL     1      15.142  -6.146 -16.469  1.00  0.00     0.049 A 
ATOM     27  H   UNL     1      15.476  -7.876 -17.579  1.00  0.00     0.167 HD
ATOM     28  C   UNL     1      15.770 -11.650 -19.926  1.00  0.00     0.031 A 
ATOM     29  C   UNL     1      15.850  -5.170 -17.067  1.00  0.00     0.031 A 
ATOM     30  C   UNL     1      16.617 -10.702 -20.592  1.00  0.00     0.049 A 
ATOM     31  C   UNL     1      16.672  -5.532 -18.274  1.00  0.00     0.074 A 
ATOM     32  C   UNL     1      17.407 -10.877 -21.711  1.00  0.00     0.029 A 
ATOM     33  N   UNL     1      16.779  -9.384 -20.183  1.00  0.00    -0.354 N 
ATOM     34  N   UNL     1      16.743  -6.678 -18.911  1.00  0.00    -0.248 NA
ATOM     35  C   UNL     1      17.523  -4.475 -18.835  1.00  0.00     0.031 C 
ATOM     36  C   UNL     1      18.084  -9.676 -21.951  1.00  0.00     0.029 A 
ATOM     37  C   UNL     1      17.673  -8.738 -21.014  1.00  0.00     0.049 A 
ATOM     38  H   UNL     1      16.323  -8.972 -19.413  1.00  0.00     0.167 HD
ATOM     39  C   UNL     1      17.636  -6.480 -19.954  1.00  0.00     0.074 A 
ATOM     40  C   UNL     1      18.064  -5.096 -19.875  1.00  0.00     0.031 C 
ATOM     41  C   UNL     1      18.071  -7.358 -20.893  1.00  0.00     0.031 A 
BRANCH  28  42
ATOM     42  C   UNL     1      15.662 -13.058 -20.437  1.00  0.00    -0.014 A 
ATOM     43  C   UNL     1      14.477 -13.549 -21.008  1.00  0.00     0.009 A 
ATOM     44  C   UNL     1      16.747 -13.932 -20.269  1.00  0.00     0.009 A 
ATOM     45  C   UNL     1      14.364 -14.899 -21.349  1.00  0.00     0.001 A 
ATOM     46  C   UNL     1      16.640 -15.275 -20.636  1.00  0.00     0.001 A 
ATOM     47  C   UNL     1      15.444 -15.761 -21.161  1.00  0.00     0.000 A 
ENDBRANCH  28  42
BRANCH  29  48
ATOM     48  C   UNL     1      15.851  -3.792 -16.507  1.00  0.00    -0.014 A 
ATOM     49  C   UNL     1      15.278  -2.724 -17.214  1.00  0.00     0.009 A 
ATOM     50  C   UNL     1      16.423  -3.537 -15.249  1.00  0.00     0.009 A 
ATOM     51  C   UNL     1      15.291  -1.432 -16.680  1.00  0.00     0.001 A 
ATOM     52  C   UNL     1      16.409  -2.251 -14.705  1.00  0.00     0.001 A 
ATOM     53  C   UNL     1      15.850  -1.198 -15.424  1.00  0.00     0.000 A 
ENDBRANCH  29  48
BRANCH  41  54
ATOM     54  C   UNL     1      19.034  -6.832 -21.915  1.00  0.00    -0.014 A 
ATOM     55  C   UNL     1      20.377  -6.591 -21.590  1.00  0.00     0.009 A 
ATOM     56  C   UNL     1      18.599  -6.628 -23.234  1.00  0.00     0.009 A 
ATOM     57  C   UNL     1      21.262  -6.130 -22.565  1.00  0.00     0.001 A 
ATOM     58  C   UNL     1      19.492  -6.193 -24.211  1.00  0.00     0.001 A 
ATOM     59  C   UNL     1      20.820  -5.937 -23.874  1.00  0.00     0.000 A 
ENDBRANCH  41  54
ENDBRANCH  15  16
ENDBRANCH   8  10
ENDBRANCH   7   8
ENDBRANCH   6   7
ENDBRANCH   5   6
ENDBRANCH   4   5
ENDBRANCH   3   4
ENDBRANCH   2   3
ENDBRANCH   1   2
BRANCH   1  60
ATOM     60  C   UNL     1       6.695  -7.702 -12.153  1.00  0.00     0.188 C 
BRANCH  60  61
ATOM     61  C   UNL     1       7.714  -7.019 -13.093  1.00  0.00     0.188 C 
BRANCH  61  62
ATOM     62  O   UNL     1       8.972  -6.707 -12.504  1.00  0.00    -0.376 OA
BRANCH  62  63
ATOM     63  C   UNL     1       9.208  -5.320 -12.263  1.00  0.00     0.202 C 
BRANCH  63  64
ATOM     64  C   UNL     1       8.495  -4.777 -11.019  1.00  0.00     0.261 C 
BRANCH  64  65
ATOM     65  O   UNL     1       7.063  -4.856 -11.084  1.00  0.00    -0.459 OA
BRANCH  65  66
ATOM     66  C   UNL     1       6.446  -4.189 -12.089  1.00  0.00     0.357 C 
ATOM     67  O   UNL     1       6.958  -3.376 -12.840  1.00  0.00    -0.244 OA
BRANCH  66  68
ATOM     68  C   UNL     1       5.066  -4.739 -12.199  1.00  0.00     0.149 A 
ATOM     69  C   UNL     1       4.328  -4.953 -11.047  1.00  0.00     0.051 A 
ATOM     70  N   UNL     1       4.626  -5.069 -13.440  1.00  0.00    -0.249 NA
ATOM     71  C   UNL     1       3.004  -5.352 -11.171  1.00  0.00     0.011 A 
ATOM     72  C   UNL     1       3.394  -5.614 -13.514  1.00  0.00     0.113 A 
ATOM     73  C   UNL     1       2.548  -5.755 -12.425  1.00  0.00     0.035 A 
BRANCH  71  74
ATOM     74  S   UNL     1       1.828  -5.249  -9.827  1.00  0.00    -0.122 SA
BRANCH  74  75
ATOM     75  C   UNL     1       2.661  -4.119  -8.633  1.00  0.00     0.057 C 
ATOM     76  C   UNL     1       3.076  -2.755  -9.214  1.00  0.00     0.043 C 
ATOM     77  C   UNL     1       1.746  -3.837  -7.435  1.00  0.00     0.050 C 
ATOM     78  C   UNL     1       3.927  -2.056  -8.167  1.00  0.00     0.162 C 
ATOM     79  C   UNL     1       2.544  -3.040  -6.393  1.00  0.00     0.069 C 
ATOM     80  O   UNL     1       3.151  -1.863  -6.993  1.00  0.00    -0.375 OA
ATOM     81  C   UNL     1       1.742  -2.708  -5.103  1.00  0.00     0.035 C 
ATOM     82  C   UNL     1       3.471  -3.905  -5.489  1.00  0.00     0.035 C 
ATOM     83  C   UNL     1       3.010  -3.048  -4.298  1.00  0.00     0.006 C 
ENDBRANCH  74  75
ENDBRANCH  71  74
ENDBRANCH  66  68
ENDBRANCH  65  66
ENDBRANCH  64  65
ENDBRANCH  63  64
ENDBRANCH  62  63
ENDBRANCH  61  62
ENDBRANCH  60  61
ENDBRANCH   1  60
TORSDOF 22
