REMARK SMILES CCOC(=O)c1ccc(NC(=O)[C@H]2CC=CC[C@@]2(C)C(=O)OCCOCCOCCOCCOC(=O)c2ccc(-c3c4nc(c(-c5ccccc5)c5ccc([nH]5)c(-c5ccccc5)c5nc(c(-c6ccccc6)c6ccc3[nH]6)C=C5)C=C4)cc2)cc1
REMARK SMILES IDX 26 1 25 2 24 3 23 4 22 5 20 6 21 7 18 8 13 9 14 10 15 11
REMARK SMILES IDX 17 12 19 13 16 14 11 15 10 16 12 18 9 19 6 20 7 21 86 22
REMARK SMILES IDX 8 23 85 24 4 25 5 26 3 27 2 28 1 29 27 30 28 31 29 32 30 33
REMARK SMILES IDX 31 34 32 35 33 36 34 37 35 38 36 39 37 40 38 41 84 42 39 43
REMARK SMILES IDX 83 44 40 45 41 46 42 47 77 48 43 49 82 50 76 51 78 52 44 53
REMARK SMILES IDX 81 54 75 55 74 56 45 58 67 59 52 60 66 61 53 62 56 63 65 64
REMARK SMILES IDX 79 65 54 66 55 67 64 69 80 70 57 71 46 72 47 73 51 74 48 75
REMARK SMILES IDX 50 76 49 77 68 78 69 79 73 80 70 81 72 82 71 83 58 84 59 85
REMARK SMILES IDX 63 86 60 87 62 88 61 89
REMARK H PARENT 10 17 78 57 56 68
REMARK Flexibility Score: inf
ROOT
ATOM      1  C   UNL     1       3.393   8.808   3.317  1.00  0.00     0.188 C 
ENDROOT
BRANCH   1   2
ATOM      2  O   UNL     1       2.495   8.723   4.414  1.00  0.00    -0.376 OA
BRANCH   2   3
ATOM      3  C   UNL     1       2.879   8.541   5.765  1.00  0.00     0.202 C 
BRANCH   3   4
ATOM      4  C   UNL     1       3.722   7.352   6.247  1.00  0.00     0.261 C 
BRANCH   4   5
ATOM      5  O   UNL     1       4.989   7.127   5.616  1.00  0.00    -0.463 OA
BRANCH   5   6
ATOM      6  C   UNL     1       4.922   6.337   4.522  1.00  0.00     0.313 C 
ATOM      7  O   UNL     1       3.858   5.960   4.042  1.00  0.00    -0.252 OA
BRANCH   6   8
ATOM      8  C   UNL     1       6.288   5.848   4.015  1.00  0.00     0.080 C 
ATOM      9  C   UNL     1       6.730   4.652   4.935  1.00  0.00     0.100 C 
ATOM     10  C   UNL     1       7.265   3.376   4.261  1.00  0.00     0.041 C 
ATOM     11  C   UNL     1       7.227   3.320   2.765  1.00  0.00    -0.030 C 
ATOM     12  C   UNL     1       6.110   5.537   2.489  1.00  0.00     0.046 C 
ATOM     13  C   UNL     1       7.413   6.920   4.102  1.00  0.00     0.025 C 
ATOM     14  C   UNL     1       6.723   4.276   1.980  1.00  0.00    -0.030 C 
BRANCH   9  15
ATOM     15  C   UNL     1       5.870   4.399   6.198  1.00  0.00     0.228 C 
ATOM     16  N   UNL     1       4.646   3.808   6.267  1.00  0.00    -0.326 N 
ATOM     17  H   UNL     1       4.267   3.838   7.175  1.00  0.00     0.169 HD
ATOM     18  O   UNL     1       6.312   4.802   7.287  1.00  0.00    -0.274 OA
BRANCH  16  19
ATOM     19  C   UNL     1       3.795   3.167   5.355  1.00  0.00     0.041 A 
ATOM     20  C   UNL     1       2.270   1.548   3.663  1.00  0.00     0.060 A 
ATOM     21  C   UNL     1       3.320   2.284   3.146  1.00  0.00     0.018 A 
ATOM     22  C   UNL     1       1.879   1.707   4.993  1.00  0.00     0.018 A 
ATOM     23  C   UNL     1       4.055   3.086   4.000  1.00  0.00     0.027 A 
ATOM     24  C   UNL     1       2.644   2.529   5.837  1.00  0.00     0.027 A 
BRANCH  20  25
ATOM     25  C   UNL     1       1.791   0.456   2.817  1.00  0.00     0.338 C 
ATOM     26  O   UNL     1       2.529  -0.458   2.481  1.00  0.00    -0.246 OA
BRANCH  25  27
ATOM     27  O   UNL     1       0.534   0.694   2.386  1.00  0.00    -0.462 OA
BRANCH  27  28
ATOM     28  C   UNL     1       0.095  -0.249   1.398  1.00  0.00     0.230 C 
ATOM     29  C   UNL     1       0.653   0.104   0.028  1.00  0.00     0.049 C 
ENDBRANCH  27  28
ENDBRANCH  25  27
ENDBRANCH  20  25
ENDBRANCH  16  19
ENDBRANCH   9  15
ENDBRANCH   6   8
ENDBRANCH   5   6
ENDBRANCH   4   5
ENDBRANCH   3   4
ENDBRANCH   2   3
ENDBRANCH   1   2
BRANCH   1  30
ATOM     30  C   UNL     1       4.863   9.231   3.451  1.00  0.00     0.188 C 
BRANCH  30  31
ATOM     31  O   UNL     1       5.301   9.550   4.753  1.00  0.00    -0.377 OA
BRANCH  31  32
ATOM     32  C   UNL     1       5.131  10.883   5.212  1.00  0.00     0.188 C 
BRANCH  32  33
ATOM     33  C   UNL     1       4.002  11.734   4.602  1.00  0.00     0.188 C 
BRANCH  33  34
ATOM     34  O   UNL     1       3.951  11.700   3.183  1.00  0.00    -0.376 OA
BRANCH  34  35
ATOM     35  C   UNL     1       4.625  12.703   2.439  1.00  0.00     0.202 C 
BRANCH  35  36
ATOM     36  C   UNL     1       6.157  12.777   2.553  1.00  0.00     0.261 C 
BRANCH  36  37
ATOM     37  O   UNL     1       6.694  13.046   3.858  1.00  0.00    -0.460 OA
BRANCH  37  38
ATOM     38  C   UNL     1       6.239  14.118   4.529  1.00  0.00     0.338 C 
ATOM     39  O   UNL     1       5.471  14.979   4.118  1.00  0.00    -0.246 OA
BRANCH  38  40
ATOM     40  C   UNL     1       6.655  13.990   5.939  1.00  0.00     0.060 A 
ATOM     41  C   UNL     1       5.673  14.024   6.938  1.00  0.00     0.016 A 
ATOM     42  C   UNL     1       8.005  13.857   6.276  1.00  0.00     0.016 A 
ATOM     43  C   UNL     1       6.042  13.993   8.280  1.00  0.00     0.010 A 
ATOM     44  C   UNL     1       8.376  13.852   7.623  1.00  0.00     0.010 A 
ATOM     45  C   UNL     1       7.398  13.975   8.626  1.00  0.00    -0.014 A 
BRANCH  45  46
ATOM     46  C   UNL     1       7.791  14.355  10.003  1.00  0.00     0.031 A 
ATOM     47  C   UNL     1       8.161  15.792  10.256  1.00  0.00     0.074 A 
ATOM     48  C   UNL     1       7.768  13.472  11.016  1.00  0.00     0.049 A 
ATOM     49  N   UNL     1       8.544  16.371  11.365  1.00  0.00    -0.248 NA
ATOM     50  C   UNL     1       8.087  16.700   9.098  1.00  0.00     0.031 C 
ATOM     51  C   UNL     1       7.370  12.070  10.912  1.00  0.00     0.029 A 
ATOM     52  N   UNL     1       8.089  13.637  12.339  1.00  0.00    -0.354 N 
ATOM     53  C   UNL     1       8.762  17.704  11.035  1.00  0.00     0.074 A 
ATOM     54  C   UNL     1       8.504  17.842   9.620  1.00  0.00     0.031 C 
ATOM     55  C   UNL     1       7.474  11.499  12.126  1.00  0.00     0.029 A 
ATOM     56  C   UNL     1       7.978  12.487  13.080  1.00  0.00     0.049 A 
ATOM     57  H   UNL     1       8.373  14.499  12.722  1.00  0.00     0.167 HD
ATOM     58  C   UNL     1       9.138  18.726  11.839  1.00  0.00     0.031 A 
ATOM     59  C   UNL     1       8.267  12.258  14.376  1.00  0.00     0.031 A 
ATOM     60  C   UNL     1       9.413  18.586  13.242  1.00  0.00     0.049 A 
ATOM     61  C   UNL     1       8.773  13.392  15.230  1.00  0.00     0.074 A 
ATOM     62  C   UNL     1       9.801  19.559  14.146  1.00  0.00     0.029 A 
ATOM     63  N   UNL     1       9.338  17.392  13.943  1.00  0.00    -0.354 N 
ATOM     64  N   UNL     1       8.960  14.651  14.913  1.00  0.00    -0.248 NA
ATOM     65  C   UNL     1       9.095  13.072  16.629  1.00  0.00     0.031 C 
ATOM     66  C   UNL     1      10.020  18.941  15.382  1.00  0.00     0.029 A 
ATOM     67  C   UNL     1       9.698  17.599  15.264  1.00  0.00     0.049 A 
ATOM     68  H   UNL     1       9.069  16.527  13.559  1.00  0.00     0.167 HD
ATOM     69  C   UNL     1       9.386  15.278  16.079  1.00  0.00     0.074 A 
ATOM     70  C   UNL     1       9.414  14.264  17.112  1.00  0.00     0.031 C 
ATOM     71  C   UNL     1       9.718  16.578  16.280  1.00  0.00     0.031 A 
BRANCH  58  72
ATOM     72  C   UNL     1       9.313  20.076  11.201  1.00  0.00    -0.014 A 
ATOM     73  C   UNL     1       8.214  20.815  10.733  1.00  0.00     0.009 A 
ATOM     74  C   UNL     1      10.600  20.624  11.080  1.00  0.00     0.009 A 
ATOM     75  C   UNL     1       8.405  22.058  10.126  1.00  0.00     0.001 A 
ATOM     76  C   UNL     1      10.784  21.881  10.502  1.00  0.00     0.001 A 
ATOM     77  C   UNL     1       9.689  22.593  10.017  1.00  0.00     0.000 A 
ENDBRANCH  58  72
BRANCH  59  78
ATOM     78  C   UNL     1       8.107  10.895  14.950  1.00  0.00    -0.014 A 
ATOM     79  C   UNL     1       7.135  10.636  15.929  1.00  0.00     0.009 A 
ATOM     80  C   UNL     1       8.953   9.850  14.544  1.00  0.00     0.009 A 
ATOM     81  C   UNL     1       7.035   9.370  16.511  1.00  0.00     0.001 A 
ATOM     82  C   UNL     1       8.828   8.577  15.104  1.00  0.00     0.001 A 
ATOM     83  C   UNL     1       7.878   8.341  16.095  1.00  0.00     0.000 A 
ENDBRANCH  59  78
BRANCH  71  84
ATOM     84  C   UNL     1      10.089  16.989  17.679  1.00  0.00    -0.014 A 
ATOM     85  C   UNL     1      11.290  16.575  18.276  1.00  0.00     0.009 A 
ATOM     86  C   UNL     1       9.232  17.838  18.398  1.00  0.00     0.009 A 
ATOM     87  C   UNL     1      11.603  16.967  19.579  1.00  0.00     0.001 A 
ATOM     88  C   UNL     1       9.564  18.258  19.687  1.00  0.00     0.001 A 
ATOM     89  C   UNL     1      10.743  17.812  20.281  1.00  0.00     0.000 A 
ENDBRANCH  71  84
ENDBRANCH  45  46
ENDBRANCH  38  40
ENDBRANCH  37  38
ENDBRANCH  36  37
ENDBRANCH  35  36
ENDBRANCH  34  35
ENDBRANCH  33  34
ENDBRANCH  32  33
ENDBRANCH  31  32
ENDBRANCH  30  31
ENDBRANCH   1  30
TORSDOF 25
